MODEL 1
REMARK VINA RESULT:    -5.172      0.000      0.000
REMARK INTER + INTRA:          -5.172
REMARK INTER:                  -5.172
REMARK INTRA:                   0.000
REMARK UNBOUND:                 0.000
REMARK SMILES C=C1CCC[C@]2(C)CC(=O)C(=C(C)C)C[C@H]12
REMARK SMILES IDX 13 1 12 2 11 3 15 4 16 5 2 6 1 7 3 8 4 9 5 10 6 11 8 12 9 13
REMARK SMILES IDX 10 14 7 15 14 16
REMARK H PARENT
REMARK Flexibility Score: inf
ROOT
ATOM      1  C   UNL     1      35.835  11.301 108.062  1.00  0.00     0.039 C 
ATOM      2  C   UNL     1      35.858  11.377 106.553  1.00  0.00    -0.070 C 
ATOM      3  C   UNL     1      36.999  11.693 105.878  1.00  0.00    -0.006 C 
ATOM      4  C   UNL     1      38.303  11.991 106.591  1.00  0.00     0.047 C 
ATOM      5  C   UNL     1      39.555  11.516 105.809  1.00  0.00     0.025 C 
ATOM      6  C   UNL     1      40.795  12.075 106.489  1.00  0.00    -0.073 C 
ATOM      7  C   UNL     1      41.503  11.319 107.343  1.00  0.00     0.008 C 
ATOM      8  C   UNL     1      41.123  13.541 106.312  1.00  0.00     0.031 C 
ATOM      9  C   UNL     1      41.026  13.969 104.840  1.00  0.00     0.005 C 
ATOM     10  C   UNL     1      39.744  13.460 104.157  1.00  0.00     0.008 C 
ATOM     11  C   UNL     1      39.551  11.921 104.300  1.00  0.00    -0.018 C 
ATOM     12  C   UNL     1      38.221  11.485 103.629  1.00  0.00     0.088 C 
ATOM     13  C   UNL     1      37.018  11.904 104.412  1.00  0.00     0.159 C 
ATOM     14  O   UNL     1      36.042  12.430 103.812  1.00  0.00    -0.295 OA
ATOM     15  C   UNL     1      40.692  11.177 103.556  1.00  0.00     0.012 C 
ATOM     16  C   UNL     1      34.575  11.049 105.825  1.00  0.00     0.039 C 
ENDROOT
TORSDOF 0
ENDMDL
MODEL 2
REMARK VINA RESULT:    -4.989      3.090      5.221
REMARK INTER + INTRA:          -4.989
REMARK INTER:                  -4.989
REMARK INTRA:                   0.000
REMARK UNBOUND:                 0.000
REMARK SMILES C=C1CCC[C@]2(C)CC(=O)C(=C(C)C)C[C@H]12
REMARK SMILES IDX 13 1 12 2 11 3 15 4 16 5 2 6 1 7 3 8 4 9 5 10 6 11 8 12 9 13
REMARK SMILES IDX 10 14 7 15 14 16
REMARK H PARENT
REMARK Flexibility Score: inf
ROOT
ATOM      1  C   UNL     1      31.342   9.080 105.487  1.00  0.00     0.039 C 
ATOM      2  C   UNL     1      32.465   8.883 106.478  1.00  0.00    -0.070 C 
ATOM      3  C   UNL     1      33.607   9.626 106.411  1.00  0.00    -0.006 C 
ATOM      4  C   UNL     1      33.820  10.683 105.346  1.00  0.00     0.047 C 
ATOM      5  C   UNL     1      34.639  11.902 105.845  1.00  0.00     0.025 C 
ATOM      6  C   UNL     1      34.996  12.771 104.649  1.00  0.00    -0.073 C 
ATOM      7  C   UNL     1      34.265  13.857 104.353  1.00  0.00     0.008 C 
ATOM      8  C   UNL     1      36.087  12.302 103.710  1.00  0.00     0.031 C 
ATOM      9  C   UNL     1      37.331  11.831 104.477  1.00  0.00     0.005 C 
ATOM     10  C   UNL     1      36.985  10.901 105.654  1.00  0.00     0.008 C 
ATOM     11  C   UNL     1      35.936  11.518 106.627  1.00  0.00    -0.018 C 
ATOM     12  C   UNL     1      35.604  10.512 107.760  1.00  0.00     0.088 C 
ATOM     13  C   UNL     1      34.773   9.363 107.284  1.00  0.00     0.159 C 
ATOM     14  O   UNL     1      35.082   8.191 107.633  1.00  0.00    -0.295 OA
ATOM     15  C   UNL     1      36.529  12.780 107.308  1.00  0.00     0.012 C 
ATOM     16  C   UNL     1      32.254   7.857 107.567  1.00  0.00     0.039 C 
ENDROOT
TORSDOF 0
ENDMDL
MODEL 3
REMARK VINA RESULT:    -4.812      1.573      4.798
REMARK INTER + INTRA:          -4.812
REMARK INTER:                  -4.812
REMARK INTRA:                   0.000
REMARK UNBOUND:                 0.000
REMARK SMILES C=C1CCC[C@]2(C)CC(=O)C(=C(C)C)C[C@H]12
REMARK SMILES IDX 13 1 12 2 11 3 15 4 16 5 2 6 1 7 3 8 4 9 5 10 6 11 8 12 9 13
REMARK SMILES IDX 10 14 7 15 14 16
REMARK H PARENT
REMARK Flexibility Score: inf
ROOT
ATOM      1  C   UNL     1      41.370  11.125 107.355  1.00  0.00     0.039 C 
ATOM      2  C   UNL     1      40.910  12.066 106.266  1.00  0.00    -0.070 C 
ATOM      3  C   UNL     1      39.585  12.258 106.009  1.00  0.00    -0.006 C 
ATOM      4  C   UNL     1      38.500  11.543 106.789  1.00  0.00     0.047 C 
ATOM      5  C   UNL     1      37.221  12.397 106.989  1.00  0.00     0.025 C 
ATOM      6  C   UNL     1      36.127  11.510 107.561  1.00  0.00    -0.073 C 
ATOM      7  C   UNL     1      35.876  11.501 108.879  1.00  0.00     0.008 C 
ATOM      8  C   UNL     1      35.438  10.523 106.643  1.00  0.00     0.031 C 
ATOM      9  C   UNL     1      35.021  11.177 105.318  1.00  0.00     0.005 C 
ATOM     10  C   UNL     1      36.143  12.031 104.699  1.00  0.00     0.008 C 
ATOM     11  C   UNL     1      36.712  13.093 105.686  1.00  0.00    -0.018 C 
ATOM     12  C   UNL     1      37.865  13.883 105.012  1.00  0.00     0.088 C 
ATOM     13  C   UNL     1      39.111  13.069 104.864  1.00  0.00     0.159 C 
ATOM     14  O   UNL     1      39.735  13.088 103.769  1.00  0.00    -0.295 OA
ATOM     15  C   UNL     1      35.609  14.125 106.041  1.00  0.00     0.012 C 
ATOM     16  C   UNL     1      41.979  12.813 105.502  1.00  0.00     0.039 C 
ENDROOT
TORSDOF 0
ENDMDL
MODEL 4
REMARK VINA RESULT:    -4.318      1.925      4.582
REMARK INTER + INTRA:          -4.318
REMARK INTER:                  -4.318
REMARK INTRA:                   0.000
REMARK UNBOUND:                 0.000
REMARK SMILES C=C1CCC[C@]2(C)CC(=O)C(=C(C)C)C[C@H]12
REMARK SMILES IDX 13 1 12 2 11 3 15 4 16 5 2 6 1 7 3 8 4 9 5 10 6 11 8 12 9 13
REMARK SMILES IDX 10 14 7 15 14 16
REMARK H PARENT
REMARK Flexibility Score: inf
ROOT
ATOM      1  C   UNL     1      41.985  11.020 108.272  1.00  0.00     0.039 C 
ATOM      2  C   UNL     1      41.933  11.107 106.765  1.00  0.00    -0.070 C 
ATOM      3  C   UNL     1      40.802  11.508 106.117  1.00  0.00    -0.006 C 
ATOM      4  C   UNL     1      39.536  11.882 106.861  1.00  0.00     0.047 C 
ATOM      5  C   UNL     1      38.732  13.018 106.176  1.00  0.00     0.025 C 
ATOM      6  C   UNL     1      37.382  13.142 106.863  1.00  0.00    -0.073 C 
ATOM      7  C   UNL     1      37.179  14.076 107.805  1.00  0.00     0.008 C 
ATOM      8  C   UNL     1      36.324  12.096 106.582  1.00  0.00     0.031 C 
ATOM      9  C   UNL     1      36.187  11.819 105.078  1.00  0.00     0.005 C 
ATOM     10  C   UNL     1      37.548  11.632 104.383  1.00  0.00     0.008 C 
ATOM     11  C   UNL     1      38.529  12.814 104.641  1.00  0.00    -0.018 C 
ATOM     12  C   UNL     1      39.890  12.538 103.949  1.00  0.00     0.088 C 
ATOM     13  C   UNL     1      40.682  11.475 104.641  1.00  0.00     0.159 C 
ATOM     14  O   UNL     1      41.232  10.569 103.958  1.00  0.00    -0.295 OA
ATOM     15  C   UNL     1      37.962  14.114 104.011  1.00  0.00     0.012 C 
ATOM     16  C   UNL     1      43.198  10.770 106.009  1.00  0.00     0.039 C 
ENDROOT
TORSDOF 0
ENDMDL
MODEL 5
REMARK VINA RESULT:    -4.095      2.731      4.638
REMARK INTER + INTRA:          -4.095
REMARK INTER:                  -4.095
REMARK INTRA:                   0.000
REMARK UNBOUND:                 0.000
REMARK SMILES C=C1CCC[C@]2(C)CC(=O)C(=C(C)C)C[C@H]12
REMARK SMILES IDX 13 1 12 2 11 3 15 4 16 5 2 6 1 7 3 8 4 9 5 10 6 11 8 12 9 13
REMARK SMILES IDX 10 14 7 15 14 16
REMARK H PARENT
REMARK Flexibility Score: inf
ROOT
ATOM      1  C   UNL     1      31.615  13.810 104.867  1.00  0.00     0.039 C 
ATOM      2  C   UNL     1      31.828  12.336 105.121  1.00  0.00    -0.070 C 
ATOM      3  C   UNL     1      33.069  11.834 105.383  1.00  0.00    -0.006 C 
ATOM      4  C   UNL     1      34.301  12.715 105.430  1.00  0.00     0.047 C 
ATOM      5  C   UNL     1      35.349  12.249 106.475  1.00  0.00     0.025 C 
ATOM      6  C   UNL     1      36.628  13.047 106.269  1.00  0.00    -0.073 C 
ATOM      7  C   UNL     1      36.894  14.118 107.033  1.00  0.00     0.008 C 
ATOM      8  C   UNL     1      37.514  12.709 105.089  1.00  0.00     0.031 C 
ATOM      9  C   UNL     1      37.748  11.196 104.972  1.00  0.00     0.005 C 
ATOM     10  C   UNL     1      36.450  10.381 105.118  1.00  0.00     0.008 C 
ATOM     11  C   UNL     1      35.664  10.720 106.420  1.00  0.00    -0.018 C 
ATOM     12  C   UNL     1      34.350   9.898 106.478  1.00  0.00     0.088 C 
ATOM     13  C   UNL     1      33.324  10.381 105.503  1.00  0.00     0.159 C 
ATOM     14  O   UNL     1      32.697   9.543 104.799  1.00  0.00    -0.295 OA
ATOM     15  C   UNL     1      36.503  10.314 107.661  1.00  0.00     0.012 C 
ATOM     16  C   UNL     1      30.604  11.449 105.110  1.00  0.00     0.039 C 
ENDROOT
TORSDOF 0
ENDMDL
MODEL 6
REMARK VINA RESULT:    -3.995      1.356      1.900
REMARK INTER + INTRA:          -3.995
REMARK INTER:                  -3.995
REMARK INTRA:                   0.000
REMARK UNBOUND:                 0.000
REMARK SMILES C=C1CCC[C@]2(C)CC(=O)C(=C(C)C)C[C@H]12
REMARK SMILES IDX 13 1 12 2 11 3 15 4 16 5 2 6 1 7 3 8 4 9 5 10 6 11 8 12 9 13
REMARK SMILES IDX 10 14 7 15 14 16
REMARK H PARENT
REMARK Flexibility Score: inf
ROOT
ATOM      1  C   UNL     1      35.785   9.339 106.268  1.00  0.00     0.039 C 
ATOM      2  C   UNL     1      35.566  10.781 105.872  1.00  0.00    -0.070 C 
ATOM      3  C   UNL     1      36.615  11.638 105.714  1.00  0.00    -0.006 C 
ATOM      4  C   UNL     1      38.051  11.204 105.927  1.00  0.00     0.047 C 
ATOM      5  C   UNL     1      39.054  11.910 104.978  1.00  0.00     0.025 C 
ATOM      6  C   UNL     1      40.468  11.588 105.437  1.00  0.00    -0.073 C 
ATOM      7  C   UNL     1      41.171  10.611 104.844  1.00  0.00     0.008 C 
ATOM      8  C   UNL     1      41.006  12.277 106.672  1.00  0.00     0.031 C 
ATOM      9  C   UNL     1      40.737  13.788 106.641  1.00  0.00     0.005 C 
ATOM     10  C   UNL     1      39.290  14.125 106.236  1.00  0.00     0.008 C 
ATOM     11  C   UNL     1      38.865  13.459 104.893  1.00  0.00    -0.018 C 
ATOM     12  C   UNL     1      37.387  13.803 104.571  1.00  0.00     0.088 C 
ATOM     13  C   UNL     1      36.421  13.084 105.458  1.00  0.00     0.159 C 
ATOM     14  O   UNL     1      35.462  13.720 105.972  1.00  0.00    -0.295 OA
ATOM     15  C   UNL     1      39.721  14.027 103.730  1.00  0.00     0.012 C 
ATOM     16  C   UNL     1      34.142  11.221 105.622  1.00  0.00     0.039 C 
ENDROOT
TORSDOF 0
ENDMDL
MODEL 7
REMARK VINA RESULT:    -3.972      1.890      5.072
REMARK INTER + INTRA:          -3.972
REMARK INTER:                  -3.972
REMARK INTRA:                   0.000
REMARK UNBOUND:                 0.000
REMARK SMILES C=C1CCC[C@]2(C)CC(=O)C(=C(C)C)C[C@H]12
REMARK SMILES IDX 13 1 12 2 11 3 15 4 16 5 2 6 1 7 3 8 4 9 5 10 6 11 8 12 9 13
REMARK SMILES IDX 10 14 7 15 14 16
REMARK H PARENT
REMARK Flexibility Score: inf
ROOT
ATOM      1  C   UNL     1      40.280  10.469 102.917  1.00  0.00     0.039 C 
ATOM      2  C   UNL     1      40.473  11.544 103.961  1.00  0.00    -0.070 C 
ATOM      3  C   UNL     1      39.420  12.032 104.678  1.00  0.00    -0.006 C 
ATOM      4  C   UNL     1      38.003  11.535 104.471  1.00  0.00     0.047 C 
ATOM      5  C   UNL     1      37.163  11.512 105.774  1.00  0.00     0.025 C 
ATOM      6  C   UNL     1      35.712  11.236 105.412  1.00  0.00    -0.073 C 
ATOM      7  C   UNL     1      35.210   9.995 105.510  1.00  0.00     0.008 C 
ATOM      8  C   UNL     1      34.893  12.346 104.791  1.00  0.00     0.031 C 
ATOM      9  C   UNL     1      35.059  13.668 105.556  1.00  0.00     0.005 C 
ATOM     10  C   UNL     1      36.530  13.988 105.875  1.00  0.00     0.008 C 
ATOM     11  C   UNL     1      37.258  12.826 106.614  1.00  0.00    -0.018 C 
ATOM     12  C   UNL     1      38.744  13.199 106.862  1.00  0.00     0.088 C 
ATOM     13  C   UNL     1      39.561  13.174 105.610  1.00  0.00     0.159 C 
ATOM     14  O   UNL     1      40.353  14.125 105.369  1.00  0.00    -0.295 OA
ATOM     15  C   UNL     1      36.613  12.603 108.007  1.00  0.00     0.012 C 
ATOM     16  C   UNL     1      41.884  12.025 104.205  1.00  0.00     0.039 C 
ENDROOT
TORSDOF 0
ENDMDL
MODEL 8
REMARK VINA RESULT:    -3.723      2.778      4.258
REMARK INTER + INTRA:          -3.723
REMARK INTER:                  -3.723
REMARK INTRA:                   0.000
REMARK UNBOUND:                 0.000
REMARK SMILES C=C1CCC[C@]2(C)CC(=O)C(=C(C)C)C[C@H]12
REMARK SMILES IDX 13 1 12 2 11 3 15 4 16 5 2 6 1 7 3 8 4 9 5 10 6 11 8 12 9 13
REMARK SMILES IDX 10 14 7 15 14 16
REMARK H PARENT
REMARK Flexibility Score: inf
ROOT
ATOM      1  C   UNL     1      32.735   8.891 106.010  1.00  0.00     0.039 C 
ATOM      2  C   UNL     1      32.361  10.268 105.513  1.00  0.00    -0.070 C 
ATOM      3  C   UNL     1      33.292  11.260 105.409  1.00  0.00    -0.006 C 
ATOM      4  C   UNL     1      34.744  11.046 105.787  1.00  0.00     0.047 C 
ATOM      5  C   UNL     1      35.734  11.848 104.902  1.00  0.00     0.025 C 
ATOM      6  C   UNL     1      37.122  11.752 105.515  1.00  0.00    -0.073 C 
ATOM      7  C   UNL     1      38.012  10.861 105.051  1.00  0.00     0.008 C 
ATOM      8  C   UNL     1      37.427  12.563 106.756  1.00  0.00     0.031 C 
ATOM      9  C   UNL     1      36.956  14.017 106.611  1.00  0.00     0.005 C 
ATOM     10  C   UNL     1      35.527  14.125 106.047  1.00  0.00     0.008 C 
ATOM     11  C   UNL     1      35.342  13.348 104.710  1.00  0.00    -0.018 C 
ATOM     12  C   UNL     1      33.873  13.462 104.225  1.00  0.00     0.088 C 
ATOM     13  C   UNL     1      32.928  12.650 105.053  1.00  0.00     0.159 C 
ATOM     14  O   UNL     1      31.842  13.163 105.433  1.00  0.00    -0.295 OA
ATOM     15  C   UNL     1      36.229  13.982 103.606  1.00  0.00     0.012 C 
ATOM     16  C   UNL     1      30.924  10.488 105.099  1.00  0.00     0.039 C 
ENDROOT
TORSDOF 0
ENDMDL
MODEL 9
REMARK VINA RESULT:    -3.404      2.538      3.719
REMARK INTER + INTRA:          -3.404
REMARK INTER:                  -3.404
REMARK INTRA:                   0.000
REMARK UNBOUND:                 0.000
REMARK SMILES C=C1CCC[C@]2(C)CC(=O)C(=C(C)C)C[C@H]12
REMARK SMILES IDX 13 1 12 2 11 3 15 4 16 5 2 6 1 7 3 8 4 9 5 10 6 11 8 12 9 13
REMARK SMILES IDX 10 14 7 15 14 16
REMARK H PARENT
REMARK Flexibility Score: inf
ROOT
ATOM      1  C   UNL     1      33.995   8.213 108.123  1.00  0.00     0.039 C 
ATOM      2  C   UNL     1      33.485   8.990 106.932  1.00  0.00    -0.070 C 
ATOM      3  C   UNL     1      34.162  10.071 106.449  1.00  0.00    -0.006 C 
ATOM      4  C   UNL     1      35.454  10.559 107.074  1.00  0.00     0.047 C 
ATOM      5  C   UNL     1      36.454  11.145 106.043  1.00  0.00     0.025 C 
ATOM      6  C   UNL     1      37.592  11.816 106.795  1.00  0.00    -0.073 C 
ATOM      7  C   UNL     1      38.752  11.171 106.994  1.00  0.00     0.008 C 
ATOM      8  C   UNL     1      37.338  13.156 107.453  1.00  0.00     0.031 C 
ATOM      9  C   UNL     1      36.619  14.125 106.503  1.00  0.00     0.005 C 
ATOM     10  C   UNL     1      35.426  13.472 105.780  1.00  0.00     0.008 C 
ATOM     11  C   UNL     1      35.812  12.156 105.041  1.00  0.00    -0.018 C 
ATOM     12  C   UNL     1      34.557  11.532 104.375  1.00  0.00     0.088 C 
ATOM     13  C   UNL     1      33.618  10.927 105.370  1.00  0.00     0.159 C 
ATOM     14  O   UNL     1      32.383  11.156 105.273  1.00  0.00    -0.295 OA
ATOM     15  C   UNL     1      36.816  12.470 103.899  1.00  0.00     0.012 C 
ATOM     16  C   UNL     1      32.217   8.496 106.275  1.00  0.00     0.039 C 
ENDROOT
TORSDOF 0
ENDMDL
