MODEL 1
REMARK VINA RESULT:    -0.657      0.000      0.000
REMARK INTER + INTRA:          -0.676
REMARK INTER:                  -0.676
REMARK INTRA:                   0.000
REMARK UNBOUND:                 0.000
REMARK SMILES Oc1ccc2[nH]ccc2c1
REMARK SMILES IDX 3 1 4 2 5 3 9 4 8 5 7 6 6 7 10 8 2 9 1 11
REMARK H PARENT 6 10 1 12
REMARK Flexibility Score: inf
ROOT
ATOM      1  C   UNL     1      39.829  -1.541  22.577  1.00  0.00     0.048 A 
ATOM      2  C   UNL     1      40.622  -2.644  22.212  1.00  0.00     0.030 A 
ATOM      3  C   UNL     1      41.857  -2.793  22.839  1.00  0.00     0.046 A 
ATOM      4  C   UNL     1      42.297  -1.903  23.783  1.00  0.00     0.003 A 
ATOM      5  C   UNL     1      43.539  -2.328  24.204  1.00  0.00     0.028 A 
ATOM      6  C   UNL     1      43.792  -3.485  23.474  1.00  0.00     0.083 A 
ATOM      7  N   UNL     1      42.762  -3.765  22.643  1.00  0.00    -0.361 N 
ATOM      8  C   UNL     1      41.537  -0.800  24.167  1.00  0.00     0.056 A 
ATOM      9  C   UNL     1      40.280  -0.620  23.550  1.00  0.00     0.116 A 
ATOM     10  H   UNL     1      42.690  -4.573  21.984  1.00  0.00     0.166 HD
ENDROOT
BRANCH   9  11
ATOM     11  O   UNL     1      39.475   0.464  23.893  1.00  0.00    -0.508 OA
ATOM     12  H   UNL     1      38.528   0.332  24.230  1.00  0.00     0.293 HD
ENDBRANCH   9  11
TORSDOF 1
ENDMDL
MODEL 2
REMARK VINA RESULT:    -0.468      2.477      3.759
REMARK INTER + INTRA:          -0.481
REMARK INTER:                  -0.481
REMARK INTRA:                   0.000
REMARK UNBOUND:                 0.000
REMARK SMILES Oc1ccc2[nH]ccc2c1
REMARK SMILES IDX 3 1 4 2 5 3 9 4 8 5 7 6 6 7 10 8 2 9 1 11
REMARK H PARENT 6 10 1 12
REMARK Flexibility Score: inf
ROOT
ATOM      1  C   UNL     1      43.581  -2.029  23.388  1.00  0.00     0.048 A 
ATOM      2  C   UNL     1      42.390  -2.384  24.048  1.00  0.00     0.030 A 
ATOM      3  C   UNL     1      41.198  -2.290  23.333  1.00  0.00     0.046 A 
ATOM      4  C   UNL     1      41.171  -1.869  22.030  1.00  0.00     0.003 A 
ATOM      5  C   UNL     1      39.856  -1.889  21.617  1.00  0.00     0.028 A 
ATOM      6  C   UNL     1      39.136  -2.333  22.722  1.00  0.00     0.083 A 
ATOM      7  N   UNL     1      39.960  -2.578  23.767  1.00  0.00    -0.361 N 
ATOM      8  C   UNL     1      42.331  -1.509  21.347  1.00  0.00     0.056 A 
ATOM      9  C   UNL     1      43.556  -1.593  22.043  1.00  0.00     0.116 A 
ATOM     10  H   UNL     1      39.685  -2.919  24.715  1.00  0.00     0.166 HD
ENDROOT
BRANCH   9  11
ATOM     11  O   UNL     1      44.750  -1.248  21.413  1.00  0.00    -0.508 OA
ATOM     12  H   UNL     1      45.176  -1.853  20.720  1.00  0.00     0.293 HD
ENDBRANCH   9  11
TORSDOF 1
ENDMDL
MODEL 3
REMARK VINA RESULT:    -0.430      6.948      8.092
REMARK INTER + INTRA:          -0.442
REMARK INTER:                  -0.442
REMARK INTRA:                   0.000
REMARK UNBOUND:                 0.000
REMARK SMILES Oc1ccc2[nH]ccc2c1
REMARK SMILES IDX 3 1 4 2 5 3 9 4 8 5 7 6 6 7 10 8 2 9 1 11
REMARK H PARENT 6 10 1 12
REMARK Flexibility Score: inf
ROOT
ATOM      1  C   UNL     1      48.524  -1.230  21.738  1.00  0.00     0.048 A 
ATOM      2  C   UNL     1      49.595  -1.423  20.847  1.00  0.00     0.030 A 
ATOM      3  C   UNL     1      49.323  -1.362  19.481  1.00  0.00     0.046 A 
ATOM      4  C   UNL     1      48.060  -1.122  19.008  1.00  0.00     0.003 A 
ATOM      5  C   UNL     1      48.128  -1.124  17.632  1.00  0.00     0.028 A 
ATOM      6  C   UNL     1      49.464  -1.371  17.335  1.00  0.00     0.083 A 
ATOM      7  N   UNL     1      50.190  -1.516  18.467  1.00  0.00    -0.361 N 
ATOM      8  C   UNL     1      46.978  -0.926  19.864  1.00  0.00     0.056 A 
ATOM      9  C   UNL     1      47.219  -0.982  21.253  1.00  0.00     0.116 A 
ATOM     10  H   UNL     1      51.215  -1.708  18.535  1.00  0.00     0.166 HD
ENDROOT
BRANCH   9  11
ATOM     11  O   UNL     1      46.177  -0.793  22.158  1.00  0.00    -0.508 OA
ATOM     12  H   UNL     1      45.359  -1.393  22.156  1.00  0.00     0.293 HD
ENDBRANCH   9  11
TORSDOF 1
ENDMDL
MODEL 4
REMARK VINA RESULT:    -0.396      2.638      4.097
REMARK INTER + INTRA:          -0.408
REMARK INTER:                  -0.408
REMARK INTRA:                   0.000
REMARK UNBOUND:                 0.000
REMARK SMILES Oc1ccc2[nH]ccc2c1
REMARK SMILES IDX 3 1 4 2 5 3 9 4 8 5 7 6 6 7 10 8 2 9 1 11
REMARK H PARENT 6 10 1 12
REMARK Flexibility Score: inf
ROOT
ATOM      1  C   UNL     1      43.604  -2.649  24.301  1.00  0.00     0.048 A 
ATOM      2  C   UNL     1      42.768  -1.533  24.490  1.00  0.00     0.030 A 
ATOM      3  C   UNL     1      41.607  -1.454  23.724  1.00  0.00     0.046 A 
ATOM      4  C   UNL     1      41.277  -2.423  22.814  1.00  0.00     0.003 A 
ATOM      5  C   UNL     1      40.085  -2.052  22.230  1.00  0.00     0.028 A 
ATOM      6  C   UNL     1      39.746  -0.845  22.833  1.00  0.00     0.083 A 
ATOM      7  N   UNL     1      40.678  -0.484  23.745  1.00  0.00    -0.361 N 
ATOM      8  C   UNL     1      42.083  -3.540  22.602  1.00  0.00     0.056 A 
ATOM      9  C   UNL     1      43.266  -3.651  23.363  1.00  0.00     0.116 A 
ATOM     10  H   UNL     1      40.673   0.374  24.341  1.00  0.00     0.166 HD
ENDROOT
BRANCH   9  11
ATOM     11  O   UNL     1      44.112  -4.746  23.196  1.00  0.00    -0.508 OA
ATOM     12  H   UNL     1      45.120  -4.645  23.226  1.00  0.00     0.293 HD
ENDBRANCH   9  11
TORSDOF 1
ENDMDL
MODEL 5
REMARK VINA RESULT:    -0.396      1.840      1.961
REMARK INTER + INTRA:          -0.408
REMARK INTER:                  -0.408
REMARK INTRA:                   0.000
REMARK UNBOUND:                 0.000
REMARK SMILES Oc1ccc2[nH]ccc2c1
REMARK SMILES IDX 3 1 4 2 5 3 9 4 8 5 7 6 6 7 10 8 2 9 1 11
REMARK H PARENT 6 10 1 12
REMARK Flexibility Score: inf
ROOT
ATOM      1  C   UNL     1      39.698  -1.957  21.672  1.00  0.00     0.048 A 
ATOM      2  C   UNL     1      40.979  -1.551  21.256  1.00  0.00     0.030 A 
ATOM      3  C   UNL     1      42.052  -1.819  22.103  1.00  0.00     0.046 A 
ATOM      4  C   UNL     1      41.881  -2.454  23.305  1.00  0.00     0.003 A 
ATOM      5  C   UNL     1      43.122  -2.565  23.894  1.00  0.00     0.028 A 
ATOM      6  C   UNL     1      44.004  -1.975  22.995  1.00  0.00     0.083 A 
ATOM      7  N   UNL     1      43.347  -1.521  21.903  1.00  0.00    -0.361 N 
ATOM      8  C   UNL     1      40.626  -2.869  23.746  1.00  0.00     0.056 A 
ATOM      9  C   UNL     1      39.517  -2.614  22.911  1.00  0.00     0.116 A 
ATOM     10  H   UNL     1      43.764  -1.037  21.076  1.00  0.00     0.166 HD
ENDROOT
BRANCH   9  11
ATOM     11  O   UNL     1      38.237  -3.005  23.298  1.00  0.00    -0.508 OA
ATOM     12  H   UNL     1      37.538  -3.274  22.615  1.00  0.00     0.293 HD
ENDBRANCH   9  11
TORSDOF 1
ENDMDL
MODEL 6
REMARK VINA RESULT:     0.196      7.459      8.490
REMARK INTER + INTRA:           0.202
REMARK INTER:                   0.202
REMARK INTRA:                   0.000
REMARK UNBOUND:                 0.000
REMARK SMILES Oc1ccc2[nH]ccc2c1
REMARK SMILES IDX 3 1 4 2 5 3 9 4 8 5 7 6 6 7 10 8 2 9 1 11
REMARK H PARENT 6 10 1 12
REMARK Flexibility Score: inf
ROOT
ATOM      1  C   UNL     1      48.131  -1.423  17.504  1.00  0.00     0.048 A 
ATOM      2  C   UNL     1      47.106  -1.104  18.413  1.00  0.00     0.030 A 
ATOM      3  C   UNL     1      47.445  -0.985  19.759  1.00  0.00     0.046 A 
ATOM      4  C   UNL     1      48.729  -1.170  20.198  1.00  0.00     0.003 A 
ATOM      5  C   UNL     1      48.730  -0.984  21.563  1.00  0.00     0.028 A 
ATOM      6  C   UNL     1      47.410  -0.688  21.889  1.00  0.00     0.083 A 
ATOM      7  N   UNL     1      46.629  -0.690  20.784  1.00  0.00    -0.361 N 
ATOM      8  C   UNL     1      49.767  -1.487  19.324  1.00  0.00     0.056 A 
ATOM      9  C   UNL     1      49.458  -1.614  17.953  1.00  0.00     0.116 A 
ATOM     10  H   UNL     1      45.602  -0.501  20.742  1.00  0.00     0.166 HD
ENDROOT
BRANCH   9  11
ATOM     11  O   UNL     1      50.454  -1.928  17.031  1.00  0.00    -0.508 OA
ATOM     12  H   UNL     1      50.237  -2.103  16.056  1.00  0.00     0.293 HD
ENDBRANCH   9  11
TORSDOF 1
ENDMDL
MODEL 7
REMARK VINA RESULT:     0.206      7.835      9.226
REMARK INTER + INTRA:           0.212
REMARK INTER:                   0.212
REMARK INTRA:                   0.000
REMARK UNBOUND:                 0.000
REMARK SMILES Oc1ccc2[nH]ccc2c1
REMARK SMILES IDX 3 1 4 2 5 3 9 4 8 5 7 6 6 7 10 8 2 9 1 11
REMARK H PARENT 6 10 1 12
REMARK Flexibility Score: inf
ROOT
ATOM      1  C   UNL     1      39.030  -2.644  16.629  1.00  0.00     0.048 A 
ATOM      2  C   UNL     1      39.412  -2.911  15.302  1.00  0.00     0.030 A 
ATOM      3  C   UNL     1      38.698  -3.882  14.604  1.00  0.00     0.046 A 
ATOM      4  C   UNL     1      37.657  -4.563  15.177  1.00  0.00     0.003 A 
ATOM      5  C   UNL     1      37.169  -5.442  14.235  1.00  0.00     0.028 A 
ATOM      6  C   UNL     1      37.961  -5.243  13.109  1.00  0.00     0.083 A 
ATOM      7  N   UNL     1      38.893  -4.289  13.339  1.00  0.00    -0.361 N 
ATOM      8  C   UNL     1      37.254  -4.323  16.490  1.00  0.00     0.056 A 
ATOM      9  C   UNL     1      37.956  -3.345  17.225  1.00  0.00     0.116 A 
ATOM     10  H   UNL     1      39.615  -3.944  12.667  1.00  0.00     0.166 HD
ENDROOT
BRANCH   9  11
ATOM     11  O   UNL     1      37.599  -3.060  18.541  1.00  0.00    -0.508 OA
ATOM     12  H   UNL     1      36.652  -2.793  18.786  1.00  0.00     0.293 HD
ENDBRANCH   9  11
TORSDOF 1
ENDMDL
MODEL 8
REMARK VINA RESULT:     0.242      1.459      2.157
REMARK INTER + INTRA:           0.249
REMARK INTER:                   0.249
REMARK INTRA:                   0.000
REMARK UNBOUND:                 0.000
REMARK SMILES Oc1ccc2[nH]ccc2c1
REMARK SMILES IDX 3 1 4 2 5 3 9 4 8 5 7 6 6 7 10 8 2 9 1 11
REMARK H PARENT 6 10 1 12
REMARK Flexibility Score: inf
ROOT
ATOM      1  C   UNL     1      40.242  -0.937  23.173  1.00  0.00     0.048 A 
ATOM      2  C   UNL     1      41.499  -0.819  23.793  1.00  0.00     0.030 A 
ATOM      3  C   UNL     1      42.337  -1.932  23.779  1.00  0.00     0.046 A 
ATOM      4  C   UNL     1      41.963  -3.108  23.186  1.00  0.00     0.003 A 
ATOM      5  C   UNL     1      43.002  -3.999  23.345  1.00  0.00     0.028 A 
ATOM      6  C   UNL     1      43.978  -3.297  24.044  1.00  0.00     0.083 A 
ATOM      7  N   UNL     1      43.568  -2.035  24.307  1.00  0.00    -0.361 N 
ATOM      8  C   UNL     1      40.725  -3.259  22.565  1.00  0.00     0.056 A 
ATOM      9  C   UNL     1      39.852  -2.150  22.560  1.00  0.00     0.116 A 
ATOM     10  H   UNL     1      44.102  -1.296  24.817  1.00  0.00     0.166 HD
ENDROOT
BRANCH   9  11
ATOM     11  O   UNL     1      38.601  -2.239  21.953  1.00  0.00    -0.508 OA
ATOM     12  H   UNL     1      38.050  -3.089  22.000  1.00  0.00     0.293 HD
ENDBRANCH   9  11
TORSDOF 1
ENDMDL
MODEL 9
REMARK VINA RESULT:     0.444      2.630      3.754
REMARK INTER + INTRA:           0.457
REMARK INTER:                   0.457
REMARK INTRA:                   0.000
REMARK UNBOUND:                 0.000
REMARK SMILES Oc1ccc2[nH]ccc2c1
REMARK SMILES IDX 3 1 4 2 5 3 9 4 8 5 7 6 6 7 10 8 2 9 1 11
REMARK H PARENT 6 10 1 12
REMARK Flexibility Score: inf
ROOT
ATOM      1  C   UNL     1      43.472  -1.891  22.568  1.00  0.00     0.048 A 
ATOM      2  C   UNL     1      42.409  -1.382  21.800  1.00  0.00     0.030 A 
ATOM      3  C   UNL     1      41.131  -1.875  22.054  1.00  0.00     0.046 A 
ATOM      4  C   UNL     1      40.901  -2.823  23.016  1.00  0.00     0.003 A 
ATOM      5  C   UNL     1      39.550  -3.092  23.016  1.00  0.00     0.028 A 
ATOM      6  C   UNL     1      39.016  -2.271  22.028  1.00  0.00     0.083 A 
ATOM      7  N   UNL     1      39.985  -1.529  21.443  1.00  0.00    -0.361 N 
ATOM      8  C   UNL     1      41.932  -3.348  23.793  1.00  0.00     0.056 A 
ATOM      9  C   UNL     1      43.240  -2.870  23.561  1.00  0.00     0.116 A 
ATOM     10  H   UNL     1      39.863  -0.832  20.674  1.00  0.00     0.166 HD
ENDROOT
BRANCH   9  11
ATOM     11  O   UNL     1      44.311  -3.356  24.308  1.00  0.00    -0.508 OA
ATOM     12  H   UNL     1      44.706  -2.823  25.074  1.00  0.00     0.293 HD
ENDBRANCH   9  11
TORSDOF 1
ENDMDL
