MODEL 1
REMARK VINA RESULT:    -3.800      0.000      0.000
REMARK INTER + INTRA:          -4.609
REMARK INTER:                  -4.467
REMARK INTRA:                  -0.142
REMARK UNBOUND:                -0.142
REMARK SMILES O=C([O-])CCC(=O)[O-]
REMARK SMILES IDX 4 1 2 2 1 3 3 4 5 5 6 6 7 7 8 8
REMARK H PARENT
REMARK Flexibility Score: inf
ROOT
ATOM      1  C   UNL     1      -5.043  10.254  -9.819  1.00  0.00     0.059 C 
ENDROOT
BRANCH   1   2
ATOM      2  C   UNL     1      -5.561  11.513  -9.192  1.00  0.00     0.042 C 
ATOM      3  O   UNL     1      -5.096  12.630  -9.537  1.00  0.00    -0.550 OA
ATOM      4  O   UNL     1      -6.529  11.448  -8.198  1.00  0.00    -0.550 OA
ENDBRANCH   1   2
BRANCH   1   5
ATOM      5  C   UNL     1      -6.137   9.186  -9.925  1.00  0.00     0.059 C 
BRANCH   5   6
ATOM      6  C   UNL     1      -7.121   9.510 -11.008  1.00  0.00     0.042 C 
ATOM      7  O   UNL     1      -6.783   9.425 -12.218  1.00  0.00    -0.550 OA
ATOM      8  O   UNL     1      -8.422   9.868 -10.680  1.00  0.00    -0.550 OA
ENDBRANCH   5   6
ENDBRANCH   1   5
TORSDOF 3
ENDMDL
MODEL 2
REMARK VINA RESULT:    -3.779      0.229      3.304
REMARK INTER + INTRA:          -4.584
REMARK INTER:                  -4.424
REMARK INTRA:                  -0.160
REMARK UNBOUND:                -0.142
REMARK SMILES O=C([O-])CCC(=O)[O-]
REMARK SMILES IDX 4 1 2 2 1 3 3 4 5 5 6 6 7 7 8 8
REMARK H PARENT
REMARK Flexibility Score: inf
ROOT
ATOM      1  C   UNL     1      -6.030   9.001  -9.901  1.00  0.00     0.059 C 
ENDROOT
BRANCH   1   2
ATOM      2  C   UNL     1      -6.947   9.401 -11.016  1.00  0.00     0.042 C 
ATOM      3  O   UNL     1      -6.532   9.417 -12.204  1.00  0.00    -0.550 OA
ATOM      4  O   UNL     1      -8.250   9.796 -10.737  1.00  0.00    -0.550 OA
ENDBRANCH   1   2
BRANCH   1   5
ATOM      5  C   UNL     1      -4.932  10.046  -9.670  1.00  0.00     0.059 C 
BRANCH   5   6
ATOM      6  C   UNL     1      -5.488  11.309  -9.085  1.00  0.00     0.042 C 
ATOM      7  O   UNL     1      -5.098  12.429  -9.509  1.00  0.00    -0.550 OA
ATOM      8  O   UNL     1      -6.464  11.248  -8.100  1.00  0.00    -0.550 OA
ENDBRANCH   5   6
ENDBRANCH   1   5
TORSDOF 3
ENDMDL
MODEL 3
REMARK VINA RESULT:    -3.768      2.134      3.176
REMARK INTER + INTRA:          -4.571
REMARK INTER:                  -4.489
REMARK INTRA:                  -0.082
REMARK UNBOUND:                -0.142
REMARK SMILES O=C([O-])CCC(=O)[O-]
REMARK SMILES IDX 4 1 2 2 1 3 3 4 5 5 6 6 7 7 8 8
REMARK H PARENT
REMARK Flexibility Score: inf
ROOT
ATOM      1  C   UNL     1      -5.050   9.854  -9.694  1.00  0.00     0.059 C 
ENDROOT
BRANCH   1   2
ATOM      2  C   UNL     1      -4.343   9.199  -8.547  1.00  0.00     0.042 C 
ATOM      3  O   UNL     1      -3.888   8.032  -8.665  1.00  0.00    -0.550 OA
ATOM      4  O   UNL     1      -4.222   9.865  -7.333  1.00  0.00    -0.550 OA
ENDBRANCH   1   2
BRANCH   1   5
ATOM      5  C   UNL     1      -5.258  11.352  -9.447  1.00  0.00     0.059 C 
BRANCH   5   6
ATOM      6  C   UNL     1      -6.695  11.669  -9.160  1.00  0.00     0.042 C 
ATOM      7  O   UNL     1      -6.993  12.617  -8.386  1.00  0.00    -0.550 OA
ATOM      8  O   UNL     1      -7.704  10.941  -9.778  1.00  0.00    -0.550 OA
ENDBRANCH   5   6
ENDBRANCH   1   5
TORSDOF 3
ENDMDL
MODEL 4
REMARK VINA RESULT:    -3.748      2.198      3.210
REMARK INTER + INTRA:          -4.548
REMARK INTER:                  -4.463
REMARK INTRA:                  -0.085
REMARK UNBOUND:                -0.142
REMARK SMILES O=C([O-])CCC(=O)[O-]
REMARK SMILES IDX 4 1 2 2 1 3 3 4 5 5 6 6 7 7 8 8
REMARK H PARENT
REMARK Flexibility Score: inf
ROOT
ATOM      1  C   UNL     1      -5.197  11.304  -9.353  1.00  0.00     0.059 C 
ENDROOT
BRANCH   1   2
ATOM      2  C   UNL     1      -6.649  11.588  -9.119  1.00  0.00     0.042 C 
ATOM      3  O   UNL     1      -7.530  10.867  -9.655  1.00  0.00    -0.550 OA
ATOM      4  O   UNL     1      -7.029  12.674  -8.340  1.00  0.00    -0.550 OA
ENDBRANCH   1   2
BRANCH   1   5
ATOM      5  C   UNL     1      -4.955   9.825  -9.674  1.00  0.00     0.059 C 
BRANCH   5   6
ATOM      6  C   UNL     1      -4.310   9.111  -8.525  1.00  0.00     0.042 C 
ATOM      7  O   UNL     1      -3.895   7.930  -8.665  1.00  0.00    -0.550 OA
ATOM      8  O   UNL     1      -4.131   9.764  -7.312  1.00  0.00    -0.550 OA
ENDBRANCH   5   6
ENDBRANCH   1   5
TORSDOF 3
ENDMDL
MODEL 5
REMARK VINA RESULT:    -3.722      0.407      1.212
REMARK INTER + INTRA:          -4.517
REMARK INTER:                  -4.349
REMARK INTRA:                  -0.168
REMARK UNBOUND:                -0.142
REMARK SMILES O=C([O-])CCC(=O)[O-]
REMARK SMILES IDX 4 1 2 2 1 3 3 4 5 5 6 6 7 7 8 8
REMARK H PARENT
REMARK Flexibility Score: inf
ROOT
ATOM      1  C   UNL     1      -4.944   9.784  -9.552  1.00  0.00     0.059 C 
ENDROOT
BRANCH   1   2
ATOM      2  C   UNL     1      -5.473  11.060  -8.973  1.00  0.00     0.042 C 
ATOM      3  O   UNL     1      -6.300  11.031  -8.025  1.00  0.00    -0.550 OA
ATOM      4  O   UNL     1      -5.081  12.281  -9.508  1.00  0.00    -0.550 OA
ENDBRANCH   1   2
BRANCH   1   5
ATOM      5  C   UNL     1      -6.077   8.820  -9.923  1.00  0.00     0.059 C 
BRANCH   5   6
ATOM      6  C   UNL     1      -6.917   9.361 -11.040  1.00  0.00     0.042 C 
ATOM      7  O   UNL     1      -6.448   9.436 -12.207  1.00  0.00    -0.550 OA
ATOM      8  O   UNL     1      -8.229   9.745 -10.799  1.00  0.00    -0.550 OA
ENDBRANCH   5   6
ENDBRANCH   1   5
TORSDOF 3
ENDMDL
MODEL 6
REMARK VINA RESULT:    -3.665      1.314      3.624
REMARK INTER + INTRA:          -4.450
REMARK INTER:                  -4.280
REMARK INTRA:                  -0.170
REMARK UNBOUND:                -0.142
REMARK SMILES O=C([O-])CCC(=O)[O-]
REMARK SMILES IDX 4 1 2 2 1 3 3 4 5 5 6 6 7 7 8 8
REMARK H PARENT
REMARK Flexibility Score: inf
ROOT
ATOM      1  C   UNL     1      -7.988   9.630 -10.222  1.00  0.00     0.059 C 
ENDROOT
BRANCH   1   2
ATOM      2  C   UNL     1      -6.858   8.999 -10.977  1.00  0.00     0.042 C 
ATOM      3  O   UNL     1      -6.529   9.438 -12.110  1.00  0.00    -0.550 OA
ATOM      4  O   UNL     1      -6.194   7.901 -10.446  1.00  0.00    -0.550 OA
ENDBRANCH   1   2
BRANCH   1   5
ATOM      5  C   UNL     1      -7.694  11.097  -9.889  1.00  0.00     0.059 C 
BRANCH   5   6
ATOM      6  C   UNL     1      -6.450  11.237  -9.065  1.00  0.00     0.042 C 
ATOM      7  O   UNL     1      -6.341  10.620  -7.972  1.00  0.00    -0.550 OA
ATOM      8  O   UNL     1      -5.397  12.017  -9.524  1.00  0.00    -0.550 OA
ENDBRANCH   5   6
ENDBRANCH   1   5
TORSDOF 3
ENDMDL
MODEL 7
REMARK VINA RESULT:    -3.643      1.702      3.599
REMARK INTER + INTRA:          -4.424
REMARK INTER:                  -4.307
REMARK INTRA:                  -0.117
REMARK UNBOUND:                -0.142
REMARK SMILES O=C([O-])CCC(=O)[O-]
REMARK SMILES IDX 4 1 2 2 1 3 3 4 5 5 6 6 7 7 8 8
REMARK H PARENT
REMARK Flexibility Score: inf
ROOT
ATOM      1  C   UNL     1      -5.407  10.147 -10.216  1.00  0.00     0.059 C 
ENDROOT
BRANCH   1   2
ATOM      2  C   UNL     1      -6.679   9.919 -10.973  1.00  0.00     0.042 C 
ATOM      3  O   UNL     1      -6.659   9.327 -12.084  1.00  0.00    -0.550 OA
ATOM      4  O   UNL     1      -7.883  10.396 -10.470  1.00  0.00    -0.550 OA
ENDBRANCH   1   2
BRANCH   1   5
ATOM      5  C   UNL     1      -5.666  10.835  -8.871  1.00  0.00     0.059 C 
BRANCH   5   6
ATOM      6  C   UNL     1      -5.636   9.855  -7.737  1.00  0.00     0.042 C 
ATOM      7  O   UNL     1      -6.598   9.062  -7.559  1.00  0.00    -0.550 OA
ATOM      8  O   UNL     1      -4.528   9.793  -6.902  1.00  0.00    -0.550 OA
ENDBRANCH   5   6
ENDBRANCH   1   5
TORSDOF 3
ENDMDL
MODEL 8
REMARK VINA RESULT:    -3.594      3.018      4.097
REMARK INTER + INTRA:          -4.367
REMARK INTER:                  -4.337
REMARK INTRA:                  -0.030
REMARK UNBOUND:                -0.142
REMARK SMILES O=C([O-])CCC(=O)[O-]
REMARK SMILES IDX 4 1 2 2 1 3 3 4 5 5 6 6 7 7 8 8
REMARK H PARENT
REMARK Flexibility Score: inf
ROOT
ATOM      1  C   UNL     1      -4.733   9.690  -9.188  1.00  0.00     0.059 C 
ENDROOT
BRANCH   1   2
ATOM      2  C   UNL     1      -5.542  10.889  -9.579  1.00  0.00     0.042 C 
ATOM      3  O   UNL     1      -6.696  10.746 -10.060  1.00  0.00    -0.550 OA
ATOM      4  O   UNL     1      -5.005  12.164  -9.448  1.00  0.00    -0.550 OA
ENDBRANCH   1   2
BRANCH   1   5
ATOM      5  C   UNL     1      -4.345   9.730  -7.706  1.00  0.00     0.059 C 
BRANCH   5   6
ATOM      6  C   UNL     1      -3.667   8.463  -7.280  1.00  0.00     0.042 C 
ATOM      7  O   UNL     1      -4.166   7.346  -7.579  1.00  0.00    -0.550 OA
ATOM      8  O   UNL     1      -2.464   8.517  -6.587  1.00  0.00    -0.550 OA
ENDBRANCH   5   6
ENDBRANCH   1   5
TORSDOF 3
ENDMDL
MODEL 9
REMARK VINA RESULT:    -3.574      1.768      2.236
REMARK INTER + INTRA:          -4.343
REMARK INTER:                  -4.176
REMARK INTRA:                  -0.167
REMARK UNBOUND:                -0.142
REMARK SMILES O=C([O-])CCC(=O)[O-]
REMARK SMILES IDX 4 1 2 2 1 3 3 4 5 5 6 6 7 7 8 8
REMARK H PARENT
REMARK Flexibility Score: inf
ROOT
ATOM      1  C   UNL     1      -5.154  10.843  -9.463  1.00  0.00     0.059 C 
ENDROOT
BRANCH   1   2
ATOM      2  C   UNL     1      -4.828   9.750  -8.492  1.00  0.00     0.042 C 
ATOM      3  O   UNL     1      -4.032   8.831  -8.815  1.00  0.00    -0.550 OA
ATOM      4  O   UNL     1      -5.437   9.726  -7.243  1.00  0.00    -0.550 OA
ENDBRANCH   1   2
BRANCH   1   5
ATOM      5  C   UNL     1      -6.641  10.845  -9.833  1.00  0.00     0.059 C 
BRANCH   5   6
ATOM      6  C   UNL     1      -7.001   9.657 -10.673  1.00  0.00     0.042 C 
ATOM      7  O   UNL     1      -7.875   8.841 -10.276  1.00  0.00    -0.550 OA
ATOM      8  O   UNL     1      -6.401   9.475 -11.912  1.00  0.00    -0.550 OA
ENDBRANCH   5   6
ENDBRANCH   1   5
TORSDOF 3
ENDMDL
