MODEL 1
REMARK VINA RESULT:    -7.221      0.000      0.000
REMARK INTER + INTRA:          -8.784
REMARK INTER:                  -8.487
REMARK INTRA:                  -0.297
REMARK UNBOUND:                -0.297
REMARK SMILES O=c1cc(-c2ccc(O)c(O)c2)oc2cc(O)cc(O)c12
REMARK SMILES IDX 4 1 3 2 2 3 1 4 21 5 19 6 18 7 16 8 15 9 14 10 13 11 5 12
REMARK SMILES IDX 6 13 7 14 8 15 12 16 10 17 9 18 11 20 20 22 17 24
REMARK H PARENT 9 19 11 21 20 23 17 25
REMARK Flexibility Score: inf
ROOT
ATOM      1  C   UNL     1      29.341 -36.301  13.156  1.00  0.00     0.138 A 
ATOM      2  C   UNL     1      29.308 -36.930  11.902  1.00  0.00     0.100 A 
ATOM      3  C   UNL     1      28.875 -38.252  11.805  1.00  0.00     0.197 A 
ATOM      4  O   UNL     1      28.798 -38.769  10.661  1.00  0.00    -0.289 OA
ATOM      5  C   UNL     1      28.503 -38.958  12.974  1.00  0.00     0.107 A 
ATOM      6  C   UNL     1      28.084 -40.323  13.001  1.00  0.00     0.134 A 
ATOM      7  C   UNL     1      27.627 -40.880  14.201  1.00  0.00     0.093 A 
ATOM      8  C   UNL     1      27.631 -40.142  15.387  1.00  0.00     0.123 A 
ATOM      9  C   UNL     1      28.089 -38.827  15.381  1.00  0.00     0.094 A 
ATOM     10  C   UNL     1      28.519 -38.230  14.194  1.00  0.00     0.146 A 
ATOM     11  O   UNL     1      28.934 -36.969  14.230  1.00  0.00    -0.456 OA
ENDROOT
BRANCH   1  12
ATOM     12  C   UNL     1      29.795 -34.896  13.316  1.00  0.00     0.021 A 
ATOM     13  C   UNL     1      29.420 -33.936  12.360  1.00  0.00     0.016 A 
ATOM     14  C   UNL     1      29.827 -32.606  12.491  1.00  0.00     0.051 A 
ATOM     15  C   UNL     1      30.605 -32.209  13.582  1.00  0.00     0.157 A 
ATOM     16  C   UNL     1      30.569 -34.488  14.420  1.00  0.00     0.062 A 
ATOM     17  C   UNL     1      30.977 -33.153  14.552  1.00  0.00     0.158 A 
BRANCH  15  18
ATOM     18  O   UNL     1      30.998 -30.875  13.684  1.00  0.00    -0.504 OA
ATOM     19  H   UNL     1      31.691 -30.470  13.067  1.00  0.00     0.293 HD
ENDBRANCH  15  18
BRANCH  17  20
ATOM     20  O   UNL     1      31.745 -32.761  15.648  1.00  0.00    -0.504 OA
ATOM     21  H   UNL     1      32.124 -33.438  16.300  1.00  0.00     0.293 HD
ENDBRANCH  17  20
ENDBRANCH   1  12
BRANCH   6  22
ATOM     22  O   UNL     1      28.120 -41.173  11.891  1.00  0.00    -0.507 OA
ATOM     23  H   UNL     1      28.687 -42.004  11.821  1.00  0.00     0.293 HD
ENDBRANCH   6  22
BRANCH   8  24
ATOM     24  O   UNL     1      27.191 -40.711  16.580  1.00  0.00    -0.508 OA
ATOM     25  H   UNL     1      27.014 -40.146  17.402  1.00  0.00     0.293 HD
ENDBRANCH   8  24
TORSDOF 5
ENDMDL
MODEL 2
REMARK VINA RESULT:    -7.155      2.029      7.228
REMARK INTER + INTRA:          -8.707
REMARK INTER:                  -8.434
REMARK INTRA:                  -0.273
REMARK UNBOUND:                -0.297
REMARK SMILES O=c1cc(-c2ccc(O)c(O)c2)oc2cc(O)cc(O)c12
REMARK SMILES IDX 4 1 3 2 2 3 1 4 21 5 19 6 18 7 16 8 15 9 14 10 13 11 5 12
REMARK SMILES IDX 6 13 7 14 8 15 12 16 10 17 9 18 11 20 20 22 17 24
REMARK H PARENT 9 19 11 21 20 23 17 25
REMARK Flexibility Score: inf
ROOT
ATOM      1  C   UNL     1      29.600 -36.133  13.278  1.00  0.00     0.138 A 
ATOM      2  C   UNL     1      28.855 -34.955  13.124  1.00  0.00     0.100 A 
ATOM      3  C   UNL     1      29.514 -33.747  12.898  1.00  0.00     0.197 A 
ATOM      4  O   UNL     1      28.817 -32.718  12.702  1.00  0.00    -0.289 OA
ATOM      5  C   UNL     1      30.928 -33.714  12.856  1.00  0.00     0.107 A 
ATOM      6  C   UNL     1      31.709 -32.533  12.672  1.00  0.00     0.134 A 
ATOM      7  C   UNL     1      33.098 -32.640  12.531  1.00  0.00     0.093 A 
ATOM      8  C   UNL     1      33.740 -33.877  12.627  1.00  0.00     0.123 A 
ATOM      9  C   UNL     1      32.992 -35.028  12.861  1.00  0.00     0.094 A 
ATOM     10  C   UNL     1      31.601 -34.960  12.972  1.00  0.00     0.146 A 
ATOM     11  O   UNL     1      30.924 -36.084  13.180  1.00  0.00    -0.456 OA
ENDROOT
BRANCH   1  12
ATOM     12  C   UNL     1      28.949 -37.446  13.523  1.00  0.00     0.021 A 
ATOM     13  C   UNL     1      28.232 -37.650  14.715  1.00  0.00     0.016 A 
ATOM     14  C   UNL     1      27.604 -38.872  14.966  1.00  0.00     0.051 A 
ATOM     15  C   UNL     1      27.672 -39.907  14.029  1.00  0.00     0.157 A 
ATOM     16  C   UNL     1      29.003 -38.488  12.577  1.00  0.00     0.062 A 
ATOM     17  C   UNL     1      28.372 -39.715  12.828  1.00  0.00     0.158 A 
BRANCH  15  18
ATOM     18  O   UNL     1      27.037 -41.117  14.309  1.00  0.00    -0.504 OA
ATOM     19  H   UNL     1      26.120 -41.156  14.739  1.00  0.00     0.293 HD
ENDBRANCH  15  18
BRANCH  17  20
ATOM     20  O   UNL     1      28.434 -40.740  11.885  1.00  0.00    -0.504 OA
ATOM     21  H   UNL     1      27.630 -41.321  11.679  1.00  0.00     0.293 HD
ENDBRANCH  17  20
ENDBRANCH   1  12
BRANCH   6  22
ATOM     22  O   UNL     1      31.176 -31.241  12.646  1.00  0.00    -0.507 OA
ATOM     23  H   UNL     1      31.192 -30.596  13.421  1.00  0.00     0.293 HD
ENDBRANCH   6  22
BRANCH   8  24
ATOM     24  O   UNL     1      35.124 -33.971  12.502  1.00  0.00    -0.508 OA
ATOM     25  H   UNL     1      35.620 -33.511  11.747  1.00  0.00     0.293 HD
ENDBRANCH   8  24
TORSDOF 5
ENDMDL
MODEL 3
REMARK VINA RESULT:    -6.484      2.284      2.948
REMARK INTER + INTRA:          -7.918
REMARK INTER:                  -7.602
REMARK INTRA:                  -0.316
REMARK UNBOUND:                -0.297
REMARK SMILES O=c1cc(-c2ccc(O)c(O)c2)oc2cc(O)cc(O)c12
REMARK SMILES IDX 4 1 3 2 2 3 1 4 21 5 19 6 18 7 16 8 15 9 14 10 13 11 5 12
REMARK SMILES IDX 6 13 7 14 8 15 12 16 10 17 9 18 11 20 20 22 17 24
REMARK H PARENT 9 19 11 21 20 23 17 25
REMARK Flexibility Score: inf
ROOT
ATOM      1  C   UNL     1      30.712 -36.811  13.674  1.00  0.00     0.138 A 
ATOM      2  C   UNL     1      31.822 -37.431  14.267  1.00  0.00     0.100 A 
ATOM      3  C   UNL     1      31.797 -38.805  14.506  1.00  0.00     0.197 A 
ATOM      4  O   UNL     1      32.830 -39.343  14.982  1.00  0.00    -0.289 OA
ATOM      5  C   UNL     1      30.643 -39.556  14.179  1.00  0.00     0.107 A 
ATOM      6  C   UNL     1      30.489 -40.955  14.415  1.00  0.00     0.134 A 
ATOM      7  C   UNL     1      29.348 -41.613  13.942  1.00  0.00     0.093 A 
ATOM      8  C   UNL     1      28.327 -40.912  13.295  1.00  0.00     0.123 A 
ATOM      9  C   UNL     1      28.444 -39.537  13.108  1.00  0.00     0.094 A 
ATOM     10  C   UNL     1      29.586 -38.857  13.538  1.00  0.00     0.146 A 
ATOM     11  O   UNL     1      29.663 -37.548  13.326  1.00  0.00    -0.456 OA
ENDROOT
BRANCH   1  12
ATOM     12  C   UNL     1      30.685 -35.351  13.398  1.00  0.00     0.021 A 
ATOM     13  C   UNL     1      31.872 -34.606  13.507  1.00  0.00     0.016 A 
ATOM     14  C   UNL     1      31.875 -33.233  13.245  1.00  0.00     0.051 A 
ATOM     15  C   UNL     1      30.698 -32.584  12.862  1.00  0.00     0.157 A 
ATOM     16  C   UNL     1      29.505 -34.695  13.000  1.00  0.00     0.062 A 
ATOM     17  C   UNL     1      29.508 -33.317  12.737  1.00  0.00     0.158 A 
BRANCH  15  18
ATOM     18  O   UNL     1      30.733 -31.213  12.610  1.00  0.00    -0.504 OA
ATOM     19  H   UNL     1      30.071 -30.572  13.032  1.00  0.00     0.293 HD
ENDBRANCH  15  18
BRANCH  17  20
ATOM     20  O   UNL     1      28.333 -32.677  12.344  1.00  0.00    -0.504 OA
ATOM     21  H   UNL     1      28.341 -31.735  11.970  1.00  0.00     0.293 HD
ENDBRANCH  17  20
ENDBRANCH   1  12
BRANCH   6  22
ATOM     22  O   UNL     1      31.409 -41.733  15.125  1.00  0.00    -0.507 OA
ATOM     23  H   UNL     1      31.186 -42.587  15.612  1.00  0.00     0.293 HD
ENDBRANCH   6  22
BRANCH   8  24
ATOM     24  O   UNL     1      27.188 -41.573  12.842  1.00  0.00    -0.508 OA
ATOM     25  H   UNL     1      26.381 -41.708  13.440  1.00  0.00     0.293 HD
ENDBRANCH   8  24
TORSDOF 5
ENDMDL
MODEL 4
REMARK VINA RESULT:    -6.482      3.088      5.690
REMARK INTER + INTRA:          -7.916
REMARK INTER:                  -7.626
REMARK INTRA:                  -0.290
REMARK UNBOUND:                -0.297
REMARK SMILES O=c1cc(-c2ccc(O)c(O)c2)oc2cc(O)cc(O)c12
REMARK SMILES IDX 4 1 3 2 2 3 1 4 21 5 19 6 18 7 16 8 15 9 14 10 13 11 5 12
REMARK SMILES IDX 6 13 7 14 8 15 12 16 10 17 9 18 11 20 20 22 17 24
REMARK H PARENT 9 19 11 21 20 23 17 25
REMARK Flexibility Score: inf
ROOT
ATOM      1  C   UNL     1      28.123 -40.911  14.390  1.00  0.00     0.138 A 
ATOM      2  C   UNL     1      26.893 -41.228  14.984  1.00  0.00     0.100 A 
ATOM      3  C   UNL     1      26.697 -42.497  15.528  1.00  0.00     0.197 A 
ATOM      4  O   UNL     1      25.605 -42.732  16.108  1.00  0.00    -0.289 OA
ATOM      5  C   UNL     1      27.728 -43.464  15.450  1.00  0.00     0.107 A 
ATOM      6  C   UNL     1      27.626 -44.802  15.934  1.00  0.00     0.134 A 
ATOM      7  C   UNL     1      28.752 -45.633  15.907  1.00  0.00     0.093 A 
ATOM      8  C   UNL     1      29.959 -45.194  15.358  1.00  0.00     0.123 A 
ATOM      9  C   UNL     1      30.053 -43.907  14.833  1.00  0.00     0.094 A 
ATOM     10  C   UNL     1      28.957 -43.042  14.876  1.00  0.00     0.146 A 
ATOM     11  O   UNL     1      29.093 -41.818  14.379  1.00  0.00    -0.456 OA
ENDROOT
BRANCH   1  12
ATOM     12  C   UNL     1      28.384 -39.575  13.794  1.00  0.00     0.021 A 
ATOM     13  C   UNL     1      28.043 -38.419  14.516  1.00  0.00     0.016 A 
ATOM     14  C   UNL     1      28.285 -37.150  13.981  1.00  0.00     0.051 A 
ATOM     15  C   UNL     1      28.880 -37.015  12.724  1.00  0.00     0.157 A 
ATOM     16  C   UNL     1      28.995 -39.434  12.533  1.00  0.00     0.062 A 
ATOM     17  C   UNL     1      29.239 -38.161  11.997  1.00  0.00     0.158 A 
BRANCH  15  18
ATOM     18  O   UNL     1      29.107 -35.737  12.216  1.00  0.00    -0.504 OA
ATOM     19  H   UNL     1      30.030 -35.424  11.939  1.00  0.00     0.293 HD
ENDBRANCH  15  18
BRANCH  17  20
ATOM     20  O   UNL     1      29.844 -38.032  10.747  1.00  0.00    -0.504 OA
ATOM     21  H   UNL     1      29.582 -38.624   9.967  1.00  0.00     0.293 HD
ENDBRANCH  17  20
ENDBRANCH   1  12
BRANCH   6  22
ATOM     22  O   UNL     1      26.445 -45.368  16.425  1.00  0.00    -0.507 OA
ATOM     23  H   UNL     1      26.148 -45.335  17.388  1.00  0.00     0.293 HD
ENDBRANCH   6  22
BRANCH   8  24
ATOM     24  O   UNL     1      31.070 -46.033  15.320  1.00  0.00    -0.508 OA
ATOM     25  H   UNL     1      31.485 -46.324  14.442  1.00  0.00     0.293 HD
ENDBRANCH   8  24
TORSDOF 5
ENDMDL
MODEL 5
REMARK VINA RESULT:    -6.381      4.169      5.745
REMARK INTER + INTRA:          -7.797
REMARK INTER:                  -7.507
REMARK INTRA:                  -0.291
REMARK UNBOUND:                -0.297
REMARK SMILES O=c1cc(-c2ccc(O)c(O)c2)oc2cc(O)cc(O)c12
REMARK SMILES IDX 4 1 3 2 2 3 1 4 21 5 19 6 18 7 16 8 15 9 14 10 13 11 5 12
REMARK SMILES IDX 6 13 7 14 8 15 12 16 10 17 9 18 11 20 20 22 17 24
REMARK H PARENT 9 19 11 21 20 23 17 25
REMARK Flexibility Score: inf
ROOT
ATOM      1  C   UNL     1      33.563 -34.902  13.793  1.00  0.00     0.138 A 
ATOM      2  C   UNL     1      33.007 -33.841  13.064  1.00  0.00     0.100 A 
ATOM      3  C   UNL     1      31.738 -33.981  12.502  1.00  0.00     0.197 A 
ATOM      4  O   UNL     1      31.241 -32.991  11.906  1.00  0.00    -0.289 OA
ATOM      5  C   UNL     1      31.036 -35.202  12.644  1.00  0.00     0.107 A 
ATOM      6  C   UNL     1      29.753 -35.473  12.080  1.00  0.00     0.134 A 
ATOM      7  C   UNL     1      29.105 -36.675  12.386  1.00  0.00     0.093 A 
ATOM      8  C   UNL     1      29.718 -37.641  13.187  1.00  0.00     0.123 A 
ATOM      9  C   UNL     1      30.993 -37.409  13.698  1.00  0.00     0.094 A 
ATOM     10  C   UNL     1      31.652 -36.205  13.439  1.00  0.00     0.146 A 
ATOM     11  O   UNL     1      32.860 -36.018  13.959  1.00  0.00    -0.456 OA
ENDROOT
BRANCH   1  12
ATOM     12  C   UNL     1      34.910 -34.807  14.411  1.00  0.00     0.021 A 
ATOM     13  C   UNL     1      35.224 -35.623  15.512  1.00  0.00     0.016 A 
ATOM     14  C   UNL     1      36.487 -35.558  16.107  1.00  0.00     0.051 A 
ATOM     15  C   UNL     1      37.460 -34.688  15.609  1.00  0.00     0.157 A 
ATOM     16  C   UNL     1      35.899 -33.941  13.905  1.00  0.00     0.062 A 
ATOM     17  C   UNL     1      37.166 -33.877  14.501  1.00  0.00     0.158 A 
BRANCH  15  18
ATOM     18  O   UNL     1      38.710 -34.644  16.225  1.00  0.00    -0.504 OA
ATOM     19  H   UNL     1      39.434 -34.002  15.927  1.00  0.00     0.293 HD
ENDBRANCH  15  18
BRANCH  17  20
ATOM     20  O   UNL     1      38.137 -33.014  13.992  1.00  0.00    -0.504 OA
ATOM     21  H   UNL     1      38.441 -32.196  14.506  1.00  0.00     0.293 HD
ENDBRANCH  17  20
ENDBRANCH   1  12
BRANCH   6  22
ATOM     22  O   UNL     1      29.090 -34.612  11.199  1.00  0.00    -0.507 OA
ATOM     23  H   UNL     1      29.446 -34.318  10.303  1.00  0.00     0.293 HD
ENDBRANCH   6  22
BRANCH   8  24
ATOM     24  O   UNL     1      29.072 -38.842  13.472  1.00  0.00    -0.508 OA
ATOM     25  H   UNL     1      28.910 -39.540  12.756  1.00  0.00     0.293 HD
ENDBRANCH   8  24
TORSDOF 5
ENDMDL
MODEL 6
REMARK VINA RESULT:    -6.375      2.874      7.684
REMARK INTER + INTRA:          -7.791
REMARK INTER:                  -7.495
REMARK INTRA:                  -0.296
REMARK UNBOUND:                -0.297
REMARK SMILES O=c1cc(-c2ccc(O)c(O)c2)oc2cc(O)cc(O)c12
REMARK SMILES IDX 4 1 3 2 2 3 1 4 21 5 19 6 18 7 16 8 15 9 14 10 13 11 5 12
REMARK SMILES IDX 6 13 7 14 8 15 12 16 10 17 9 18 11 20 20 22 17 24
REMARK H PARENT 9 19 11 21 20 23 17 25
REMARK Flexibility Score: inf
ROOT
ATOM      1  C   UNL     1      30.006 -39.951  14.010  1.00  0.00     0.138 A 
ATOM      2  C   UNL     1      31.210 -39.674  14.675  1.00  0.00     0.100 A 
ATOM      3  C   UNL     1      31.826 -38.435  14.496  1.00  0.00     0.197 A 
ATOM      4  O   UNL     1      32.872 -38.192  15.153  1.00  0.00    -0.289 OA
ATOM      5  C   UNL     1      31.250 -37.481  13.623  1.00  0.00     0.107 A 
ATOM      6  C   UNL     1      31.811 -36.201  13.333  1.00  0.00     0.134 A 
ATOM      7  C   UNL     1      31.092 -35.296  12.545  1.00  0.00     0.093 A 
ATOM      8  C   UNL     1      29.859 -35.645  11.987  1.00  0.00     0.123 A 
ATOM      9  C   UNL     1      29.329 -36.912  12.220  1.00  0.00     0.094 A 
ATOM     10  C   UNL     1      30.006 -37.826  13.031  1.00  0.00     0.146 A 
ATOM     11  O   UNL     1      29.458 -39.018  13.240  1.00  0.00    -0.456 OA
ENDROOT
BRANCH   1  12
ATOM     12  C   UNL     1      29.309 -41.253  14.164  1.00  0.00     0.021 A 
ATOM     13  C   UNL     1      28.020 -41.414  13.626  1.00  0.00     0.016 A 
ATOM     14  C   UNL     1      27.346 -42.632  13.750  1.00  0.00     0.051 A 
ATOM     15  C   UNL     1      27.948 -43.711  14.402  1.00  0.00     0.157 A 
ATOM     16  C   UNL     1      29.917 -42.348  14.809  1.00  0.00     0.062 A 
ATOM     17  C   UNL     1      29.240 -43.570  14.933  1.00  0.00     0.158 A 
BRANCH  15  18
ATOM     18  O   UNL     1      27.249 -44.912  14.512  1.00  0.00    -0.504 OA
ATOM     19  H   UNL     1      27.032 -45.329  15.409  1.00  0.00     0.293 HD
ENDBRANCH  15  18
BRANCH  17  20
ATOM     20  O   UNL     1      29.851 -44.647  15.575  1.00  0.00    -0.504 OA
ATOM     21  H   UNL     1      29.384 -45.159  16.314  1.00  0.00     0.293 HD
ENDBRANCH  17  20
ENDBRANCH   1  12
BRANCH   6  22
ATOM     22  O   UNL     1      33.072 -35.784  13.770  1.00  0.00    -0.507 OA
ATOM     23  H   UNL     1      33.891 -35.719  13.186  1.00  0.00     0.293 HD
ENDBRANCH   6  22
BRANCH   8  24
ATOM     24  O   UNL     1      29.158 -34.743  11.191  1.00  0.00    -0.508 OA
ATOM     25  H   UNL     1      28.694 -35.037  10.339  1.00  0.00     0.293 HD
ENDBRANCH   8  24
TORSDOF 5
ENDMDL
MODEL 7
REMARK VINA RESULT:    -6.301      2.202      7.316
REMARK INTER + INTRA:          -7.703
REMARK INTER:                  -7.385
REMARK INTRA:                  -0.318
REMARK UNBOUND:                -0.297
REMARK SMILES O=c1cc(-c2ccc(O)c(O)c2)oc2cc(O)cc(O)c12
REMARK SMILES IDX 4 1 3 2 2 3 1 4 21 5 19 6 18 7 16 8 15 9 14 10 13 11 5 12
REMARK SMILES IDX 6 13 7 14 8 15 12 16 10 17 9 18 11 20 20 22 17 24
REMARK H PARENT 9 19 11 21 20 23 17 25
REMARK Flexibility Score: inf
ROOT
ATOM      1  C   UNL     1      30.528 -38.104  13.919  1.00  0.00     0.138 A 
ATOM      2  C   UNL     1      31.785 -37.726  14.414  1.00  0.00     0.100 A 
ATOM      3  C   UNL     1      32.178 -36.389  14.346  1.00  0.00     0.197 A 
ATOM      4  O   UNL     1      33.285 -36.070  14.854  1.00  0.00    -0.289 OA
ATOM      5  C   UNL     1      31.322 -35.432  13.751  1.00  0.00     0.107 A 
ATOM      6  C   UNL     1      31.635 -34.049  13.591  1.00  0.00     0.134 A 
ATOM      7  C   UNL     1      30.661 -33.175  13.094  1.00  0.00     0.093 A 
ATOM      8  C   UNL     1      29.407 -33.643  12.695  1.00  0.00     0.123 A 
ATOM      9  C   UNL     1      29.111 -35.001  12.797  1.00  0.00     0.094 A 
ATOM     10  C   UNL     1      30.049 -35.893  13.321  1.00  0.00     0.146 A 
ATOM     11  O   UNL     1      29.721 -37.177  13.415  1.00  0.00    -0.456 OA
ENDROOT
BRANCH   1  12
ATOM     12  C   UNL     1      30.060 -39.513  13.965  1.00  0.00     0.021 A 
ATOM     13  C   UNL     1      30.846 -40.481  14.613  1.00  0.00     0.016 A 
ATOM     14  C   UNL     1      30.425 -41.812  14.677  1.00  0.00     0.051 A 
ATOM     15  C   UNL     1      29.210 -42.197  14.105  1.00  0.00     0.157 A 
ATOM     16  C   UNL     1      28.830 -39.904  13.401  1.00  0.00     0.062 A 
ATOM     17  C   UNL     1      28.407 -41.239  13.465  1.00  0.00     0.158 A 
BRANCH  15  18
ATOM     18  O   UNL     1      28.817 -43.533  14.183  1.00  0.00    -0.504 OA
ATOM     19  H   UNL     1      27.898 -43.805  14.512  1.00  0.00     0.293 HD
ENDBRANCH  15  18
BRANCH  17  20
ATOM     20  O   UNL     1      27.187 -41.615  12.902  1.00  0.00    -0.504 OA
ATOM     21  H   UNL     1      26.340 -41.664  13.455  1.00  0.00     0.293 HD
ENDBRANCH  17  20
ENDBRANCH   1  12
BRANCH   6  22
ATOM     22  O   UNL     1      32.885 -33.493  13.879  1.00  0.00    -0.507 OA
ATOM     23  H   UNL     1      33.586 -33.266  13.191  1.00  0.00     0.293 HD
ENDBRANCH   6  22
BRANCH   8  24
ATOM     24  O   UNL     1      28.450 -32.768  12.186  1.00  0.00    -0.508 OA
ATOM     25  H   UNL     1      28.458 -31.782  12.418  1.00  0.00     0.293 HD
ENDBRANCH   8  24
TORSDOF 5
ENDMDL
MODEL 8
REMARK VINA RESULT:    -6.272      2.155      7.216
REMARK INTER + INTRA:          -7.669
REMARK INTER:                  -7.372
REMARK INTRA:                  -0.296
REMARK UNBOUND:                -0.297
REMARK SMILES O=c1cc(-c2ccc(O)c(O)c2)oc2cc(O)cc(O)c12
REMARK SMILES IDX 4 1 3 2 2 3 1 4 21 5 19 6 18 7 16 8 15 9 14 10 13 11 5 12
REMARK SMILES IDX 6 13 7 14 8 15 12 16 10 17 9 18 11 20 20 22 17 24
REMARK H PARENT 9 19 11 21 20 23 17 25
REMARK Flexibility Score: inf
ROOT
ATOM      1  C   UNL     1      30.124 -37.681  13.251  1.00  0.00     0.138 A 
ATOM      2  C   UNL     1      29.240 -36.879  12.515  1.00  0.00     0.100 A 
ATOM      3  C   UNL     1      29.541 -35.534  12.305  1.00  0.00     0.197 A 
ATOM      4  O   UNL     1      28.760 -34.855  11.589  1.00  0.00    -0.289 OA
ATOM      5  C   UNL     1      30.719 -34.981  12.863  1.00  0.00     0.107 A 
ATOM      6  C   UNL     1      31.108 -33.612  12.749  1.00  0.00     0.134 A 
ATOM      7  C   UNL     1      32.353 -33.206  13.243  1.00  0.00     0.093 A 
ATOM      8  C   UNL     1      33.197 -34.105  13.899  1.00  0.00     0.123 A 
ATOM      9  C   UNL     1      32.802 -35.431  14.063  1.00  0.00     0.094 A 
ATOM     10  C   UNL     1      31.581 -35.875  13.552  1.00  0.00     0.146 A 
ATOM     11  O   UNL     1      31.249 -37.151  13.717  1.00  0.00    -0.456 OA
ENDROOT
BRANCH   1  12
ATOM     12  C   UNL     1      29.851 -39.119  13.505  1.00  0.00     0.021 A 
ATOM     13  C   UNL     1      30.809 -39.895  14.179  1.00  0.00     0.016 A 
ATOM     14  C   UNL     1      30.574 -41.248  14.437  1.00  0.00     0.051 A 
ATOM     15  C   UNL     1      29.377 -41.847  14.037  1.00  0.00     0.157 A 
ATOM     16  C   UNL     1      28.640 -39.724  13.115  1.00  0.00     0.062 A 
ATOM     17  C   UNL     1      28.403 -41.081  13.375  1.00  0.00     0.158 A 
BRANCH  15  18
ATOM     18  O   UNL     1      29.172 -43.199  14.307  1.00  0.00    -0.504 OA
ATOM     19  H   UNL     1      28.891 -43.528  15.223  1.00  0.00     0.293 HD
ENDBRANCH  15  18
BRANCH  17  20
ATOM     20  O   UNL     1      27.201 -41.670  12.983  1.00  0.00    -0.504 OA
ATOM     21  H   UNL     1      26.322 -41.425  13.422  1.00  0.00     0.293 HD
ENDBRANCH  17  20
ENDBRANCH   1  12
BRANCH   6  22
ATOM     22  O   UNL     1      30.304 -32.616  12.187  1.00  0.00    -0.507 OA
ATOM     23  H   UNL     1      29.504 -32.786  11.597  1.00  0.00     0.293 HD
ENDBRANCH   6  22
BRANCH   8  24
ATOM     24  O   UNL     1      34.427 -33.687  14.401  1.00  0.00    -0.508 OA
ATOM     25  H   UNL     1      35.163 -34.349  14.618  1.00  0.00     0.293 HD
ENDBRANCH   8  24
TORSDOF 5
ENDMDL
MODEL 9
REMARK VINA RESULT:    -6.223      3.234      4.679
REMARK INTER + INTRA:          -7.611
REMARK INTER:                  -7.336
REMARK INTRA:                  -0.275
REMARK UNBOUND:                -0.297
REMARK SMILES O=c1cc(-c2ccc(O)c(O)c2)oc2cc(O)cc(O)c12
REMARK SMILES IDX 4 1 3 2 2 3 1 4 21 5 19 6 18 7 16 8 15 9 14 10 13 11 5 12
REMARK SMILES IDX 6 13 7 14 8 15 12 16 10 17 9 18 11 20 20 22 17 24
REMARK H PARENT 9 19 11 21 20 23 17 25
REMARK Flexibility Score: inf
ROOT
ATOM      1  C   UNL     1      32.264 -35.759  14.022  1.00  0.00     0.138 A 
ATOM      2  C   UNL     1      31.535 -35.861  15.216  1.00  0.00     0.100 A 
ATOM      3  C   UNL     1      30.269 -36.447  15.204  1.00  0.00     0.197 A 
ATOM      4  O   UNL     1      29.666 -36.579  16.301  1.00  0.00    -0.289 OA
ATOM      5  C   UNL     1      29.717 -36.904  13.984  1.00  0.00     0.107 A 
ATOM      6  C   UNL     1      28.419 -37.481  13.845  1.00  0.00     0.134 A 
ATOM      7  C   UNL     1      28.026 -38.005  12.607  1.00  0.00     0.093 A 
ATOM      8  C   UNL     1      28.861 -37.919  11.490  1.00  0.00     0.123 A 
ATOM      9  C   UNL     1      30.108 -37.309  11.603  1.00  0.00     0.094 A 
ATOM     10  C   UNL     1      30.543 -36.807  12.832  1.00  0.00     0.146 A 
ATOM     11  O   UNL     1      31.745 -36.247  12.900  1.00  0.00    -0.456 OA
ENDROOT
BRANCH   1  12
ATOM     12  C   UNL     1      33.615 -35.144  13.978  1.00  0.00     0.021 A 
ATOM     13  C   UNL     1      33.907 -34.189  12.989  1.00  0.00     0.016 A 
ATOM     14  C   UNL     1      35.168 -33.590  12.930  1.00  0.00     0.051 A 
ATOM     15  C   UNL     1      36.153 -33.923  13.862  1.00  0.00     0.157 A 
ATOM     16  C   UNL     1      34.608 -35.467  14.924  1.00  0.00     0.062 A 
ATOM     17  C   UNL     1      35.872 -34.865  14.866  1.00  0.00     0.158 A 
BRANCH  15  18
ATOM     18  O   UNL     1      37.402 -33.310  13.777  1.00  0.00    -0.504 OA
ATOM     19  H   UNL     1      37.537 -32.331  14.002  1.00  0.00     0.293 HD
ENDBRANCH  15  18
BRANCH  17  20
ATOM     20  O   UNL     1      36.849 -35.194  15.806  1.00  0.00    -0.504 OA
ATOM     21  H   UNL     1      37.647 -35.768  15.563  1.00  0.00     0.293 HD
ENDBRANCH  17  20
ENDBRANCH   1  12
BRANCH   6  22
ATOM     22  O   UNL     1      27.476 -37.541  14.876  1.00  0.00    -0.507 OA
ATOM     23  H   UNL     1      26.779 -38.262  14.977  1.00  0.00     0.293 HD
ENDBRANCH   6  22
BRANCH   8  24
ATOM     24  O   UNL     1      28.454 -38.428  10.259  1.00  0.00    -0.508 OA
ATOM     25  H   UNL     1      28.864 -39.271   9.873  1.00  0.00     0.293 HD
ENDBRANCH   8  24
TORSDOF 5
ENDMDL
