MODEL 1
REMARK VINA RESULT:    -5.538      0.000      0.000
REMARK INTER + INTRA:         -13.298
REMARK INTER:                 -10.718
REMARK INTRA:                  -2.580
REMARK UNBOUND:                -2.580
REMARK SMILES CCCCCCCCCCCCCCCCCC(=O)[O-]
REMARK SMILES IDX 10 1 11 2 12 3 13 4 14 5 15 6 16 7 17 8 18 9 19 10 20 11
REMARK SMILES IDX 9 12 8 13 7 14 6 15 5 16 4 17 3 18 2 19 1 20
REMARK H PARENT
REMARK Flexibility Score: inf
ROOT
ATOM      1  C   UNL     1     -10.473  -1.305  12.844  1.00  0.00     0.000 C 
ENDROOT
BRANCH   1   2
ATOM      2  C   UNL     1     -11.488  -2.340  12.334  1.00  0.00     0.000 C 
BRANCH   2   3
ATOM      3  C   UNL     1     -12.511  -2.747  13.409  1.00  0.00     0.000 C 
BRANCH   3   4
ATOM      4  C   UNL     1     -12.421  -4.248  13.760  1.00  0.00     0.000 C 
BRANCH   4   5
ATOM      5  C   UNL     1     -11.795  -4.519  15.139  1.00  0.00     0.000 C 
BRANCH   5   6
ATOM      6  C   UNL     1     -12.237  -3.502  16.205  1.00  0.00     0.000 C 
BRANCH   6   7
ATOM      7  C   UNL     1     -11.081  -3.062  17.116  1.00  0.00     0.006 C 
BRANCH   7   8
ATOM      8  C   UNL     1      -9.716  -3.551  16.615  1.00  0.00     0.053 C 
BRANCH   8   9
ATOM      9  C   UNL     1      -8.626  -3.079  17.524  1.00  0.00     0.041 C 
ATOM     10  O   UNL     1      -7.447  -2.967  17.095  1.00  0.00    -0.550 OA
ATOM     11  O   UNL     1      -8.921  -2.714  18.832  1.00  0.00    -0.550 OA
ENDBRANCH   8   9
ENDBRANCH   7   8
ENDBRANCH   6   7
ENDBRANCH   5   6
ENDBRANCH   4   5
ENDBRANCH   3   4
ENDBRANCH   2   3
ENDBRANCH   1   2
BRANCH   1  12
ATOM     12  C   UNL     1      -9.400  -1.924  13.751  1.00  0.00     0.000 C 
BRANCH  12  13
ATOM     13  C   UNL     1      -8.025  -1.905  13.065  1.00  0.00    -0.000 C 
BRANCH  13  14
ATOM     14  C   UNL     1      -7.420  -3.309  12.905  1.00  0.00    -0.000 C 
BRANCH  14  15
ATOM     15  C   UNL     1      -8.431  -4.426  13.213  1.00  0.00    -0.000 C 
BRANCH  15  16
ATOM     16  C   UNL     1      -8.452  -5.518  12.132  1.00  0.00    -0.000 C 
BRANCH  16  17
ATOM     17  C   UNL     1      -9.872  -6.034  11.832  1.00  0.00    -0.000 C 
BRANCH  17  18
ATOM     18  C   UNL     1     -10.477  -5.375  10.575  1.00  0.00    -0.000 C 
BRANCH  18  19
ATOM     19  C   UNL     1     -11.995  -5.578  10.445  1.00  0.00    -0.003 C 
ATOM     20  C   UNL     1     -12.431  -5.949   9.028  1.00  0.00     0.004 C 
ENDBRANCH  18  19
ENDBRANCH  17  18
ENDBRANCH  16  17
ENDBRANCH  15  16
ENDBRANCH  14  15
ENDBRANCH  13  14
ENDBRANCH  12  13
ENDBRANCH   1  12
TORSDOF 16
ENDMDL
MODEL 2
REMARK VINA RESULT:    -5.482      3.420      5.736
REMARK INTER + INTRA:         -13.190
REMARK INTER:                 -10.388
REMARK INTRA:                  -2.801
REMARK UNBOUND:                -2.580
REMARK SMILES CCCCCCCCCCCCCCCCCC(=O)[O-]
REMARK SMILES IDX 10 1 11 2 12 3 13 4 14 5 15 6 16 7 17 8 18 9 19 10 20 11
REMARK SMILES IDX 9 12 8 13 7 14 6 15 5 16 4 17 3 18 2 19 1 20
REMARK H PARENT
REMARK Flexibility Score: inf
ROOT
ATOM      1  C   UNL     1      -8.138  -4.423  15.441  1.00  0.00     0.000 C 
ENDROOT
BRANCH   1   2
ATOM      2  C   UNL     1      -9.318  -5.169  14.798  1.00  0.00     0.000 C 
BRANCH   2   3
ATOM      3  C   UNL     1      -9.932  -6.227  15.732  1.00  0.00     0.000 C 
BRANCH   3   4
ATOM      4  C   UNL     1     -11.058  -7.028  15.044  1.00  0.00     0.000 C 
BRANCH   4   5
ATOM      5  C   UNL     1     -11.131  -6.802  13.524  1.00  0.00     0.000 C 
BRANCH   5   6
ATOM      6  C   UNL     1     -12.571  -6.629  13.014  1.00  0.00     0.000 C 
BRANCH   6   7
ATOM      7  C   UNL     1     -12.722  -5.430  12.065  1.00  0.00     0.006 C 
BRANCH   7   8
ATOM      8  C   UNL     1     -11.392  -5.023  11.415  1.00  0.00     0.053 C 
BRANCH   8   9
ATOM      9  C   UNL     1     -11.362  -5.444   9.981  1.00  0.00     0.041 C 
ATOM     10  O   UNL     1     -10.262  -5.587   9.384  1.00  0.00    -0.550 OA
ATOM     11  O   UNL     1     -12.548  -5.726   9.313  1.00  0.00    -0.550 OA
ENDBRANCH   8   9
ENDBRANCH   7   8
ENDBRANCH   6   7
ENDBRANCH   5   6
ENDBRANCH   4   5
ENDBRANCH   3   4
ENDBRANCH   2   3
ENDBRANCH   1   2
BRANCH   1  12
ATOM     12  C   UNL     1      -8.521  -3.020  15.934  1.00  0.00     0.000 C 
BRANCH  12  13
ATOM     13  C   UNL     1      -8.678  -3.001  17.463  1.00  0.00    -0.000 C 
BRANCH  13  14
ATOM     14  C   UNL     1     -10.140  -2.838  17.909  1.00  0.00    -0.000 C 
BRANCH  14  15
ATOM     15  C   UNL     1     -11.096  -2.606  16.726  1.00  0.00    -0.000 C 
BRANCH  15  16
ATOM     16  C   UNL     1     -12.255  -3.614  16.696  1.00  0.00    -0.000 C 
BRANCH  16  17
ATOM     17  C   UNL     1     -13.054  -3.567  15.380  1.00  0.00    -0.000 C 
BRANCH  17  18
ATOM     18  C   UNL     1     -12.340  -2.734  14.295  1.00  0.00    -0.000 C 
BRANCH  18  19
ATOM     19  C   UNL     1     -13.297  -1.876  13.450  1.00  0.00    -0.003 C 
ATOM     20  C   UNL     1     -12.649  -1.334  12.177  1.00  0.00     0.004 C 
ENDBRANCH  18  19
ENDBRANCH  17  18
ENDBRANCH  16  17
ENDBRANCH  15  16
ENDBRANCH  14  15
ENDBRANCH  13  14
ENDBRANCH  12  13
ENDBRANCH   1  12
TORSDOF 16
ENDMDL
MODEL 3
REMARK VINA RESULT:    -5.473      3.173      5.948
REMARK INTER + INTRA:         -13.172
REMARK INTER:                 -10.568
REMARK INTRA:                  -2.604
REMARK UNBOUND:                -2.580
REMARK SMILES CCCCCCCCCCCCCCCCCC(=O)[O-]
REMARK SMILES IDX 10 1 11 2 12 3 13 4 14 5 15 6 16 7 17 8 18 9 19 10 20 11
REMARK SMILES IDX 9 12 8 13 7 14 6 15 5 16 4 17 3 18 2 19 1 20
REMARK H PARENT
REMARK Flexibility Score: inf
ROOT
ATOM      1  C   UNL     1      -9.911  -1.438  13.019  1.00  0.00     0.000 C 
ENDROOT
BRANCH   1   2
ATOM      2  C   UNL     1      -9.027  -2.431  13.790  1.00  0.00     0.000 C 
BRANCH   2   3
ATOM      3  C   UNL     1      -7.596  -2.511  13.229  1.00  0.00     0.000 C 
BRANCH   3   4
ATOM      4  C   UNL     1      -7.296  -3.886  12.594  1.00  0.00     0.000 C 
BRANCH   4   5
ATOM      5  C   UNL     1      -8.304  -4.978  12.991  1.00  0.00     0.000 C 
BRANCH   5   6
ATOM      6  C   UNL     1      -8.840  -5.764  11.783  1.00  0.00     0.000 C 
BRANCH   6   7
ATOM      7  C   UNL     1     -10.340  -5.531  11.545  1.00  0.00     0.006 C 
BRANCH   7   8
ATOM      8  C   UNL     1     -10.679  -5.345  10.060  1.00  0.00     0.053 C 
BRANCH   8   9
ATOM      9  C   UNL     1     -12.159  -5.397   9.853  1.00  0.00     0.041 C 
ATOM     10  O   UNL     1     -12.659  -6.239   9.061  1.00  0.00    -0.550 OA
ATOM     11  O   UNL     1     -12.992  -4.547  10.570  1.00  0.00    -0.550 OA
ENDBRANCH   8   9
ENDBRANCH   7   8
ENDBRANCH   6   7
ENDBRANCH   5   6
ENDBRANCH   4   5
ENDBRANCH   3   4
ENDBRANCH   2   3
ENDBRANCH   1   2
BRANCH   1  12
ATOM     12  C   UNL     1     -11.143  -2.106  12.391  1.00  0.00     0.000 C 
BRANCH  12  13
ATOM     13  C   UNL     1     -12.415  -1.295  12.688  1.00  0.00    -0.000 C 
BRANCH  13  14
ATOM     14  C   UNL     1     -13.513  -2.137  13.359  1.00  0.00    -0.000 C 
BRANCH  14  15
ATOM     15  C   UNL     1     -12.967  -3.435  13.978  1.00  0.00    -0.000 C 
BRANCH  15  16
ATOM     16  C   UNL     1     -13.049  -3.437  15.513  1.00  0.00    -0.000 C 
BRANCH  16  17
ATOM     17  C   UNL     1     -11.693  -3.724  16.183  1.00  0.00    -0.000 C 
BRANCH  17  18
ATOM     18  C   UNL     1     -10.940  -4.885  15.501  1.00  0.00    -0.000 C 
BRANCH  18  19
ATOM     19  C   UNL     1     -11.555  -6.266  15.782  1.00  0.00    -0.003 C 
ATOM     20  C   UNL     1     -11.029  -7.357  14.851  1.00  0.00     0.004 C 
ENDBRANCH  18  19
ENDBRANCH  17  18
ENDBRANCH  16  17
ENDBRANCH  15  16
ENDBRANCH  14  15
ENDBRANCH  13  14
ENDBRANCH  12  13
ENDBRANCH   1  12
TORSDOF 16
ENDMDL
MODEL 4
REMARK VINA RESULT:    -5.463      2.097      4.266
REMARK INTER + INTRA:         -13.153
REMARK INTER:                 -10.202
REMARK INTRA:                  -2.952
REMARK UNBOUND:                -2.580
REMARK SMILES CCCCCCCCCCCCCCCCCC(=O)[O-]
REMARK SMILES IDX 10 1 11 2 12 3 13 4 14 5 15 6 16 7 17 8 18 9 19 10 20 11
REMARK SMILES IDX 9 12 8 13 7 14 6 15 5 16 4 17 3 18 2 19 1 20
REMARK H PARENT
REMARK Flexibility Score: inf
ROOT
ATOM      1  C   UNL     1     -11.288  -3.449  15.824  1.00  0.00     0.000 C 
ENDROOT
BRANCH   1   2
ATOM      2  C   UNL     1     -11.220  -2.972  17.283  1.00  0.00     0.000 C 
BRANCH   2   3
ATOM      3  C   UNL     1      -9.807  -2.527  17.697  1.00  0.00     0.000 C 
BRANCH   3   4
ATOM      4  C   UNL     1      -8.729  -3.556  17.292  1.00  0.00     0.000 C 
BRANCH   4   5
ATOM      5  C   UNL     1      -7.629  -2.969  16.390  1.00  0.00     0.000 C 
BRANCH   5   6
ATOM      6  C   UNL     1      -7.292  -3.875  15.194  1.00  0.00     0.000 C 
BRANCH   6   7
ATOM      7  C   UNL     1      -7.246  -3.106  13.866  1.00  0.00     0.006 C 
BRANCH   7   8
ATOM      8  C   UNL     1      -8.644  -2.746  13.345  1.00  0.00     0.053 C 
BRANCH   8   9
ATOM      9  C   UNL     1      -8.814  -1.261  13.288  1.00  0.00     0.041 C 
ATOM     10  O   UNL     1      -7.806  -0.506  13.326  1.00  0.00    -0.550 OA
ATOM     11  O   UNL     1     -10.082  -0.710  13.144  1.00  0.00    -0.550 OA
ENDBRANCH   8   9
ENDBRANCH   7   8
ENDBRANCH   6   7
ENDBRANCH   5   6
ENDBRANCH   4   5
ENDBRANCH   3   4
ENDBRANCH   2   3
ENDBRANCH   1   2
BRANCH   1  12
ATOM     12  C   UNL     1     -12.195  -4.675  15.643  1.00  0.00     0.000 C 
BRANCH  12  13
ATOM     13  C   UNL     1     -11.378  -5.975  15.709  1.00  0.00    -0.000 C 
BRANCH  13  14
ATOM     14  C   UNL     1     -10.131  -5.941  14.812  1.00  0.00    -0.000 C 
BRANCH  14  15
ATOM     15  C   UNL     1     -10.282  -6.816  13.556  1.00  0.00    -0.000 C 
BRANCH  15  16
ATOM     16  C   UNL     1      -9.599  -6.204  12.323  1.00  0.00    -0.000 C 
BRANCH  16  17
ATOM     17  C   UNL     1     -10.577  -5.433  11.419  1.00  0.00    -0.000 C 
BRANCH  17  18
ATOM     18  C   UNL     1     -12.050  -5.778  11.728  1.00  0.00    -0.000 C 
BRANCH  18  19
ATOM     19  C   UNL     1     -12.979  -4.552  11.736  1.00  0.00    -0.003 C 
ATOM     20  C   UNL     1     -12.273  -3.268  12.170  1.00  0.00     0.004 C 
ENDBRANCH  18  19
ENDBRANCH  17  18
ENDBRANCH  16  17
ENDBRANCH  15  16
ENDBRANCH  14  15
ENDBRANCH  13  14
ENDBRANCH  12  13
ENDBRANCH   1  12
TORSDOF 16
ENDMDL
MODEL 5
REMARK VINA RESULT:    -5.394      2.750      6.074
REMARK INTER + INTRA:         -13.019
REMARK INTER:                 -10.457
REMARK INTRA:                  -2.562
REMARK UNBOUND:                -2.580
REMARK SMILES CCCCCCCCCCCCCCCCCC(=O)[O-]
REMARK SMILES IDX 10 1 11 2 12 3 13 4 14 5 15 6 16 7 17 8 18 9 19 10 20 11
REMARK SMILES IDX 9 12 8 13 7 14 6 15 5 16 4 17 3 18 2 19 1 20
REMARK H PARENT
REMARK Flexibility Score: inf
ROOT
ATOM      1  C   UNL     1      -9.437  -1.165  13.373  1.00  0.00     0.000 C 
ENDROOT
BRANCH   1   2
ATOM      2  C   UNL     1      -8.023  -1.755  13.250  1.00  0.00     0.000 C 
BRANCH   2   3
ATOM      3  C   UNL     1      -7.669  -2.695  14.416  1.00  0.00     0.000 C 
BRANCH   3   4
ATOM      4  C   UNL     1      -7.887  -4.180  14.054  1.00  0.00     0.000 C 
BRANCH   4   5
ATOM      5  C   UNL     1      -7.470  -4.528  12.614  1.00  0.00     0.000 C 
BRANCH   5   6
ATOM      6  C   UNL     1      -8.345  -5.626  11.988  1.00  0.00     0.000 C 
BRANCH   6   7
ATOM      7  C   UNL     1      -9.843  -5.415  12.259  1.00  0.00     0.006 C 
BRANCH   7   8
ATOM      8  C   UNL     1     -10.683  -5.439  10.975  1.00  0.00     0.053 C 
BRANCH   8   9
ATOM      9  C   UNL     1     -12.141  -5.452  11.306  1.00  0.00     0.041 C 
ATOM     10  O   UNL     1     -12.583  -6.229  12.193  1.00  0.00    -0.550 OA
ATOM     11  O   UNL     1     -13.007  -4.571  10.670  1.00  0.00    -0.550 OA
ENDBRANCH   8   9
ENDBRANCH   7   8
ENDBRANCH   6   7
ENDBRANCH   5   6
ENDBRANCH   4   5
ENDBRANCH   3   4
ENDBRANCH   2   3
ENDBRANCH   1   2
BRANCH   1  12
ATOM     12  C   UNL     1     -10.481  -1.953  12.570  1.00  0.00     0.000 C 
BRANCH  12  13
ATOM     13  C   UNL     1     -11.839  -1.232  12.582  1.00  0.00    -0.000 C 
BRANCH  13  14
ATOM     14  C   UNL     1     -12.943  -2.055  13.265  1.00  0.00    -0.000 C 
BRANCH  14  15
ATOM     15  C   UNL     1     -12.379  -3.188  14.140  1.00  0.00    -0.000 C 
BRANCH  15  16
ATOM     16  C   UNL     1     -13.132  -3.336  15.471  1.00  0.00    -0.000 C 
BRANCH  16  17
ATOM     17  C   UNL     1     -12.195  -3.622  16.659  1.00  0.00    -0.000 C 
BRANCH  17  18
ATOM     18  C   UNL     1     -10.721  -3.312  16.325  1.00  0.00    -0.000 C 
BRANCH  18  19
ATOM     19  C   UNL     1     -10.073  -2.301  17.286  1.00  0.00    -0.003 C 
ATOM     20  C   UNL     1      -9.085  -2.946  18.257  1.00  0.00     0.004 C 
ENDBRANCH  18  19
ENDBRANCH  17  18
ENDBRANCH  16  17
ENDBRANCH  15  16
ENDBRANCH  14  15
ENDBRANCH  13  14
ENDBRANCH  12  13
ENDBRANCH   1  12
TORSDOF 16
ENDMDL
MODEL 6
REMARK VINA RESULT:    -5.376      2.966      5.243
REMARK INTER + INTRA:         -12.986
REMARK INTER:                 -10.133
REMARK INTRA:                  -2.852
REMARK UNBOUND:                -2.580
REMARK SMILES CCCCCCCCCCCCCCCCCC(=O)[O-]
REMARK SMILES IDX 10 1 11 2 12 3 13 4 14 5 15 6 16 7 17 8 18 9 19 10 20 11
REMARK SMILES IDX 9 12 8 13 7 14 6 15 5 16 4 17 3 18 2 19 1 20
REMARK H PARENT
REMARK Flexibility Score: inf
ROOT
ATOM      1  C   UNL     1     -11.093  -2.984  17.318  1.00  0.00     0.000 C 
ENDROOT
BRANCH   1   2
ATOM      2  C   UNL     1     -12.075  -3.366  16.200  1.00  0.00     0.000 C 
BRANCH   2   3
ATOM      3  C   UNL     1     -12.081  -4.876  15.904  1.00  0.00     0.000 C 
BRANCH   3   4
ATOM      4  C   UNL     1     -11.660  -5.186  14.451  1.00  0.00     0.000 C 
BRANCH   4   5
ATOM      5  C   UNL     1     -11.394  -6.680  14.195  1.00  0.00     0.000 C 
BRANCH   5   6
ATOM      6  C   UNL     1     -10.369  -6.921  13.075  1.00  0.00     0.000 C 
BRANCH   6   7
ATOM      7  C   UNL     1      -9.909  -5.617  12.405  1.00  0.00     0.006 C 
BRANCH   7   8
ATOM      8  C   UNL     1      -9.905  -5.712  10.873  1.00  0.00     0.053 C 
BRANCH   8   9
ATOM      9  C   UNL     1     -11.242  -5.326  10.324  1.00  0.00     0.041 C 
ATOM     10  O   UNL     1     -11.962  -4.493  10.935  1.00  0.00    -0.550 OA
ATOM     11  O   UNL     1     -11.673  -5.850   9.111  1.00  0.00    -0.550 OA
ENDBRANCH   8   9
ENDBRANCH   7   8
ENDBRANCH   6   7
ENDBRANCH   5   6
ENDBRANCH   4   5
ENDBRANCH   3   4
ENDBRANCH   2   3
ENDBRANCH   1   2
BRANCH   1  12
ATOM     12  C   UNL     1      -9.702  -2.614  16.783  1.00  0.00     0.000 C 
BRANCH  12  13
ATOM     13  C   UNL     1      -8.736  -3.805  16.901  1.00  0.00    -0.000 C 
BRANCH  13  14
ATOM     14  C   UNL     1      -8.346  -4.391  15.535  1.00  0.00    -0.000 C 
BRANCH  14  15
ATOM     15  C   UNL     1      -7.295  -3.538  14.803  1.00  0.00    -0.000 C 
BRANCH  15  16
ATOM     16  C   UNL     1      -7.842  -2.904  13.515  1.00  0.00    -0.000 C 
BRANCH  16  17
ATOM     17  C   UNL     1      -8.046  -1.383  13.638  1.00  0.00    -0.000 C 
BRANCH  17  18
ATOM     18  C   UNL     1      -9.407  -0.930  13.068  1.00  0.00    -0.000 C 
BRANCH  18  19
ATOM     19  C   UNL     1     -10.457  -2.053  13.021  1.00  0.00    -0.003 C 
ATOM     20  C   UNL     1     -11.885  -1.531  12.867  1.00  0.00     0.004 C 
ENDBRANCH  18  19
ENDBRANCH  17  18
ENDBRANCH  16  17
ENDBRANCH  15  16
ENDBRANCH  14  15
ENDBRANCH  13  14
ENDBRANCH  12  13
ENDBRANCH   1  12
TORSDOF 16
ENDMDL
MODEL 7
REMARK VINA RESULT:    -5.341      2.910      5.529
REMARK INTER + INTRA:         -12.918
REMARK INTER:                 -10.153
REMARK INTRA:                  -2.765
REMARK UNBOUND:                -2.580
REMARK SMILES CCCCCCCCCCCCCCCCCC(=O)[O-]
REMARK SMILES IDX 10 1 11 2 12 3 13 4 14 5 15 6 16 7 17 8 18 9 19 10 20 11
REMARK SMILES IDX 9 12 8 13 7 14 6 15 5 16 4 17 3 18 2 19 1 20
REMARK H PARENT
REMARK Flexibility Score: inf
ROOT
ATOM      1  C   UNL     1      -7.894  -4.911  12.445  1.00  0.00     0.000 C 
ENDROOT
BRANCH   1   2
ATOM      2  C   UNL     1      -8.526  -3.852  13.360  1.00  0.00     0.000 C 
BRANCH   2   3
ATOM      3  C   UNL     1      -7.789  -2.502  13.305  1.00  0.00     0.000 C 
BRANCH   3   4
ATOM      4  C   UNL     1      -8.764  -1.307  13.240  1.00  0.00     0.000 C 
BRANCH   4   5
ATOM      5  C   UNL     1     -10.244  -1.726  13.178  1.00  0.00     0.000 C 
BRANCH   5   6
ATOM      6  C   UNL     1     -10.991  -1.106  11.986  1.00  0.00     0.000 C 
BRANCH   6   7
ATOM      7  C   UNL     1     -12.513  -1.085  12.189  1.00  0.00     0.006 C 
BRANCH   7   8
ATOM      8  C   UNL     1     -12.988  -2.144  13.193  1.00  0.00     0.053 C 
BRANCH   8   9
ATOM      9  C   UNL     1     -13.764  -3.214  12.494  1.00  0.00     0.041 C 
ATOM     10  O   UNL     1     -13.592  -3.422  11.264  1.00  0.00    -0.550 OA
ATOM     11  O   UNL     1     -14.645  -4.016  13.211  1.00  0.00    -0.550 OA
ENDBRANCH   8   9
ENDBRANCH   7   8
ENDBRANCH   6   7
ENDBRANCH   5   6
ENDBRANCH   4   5
ENDBRANCH   3   4
ENDBRANCH   2   3
ENDBRANCH   1   2
BRANCH   1  12
ATOM     12  C   UNL     1      -8.930  -5.873  11.847  1.00  0.00     0.000 C 
BRANCH  12  13
ATOM     13  C   UNL     1     -10.320  -5.217  11.794  1.00  0.00    -0.000 C 
BRANCH  13  14
ATOM     14  C   UNL     1     -11.386  -6.020  12.557  1.00  0.00    -0.000 C 
BRANCH  14  15
ATOM     15  C   UNL     1     -10.773  -7.067  13.502  1.00  0.00    -0.000 C 
BRANCH  15  16
ATOM     16  C   UNL     1     -11.311  -6.954  14.937  1.00  0.00    -0.000 C 
BRANCH  16  17
ATOM     17  C   UNL     1     -10.831  -5.681  15.656  1.00  0.00    -0.000 C 
BRANCH  17  18
ATOM     18  C   UNL     1     -11.989  -4.701  15.940  1.00  0.00    -0.000 C 
BRANCH  18  19
ATOM     19  C   UNL     1     -11.521  -3.322  16.435  1.00  0.00    -0.003 C 
ATOM     20  C   UNL     1     -10.016  -3.257  16.690  1.00  0.00     0.004 C 
ENDBRANCH  18  19
ENDBRANCH  17  18
ENDBRANCH  16  17
ENDBRANCH  15  16
ENDBRANCH  14  15
ENDBRANCH  13  14
ENDBRANCH  12  13
ENDBRANCH   1  12
TORSDOF 16
ENDMDL
MODEL 8
REMARK VINA RESULT:    -5.334      2.105      4.373
REMARK INTER + INTRA:         -12.904
REMARK INTER:                  -9.855
REMARK INTRA:                  -3.049
REMARK UNBOUND:                -2.580
REMARK SMILES CCCCCCCCCCCCCCCCCC(=O)[O-]
REMARK SMILES IDX 10 1 11 2 12 3 13 4 14 5 15 6 16 7 17 8 18 9 19 10 20 11
REMARK SMILES IDX 9 12 8 13 7 14 6 15 5 16 4 17 3 18 2 19 1 20
REMARK H PARENT
REMARK Flexibility Score: inf
ROOT
ATOM      1  C   UNL     1     -10.248  -6.775  13.188  1.00  0.00     0.000 C 
ENDROOT
BRANCH   1   2
ATOM      2  C   UNL     1     -11.531  -6.771  14.032  1.00  0.00     0.000 C 
BRANCH   2   3
ATOM      3  C   UNL     1     -11.270  -6.424  15.508  1.00  0.00     0.000 C 
BRANCH   3   4
ATOM      4  C   UNL     1     -11.741  -4.997  15.863  1.00  0.00     0.000 C 
BRANCH   4   5
ATOM      5  C   UNL     1     -10.585  -4.024  16.152  1.00  0.00     0.000 C 
BRANCH   5   6
ATOM      6  C   UNL     1      -9.217  -4.723  16.212  1.00  0.00     0.000 C 
BRANCH   6   7
ATOM      7  C   UNL     1      -8.189  -4.094  15.259  1.00  0.00     0.006 C 
BRANCH   7   8
ATOM      8  C   UNL     1      -8.537  -2.645  14.891  1.00  0.00     0.053 C 
BRANCH   8   9
ATOM      9  C   UNL     1      -8.081  -2.337  13.500  1.00  0.00     0.041 C 
ATOM     10  O   UNL     1      -7.387  -3.171  12.861  1.00  0.00    -0.550 OA
ATOM     11  O   UNL     1      -8.461  -1.147  12.890  1.00  0.00    -0.550 OA
ENDBRANCH   8   9
ENDBRANCH   7   8
ENDBRANCH   6   7
ENDBRANCH   5   6
ENDBRANCH   4   5
ENDBRANCH   3   4
ENDBRANCH   2   3
ENDBRANCH   1   2
BRANCH   1  12
ATOM     12  C   UNL     1     -10.064  -5.482  12.382  1.00  0.00     0.000 C 
BRANCH  12  13
ATOM     13  C   UNL     1      -9.945  -5.785  10.879  1.00  0.00    -0.000 C 
BRANCH  13  14
ATOM     14  C   UNL     1     -11.030  -5.087  10.044  1.00  0.00    -0.000 C 
BRANCH  14  15
ATOM     15  C   UNL     1     -12.446  -5.589  10.375  1.00  0.00    -0.000 C 
BRANCH  15  16
ATOM     16  C   UNL     1     -13.376  -4.462  10.849  1.00  0.00    -0.000 C 
BRANCH  16  17
ATOM     17  C   UNL     1     -13.615  -4.486  12.370  1.00  0.00    -0.000 C 
BRANCH  17  18
ATOM     18  C   UNL     1     -13.513  -3.079  12.997  1.00  0.00    -0.000 C 
BRANCH  18  19
ATOM     19  C   UNL     1     -12.076  -2.532  13.048  1.00  0.00    -0.003 C 
ATOM     20  C   UNL     1     -11.882  -1.281  12.194  1.00  0.00     0.004 C 
ENDBRANCH  18  19
ENDBRANCH  17  18
ENDBRANCH  16  17
ENDBRANCH  15  16
ENDBRANCH  14  15
ENDBRANCH  13  14
ENDBRANCH  12  13
ENDBRANCH   1  12
TORSDOF 16
ENDMDL
MODEL 9
REMARK VINA RESULT:    -5.286      2.791      4.943
REMARK INTER + INTRA:         -12.810
REMARK INTER:                  -9.719
REMARK INTRA:                  -3.091
REMARK UNBOUND:                -2.580
REMARK SMILES CCCCCCCCCCCCCCCCCC(=O)[O-]
REMARK SMILES IDX 10 1 11 2 12 3 13 4 14 5 15 6 16 7 17 8 18 9 19 10 20 11
REMARK SMILES IDX 9 12 8 13 7 14 6 15 5 16 4 17 3 18 2 19 1 20
REMARK H PARENT
REMARK Flexibility Score: inf
ROOT
ATOM      1  C   UNL     1      -8.090  -3.349  16.458  1.00  0.00     0.000 C 
ENDROOT
BRANCH   1   2
ATOM      2  C   UNL     1      -7.064  -3.168  15.328  1.00  0.00     0.000 C 
BRANCH   2   3
ATOM      3  C   UNL     1      -7.698  -3.259  13.929  1.00  0.00     0.000 C 
BRANCH   3   4
ATOM      4  C   UNL     1      -8.007  -1.867  13.338  1.00  0.00     0.000 C 
BRANCH   4   5
ATOM      5  C   UNL     1      -9.506  -1.518  13.341  1.00  0.00     0.000 C 
BRANCH   5   6
ATOM      6  C   UNL     1     -10.390  -2.678  12.855  1.00  0.00     0.000 C 
BRANCH   6   7
ATOM      7  C   UNL     1     -11.726  -2.197  12.268  1.00  0.00     0.006 C 
BRANCH   7   8
ATOM      8  C   UNL     1     -12.836  -2.111  13.324  1.00  0.00     0.053 C 
BRANCH   8   9
ATOM      9  C   UNL     1     -13.863  -3.173  13.089  1.00  0.00     0.041 C 
ATOM     10  O   UNL     1     -14.723  -3.431  13.972  1.00  0.00    -0.550 OA
ATOM     11  O   UNL     1     -13.900  -3.847  11.874  1.00  0.00    -0.550 OA
ENDBRANCH   8   9
ENDBRANCH   7   8
ENDBRANCH   6   7
ENDBRANCH   5   6
ENDBRANCH   4   5
ENDBRANCH   3   4
ENDBRANCH   2   3
ENDBRANCH   1   2
BRANCH   1  12
ATOM     12  C   UNL     1      -9.227  -4.309  16.078  1.00  0.00     0.000 C 
BRANCH  12  13
ATOM     13  C   UNL     1     -10.598  -3.650  16.303  1.00  0.00    -0.000 C 
BRANCH  13  14
ATOM     14  C   UNL     1     -11.767  -4.554  15.882  1.00  0.00    -0.000 C 
BRANCH  14  15
ATOM     15  C   UNL     1     -11.298  -5.919  15.350  1.00  0.00    -0.000 C 
BRANCH  15  16
ATOM     16  C   UNL     1     -12.076  -6.367  14.103  1.00  0.00    -0.000 C 
BRANCH  16  17
ATOM     17  C   UNL     1     -11.314  -6.092  12.793  1.00  0.00    -0.000 C 
BRANCH  17  18
ATOM     18  C   UNL     1      -9.810  -6.417  12.916  1.00  0.00    -0.000 C 
BRANCH  18  19
ATOM     19  C   UNL     1      -8.991  -6.007  11.681  1.00  0.00    -0.003 C 
ATOM     20  C   UNL     1      -9.858  -5.696  10.462  1.00  0.00     0.004 C 
ENDBRANCH  18  19
ENDBRANCH  17  18
ENDBRANCH  16  17
ENDBRANCH  15  16
ENDBRANCH  14  15
ENDBRANCH  13  14
ENDBRANCH  12  13
ENDBRANCH   1  12
TORSDOF 16
ENDMDL
