MODEL 1
REMARK VINA RESULT:    10.627      0.000      0.000
REMARK INTER + INTRA:          12.747
REMARK INTER:                  12.491
REMARK INTRA:                   0.256
REMARK UNBOUND:                 0.256
REMARK SMILES C=C(C)[C@@H]1CC[C@]2(CO)CC[C@@]3(C)[C@H](CC[C@H]4[C@]5(C)CC[C@H](O)C(C)(C)[C@@H]5CC[C@]43C)[C@H]12
REMARK SMILES IDX 4 1 5 2 6 3 7 4 32 5 14 6 15 7 16 8 17 9 18 10 20 11 21 12
REMARK SMILES IDX 22 13 24 14 27 15 28 16 29 17 30 18 12 19 11 20 10 21 13 22
REMARK SMILES IDX 31 23 25 24 26 25 19 26 2 27 3 28 1 29 8 30 9 31 23 33
REMARK H PARENT 9 32 23 34
REMARK Flexibility Score: inf
ROOT
ATOM      1  C   UNL     1       8.340 -33.812  11.893  1.00  0.00     0.018 C 
ATOM      2  C   UNL     1       8.814 -35.124  12.513  1.00  0.00     0.009 C 
ATOM      3  C   UNL     1      10.299 -34.929  12.785  1.00  0.00     0.010 C 
ATOM      4  C   UNL     1      10.583 -33.397  12.888  1.00  0.00    -0.003 C 
ATOM      5  C   UNL     1       9.232 -32.701  12.504  1.00  0.00     0.008 C 
ATOM      6  C   UNL     1       8.593 -31.822  13.653  1.00  0.00    -0.000 C 
ATOM      7  C   UNL     1       7.926 -32.653  14.784  1.00  0.00     0.005 C 
ATOM      8  C   UNL     1       8.174 -32.156  16.212  1.00  0.00     0.005 C 
ATOM      9  C   UNL     1       7.966 -30.628  16.365  1.00  0.00     0.002 C 
ATOM     10  C   UNL     1       7.816 -30.082  17.904  1.00  0.00    -0.026 C 
ATOM     11  C   UNL     1       6.466 -29.300  18.010  1.00  0.00     0.010 C 
ATOM     12  C   UNL     1       6.204 -28.653  19.374  1.00  0.00     0.033 C 
ATOM     13  C   UNL     1       7.309 -27.659  19.754  1.00  0.00     0.120 C 
ATOM     14  C   UNL     1       8.730 -28.312  19.756  1.00  0.00    -0.006 C 
ATOM     15  C   UNL     1       9.000 -29.132  18.394  1.00  0.00     0.003 C 
ATOM     16  C   UNL     1       9.435 -28.193  17.251  1.00  0.00     0.005 C 
ATOM     17  C   UNL     1       9.967 -28.975  16.070  1.00  0.00     0.008 C 
ATOM     18  C   UNL     1       8.884 -29.813  15.331  1.00  0.00    -0.024 C 
ATOM     19  C   UNL     1       9.604 -30.756  14.201  1.00  0.00    -0.024 C 
ATOM     20  C   UNL     1      10.898 -31.521  14.713  1.00  0.00     0.008 C 
ATOM     21  C   UNL     1      11.031 -33.020  14.332  1.00  0.00     0.010 C 
ATOM     22  C   UNL     1      10.062 -29.847  13.003  1.00  0.00     0.012 C 
ATOM     23  C   UNL     1       7.942 -28.777  14.612  1.00  0.00     0.012 C 
ATOM     24  C   UNL     1       9.778 -27.174  19.968  1.00  0.00     0.014 C 
ATOM     25  C   UNL     1       8.894 -29.225  21.018  1.00  0.00     0.014 C 
ATOM     26  C   UNL     1       7.708 -31.302  18.874  1.00  0.00     0.012 C 
ENDROOT
BRANCH   1  27
ATOM     27  C   UNL     1       6.834 -33.535  11.882  1.00  0.00    -0.077 C 
ATOM     28  C   UNL     1       5.882 -34.703  11.955  1.00  0.00     0.039 C 
ATOM     29  C   UNL     1       6.308 -32.296  11.917  1.00  0.00     0.008 C 
ENDBRANCH   1  27
BRANCH   4  30
ATOM     30  C   UNL     1      11.716 -33.027  11.876  1.00  0.00     0.163 C 
BRANCH  30  31
ATOM     31  O   UNL     1      12.754 -33.978  11.875  1.00  0.00    -0.396 OA
ATOM     32  H   UNL     1      13.611 -33.484  11.962  1.00  0.00     0.210 HD
ENDBRANCH  30  31
ENDBRANCH   4  30
BRANCH  13  33
ATOM     33  O   UNL     1       7.268 -26.563  18.872  1.00  0.00    -0.393 OA
ATOM     34  H   UNL     1       6.855 -26.880  18.027  1.00  0.00     0.210 HD
ENDBRANCH  13  33
TORSDOF 4
ENDMDL
