MODEL 1
REMARK VINA RESULT:    -7.054      0.000      0.000
REMARK INTER + INTRA:          -7.260
REMARK INTER:                  -7.260
REMARK INTRA:                   0.000
REMARK UNBOUND:                 0.000
REMARK SMILES C[C@H]1CC[C@]2(OC1)O[C@H]1C[C@H]3[C@@H]4CC=C5C[C@H](O)CC[C@@]5(C)[C@H]4CC[C@@]3(C)[C@H]1[C@H]2C
REMARK SMILES IDX 1 1 2 2 3 3 4 4 5 5 29 6 28 7 9 8 8 9 10 10 11 11 26 12
REMARK SMILES IDX 25 13 24 14 23 15 12 16 13 17 14 18 15 19 21 20 20 21 19 22
REMARK SMILES IDX 17 23 16 24 22 25 27 26 30 27 6 28 7 29 18 30
REMARK H PARENT 18 31
REMARK Flexibility Score: inf
ROOT
ATOM      1  C   UNL     1      42.486   0.679  -8.197  1.00  0.00     0.010 C 
ATOM      2  C   UNL     1      42.354  -0.838  -7.976  1.00  0.00     0.012 C 
ATOM      3  C   UNL     1      43.487  -1.628  -8.620  1.00  0.00     0.011 C 
ATOM      4  C   UNL     1      44.794  -1.362  -7.890  1.00  0.00     0.066 C 
ATOM      5  C   UNL     1      44.683  -1.564  -6.347  1.00  0.00     0.171 C 
ATOM      6  C   UNL     1      44.860  -3.069  -5.931  1.00  0.00     0.052 C 
ATOM      7  C   UNL     1      46.252  -3.120  -5.264  1.00  0.00     0.033 C 
ATOM      8  C   UNL     1      46.841  -1.775  -5.636  1.00  0.00     0.126 C 
ATOM      9  O   UNL     1      45.783  -0.864  -5.800  1.00  0.00    -0.346 OA
ATOM     10  C   UNL     1      47.752  -1.335  -4.493  1.00  0.00     0.037 C 
ATOM     11  C   UNL     1      47.851  -2.536  -3.551  1.00  0.00     0.002 C 
ATOM     12  C   UNL     1      46.491  -3.263  -3.717  1.00  0.00    -0.024 C 
ATOM     13  C   UNL     1      45.368  -2.580  -2.853  1.00  0.00     0.008 C 
ATOM     14  C   UNL     1      45.842  -1.766  -1.629  1.00  0.00     0.005 C 
ATOM     15  C   UNL     1      47.163  -2.291  -1.049  1.00  0.00     0.003 C 
ATOM     16  C   UNL     1      48.278  -2.124  -2.100  1.00  0.00     0.000 C 
ATOM     17  C   UNL     1      49.497  -2.918  -1.618  1.00  0.00     0.031 C 
ATOM     18  C   UNL     1      49.928  -2.447  -0.256  1.00  0.00    -0.027 C 
ATOM     19  C   UNL     1      49.075  -1.899   0.641  1.00  0.00    -0.065 C 
ATOM     20  C   UNL     1      47.578  -1.677   0.349  1.00  0.00    -0.008 C 
ATOM     21  C   UNL     1      47.309  -0.140   0.404  1.00  0.00     0.014 C 
ATOM     22  C   UNL     1      47.880   0.547   1.663  1.00  0.00     0.033 C 
ATOM     23  C   UNL     1      49.379   0.248   1.851  1.00  0.00     0.118 C 
ATOM     24  C   UNL     1      49.647  -1.263   1.890  1.00  0.00     0.063 C 
ATOM     25  C   UNL     1      46.747  -2.394   1.449  1.00  0.00     0.016 C 
ATOM     26  C   UNL     1      46.656  -4.769  -3.356  1.00  0.00     0.012 C 
ATOM     27  C   UNL     1      43.697  -3.748  -5.180  1.00  0.00     0.014 C 
ATOM     28  O   UNL     1      43.517  -0.950  -5.792  1.00  0.00    -0.349 OA
ATOM     29  C   UNL     1      42.298  -1.185  -6.487  1.00  0.00     0.167 C 
ENDROOT
BRANCH  23  30
ATOM     30  O   UNL     1      49.872   0.869   3.011  1.00  0.00    -0.393 OA
ATOM     31  H   UNL     1      49.628   1.832   2.964  1.00  0.00     0.210 HD
ENDBRANCH  23  30
TORSDOF 1
ENDMDL
MODEL 2
REMARK VINA RESULT:    -6.277      8.524     12.048
REMARK INTER + INTRA:          -6.461
REMARK INTER:                  -6.461
REMARK INTRA:                   0.000
REMARK UNBOUND:                 0.000
REMARK SMILES C[C@H]1CC[C@]2(OC1)O[C@H]1C[C@H]3[C@@H]4CC=C5C[C@H](O)CC[C@@]5(C)[C@H]4CC[C@@]3(C)[C@H]1[C@H]2C
REMARK SMILES IDX 1 1 2 2 3 3 4 4 5 5 29 6 28 7 9 8 8 9 10 10 11 11 26 12
REMARK SMILES IDX 25 13 24 14 23 15 12 16 13 17 14 18 15 19 21 20 20 21 19 22
REMARK SMILES IDX 17 23 16 24 22 25 27 26 30 27 6 28 7 29 18 30
REMARK H PARENT 18 31
REMARK Flexibility Score: inf
ROOT
ATOM      1  C   UNL     1      60.375  -1.374  -4.329  1.00  0.00     0.010 C 
ATOM      2  C   UNL     1      60.615  -2.036  -5.696  1.00  0.00     0.012 C 
ATOM      3  C   UNL     1      60.593  -3.558  -5.627  1.00  0.00     0.011 C 
ATOM      4  C   UNL     1      59.184  -4.050  -5.333  1.00  0.00     0.066 C 
ATOM      5  C   UNL     1      58.115  -3.448  -6.297  1.00  0.00     0.171 C 
ATOM      6  C   UNL     1      58.017  -4.245  -7.647  1.00  0.00     0.052 C 
ATOM      7  C   UNL     1      56.674  -5.001  -7.548  1.00  0.00     0.033 C 
ATOM      8  C   UNL     1      56.309  -4.827  -6.088  1.00  0.00     0.126 C 
ATOM      9  O   UNL     1      56.878  -3.623  -5.636  1.00  0.00    -0.346 OA
ATOM     10  C   UNL     1      54.787  -4.766  -5.994  1.00  0.00     0.037 C 
ATOM     11  C   UNL     1      54.267  -5.121  -7.388  1.00  0.00     0.002 C 
ATOM     12  C   UNL     1      55.377  -4.617  -8.348  1.00  0.00    -0.024 C 
ATOM     13  C   UNL     1      55.248  -3.071  -8.609  1.00  0.00     0.008 C 
ATOM     14  C   UNL     1      53.847  -2.453  -8.404  1.00  0.00     0.005 C 
ATOM     15  C   UNL     1      52.716  -3.460  -8.665  1.00  0.00     0.003 C 
ATOM     16  C   UNL     1      52.809  -4.601  -7.634  1.00  0.00     0.000 C 
ATOM     17  C   UNL     1      51.874  -5.724  -8.095  1.00  0.00     0.031 C 
ATOM     18  C   UNL     1      50.468  -5.211  -8.247  1.00  0.00    -0.027 C 
ATOM     19  C   UNL     1      50.179  -3.921  -8.541  1.00  0.00    -0.065 C 
ATOM     20  C   UNL     1      51.263  -2.840  -8.726  1.00  0.00    -0.008 C 
ATOM     21  C   UNL     1      51.049  -1.764  -7.613  1.00  0.00     0.014 C 
ATOM     22  C   UNL     1      49.590  -1.273  -7.494  1.00  0.00     0.033 C 
ATOM     23  C   UNL     1      48.603  -2.443  -7.320  1.00  0.00     0.118 C 
ATOM     24  C   UNL     1      48.739  -3.464  -8.458  1.00  0.00     0.063 C 
ATOM     25  C   UNL     1      51.080  -2.190 -10.125  1.00  0.00     0.016 C 
ATOM     26  C   UNL     1      55.328  -5.428  -9.675  1.00  0.00     0.012 C 
ATOM     27  C   UNL     1      58.295  -3.479  -8.956  1.00  0.00     0.014 C 
ATOM     28  O   UNL     1      58.264  -2.036  -6.475  1.00  0.00    -0.349 OA
ATOM     29  C   UNL     1      59.585  -1.576  -6.731  1.00  0.00     0.167 C 
ENDROOT
BRANCH  23  30
ATOM     30  O   UNL     1      47.281  -1.972  -7.231  1.00  0.00    -0.393 OA
ATOM     31  H   UNL     1      46.954  -2.165  -6.312  1.00  0.00     0.210 HD
ENDBRANCH  23  30
TORSDOF 1
ENDMDL
MODEL 3
REMARK VINA RESULT:    -6.204      5.409      8.194
REMARK INTER + INTRA:          -6.386
REMARK INTER:                  -6.386
REMARK INTRA:                   0.000
REMARK UNBOUND:                 0.000
REMARK SMILES C[C@H]1CC[C@]2(OC1)O[C@H]1C[C@H]3[C@@H]4CC=C5C[C@H](O)CC[C@@]5(C)[C@H]4CC[C@@]3(C)[C@H]1[C@H]2C
REMARK SMILES IDX 1 1 2 2 3 3 4 4 5 5 29 6 28 7 9 8 8 9 10 10 11 11 26 12
REMARK SMILES IDX 25 13 24 14 23 15 12 16 13 17 14 18 15 19 21 20 20 21 19 22
REMARK SMILES IDX 17 23 16 24 22 25 27 26 30 27 6 28 7 29 18 30
REMARK H PARENT 18 31
REMARK Flexibility Score: inf
ROOT
ATOM      1  C   UNL     1      56.593  -5.875  -7.818  1.00  0.00     0.010 C 
ATOM      2  C   UNL     1      56.659  -4.354  -7.595  1.00  0.00     0.012 C 
ATOM      3  C   UNL     1      56.001  -3.563  -8.719  1.00  0.00     0.011 C 
ATOM      4  C   UNL     1      54.495  -3.774  -8.698  1.00  0.00     0.066 C 
ATOM      5  C   UNL     1      53.863  -3.518  -7.294  1.00  0.00     0.171 C 
ATOM      6  C   UNL     1      53.564  -1.996  -7.047  1.00  0.00     0.052 C 
ATOM      7  C   UNL     1      52.026  -1.890  -7.129  1.00  0.00     0.033 C 
ATOM      8  C   UNL     1      51.637  -3.235  -7.708  1.00  0.00     0.126 C 
ATOM      9  O   UNL     1      52.611  -4.173  -7.325  1.00  0.00    -0.346 OA
ATOM     10  C   UNL     1      50.276  -3.612  -7.131  1.00  0.00     0.037 C 
ATOM     11  C   UNL     1      49.783  -2.376  -6.378  1.00  0.00     0.002 C 
ATOM     12  C   UNL     1      51.083  -1.684  -5.888  1.00  0.00    -0.024 C 
ATOM     13  C   UNL     1      51.631  -2.360  -4.578  1.00  0.00     0.008 C 
ATOM     14  C   UNL     1      50.600  -3.118  -3.712  1.00  0.00     0.005 C 
ATOM     15  C   UNL     1      49.182  -2.543  -3.846  1.00  0.00     0.003 C 
ATOM     16  C   UNL     1      48.700  -2.724  -5.299  1.00  0.00     0.000 C 
ATOM     17  C   UNL     1      47.429  -1.887  -5.476  1.00  0.00     0.031 C 
ATOM     18  C   UNL     1      46.383  -2.298  -4.477  1.00  0.00    -0.027 C 
ATOM     19  C   UNL     1      46.683  -2.831  -3.269  1.00  0.00    -0.065 C 
ATOM     20  C   UNL     1      48.129  -3.096  -2.804  1.00  0.00    -0.008 C 
ATOM     21  C   UNL     1      48.282  -4.636  -2.594  1.00  0.00     0.014 C 
ATOM     22  C   UNL     1      47.154  -5.264  -1.746  1.00  0.00     0.033 C 
ATOM     23  C   UNL     1      45.759  -4.925  -2.306  1.00  0.00     0.118 C 
ATOM     24  C   UNL     1      45.561  -3.408  -2.432  1.00  0.00     0.063 C 
ATOM     25  C   UNL     1      48.359  -2.357  -1.457  1.00  0.00     0.016 C 
ATOM     26  C   UNL     1      50.821  -0.164  -5.684  1.00  0.00     0.012 C 
ATOM     27  C   UNL     1      54.252  -1.314  -5.846  1.00  0.00     0.014 C 
ATOM     28  O   UNL     1      54.599  -4.137  -6.236  1.00  0.00    -0.349 OA
ATOM     29  C   UNL     1      56.010  -3.954  -6.267  1.00  0.00     0.167 C 
ENDROOT
BRANCH  23  30
ATOM     30  O   UNL     1      44.750  -5.493  -1.509  1.00  0.00    -0.393 OA
ATOM     31  H   UNL     1      44.007  -5.764  -2.112  1.00  0.00     0.210 HD
ENDBRANCH  23  30
TORSDOF 1
ENDMDL
MODEL 4
REMARK VINA RESULT:    -6.190      2.968      4.001
REMARK INTER + INTRA:          -6.371
REMARK INTER:                  -6.371
REMARK INTRA:                   0.000
REMARK UNBOUND:                 0.000
REMARK SMILES C[C@H]1CC[C@]2(OC1)O[C@H]1C[C@H]3[C@@H]4CC=C5C[C@H](O)CC[C@@]5(C)[C@H]4CC[C@@]3(C)[C@H]1[C@H]2C
REMARK SMILES IDX 1 1 2 2 3 3 4 4 5 5 29 6 28 7 9 8 8 9 10 10 11 11 26 12
REMARK SMILES IDX 25 13 24 14 23 15 12 16 13 17 14 18 15 19 21 20 20 21 19 22
REMARK SMILES IDX 17 23 16 24 22 25 27 26 30 27 6 28 7 29 18 30
REMARK H PARENT 18 31
REMARK Flexibility Score: inf
ROOT
ATOM      1  C   UNL     1      40.943  -0.237  -7.268  1.00  0.00     0.010 C 
ATOM      2  C   UNL     1      41.530  -1.647  -7.453  1.00  0.00     0.012 C 
ATOM      3  C   UNL     1      43.044  -1.638  -7.627  1.00  0.00     0.011 C 
ATOM      4  C   UNL     1      43.719  -1.234  -6.326  1.00  0.00     0.066 C 
ATOM      5  C   UNL     1      43.231  -2.068  -5.100  1.00  0.00     0.171 C 
ATOM      6  C   UNL     1      43.995  -3.434  -4.969  1.00  0.00     0.052 C 
ATOM      7  C   UNL     1      44.918  -3.240  -3.747  1.00  0.00     0.033 C 
ATOM      8  C   UNL     1      44.834  -1.746  -3.509  1.00  0.00     0.126 C 
ATOM      9  O   UNL     1      43.581  -1.301  -3.966  1.00  0.00    -0.346 OA
ATOM     10  C   UNL     1      44.971  -1.508  -2.008  1.00  0.00     0.037 C 
ATOM     11  C   UNL     1      45.348  -2.860  -1.401  1.00  0.00     0.002 C 
ATOM     12  C   UNL     1      44.679  -3.898  -2.340  1.00  0.00    -0.024 C 
ATOM     13  C   UNL     1      43.156  -4.082  -1.996  1.00  0.00     0.008 C 
ATOM     14  C   UNL     1      42.727  -3.721  -0.556  1.00  0.00     0.005 C 
ATOM     15  C   UNL     1      43.861  -3.916   0.462  1.00  0.00     0.003 C 
ATOM     16  C   UNL     1      45.011  -2.946   0.127  1.00  0.00     0.000 C 
ATOM     17  C   UNL     1      46.230  -3.363   0.957  1.00  0.00     0.031 C 
ATOM     18  C   UNL     1      45.896  -3.361   2.423  1.00  0.00    -0.027 C 
ATOM     19  C   UNL     1      44.646  -3.574   2.897  1.00  0.00    -0.065 C 
ATOM     20  C   UNL     1      43.430  -3.815   1.980  1.00  0.00    -0.008 C 
ATOM     21  C   UNL     1      42.423  -2.644   2.215  1.00  0.00     0.014 C 
ATOM     22  C   UNL     1      42.125  -2.368   3.704  1.00  0.00     0.033 C 
ATOM     23  C   UNL     1      43.416  -2.150   4.517  1.00  0.00     0.118 C 
ATOM     24  C   UNL     1      44.378  -3.337   4.368  1.00  0.00     0.063 C 
ATOM     25  C   UNL     1      42.769  -5.163   2.378  1.00  0.00     0.016 C 
ATOM     26  C   UNL     1      45.452  -5.247  -2.262  1.00  0.00     0.012 C 
ATOM     27  C   UNL     1      43.162  -4.731  -5.020  1.00  0.00     0.014 C 
ATOM     28  O   UNL     1      41.807  -2.200  -5.055  1.00  0.00    -0.349 OA
ATOM     29  C   UNL     1      41.175  -2.561  -6.278  1.00  0.00     0.167 C 
ENDROOT
BRANCH  23  30
ATOM     30  O   UNL     1      43.120  -1.918   5.872  1.00  0.00    -0.393 OA
ATOM     31  H   UNL     1      43.946  -2.100   6.396  1.00  0.00     0.210 HD
ENDBRANCH  23  30
TORSDOF 1
ENDMDL
MODEL 5
REMARK VINA RESULT:    -5.927      4.955      8.851
REMARK INTER + INTRA:          -6.101
REMARK INTER:                  -6.101
REMARK INTRA:                   0.000
REMARK UNBOUND:                 0.000
REMARK SMILES C[C@H]1CC[C@]2(OC1)O[C@H]1C[C@H]3[C@@H]4CC=C5C[C@H](O)CC[C@@]5(C)[C@H]4CC[C@@]3(C)[C@H]1[C@H]2C
REMARK SMILES IDX 1 1 2 2 3 3 4 4 5 5 29 6 28 7 9 8 8 9 10 10 11 11 26 12
REMARK SMILES IDX 25 13 24 14 23 15 12 16 13 17 14 18 15 19 21 20 20 21 19 22
REMARK SMILES IDX 17 23 16 24 22 25 27 26 30 27 6 28 7 29 18 30
REMARK H PARENT 18 31
REMARK Flexibility Score: inf
ROOT
ATOM      1  C   UNL     1      55.457  -6.663  -5.618  1.00  0.00     0.010 C 
ATOM      2  C   UNL     1      55.657  -5.181  -5.978  1.00  0.00     0.012 C 
ATOM      3  C   UNL     1      55.575  -4.921  -7.478  1.00  0.00     0.011 C 
ATOM      4  C   UNL     1      54.150  -5.128  -7.969  1.00  0.00     0.066 C 
ATOM      5  C   UNL     1      53.096  -4.336  -7.134  1.00  0.00     0.171 C 
ATOM      6  C   UNL     1      52.953  -2.849  -7.617  1.00  0.00     0.052 C 
ATOM      7  C   UNL     1      51.582  -2.808  -8.327  1.00  0.00     0.033 C 
ATOM      8  C   UNL     1      51.239  -4.277  -8.458  1.00  0.00     0.126 C 
ATOM      9  O   UNL     1      51.860  -4.967  -7.402  1.00  0.00    -0.346 OA
ATOM     10  C   UNL     1      49.722  -4.410  -8.363  1.00  0.00     0.037 C 
ATOM     11  C   UNL     1      49.174  -2.982  -8.390  1.00  0.00     0.002 C 
ATOM     12  C   UNL     1      50.293  -2.133  -7.731  1.00  0.00    -0.024 C 
ATOM     13  C   UNL     1      50.224  -2.213  -6.162  1.00  0.00     0.008 C 
ATOM     14  C   UNL     1      48.850  -2.573  -5.552  1.00  0.00     0.005 C 
ATOM     15  C   UNL     1      47.678  -2.122  -6.436  1.00  0.00     0.003 C 
ATOM     16  C   UNL     1      47.735  -2.881  -7.775  1.00  0.00     0.000 C 
ATOM     17  C   UNL     1      46.751  -2.206  -8.737  1.00  0.00     0.031 C 
ATOM     18  C   UNL     1      45.366  -2.194  -8.151  1.00  0.00    -0.027 C 
ATOM     19  C   UNL     1      45.126  -2.190  -6.819  1.00  0.00    -0.065 C 
ATOM     20  C   UNL     1      46.250  -2.222  -5.764  1.00  0.00    -0.008 C 
ATOM     21  C   UNL     1      46.090  -3.544  -4.947  1.00  0.00     0.014 C 
ATOM     22  C   UNL     1      44.654  -3.793  -4.439  1.00  0.00     0.033 C 
ATOM     23  C   UNL     1      43.622  -3.730  -5.582  1.00  0.00     0.118 C 
ATOM     24  C   UNL     1      43.706  -2.396  -6.338  1.00  0.00     0.063 C 
ATOM     25  C   UNL     1      46.079  -1.000  -4.821  1.00  0.00     0.016 C 
ATOM     26  C   UNL     1      50.199  -0.663  -8.235  1.00  0.00     0.012 C 
ATOM     27  C   UNL     1      53.248  -1.730  -6.597  1.00  0.00     0.014 C 
ATOM     28  O   UNL     1      53.299  -4.464  -5.724  1.00  0.00    -0.349 OA
ATOM     29  C   UNL     1      54.636  -4.288  -5.268  1.00  0.00     0.167 C 
ENDROOT
BRANCH  23  30
ATOM     30  O   UNL     1      42.321  -3.942  -5.093  1.00  0.00    -0.393 OA
ATOM     31  H   UNL     1      41.708  -3.979  -5.875  1.00  0.00     0.210 HD
ENDBRANCH  23  30
TORSDOF 1
ENDMDL
MODEL 6
REMARK VINA RESULT:    -5.913      8.261     10.325
REMARK INTER + INTRA:          -6.086
REMARK INTER:                  -6.086
REMARK INTRA:                   0.000
REMARK UNBOUND:                 0.000
REMARK SMILES C[C@H]1CC[C@]2(OC1)O[C@H]1C[C@H]3[C@@H]4CC=C5C[C@H](O)CC[C@@]5(C)[C@H]4CC[C@@]3(C)[C@H]1[C@H]2C
REMARK SMILES IDX 1 1 2 2 3 3 4 4 5 5 29 6 28 7 9 8 8 9 10 10 11 11 26 12
REMARK SMILES IDX 25 13 24 14 23 15 12 16 13 17 14 18 15 19 21 20 20 21 19 22
REMARK SMILES IDX 17 23 16 24 22 25 27 26 30 27 6 28 7 29 18 30
REMARK H PARENT 18 31
REMARK Flexibility Score: inf
ROOT
ATOM      1  C   UNL     1      48.225  -0.051  -6.557  1.00  0.00     0.010 C 
ATOM      2  C   UNL     1      49.033   0.712  -7.621  1.00  0.00     0.012 C 
ATOM      3  C   UNL     1      49.758   1.926  -7.053  1.00  0.00     0.011 C 
ATOM      4  C   UNL     1      50.881   1.482  -6.129  1.00  0.00     0.066 C 
ATOM      5  C   UNL     1      51.830   0.431  -6.784  1.00  0.00     0.171 C 
ATOM      6  C   UNL     1      52.942   1.104  -7.666  1.00  0.00     0.052 C 
ATOM      7  C   UNL     1      54.240   0.925  -6.848  1.00  0.00     0.033 C 
ATOM      8  C   UNL     1      53.715   0.478  -5.499  1.00  0.00     0.126 C 
ATOM      9  O   UNL     1      52.496  -0.192  -5.704  1.00  0.00    -0.346 OA
ATOM     10  C   UNL     1      54.748  -0.466  -4.890  1.00  0.00     0.037 C 
ATOM     11  C   UNL     1      55.972  -0.394  -5.804  1.00  0.00     0.002 C 
ATOM     12  C   UNL     1      55.382  -0.093  -7.207  1.00  0.00    -0.024 C 
ATOM     13  C   UNL     1      54.848  -1.403  -7.895  1.00  0.00     0.008 C 
ATOM     14  C   UNL     1      55.466  -2.735  -7.415  1.00  0.00     0.005 C 
ATOM     15  C   UNL     1      56.906  -2.565  -6.906  1.00  0.00     0.003 C 
ATOM     16  C   UNL     1      56.897  -1.652  -5.664  1.00  0.00     0.000 C 
ATOM     17  C   UNL     1      58.348  -1.260  -5.363  1.00  0.00     0.031 C 
ATOM     18  C   UNL     1      59.193  -2.488  -5.158  1.00  0.00    -0.027 C 
ATOM     19  C   UNL     1      58.917  -3.681  -5.734  1.00  0.00    -0.065 C 
ATOM     20  C   UNL     1      57.690  -3.912  -6.640  1.00  0.00    -0.008 C 
ATOM     21  C   UNL     1      56.784  -4.977  -5.944  1.00  0.00     0.014 C 
ATOM     22  C   UNL     1      57.548  -6.234  -5.476  1.00  0.00     0.033 C 
ATOM     23  C   UNL     1      58.753  -5.876  -4.585  1.00  0.00     0.118 C 
ATOM     24  C   UNL     1      59.701  -4.898  -5.293  1.00  0.00     0.063 C 
ATOM     25  C   UNL     1      58.181  -4.456  -8.009  1.00  0.00     0.016 C 
ATOM     26  C   UNL     1      56.454   0.619  -8.083  1.00  0.00     0.012 C 
ATOM     27  C   UNL     1      52.997   0.729  -9.161  1.00  0.00     0.014 C 
ATOM     28  O   UNL     1      51.119  -0.613  -7.455  1.00  0.00    -0.349 OA
ATOM     29  C   UNL     1      50.057  -0.196  -8.306  1.00  0.00     0.167 C 
ENDROOT
BRANCH  23  30
ATOM     30  O   UNL     1      59.442  -7.034  -4.186  1.00  0.00    -0.393 OA
ATOM     31  H   UNL     1      60.410  -6.882  -4.355  1.00  0.00     0.210 HD
ENDBRANCH  23  30
TORSDOF 1
ENDMDL
MODEL 7
REMARK VINA RESULT:    -5.880      3.682      4.909
REMARK INTER + INTRA:          -6.052
REMARK INTER:                  -6.052
REMARK INTRA:                   0.000
REMARK UNBOUND:                 0.000
REMARK SMILES C[C@H]1CC[C@]2(OC1)O[C@H]1C[C@H]3[C@@H]4CC=C5C[C@H](O)CC[C@@]5(C)[C@H]4CC[C@@]3(C)[C@H]1[C@H]2C
REMARK SMILES IDX 1 1 2 2 3 3 4 4 5 5 29 6 28 7 9 8 8 9 10 10 11 11 26 12
REMARK SMILES IDX 25 13 24 14 23 15 12 16 13 17 14 18 15 19 21 20 20 21 19 22
REMARK SMILES IDX 17 23 16 24 22 25 27 26 30 27 6 28 7 29 18 30
REMARK H PARENT 18 31
REMARK Flexibility Score: inf
ROOT
ATOM      1  C   UNL     1      47.445  -0.550  -7.623  1.00  0.00     0.010 C 
ATOM      2  C   UNL     1      45.953  -0.710  -7.959  1.00  0.00     0.012 C 
ATOM      3  C   UNL     1      45.588  -2.133  -8.364  1.00  0.00     0.011 C 
ATOM      4  C   UNL     1      45.696  -3.064  -7.167  1.00  0.00     0.066 C 
ATOM      5  C   UNL     1      44.916  -2.545  -5.919  1.00  0.00     0.171 C 
ATOM      6  C   UNL     1      43.394  -2.930  -5.968  1.00  0.00     0.052 C 
ATOM      7  C   UNL     1      43.242  -4.031  -4.896  1.00  0.00     0.033 C 
ATOM      8  C   UNL     1      44.683  -4.380  -4.582  1.00  0.00     0.126 C 
ATOM      9  O   UNL     1      45.470  -3.240  -4.819  1.00  0.00    -0.346 OA
ATOM     10  C   UNL     1      44.753  -4.780  -3.111  1.00  0.00     0.037 C 
ATOM     11  C   UNL     1      43.303  -4.865  -2.630  1.00  0.00     0.002 C 
ATOM     12  C   UNL     1      42.552  -3.822  -3.499  1.00  0.00    -0.024 C 
ATOM     13  C   UNL     1      42.737  -2.367  -2.932  1.00  0.00     0.008 C 
ATOM     14  C   UNL     1      43.074  -2.252  -1.428  1.00  0.00     0.005 C 
ATOM     15  C   UNL     1      42.512  -3.423  -0.608  1.00  0.00     0.003 C 
ATOM     16  C   UNL     1      43.180  -4.731  -1.074  1.00  0.00     0.000 C 
ATOM     17  C   UNL     1      42.397  -5.898  -0.462  1.00  0.00     0.031 C 
ATOM     18  C   UNL     1      42.362  -5.782   1.037  1.00  0.00    -0.027 C 
ATOM     19  C   UNL     1      42.438  -4.598   1.689  1.00  0.00    -0.065 C 
ATOM     20  C   UNL     1      42.593  -3.248   0.961  1.00  0.00    -0.008 C 
ATOM     21  C   UNL     1      43.959  -2.630   1.401  1.00  0.00     0.014 C 
ATOM     22  C   UNL     1      44.177  -2.624   2.929  1.00  0.00     0.033 C 
ATOM     23  C   UNL     1      43.989  -4.026   3.541  1.00  0.00     0.118 C 
ATOM     24  C   UNL     1      42.612  -4.608   3.193  1.00  0.00     0.063 C 
ATOM     25  C   UNL     1      41.431  -2.313   1.397  1.00  0.00     0.016 C 
ATOM     26  C   UNL     1      41.049  -4.211  -3.602  1.00  0.00     0.012 C 
ATOM     27  C   UNL     1      42.362  -1.783  -5.947  1.00  0.00     0.014 C 
ATOM     28  O   UNL     1      45.149  -1.158  -5.659  1.00  0.00    -0.349 OA
ATOM     29  C   UNL     1      45.065  -0.291  -6.784  1.00  0.00     0.167 C 
ENDROOT
BRANCH  23  30
ATOM     30  O   UNL     1      44.175  -3.991   4.934  1.00  0.00    -0.393 OA
ATOM     31  H   UNL     1      43.303  -4.206   5.360  1.00  0.00     0.210 HD
ENDBRANCH  23  30
TORSDOF 1
ENDMDL
MODEL 8
REMARK VINA RESULT:    -5.829      6.201      8.107
REMARK INTER + INTRA:          -6.000
REMARK INTER:                  -6.000
REMARK INTRA:                   0.000
REMARK UNBOUND:                 0.000
REMARK SMILES C[C@H]1CC[C@]2(OC1)O[C@H]1C[C@H]3[C@@H]4CC=C5C[C@H](O)CC[C@@]5(C)[C@H]4CC[C@@]3(C)[C@H]1[C@H]2C
REMARK SMILES IDX 1 1 2 2 3 3 4 4 5 5 29 6 28 7 9 8 8 9 10 10 11 11 26 12
REMARK SMILES IDX 25 13 24 14 23 15 12 16 13 17 14 18 15 19 21 20 20 21 19 22
REMARK SMILES IDX 17 23 16 24 22 25 27 26 30 27 6 28 7 29 18 30
REMARK H PARENT 18 31
REMARK Flexibility Score: inf
ROOT
ATOM      1  C   UNL     1      44.983  -3.289  -5.883  1.00  0.00     0.010 C 
ATOM      2  C   UNL     1      45.408  -2.535  -7.155  1.00  0.00     0.012 C 
ATOM      3  C   UNL     1      45.827  -1.096  -6.877  1.00  0.00     0.011 C 
ATOM      4  C   UNL     1      47.133  -1.071  -6.100  1.00  0.00     0.066 C 
ATOM      5  C   UNL     1      48.252  -1.936  -6.760  1.00  0.00     0.171 C 
ATOM      6  C   UNL     1      49.014  -1.158  -7.892  1.00  0.00     0.052 C 
ATOM      7  C   UNL     1      50.399  -0.854  -7.282  1.00  0.00     0.033 C 
ATOM      8  C   UNL     1      50.191  -1.185  -5.819  1.00  0.00     0.126 C 
ATOM      9  O   UNL     1      49.194  -2.173  -5.732  1.00  0.00    -0.346 OA
ATOM     10  C   UNL     1      51.514  -1.712  -5.270  1.00  0.00     0.037 C 
ATOM     11  C   UNL     1      52.547  -1.483  -6.374  1.00  0.00     0.002 C 
ATOM     12  C   UNL     1      51.729  -1.588  -7.688  1.00  0.00    -0.024 C 
ATOM     13  C   UNL     1      51.503  -3.088  -8.103  1.00  0.00     0.008 C 
ATOM     14  C   UNL     1      52.525  -4.113  -7.562  1.00  0.00     0.005 C 
ATOM     15  C   UNL     1      53.910  -3.492  -7.323  1.00  0.00     0.003 C 
ATOM     16  C   UNL     1      53.798  -2.416  -6.226  1.00  0.00     0.000 C 
ATOM     17  C   UNL     1      55.106  -1.617  -6.220  1.00  0.00     0.031 C 
ATOM     18  C   UNL     1      56.280  -2.531  -6.000  1.00  0.00    -0.027 C 
ATOM     19  C   UNL     1      56.282  -3.835  -6.363  1.00  0.00    -0.065 C 
ATOM     20  C   UNL     1      55.068  -4.525  -7.017  1.00  0.00    -0.008 C 
ATOM     21  C   UNL     1      54.590  -5.654  -6.049  1.00  0.00     0.014 C 
ATOM     22  C   UNL     1      55.728  -6.573  -5.554  1.00  0.00     0.033 C 
ATOM     23  C   UNL     1      56.883  -5.769  -4.927  1.00  0.00     0.118 C 
ATOM     24  C   UNL     1      57.424  -4.714  -5.903  1.00  0.00     0.063 C 
ATOM     25  C   UNL     1      55.520  -5.148  -8.366  1.00  0.00     0.016 C 
ATOM     26  C   UNL     1      52.441  -0.782  -8.813  1.00  0.00     0.012 C 
ATOM     27  C   UNL     1      48.988  -1.754  -9.314  1.00  0.00     0.014 C 
ATOM     28  O   UNL     1      47.786  -3.227  -7.164  1.00  0.00    -0.349 OA
ATOM     29  C   UNL     1      46.554  -3.250  -7.875  1.00  0.00     0.167 C 
ENDROOT
BRANCH  23  30
ATOM     30  O   UNL     1      57.913  -6.625  -4.500  1.00  0.00    -0.393 OA
ATOM     31  H   UNL     1      58.646  -6.058  -4.139  1.00  0.00     0.210 HD
ENDBRANCH  23  30
TORSDOF 1
ENDMDL
MODEL 9
REMARK VINA RESULT:    -4.096      2.025      8.553
REMARK INTER + INTRA:          -4.215
REMARK INTER:                  -4.215
REMARK INTRA:                   0.000
REMARK UNBOUND:                 0.000
REMARK SMILES C[C@H]1CC[C@]2(OC1)O[C@H]1C[C@H]3[C@@H]4CC=C5C[C@H](O)CC[C@@]5(C)[C@H]4CC[C@@]3(C)[C@H]1[C@H]2C
REMARK SMILES IDX 1 1 2 2 3 3 4 4 5 5 29 6 28 7 9 8 8 9 10 10 11 11 26 12
REMARK SMILES IDX 25 13 24 14 23 15 12 16 13 17 14 18 15 19 21 20 20 21 19 22
REMARK SMILES IDX 17 23 16 24 22 25 27 26 30 27 6 28 7 29 18 30
REMARK H PARENT 18 31
REMARK Flexibility Score: inf
ROOT
ATOM      1  C   UNL     1      48.351  -0.501   0.995  1.00  0.00     0.010 C 
ATOM      2  C   UNL     1      48.381  -1.972   0.547  1.00  0.00     0.012 C 
ATOM      3  C   UNL     1      47.182  -2.767   1.052  1.00  0.00     0.011 C 
ATOM      4  C   UNL     1      45.912  -2.299   0.358  1.00  0.00     0.066 C 
ATOM      5  C   UNL     1      46.041  -2.273  -1.197  1.00  0.00     0.171 C 
ATOM      6  C   UNL     1      45.767  -3.680  -1.839  1.00  0.00     0.052 C 
ATOM      7  C   UNL     1      44.390  -3.529  -2.520  1.00  0.00     0.033 C 
ATOM      8  C   UNL     1      43.889  -2.216  -1.952  1.00  0.00     0.126 C 
ATOM      9  O   UNL     1      45.005  -1.420  -1.641  1.00  0.00    -0.346 OA
ATOM     10  C   UNL     1      43.035  -1.544  -3.024  1.00  0.00     0.037 C 
ATOM     11  C   UNL     1      42.871  -2.577  -4.139  1.00  0.00     0.002 C 
ATOM     12  C   UNL     1      44.173  -3.419  -4.073  1.00  0.00    -0.024 C 
ATOM     13  C   UNL     1      45.359  -2.696  -4.811  1.00  0.00     0.008 C 
ATOM     14  C   UNL     1      44.969  -1.673  -5.902  1.00  0.00     0.005 C 
ATOM     15  C   UNL     1      43.626  -2.007  -6.568  1.00  0.00     0.003 C 
ATOM     16  C   UNL     1      42.505  -1.921  -5.515  1.00  0.00     0.000 C 
ATOM     17  C   UNL     1      41.243  -2.543  -6.124  1.00  0.00     0.031 C 
ATOM     18  C   UNL     1      40.875  -1.841  -7.402  1.00  0.00    -0.027 C 
ATOM     19  C   UNL     1      41.782  -1.226  -8.197  1.00  0.00    -0.065 C 
ATOM     20  C   UNL     1      43.285  -1.161  -7.860  1.00  0.00    -0.008 C 
ATOM     21  C   UNL     1      43.662   0.344  -7.677  1.00  0.00     0.014 C 
ATOM     22  C   UNL     1      43.168   1.253  -8.822  1.00  0.00     0.033 C 
ATOM     23  C   UNL     1      41.655   1.095  -9.068  1.00  0.00     0.118 C 
ATOM     24  C   UNL     1      41.283  -0.369  -9.340  1.00  0.00     0.063 C 
ATOM     25  C   UNL     1      44.086  -1.761  -9.048  1.00  0.00     0.016 C 
ATOM     26  C   UNL     1      43.911  -4.836  -4.660  1.00  0.00     0.012 C 
ATOM     27  C   UNL     1      46.895  -4.321  -2.673  1.00  0.00     0.014 C 
ATOM     28  O   UNL     1      47.259  -1.668  -1.640  1.00  0.00    -0.349 OA
ATOM     29  C   UNL     1      48.444  -2.093  -0.977  1.00  0.00     0.167 C 
ENDROOT
BRANCH  23  30
ATOM     30  O   UNL     1      41.231   1.919 -10.125  1.00  0.00    -0.393 OA
ATOM     31  H   UNL     1      41.029   2.816  -9.745  1.00  0.00     0.210 HD
ENDBRANCH  23  30
TORSDOF 1
ENDMDL
