MODEL 1
REMARK VINA RESULT:    -5.899      0.000      0.000
REMARK INTER + INTRA:          -9.382
REMARK INTER:                  -7.795
REMARK INTRA:                  -1.587
REMARK UNBOUND:                -1.587
REMARK SMILES CC(C)=CCC[C@H](C(=O)[O-])[C@H]1CC[C@]2(C)C3=C(CC[C@]12C)[C@@]1(C)CC[C@@H](O)C(C)(C)[C@H]1CC3
REMARK SMILES IDX 6 1 7 2 8 3 9 4 10 5 11 6 12 7 20 8 13 9 14 10 19 11 21 12
REMARK SMILES IDX 15 13 16 14 18 15 17 16 33 17 22 18 32 19 31 20 24 21 23 22
REMARK SMILES IDX 28 23 25 24 26 25 29 26 30 27 27 28 5 30 4 31 2 32 1 33 3 34
REMARK H PARENT 27 29
REMARK Flexibility Score: inf
ROOT
ATOM      1  C   UNL     1     162.665 161.083 188.505  1.00  0.00     0.014 C 
ENDROOT
BRANCH   1   2
ATOM      2  C   UNL     1     162.094 162.019 187.411  1.00  0.00     0.039 C 
BRANCH   2   3
ATOM      3  C   UNL     1     160.582 162.047 187.500  1.00  0.00     0.045 C 
ATOM      4  O   UNL     1     159.953 163.071 187.132  1.00  0.00    -0.550 OA
ATOM      5  O   UNL     1     159.875 161.009 188.093  1.00  0.00    -0.550 OA
ENDBRANCH   2   3
BRANCH   2   6
ATOM      6  C   UNL     1     162.693 161.654 186.004  1.00  0.00     0.004 C 
ATOM      7  C   UNL     1     161.857 160.665 185.179  1.00  0.00     0.006 C 
ATOM      8  C   UNL     1     163.153 162.804 185.016  1.00  0.00    -0.020 C 
ATOM      9  C   UNL     1     162.146 160.993 183.727  1.00  0.00     0.012 C 
ATOM     10  C   UNL     1     162.385 162.513 183.669  1.00  0.00    -0.006 C 
ATOM     11  C   UNL     1     164.679 162.636 184.779  1.00  0.00     0.012 C 
ATOM     12  C   UNL     1     162.915 164.244 185.558  1.00  0.00     0.012 C 
ATOM     13  C   UNL     1     160.996 163.221 183.647  1.00  0.00     0.017 C 
ATOM     14  C   UNL     1     163.153 162.860 182.361  1.00  0.00    -0.064 C 
ATOM     15  C   UNL     1     165.197 163.512 183.651  1.00  0.00     0.032 C 
ATOM     16  C   UNL     1     164.467 163.252 182.345  1.00  0.00    -0.064 C 
ATOM     17  C   UNL     1     162.353 162.758 181.061  1.00  0.00     0.032 C 
ATOM     18  C   UNL     1     165.128 163.659 181.012  1.00  0.00    -0.008 C 
ATOM     19  C   UNL     1     163.131 162.693 179.731  1.00  0.00     0.009 C 
ATOM     20  C   UNL     1     164.669 162.701 179.858  1.00  0.00     0.007 C 
ATOM     21  C   UNL     1     166.684 163.676 181.038  1.00  0.00     0.014 C 
ATOM     22  C   UNL     1     164.688 165.117 180.715  1.00  0.00     0.016 C 
ATOM     23  C   UNL     1     165.330 161.258 179.864  1.00  0.00    -0.006 C 
ATOM     24  C   UNL     1     167.303 162.283 181.159  1.00  0.00     0.033 C 
ATOM     25  C   UNL     1     166.881 161.398 179.981  1.00  0.00     0.120 C 
ATOM     26  C   UNL     1     164.780 160.350 180.993  1.00  0.00     0.014 C 
ATOM     27  C   UNL     1     165.046 160.542 178.512  1.00  0.00     0.014 C 
BRANCH  25  28
ATOM     28  O   UNL     1     167.487 160.134 180.110  1.00  0.00    -0.393 OA
ATOM     29  H   UNL     1     166.832 159.463 179.786  1.00  0.00     0.210 HD
ENDBRANCH  25  28
ENDBRANCH   2   6
ENDBRANCH   1   2
BRANCH   1  30
ATOM     30  C   UNL     1     164.054 160.526 188.155  1.00  0.00     0.028 C 
BRANCH  30  31
ATOM     31  C   UNL     1     165.046 160.812 189.257  1.00  0.00    -0.028 C 
ATOM     32  C   UNL     1     165.781 161.941 189.314  1.00  0.00    -0.080 C 
ATOM     33  C   UNL     1     166.784 162.095 190.427  1.00  0.00     0.039 C 
ATOM     34  C   UNL     1     165.629 163.037 188.285  1.00  0.00     0.039 C 
ENDBRANCH  30  31
ENDBRANCH   1  30
TORSDOF 6
ENDMDL
MODEL 2
REMARK VINA RESULT:    -5.856     13.152     16.264
REMARK INTER + INTRA:          -9.326
REMARK INTER:                  -7.927
REMARK INTRA:                  -1.399
REMARK UNBOUND:                -1.587
REMARK SMILES CC(C)=CCC[C@H](C(=O)[O-])[C@H]1CC[C@]2(C)C3=C(CC[C@]12C)[C@@]1(C)CC[C@@H](O)C(C)(C)[C@H]1CC3
REMARK SMILES IDX 6 1 7 2 8 3 9 4 10 5 11 6 12 7 20 8 13 9 14 10 19 11 21 12
REMARK SMILES IDX 15 13 16 14 18 15 17 16 33 17 22 18 32 19 31 20 24 21 23 22
REMARK SMILES IDX 28 23 25 24 26 25 29 26 30 27 27 28 5 30 4 31 2 32 1 33 3 34
REMARK H PARENT 27 29
REMARK Flexibility Score: inf
ROOT
ATOM      1  C   UNL     1     180.125 171.992 187.224  1.00  0.00     0.014 C 
ENDROOT
BRANCH   1   2
ATOM      2  C   UNL     1     179.520 171.160 186.066  1.00  0.00     0.039 C 
BRANCH   2   3
ATOM      3  C   UNL     1     179.059 172.085 184.959  1.00  0.00     0.045 C 
ATOM      4  O   UNL     1     179.025 171.671 183.772  1.00  0.00    -0.550 OA
ATOM      5  O   UNL     1     178.783 173.424 185.204  1.00  0.00    -0.550 OA
ENDBRANCH   2   3
BRANCH   2   6
ATOM      6  C   UNL     1     178.443 170.154 186.614  1.00  0.00     0.004 C 
ATOM      7  C   UNL     1     176.986 170.534 186.315  1.00  0.00     0.006 C 
ATOM      8  C   UNL     1     178.583 168.604 186.316  1.00  0.00    -0.020 C 
ATOM      9  C   UNL     1     176.225 169.225 186.241  1.00  0.00     0.012 C 
ATOM     10  C   UNL     1     177.207 168.189 185.665  1.00  0.00    -0.006 C 
ATOM     11  C   UNL     1     178.742 167.876 187.680  1.00  0.00     0.012 C 
ATOM     12  C   UNL     1     179.813 168.231 185.438  1.00  0.00     0.012 C 
ATOM     13  C   UNL     1     177.241 168.363 184.116  1.00  0.00     0.017 C 
ATOM     14  C   UNL     1     176.700 166.758 186.006  1.00  0.00    -0.064 C 
ATOM     15  C   UNL     1     178.625 166.367 187.556  1.00  0.00     0.032 C 
ATOM     16  C   UNL     1     177.309 165.946 186.927  1.00  0.00    -0.064 C 
ATOM     17  C   UNL     1     175.467 166.278 185.236  1.00  0.00     0.032 C 
ATOM     18  C   UNL     1     176.789 164.509 187.142  1.00  0.00    -0.008 C 
ATOM     19  C   UNL     1     174.686 165.070 185.792  1.00  0.00     0.009 C 
ATOM     20  C   UNL     1     175.222 164.483 187.116  1.00  0.00     0.007 C 
ATOM     21  C   UNL     1     177.263 163.840 188.465  1.00  0.00     0.014 C 
ATOM     22  C   UNL     1     177.367 163.641 185.992  1.00  0.00     0.016 C 
ATOM     23  C   UNL     1     174.506 165.047 188.415  1.00  0.00    -0.006 C 
ATOM     24  C   UNL     1     176.650 164.471 189.716  1.00  0.00     0.033 C 
ATOM     25  C   UNL     1     175.121 164.370 189.681  1.00  0.00     0.120 C 
ATOM     26  C   UNL     1     174.595 166.591 188.528  1.00  0.00     0.014 C 
ATOM     27  C   UNL     1     172.997 164.669 188.394  1.00  0.00     0.014 C 
BRANCH  25  28
ATOM     28  O   UNL     1     174.591 164.937 190.856  1.00  0.00    -0.393 OA
ATOM     29  H   UNL     1     174.296 164.186 191.433  1.00  0.00     0.210 HD
ENDBRANCH  25  28
ENDBRANCH   2   6
ENDBRANCH   1   2
BRANCH   1  30
ATOM     30  C   UNL     1     179.237 172.012 188.478  1.00  0.00     0.028 C 
BRANCH  30  31
ATOM     31  C   UNL     1     178.731 173.407 188.762  1.00  0.00    -0.028 C 
ATOM     32  C   UNL     1     177.482 173.663 189.201  1.00  0.00    -0.080 C 
ATOM     33  C   UNL     1     177.064 175.097 189.395  1.00  0.00     0.039 C 
ATOM     34  C   UNL     1     176.498 172.552 189.482  1.00  0.00     0.039 C 
ENDBRANCH  30  31
ENDBRANCH   1  30
TORSDOF 6
ENDMDL
MODEL 3
REMARK VINA RESULT:    -5.793      3.809      7.040
REMARK INTER + INTRA:          -9.242
REMARK INTER:                  -7.678
REMARK INTRA:                  -1.564
REMARK UNBOUND:                -1.587
REMARK SMILES CC(C)=CCC[C@H](C(=O)[O-])[C@H]1CC[C@]2(C)C3=C(CC[C@]12C)[C@@]1(C)CC[C@@H](O)C(C)(C)[C@H]1CC3
REMARK SMILES IDX 6 1 7 2 8 3 9 4 10 5 11 6 12 7 20 8 13 9 14 10 19 11 21 12
REMARK SMILES IDX 15 13 16 14 18 15 17 16 33 17 22 18 32 19 31 20 24 21 23 22
REMARK SMILES IDX 28 23 25 24 26 25 29 26 30 27 27 28 5 30 4 31 2 32 1 33 3 34
REMARK H PARENT 27 29
REMARK Flexibility Score: inf
ROOT
ATOM      1  C   UNL     1     169.479 163.937 187.751  1.00  0.00     0.014 C 
ENDROOT
BRANCH   1   2
ATOM      2  C   UNL     1     168.522 162.735 187.944  1.00  0.00     0.039 C 
BRANCH   2   3
ATOM      3  C   UNL     1     169.216 161.456 187.523  1.00  0.00     0.045 C 
ATOM      4  O   UNL     1     168.746 160.345 187.874  1.00  0.00    -0.550 OA
ATOM      5  O   UNL     1     170.433 161.482 186.854  1.00  0.00    -0.550 OA
ENDBRANCH   2   3
BRANCH   2   6
ATOM      6  C   UNL     1     167.133 163.019 187.264  1.00  0.00     0.004 C 
ATOM      7  C   UNL     1     167.000 162.510 185.821  1.00  0.00     0.006 C 
ATOM      8  C   UNL     1     165.790 162.635 188.012  1.00  0.00    -0.020 C 
ATOM      9  C   UNL     1     165.527 162.213 185.623  1.00  0.00     0.012 C 
ATOM     10  C   UNL     1     164.997 161.735 186.988  1.00  0.00    -0.006 C 
ATOM     11  C   UNL     1     164.997 163.949 188.257  1.00  0.00     0.012 C 
ATOM     12  C   UNL     1     166.003 161.949 189.393  1.00  0.00     0.012 C 
ATOM     13  C   UNL     1     165.373 160.230 187.151  1.00  0.00     0.017 C 
ATOM     14  C   UNL     1     163.448 161.879 187.015  1.00  0.00    -0.064 C 
ATOM     15  C   UNL     1     163.577 163.696 188.731  1.00  0.00     0.032 C 
ATOM     16  C   UNL     1     162.796 162.826 187.761  1.00  0.00    -0.064 C 
ATOM     17  C   UNL     1     162.663 160.881 186.161  1.00  0.00     0.032 C 
ATOM     18  C   UNL     1     161.255 162.844 187.796  1.00  0.00    -0.008 C 
ATOM     19  C   UNL     1     161.193 161.208 185.827  1.00  0.00     0.009 C 
ATOM     20  C   UNL     1     160.671 162.555 186.370  1.00  0.00     0.007 C 
ATOM     21  C   UNL     1     160.634 164.174 188.313  1.00  0.00     0.014 C 
ATOM     22  C   UNL     1     160.811 161.746 188.799  1.00  0.00     0.016 C 
ATOM     23  C   UNL     1     160.765 163.755 185.336  1.00  0.00    -0.006 C 
ATOM     24  C   UNL     1     160.833 165.349 187.354  1.00  0.00     0.033 C 
ATOM     25  C   UNL     1     160.195 165.052 185.993  1.00  0.00     0.120 C 
ATOM     26  C   UNL     1     162.208 163.995 184.823  1.00  0.00     0.014 C 
ATOM     27  C   UNL     1     159.875 163.454 184.095  1.00  0.00     0.014 C 
BRANCH  25  28
ATOM     28  O   UNL     1     160.375 166.161 185.143  1.00  0.00    -0.393 OA
ATOM     29  H   UNL     1     160.679 165.809 184.267  1.00  0.00     0.210 HD
ENDBRANCH  25  28
ENDBRANCH   2   6
ENDBRANCH   1   2
BRANCH   1  30
ATOM     30  C   UNL     1     168.746 165.232 187.362  1.00  0.00     0.028 C 
BRANCH  30  31
ATOM     31  C   UNL     1     168.544 166.122 188.565  1.00  0.00    -0.028 C 
ATOM     32  C   UNL     1     167.494 166.959 188.696  1.00  0.00    -0.080 C 
ATOM     33  C   UNL     1     167.424 167.845 189.911  1.00  0.00     0.039 C 
ATOM     34  C   UNL     1     166.408 167.034 187.649  1.00  0.00     0.039 C 
ENDBRANCH  30  31
ENDBRANCH   1  30
TORSDOF 6
ENDMDL
MODEL 4
REMARK VINA RESULT:    -5.763      4.284      7.593
REMARK INTER + INTRA:          -9.203
REMARK INTER:                  -7.827
REMARK INTRA:                  -1.377
REMARK UNBOUND:                -1.587
REMARK SMILES CC(C)=CCC[C@H](C(=O)[O-])[C@H]1CC[C@]2(C)C3=C(CC[C@]12C)[C@@]1(C)CC[C@@H](O)C(C)(C)[C@H]1CC3
REMARK SMILES IDX 6 1 7 2 8 3 9 4 10 5 11 6 12 7 20 8 13 9 14 10 19 11 21 12
REMARK SMILES IDX 15 13 16 14 18 15 17 16 33 17 22 18 32 19 31 20 24 21 23 22
REMARK SMILES IDX 28 23 25 24 26 25 29 26 30 27 27 28 5 30 4 31 2 32 1 33 3 34
REMARK H PARENT 27 29
REMARK Flexibility Score: inf
ROOT
ATOM      1  C   UNL     1     162.161 161.005 187.232  1.00  0.00     0.014 C 
ENDROOT
BRANCH   1   2
ATOM      2  C   UNL     1     162.070 162.031 186.074  1.00  0.00     0.039 C 
BRANCH   2   3
ATOM      3  C   UNL     1     162.850 161.523 184.879  1.00  0.00     0.045 C 
ATOM      4  O   UNL     1     163.705 160.615 185.031  1.00  0.00    -0.550 OA
ATOM      5  O   UNL     1     162.729 162.122 183.632  1.00  0.00    -0.550 OA
ENDBRANCH   2   3
BRANCH   2   6
ATOM      6  C   UNL     1     162.448 163.470 186.581  1.00  0.00     0.004 C 
ATOM      7  C   UNL     1     163.880 163.918 186.256  1.00  0.00     0.006 C 
ATOM      8  C   UNL     1     161.499 164.698 186.259  1.00  0.00    -0.020 C 
ATOM      9  C   UNL     1     163.824 165.429 186.143  1.00  0.00     0.012 C 
ATOM     10  C   UNL     1     162.435 165.766 185.571  1.00  0.00    -0.006 C 
ATOM     11  C   UNL     1     160.989 165.264 187.614  1.00  0.00     0.012 C 
ATOM     12  C   UNL     1     160.252 164.334 185.402  1.00  0.00     0.012 C 
ATOM     13  C   UNL     1     162.484 165.560 184.027  1.00  0.00     0.017 C 
ATOM     14  C   UNL     1     162.103 167.255 185.876  1.00  0.00    -0.064 C 
ATOM     15  C   UNL     1     160.282 166.599 187.462  1.00  0.00     0.032 C 
ATOM     16  C   UNL     1     161.164 167.641 186.796  1.00  0.00    -0.064 C 
ATOM     17  C   UNL     1     162.882 168.298 185.071  1.00  0.00     0.032 C 
ATOM     18  C   UNL     1     160.838 169.138 186.975  1.00  0.00    -0.008 C 
ATOM     19  C   UNL     1     162.903 169.750 185.589  1.00  0.00     0.009 C 
ATOM     20  C   UNL     1     162.149 169.996 186.913  1.00  0.00     0.007 C 
ATOM     21  C   UNL     1     160.093 169.486 188.296  1.00  0.00     0.014 C 
ATOM     22  C   UNL     1     159.875 169.533 185.823  1.00  0.00     0.016 C 
ATOM     23  C   UNL     1     163.068 169.935 188.207  1.00  0.00    -0.006 C 
ATOM     24  C   UNL     1     160.960 169.312 189.544  1.00  0.00     0.033 C 
ATOM     25  C   UNL     1     162.198 170.213 189.474  1.00  0.00     0.120 C 
ATOM     26  C   UNL     1     163.818 168.586 188.347  1.00  0.00     0.014 C 
ATOM     27  C   UNL     1     164.141 171.060 188.145  1.00  0.00     0.014 C 
BRANCH  25  28
ATOM     28  O   UNL     1     162.960 170.047 190.647  1.00  0.00    -0.393 OA
ATOM     29  H   UNL     1     163.425 170.907 190.815  1.00  0.00     0.210 HD
ENDBRANCH  25  28
ENDBRANCH   2   6
ENDBRANCH   1   2
BRANCH   1  30
ATOM     30  C   UNL     1     162.889 161.558 188.467  1.00  0.00     0.028 C 
BRANCH  30  31
ATOM     31  C   UNL     1     164.194 160.832 188.698  1.00  0.00    -0.028 C 
ATOM     32  C   UNL     1     165.332 161.457 189.062  1.00  0.00    -0.080 C 
ATOM     33  C   UNL     1     166.589 160.642 189.207  1.00  0.00     0.039 C 
ATOM     34  C   UNL     1     165.372 162.947 189.309  1.00  0.00     0.039 C 
ENDBRANCH  30  31
ENDBRANCH   1  30
TORSDOF 6
ENDMDL
MODEL 5
REMARK VINA RESULT:    -5.723      4.182      6.855
REMARK INTER + INTRA:          -9.150
REMARK INTER:                  -8.161
REMARK INTRA:                  -0.989
REMARK UNBOUND:                -1.587
REMARK SMILES CC(C)=CCC[C@H](C(=O)[O-])[C@H]1CC[C@]2(C)C3=C(CC[C@]12C)[C@@]1(C)CC[C@@H](O)C(C)(C)[C@H]1CC3
REMARK SMILES IDX 6 1 7 2 8 3 9 4 10 5 11 6 12 7 20 8 13 9 14 10 19 11 21 12
REMARK SMILES IDX 15 13 16 14 18 15 17 16 33 17 22 18 32 19 31 20 24 21 23 22
REMARK SMILES IDX 28 23 25 24 26 25 29 26 30 27 27 28 5 30 4 31 2 32 1 33 3 34
REMARK H PARENT 27 29
REMARK Flexibility Score: inf
ROOT
ATOM      1  C   UNL     1     163.944 161.503 186.458  1.00  0.00     0.014 C 
ENDROOT
BRANCH   1   2
ATOM      2  C   UNL     1     162.465 161.963 186.467  1.00  0.00     0.039 C 
BRANCH   2   3
ATOM      3  C   UNL     1     161.617 160.974 185.693  1.00  0.00     0.045 C 
ATOM      4  O   UNL     1     160.450 160.714 186.080  1.00  0.00    -0.550 OA
ATOM      5  O   UNL     1     162.141 160.252 184.628  1.00  0.00    -0.550 OA
ENDBRANCH   2   3
BRANCH   2   6
ATOM      6  C   UNL     1     162.351 163.465 186.017  1.00  0.00     0.004 C 
ATOM      7  C   UNL     1     161.155 163.782 185.108  1.00  0.00     0.006 C 
ATOM      8  C   UNL     1     162.427 164.623 187.096  1.00  0.00    -0.020 C 
ATOM      9  C   UNL     1     160.804 165.232 185.379  1.00  0.00     0.012 C 
ATOM     10  C   UNL     1     161.124 165.481 186.864  1.00  0.00    -0.006 C 
ATOM     11  C   UNL     1     163.674 165.490 186.766  1.00  0.00     0.012 C 
ATOM     12  C   UNL     1     162.577 164.121 188.562  1.00  0.00     0.012 C 
ATOM     13  C   UNL     1     159.934 164.940 187.713  1.00  0.00     0.017 C 
ATOM     14  C   UNL     1     161.267 167.012 187.107  1.00  0.00    -0.064 C 
ATOM     15  C   UNL     1     163.717 166.781 187.563  1.00  0.00     0.032 C 
ATOM     16  C   UNL     1     162.468 167.622 187.358  1.00  0.00    -0.064 C 
ATOM     17  C   UNL     1     159.972 167.825 187.067  1.00  0.00     0.032 C 
ATOM     18  C   UNL     1     162.509 169.131 187.671  1.00  0.00    -0.008 C 
ATOM     19  C   UNL     1     160.078 169.354 186.898  1.00  0.00     0.009 C 
ATOM     20  C   UNL     1     161.510 169.910 186.747  1.00  0.00     0.007 C 
ATOM     21  C   UNL     1     163.914 169.786 187.526  1.00  0.00     0.014 C 
ATOM     22  C   UNL     1     162.112 169.296 189.163  1.00  0.00     0.016 C 
ATOM     23  C   UNL     1     161.979 170.104 185.243  1.00  0.00    -0.006 C 
ATOM     24  C   UNL     1     164.400 169.862 186.078  1.00  0.00     0.033 C 
ATOM     25  C   UNL     1     163.429 170.682 185.222  1.00  0.00     0.120 C 
ATOM     26  C   UNL     1     161.904 168.794 184.417  1.00  0.00     0.014 C 
ATOM     27  C   UNL     1     161.069 171.151 184.537  1.00  0.00     0.014 C 
BRANCH  25  28
ATOM     28  O   UNL     1     163.918 170.753 183.904  1.00  0.00    -0.393 OA
ATOM     29  H   UNL     1     163.130 170.775 183.303  1.00  0.00     0.210 HD
ENDBRANCH  25  28
ENDBRANCH   2   6
ENDBRANCH   1   2
BRANCH   1  30
ATOM     30  C   UNL     1     164.264 160.490 187.569  1.00  0.00     0.028 C 
BRANCH  30  31
ATOM     31  C   UNL     1     164.837 161.181 188.784  1.00  0.00    -0.028 C 
ATOM     32  C   UNL     1     166.153 161.188 189.077  1.00  0.00    -0.080 C 
ATOM     33  C   UNL     1     166.608 161.858 190.346  1.00  0.00     0.039 C 
ATOM     34  C   UNL     1     167.168 160.527 188.174  1.00  0.00     0.039 C 
ENDBRANCH  30  31
ENDBRANCH   1  30
TORSDOF 6
ENDMDL
MODEL 6
REMARK VINA RESULT:    -5.698     10.097     14.218
REMARK INTER + INTRA:          -9.118
REMARK INTER:                  -8.178
REMARK INTRA:                  -0.940
REMARK UNBOUND:                -1.587
REMARK SMILES CC(C)=CCC[C@H](C(=O)[O-])[C@H]1CC[C@]2(C)C3=C(CC[C@]12C)[C@@]1(C)CC[C@@H](O)C(C)(C)[C@H]1CC3
REMARK SMILES IDX 6 1 7 2 8 3 9 4 10 5 11 6 12 7 20 8 13 9 14 10 19 11 21 12
REMARK SMILES IDX 15 13 16 14 18 15 17 16 33 17 22 18 32 19 31 20 24 21 23 22
REMARK SMILES IDX 28 23 25 24 26 25 29 26 30 27 27 28 5 30 4 31 2 32 1 33 3 34
REMARK H PARENT 27 29
REMARK Flexibility Score: inf
ROOT
ATOM      1  C   UNL     1     177.030 161.517 180.477  1.00  0.00     0.014 C 
ENDROOT
BRANCH   1   2
ATOM      2  C   UNL     1     175.958 162.591 180.788  1.00  0.00     0.039 C 
BRANCH   2   3
ATOM      3  C   UNL     1     176.077 163.732 179.799  1.00  0.00     0.045 C 
ATOM      4  O   UNL     1     175.085 164.059 179.099  1.00  0.00    -0.550 OA
ATOM      5  O   UNL     1     177.296 164.354 179.558  1.00  0.00    -0.550 OA
ENDBRANCH   2   3
BRANCH   2   6
ATOM      6  C   UNL     1     176.002 162.991 182.307  1.00  0.00     0.004 C 
ATOM      7  C   UNL     1     175.613 164.446 182.608  1.00  0.00     0.006 C 
ATOM      8  C   UNL     1     175.272 162.089 183.386  1.00  0.00    -0.020 C 
ATOM      9  C   UNL     1     175.028 164.436 184.006  1.00  0.00     0.012 C 
ATOM     10  C   UNL     1     174.322 163.077 184.168  1.00  0.00    -0.006 C 
ATOM     11  C   UNL     1     176.357 161.549 184.358  1.00  0.00     0.012 C 
ATOM     12  C   UNL     1     174.522 160.862 182.789  1.00  0.00     0.012 C 
ATOM     13  C   UNL     1     172.924 163.174 183.485  1.00  0.00     0.017 C 
ATOM     14  C   UNL     1     174.129 162.777 185.682  1.00  0.00    -0.064 C 
ATOM     15  C   UNL     1     175.764 160.884 185.588  1.00  0.00     0.032 C 
ATOM     16  C   UNL     1     174.842 161.817 186.353  1.00  0.00    -0.064 C 
ATOM     17  C   UNL     1     173.070 163.612 186.406  1.00  0.00     0.032 C 
ATOM     18  C   UNL     1     174.527 161.527 187.835  1.00  0.00    -0.008 C 
ATOM     19  C   UNL     1     173.106 163.655 187.947  1.00  0.00     0.009 C 
ATOM     20  C   UNL     1     174.254 162.864 188.609  1.00  0.00     0.007 C 
ATOM     21  C   UNL     1     175.640 160.747 188.593  1.00  0.00     0.014 C 
ATOM     22  C   UNL     1     173.271 160.616 187.862  1.00  0.00     0.016 C 
ATOM     23  C   UNL     1     175.538 163.735 188.944  1.00  0.00    -0.006 C 
ATOM     24  C   UNL     1     176.915 161.566 188.808  1.00  0.00     0.033 C 
ATOM     25  C   UNL     1     176.616 162.830 189.621  1.00  0.00     0.120 C 
ATOM     26  C   UNL     1     176.126 164.442 187.697  1.00  0.00     0.014 C 
ATOM     27  C   UNL     1     175.170 164.841 189.976  1.00  0.00     0.014 C 
BRANCH  25  28
ATOM     28  O   UNL     1     177.812 163.547 189.821  1.00  0.00    -0.393 OA
ATOM     29  H   UNL     1     177.557 164.474 190.063  1.00  0.00     0.210 HD
ENDBRANCH  25  28
ENDBRANCH   2   6
ENDBRANCH   1   2
BRANCH   1  30
ATOM     30  C   UNL     1     176.541 160.449 179.486  1.00  0.00     0.028 C 
BRANCH  30  31
ATOM     31  C   UNL     1     177.597 160.147 178.449  1.00  0.00    -0.028 C 
ATOM     32  C   UNL     1     177.595 160.688 177.214  1.00  0.00    -0.080 C 
ATOM     33  C   UNL     1     178.665 160.270 176.241  1.00  0.00     0.039 C 
ATOM     34  C   UNL     1     176.541 161.682 176.787  1.00  0.00     0.039 C 
ENDBRANCH  30  31
ENDBRANCH   1  30
TORSDOF 6
ENDMDL
MODEL 7
REMARK VINA RESULT:    -5.678     15.953     18.081
REMARK INTER + INTRA:          -9.091
REMARK INTER:                  -7.774
REMARK INTRA:                  -1.317
REMARK UNBOUND:                -1.587
REMARK SMILES CC(C)=CCC[C@H](C(=O)[O-])[C@H]1CC[C@]2(C)C3=C(CC[C@]12C)[C@@]1(C)CC[C@@H](O)C(C)(C)[C@H]1CC3
REMARK SMILES IDX 6 1 7 2 8 3 9 4 10 5 11 6 12 7 20 8 13 9 14 10 19 11 21 12
REMARK SMILES IDX 15 13 16 14 18 15 17 16 33 17 22 18 32 19 31 20 24 21 23 22
REMARK SMILES IDX 28 23 25 24 26 25 29 26 30 27 27 28 5 30 4 31 2 32 1 33 3 34
REMARK H PARENT 27 29
REMARK Flexibility Score: inf
ROOT
ATOM      1  C   UNL     1     170.430 180.125 187.195  1.00  0.00     0.014 C 
ENDROOT
BRANCH   1   2
ATOM      2  C   UNL     1     171.201 179.384 186.074  1.00  0.00     0.039 C 
BRANCH   2   3
ATOM      3  C   UNL     1     170.312 179.229 184.858  1.00  0.00     0.045 C 
ATOM      4  O   UNL     1     170.826 179.141 183.714  1.00  0.00    -0.550 OA
ATOM      5  O   UNL     1     168.928 179.301 184.961  1.00  0.00    -0.550 OA
ENDBRANCH   2   3
BRANCH   2   6
ATOM      6  C   UNL     1     171.844 178.060 186.629  1.00  0.00     0.004 C 
ATOM      7  C   UNL     1     171.055 176.778 186.325  1.00  0.00     0.006 C 
ATOM      8  C   UNL     1     173.369 177.740 186.343  1.00  0.00    -0.020 C 
ATOM      9  C   UNL     1     172.085 175.667 186.260  1.00  0.00     0.012 C 
ATOM     10  C   UNL     1     173.368 176.302 185.694  1.00  0.00    -0.006 C 
ATOM     11  C   UNL     1     174.101 177.680 187.713  1.00  0.00     0.012 C 
ATOM     12  C   UNL     1     174.092 178.806 185.468  1.00  0.00     0.012 C 
ATOM     13  C   UNL     1     173.223 176.383 184.143  1.00  0.00     0.017 C 
ATOM     14  C   UNL     1     174.584 175.398 186.045  1.00  0.00    -0.064 C 
ATOM     15  C   UNL     1     175.510 177.126 187.600  1.00  0.00     0.032 C 
ATOM     16  C   UNL     1     175.532 175.743 186.972  1.00  0.00    -0.064 C 
ATOM     17  C   UNL     1     174.688 174.078 185.277  1.00  0.00     0.032 C 
ATOM     18  C   UNL     1     176.752 174.826 187.198  1.00  0.00    -0.008 C 
ATOM     19  C   UNL     1     175.610 172.978 185.842  1.00  0.00     0.009 C 
ATOM     20  C   UNL     1     176.317 173.320 187.171  1.00  0.00     0.007 C 
ATOM     21  C   UNL     1     177.520 175.085 188.527  1.00  0.00     0.014 C 
ATOM     22  C   UNL     1     177.760 175.123 186.056  1.00  0.00     0.016 C 
ATOM     23  C   UNL     1     175.559 172.803 188.465  1.00  0.00    -0.006 C 
ATOM     24  C   UNL     1     176.727 174.685 189.773  1.00  0.00     0.033 C 
ATOM     25  C   UNL     1     176.377 173.194 189.737  1.00  0.00     0.120 C 
ATOM     26  C   UNL     1     174.108 173.339 188.566  1.00  0.00     0.014 C 
ATOM     27  C   UNL     1     175.479 171.248 188.445  1.00  0.00     0.014 C 
BRANCH  25  28
ATOM     28  O   UNL     1     175.670 172.855 190.907  1.00  0.00    -0.393 OA
ATOM     29  H   UNL     1     174.721 173.096 190.753  1.00  0.00     0.210 HD
ENDBRANCH  25  28
ENDBRANCH   2   6
ENDBRANCH   1   2
BRANCH   1  30
ATOM     30  C   UNL     1     170.217 179.262 188.449  1.00  0.00     0.028 C 
BRANCH  30  31
ATOM     31  C   UNL     1     168.768 179.273 188.875  1.00  0.00    -0.028 C 
ATOM     32  C   UNL     1     168.105 178.166 189.267  1.00  0.00    -0.080 C 
ATOM     33  C   UNL     1     166.645 178.283 189.614  1.00  0.00     0.039 C 
ATOM     34  C   UNL     1     168.790 176.822 189.349  1.00  0.00     0.039 C 
ENDBRANCH  30  31
ENDBRANCH   1  30
TORSDOF 6
ENDMDL
MODEL 8
REMARK VINA RESULT:    -5.670      4.615      8.107
REMARK INTER + INTRA:          -9.081
REMARK INTER:                  -7.161
REMARK INTRA:                  -1.920
REMARK UNBOUND:                -1.587
REMARK SMILES CC(C)=CCC[C@H](C(=O)[O-])[C@H]1CC[C@]2(C)C3=C(CC[C@]12C)[C@@]1(C)CC[C@@H](O)C(C)(C)[C@H]1CC3
REMARK SMILES IDX 6 1 7 2 8 3 9 4 10 5 11 6 12 7 20 8 13 9 14 10 19 11 21 12
REMARK SMILES IDX 15 13 16 14 18 15 17 16 33 17 22 18 32 19 31 20 24 21 23 22
REMARK SMILES IDX 28 23 25 24 26 25 29 26 30 27 27 28 5 30 4 31 2 32 1 33 3 34
REMARK H PARENT 27 29
REMARK Flexibility Score: inf
ROOT
ATOM      1  C   UNL     1     164.034 161.763 186.919  1.00  0.00     0.014 C 
ENDROOT
BRANCH   1   2
ATOM      2  C   UNL     1     163.529 162.750 185.837  1.00  0.00     0.039 C 
BRANCH   2   3
ATOM      3  C   UNL     1     164.206 162.449 184.515  1.00  0.00     0.045 C 
ATOM      4  O   UNL     1     163.601 162.677 183.437  1.00  0.00    -0.550 OA
ATOM      5  O   UNL     1     165.439 161.813 184.464  1.00  0.00    -0.550 OA
ENDBRANCH   2   3
BRANCH   2   6
ATOM      6  C   UNL     1     163.644 164.233 186.346  1.00  0.00     0.004 C 
ATOM      7  C   UNL     1     164.936 164.960 185.945  1.00  0.00     0.006 C 
ATOM      8  C   UNL     1     162.452 165.249 186.103  1.00  0.00    -0.020 C 
ATOM      9  C   UNL     1     164.573 166.429 185.862  1.00  0.00     0.012 C 
ATOM     10  C   UNL     1     163.112 166.486 185.380  1.00  0.00    -0.006 C 
ATOM     11  C   UNL     1     161.925 165.694 187.496  1.00  0.00     0.012 C 
ATOM     12  C   UNL     1     161.251 164.648 185.315  1.00  0.00     0.012 C 
ATOM     13  C   UNL     1     163.106 166.303 183.832  1.00  0.00     0.017 C 
ATOM     14  C   UNL     1     162.511 167.877 185.730  1.00  0.00    -0.064 C 
ATOM     15  C   UNL     1     160.958 166.862 187.410  1.00  0.00     0.032 C 
ATOM     16  C   UNL     1     161.572 168.063 186.711  1.00  0.00    -0.064 C 
ATOM     17  C   UNL     1     163.015 169.059 184.899  1.00  0.00     0.032 C 
ATOM     18  C   UNL     1     160.967 169.463 186.936  1.00  0.00    -0.008 C 
ATOM     19  C   UNL     1     162.779 170.483 185.441  1.00  0.00     0.009 C 
ATOM     20  C   UNL     1     162.075 170.566 186.813  1.00  0.00     0.007 C 
ATOM     21  C   UNL     1     160.250 169.648 188.306  1.00  0.00     0.014 C 
ATOM     22  C   UNL     1     159.875 169.665 185.851  1.00  0.00     0.016 C 
ATOM     23  C   UNL     1     163.065 170.682 188.048  1.00  0.00    -0.006 C 
ATOM     24  C   UNL     1     161.210 169.644 189.497  1.00  0.00     0.033 C 
ATOM     25  C   UNL     1     162.238 170.773 189.369  1.00  0.00     0.120 C 
ATOM     26  C   UNL     1     164.076 169.509 188.119  1.00  0.00     0.014 C 
ATOM     27  C   UNL     1     163.888 171.999 187.942  1.00  0.00     0.014 C 
BRANCH  25  28
ATOM     28  O   UNL     1     163.089 170.756 190.491  1.00  0.00    -0.393 OA
ATOM     29  H   UNL     1     163.005 171.641 190.932  1.00  0.00     0.210 HD
ENDBRANCH  25  28
ENDBRANCH   2   6
ENDBRANCH   1   2
BRANCH   1  30
ATOM     30  C   UNL     1     162.896 160.991 187.605  1.00  0.00     0.028 C 
BRANCH  30  31
ATOM     31  C   UNL     1     162.076 161.903 188.486  1.00  0.00    -0.028 C 
ATOM     32  C   UNL     1     160.759 162.122 188.299  1.00  0.00    -0.080 C 
ATOM     33  C   UNL     1     160.052 163.098 189.202  1.00  0.00     0.039 C 
ATOM     34  C   UNL     1     159.989 161.425 187.201  1.00  0.00     0.039 C 
ENDBRANCH  30  31
ENDBRANCH   1  30
TORSDOF 6
ENDMDL
MODEL 9
REMARK VINA RESULT:    -5.563      4.369      7.959
REMARK INTER + INTRA:          -8.939
REMARK INTER:                  -7.146
REMARK INTRA:                  -1.793
REMARK UNBOUND:                -1.587
REMARK SMILES CC(C)=CCC[C@H](C(=O)[O-])[C@H]1CC[C@]2(C)C3=C(CC[C@]12C)[C@@]1(C)CC[C@@H](O)C(C)(C)[C@H]1CC3
REMARK SMILES IDX 6 1 7 2 8 3 9 4 10 5 11 6 12 7 20 8 13 9 14 10 19 11 21 12
REMARK SMILES IDX 15 13 16 14 18 15 17 16 33 17 22 18 32 19 31 20 24 21 23 22
REMARK SMILES IDX 28 23 25 24 26 25 29 26 30 27 27 28 5 30 4 31 2 32 1 33 3 34
REMARK H PARENT 27 29
REMARK Flexibility Score: inf
ROOT
ATOM      1  C   UNL     1     164.617 161.247 188.559  1.00  0.00     0.014 C 
ENDROOT
BRANCH   1   2
ATOM      2  C   UNL     1     165.371 162.234 187.634  1.00  0.00     0.039 C 
BRANCH   2   3
ATOM      3  C   UNL     1     166.860 161.967 187.708  1.00  0.00     0.045 C 
ATOM      4  O   UNL     1     167.378 161.607 188.795  1.00  0.00    -0.550 OA
ATOM      5  O   UNL     1     167.694 162.226 186.628  1.00  0.00    -0.550 OA
ENDBRANCH   2   3
BRANCH   2   6
ATOM      6  C   UNL     1     164.923 163.713 187.923  1.00  0.00     0.004 C 
ATOM      7  C   UNL     1     166.064 164.684 188.258  1.00  0.00     0.006 C 
ATOM      8  C   UNL     1     163.965 164.463 186.907  1.00  0.00    -0.020 C 
ATOM      9  C   UNL     1     165.593 166.049 187.795  1.00  0.00     0.012 C 
ATOM     10  C   UNL     1     164.718 165.803 186.552  1.00  0.00    -0.006 C 
ATOM     11  C   UNL     1     162.651 164.802 187.665  1.00  0.00     0.012 C 
ATOM     12  C   UNL     1     163.582 163.625 185.652  1.00  0.00     0.012 C 
ATOM     13  C   UNL     1     165.662 165.612 185.327  1.00  0.00     0.017 C 
ATOM     14  C   UNL     1     163.814 167.046 186.309  1.00  0.00    -0.064 C 
ATOM     15  C   UNL     1     161.753 165.748 186.887  1.00  0.00     0.032 C 
ATOM     16  C   UNL     1     162.461 167.043 186.530  1.00  0.00    -0.064 C 
ATOM     17  C   UNL     1     164.517 168.300 185.784  1.00  0.00     0.032 C 
ATOM     18  C   UNL     1     161.627 168.293 186.182  1.00  0.00    -0.008 C 
ATOM     19  C   UNL     1     163.781 169.650 185.902  1.00  0.00     0.009 C 
ATOM     20  C   UNL     1     162.399 169.597 186.587  1.00  0.00     0.007 C 
ATOM     21  C   UNL     1     160.219 168.338 186.844  1.00  0.00     0.014 C 
ATOM     22  C   UNL     1     161.379 168.261 184.650  1.00  0.00     0.016 C 
ATOM     23  C   UNL     1     162.427 169.921 188.140  1.00  0.00    -0.006 C 
ATOM     24  C   UNL     1     160.269 168.538 188.360  1.00  0.00     0.033 C 
ATOM     25  C   UNL     1     160.975 169.852 188.711  1.00  0.00     0.120 C 
ATOM     26  C   UNL     1     163.369 168.979 188.933  1.00  0.00     0.014 C 
ATOM     27  C   UNL     1     162.928 171.377 188.367  1.00  0.00     0.014 C 
BRANCH  25  28
ATOM     28  O   UNL     1     160.982 170.016 190.110  1.00  0.00    -0.393 OA
ATOM     29  H   UNL     1     161.441 169.225 190.493  1.00  0.00     0.210 HD
ENDBRANCH  25  28
ENDBRANCH   2   6
ENDBRANCH   1   2
BRANCH   1  30
ATOM     30  C   UNL     1     163.280 160.771 187.968  1.00  0.00     0.028 C 
BRANCH  30  31
ATOM     31  C   UNL     1     162.113 161.402 188.688  1.00  0.00    -0.028 C 
ATOM     32  C   UNL     1     160.951 161.716 188.078  1.00  0.00    -0.080 C 
ATOM     33  C   UNL     1     159.875 162.397 188.881  1.00  0.00     0.039 C 
ATOM     34  C   UNL     1     160.719 161.414 186.616  1.00  0.00     0.039 C 
ENDBRANCH  30  31
ENDBRANCH   1  30
TORSDOF 6
ENDMDL
