MODEL 1
REMARK VINA RESULT:    -8.324      0.000      0.000
REMARK INTER + INTRA:         -14.492
REMARK INTER:                 -12.704
REMARK INTRA:                  -1.788
REMARK UNBOUND:                -1.788
REMARK SMILES C[C@@H]1O[C@H](Oc2cc(O)c3c(=O)c(O[C@H]4O[C@@H](C)[C@@H](O)[C@@H](O)[C@@H]4O)c(-c4ccc(O)cc4)oc3c2)[C@@H](O)[C@@H](O)[C@@H]1O
REMARK SMILES IDX 6 1 7 2 8 3 10 4 34 5 35 6 33 7 25 8 13 9 11 10 12 11 5 12
REMARK SMILES IDX 4 13 1 14 2 15 40 16 3 17 38 18 36 19 41 20 39 22 37 24 9 26
REMARK SMILES IDX 26 28 27 29 32 30 28 31 31 32 29 33 30 34 14 36 15 37 23 38
REMARK SMILES IDX 16 39 21 40 17 41 19 42 18 43 24 44 22 46 20 48
REMARK H PARENT 41 21 39 23 37 25 9 27 30 35 24 45 22 47 20 49
REMARK Flexibility Score: inf
ROOT
ATOM      1  C   UNL     1      -8.131 -15.048  31.006  1.00  0.00     0.130 A 
ATOM      2  C   UNL     1      -8.129 -13.913  31.838  1.00  0.00     0.093 A 
ATOM      3  C   UNL     1      -7.065 -13.001  31.803  1.00  0.00     0.134 A 
ATOM      4  C   UNL     1      -5.971 -13.227  30.937  1.00  0.00     0.111 A 
ATOM      5  C   UNL     1      -5.987 -14.359  30.092  1.00  0.00     0.146 A 
ATOM      6  C   UNL     1      -7.069 -15.245  30.120  1.00  0.00     0.094 A 
ATOM      7  O   UNL     1      -4.970 -14.603  29.272  1.00  0.00    -0.452 OA
ATOM      8  C   UNL     1      -3.885 -13.838  29.212  1.00  0.00     0.180 A 
ATOM      9  C   UNL     1      -3.793 -12.680  30.008  1.00  0.00     0.214 A 
ATOM     10  C   UNL     1      -4.851 -12.375  30.872  1.00  0.00     0.239 A 
ATOM     11  O   UNL     1      -4.787 -11.329  31.574  1.00  0.00    -0.285 OA
ENDROOT
BRANCH   1  12
ATOM     12  O   UNL     1      -9.161 -16.005  31.026  1.00  0.00    -0.462 OA
BRANCH  12  13
ATOM     13  C   UNL     1     -10.359 -15.939  31.809  1.00  0.00     0.339 C 
ATOM     14  C   UNL     1     -10.907 -16.651  28.844  1.00  0.00     0.042 C 
ATOM     15  C   UNL     1     -11.853 -16.586  30.058  1.00  0.00     0.151 C 
ATOM     16  C   UNL     1     -12.123 -17.960  30.722  1.00  0.00     0.174 C 
ATOM     17  O   UNL     1     -11.466 -15.582  30.992  1.00  0.00    -0.335 OA
ATOM     18  C   UNL     1     -10.952 -18.384  31.613  1.00  0.00     0.180 C 
ATOM     19  C   UNL     1     -10.608 -17.249  32.588  1.00  0.00     0.214 C 
BRANCH  16  20
ATOM     20  O   UNL     1     -12.359 -18.948  29.754  1.00  0.00    -0.388 OA
ATOM     21  H   UNL     1     -11.596 -18.919  29.123  1.00  0.00     0.211 HD
ENDBRANCH  16  20
BRANCH  18  22
ATOM     22  O   UNL     1     -11.300 -19.549  32.315  1.00  0.00    -0.387 OA
ATOM     23  H   UNL     1     -11.677 -20.183  31.647  1.00  0.00     0.211 HD
ENDBRANCH  18  22
BRANCH  19  24
ATOM     24  O   UNL     1     -11.659 -17.045  33.499  1.00  0.00    -0.384 OA
ATOM     25  H   UNL     1     -12.260 -17.834  33.434  1.00  0.00     0.211 HD
ENDBRANCH  19  24
ENDBRANCH  12  13
ENDBRANCH   1  12
BRANCH   3  26
ATOM     26  O   UNL     1      -7.096 -11.877  32.633  1.00  0.00    -0.507 OA
ATOM     27  H   UNL     1      -6.979 -11.952  33.637  1.00  0.00     0.293 HD
ENDBRANCH   3  26
BRANCH   8  28
ATOM     28  C   UNL     1      -2.790 -14.266  28.334  1.00  0.00     0.021 A 
ATOM     29  C   UNL     1      -2.872 -14.059  26.947  1.00  0.00     0.016 A 
ATOM     30  C   UNL     1      -1.673 -14.918  28.875  1.00  0.00     0.016 A 
ATOM     31  C   UNL     1      -1.834 -14.485  26.112  1.00  0.00     0.047 A 
ATOM     32  C   UNL     1      -0.644 -15.354  28.036  1.00  0.00     0.047 A 
ATOM     33  C   UNL     1      -0.716 -15.132  26.655  1.00  0.00     0.115 A 
BRANCH  33  34
ATOM     34  O   UNL     1       0.330 -15.548  25.837  1.00  0.00    -0.508 OA
ATOM     35  H   UNL     1       0.176 -16.170  25.049  1.00  0.00     0.293 HD
ENDBRANCH  33  34
ENDBRANCH   8  28
BRANCH   9  36
ATOM     36  O   UNL     1      -2.675 -11.829  29.982  1.00  0.00    -0.454 OA
BRANCH  36  37
ATOM     37  C   UNL     1      -1.579 -11.843  30.907  1.00  0.00     0.339 C 
ATOM     38  C   UNL     1      -1.432 -10.514  31.695  1.00  0.00     0.214 C 
ATOM     39  O   UNL     1      -0.370 -12.140  30.239  1.00  0.00    -0.335 OA
ATOM     40  C   UNL     1      -0.004 -10.366  32.298  1.00  0.00     0.180 C 
ATOM     41  C   UNL     1       0.631 -12.573  31.154  1.00  0.00     0.151 C 
ATOM     42  C   UNL     1       0.650 -11.746  32.489  1.00  0.00     0.174 C 
ATOM     43  C   UNL     1       1.980 -12.544  30.424  1.00  0.00     0.042 C 
BRANCH  38  44
ATOM     44  O   UNL     1      -2.415 -10.430  32.696  1.00  0.00    -0.384 OA
ATOM     45  H   UNL     1      -1.969 -10.129  33.533  1.00  0.00     0.211 HD
ENDBRANCH  38  44
BRANCH  40  46
ATOM     46  O   UNL     1       0.803  -9.587  31.450  1.00  0.00    -0.387 OA
ATOM     47  H   UNL     1       1.278 -10.218  30.847  1.00  0.00     0.211 HD
ENDBRANCH  40  46
BRANCH  42  48
ATOM     48  O   UNL     1       1.949 -11.590  33.004  1.00  0.00    -0.388 OA
ATOM     49  H   UNL     1       2.459 -12.400  32.742  1.00  0.00     0.211 HD
ENDBRANCH  42  48
ENDBRANCH  36  37
ENDBRANCH   9  36
TORSDOF 13
ENDMDL
MODEL 2
REMARK VINA RESULT:    -8.050      1.134      1.988
REMARK INTER + INTRA:         -14.073
REMARK INTER:                 -12.243
REMARK INTRA:                  -1.830
REMARK UNBOUND:                -1.788
REMARK SMILES C[C@@H]1O[C@H](Oc2cc(O)c3c(=O)c(O[C@H]4O[C@@H](C)[C@@H](O)[C@@H](O)[C@@H]4O)c(-c4ccc(O)cc4)oc3c2)[C@@H](O)[C@@H](O)[C@@H]1O
REMARK SMILES IDX 6 1 7 2 8 3 10 4 34 5 35 6 33 7 25 8 13 9 11 10 12 11 5 12
REMARK SMILES IDX 4 13 1 14 2 15 40 16 3 17 38 18 36 19 41 20 39 22 37 24 9 26
REMARK SMILES IDX 26 28 27 29 32 30 28 31 31 32 29 33 30 34 14 36 15 37 23 38
REMARK SMILES IDX 16 39 21 40 17 41 19 42 18 43 24 44 22 46 20 48
REMARK H PARENT 41 21 39 23 37 25 9 27 30 35 24 45 22 47 20 49
REMARK Flexibility Score: inf
ROOT
ATOM      1  C   UNL     1      -8.482 -14.903  31.165  1.00  0.00     0.130 A 
ATOM      2  C   UNL     1      -8.312 -13.768  31.980  1.00  0.00     0.093 A 
ATOM      3  C   UNL     1      -7.155 -12.983  31.881  1.00  0.00     0.134 A 
ATOM      4  C   UNL     1      -6.137 -13.339  30.966  1.00  0.00     0.111 A 
ATOM      5  C   UNL     1      -6.322 -14.469  30.139  1.00  0.00     0.146 A 
ATOM      6  C   UNL     1      -7.494 -15.226  30.231  1.00  0.00     0.094 A 
ATOM      7  O   UNL     1      -5.381 -14.833  29.275  1.00  0.00    -0.452 OA
ATOM      8  C   UNL     1      -4.221 -14.196  29.151  1.00  0.00     0.180 A 
ATOM      9  C   UNL     1      -3.960 -13.049  29.925  1.00  0.00     0.214 A 
ATOM     10  C   UNL     1      -4.933 -12.619  30.835  1.00  0.00     0.239 A 
ATOM     11  O   UNL     1      -4.717 -11.581  31.518  1.00  0.00    -0.285 OA
ENDROOT
BRANCH   1  12
ATOM     12  O   UNL     1      -9.611 -15.737  31.248  1.00  0.00    -0.462 OA
BRANCH  12  13
ATOM     13  C   UNL     1      -9.838 -16.929  30.485  1.00  0.00     0.339 C 
ATOM     14  C   UNL     1     -11.606 -16.781  33.025  1.00  0.00     0.042 C 
ATOM     15  C   UNL     1     -11.588 -17.795  31.865  1.00  0.00     0.151 C 
ATOM     16  C   UNL     1     -12.655 -17.526  30.774  1.00  0.00     0.174 C 
ATOM     17  O   UNL     1     -10.280 -17.982  31.331  1.00  0.00    -0.335 OA
ATOM     18  C   UNL     1     -12.218 -16.395  29.839  1.00  0.00     0.180 C 
ATOM     19  C   UNL     1     -10.806 -16.681  29.308  1.00  0.00     0.214 C 
BRANCH  16  20
ATOM     20  O   UNL     1     -13.893 -17.206  31.352  1.00  0.00    -0.388 OA
ATOM     21  H   UNL     1     -13.960 -16.217  31.358  1.00  0.00     0.211 HD
ENDBRANCH  16  20
BRANCH  18  22
ATOM     22  O   UNL     1     -13.133 -16.289  28.779  1.00  0.00    -0.387 OA
ATOM     23  H   UNL     1     -14.040 -16.391  29.174  1.00  0.00     0.211 HD
ENDBRANCH  18  22
BRANCH  19  24
ATOM     24  O   UNL     1     -10.812 -17.814  28.475  1.00  0.00    -0.384 OA
ATOM     25  H   UNL     1      -9.869 -17.997  28.222  1.00  0.00     0.211 HD
ENDBRANCH  19  24
ENDBRANCH  12  13
ENDBRANCH   1  12
BRANCH   3  26
ATOM     26  O   UNL     1      -7.018 -11.856  32.695  1.00  0.00    -0.507 OA
ATOM     27  H   UNL     1      -7.431 -11.813  33.620  1.00  0.00     0.293 HD
ENDBRANCH   3  26
BRANCH   8  28
ATOM     28  C   UNL     1      -3.226 -14.752  28.227  1.00  0.00     0.021 A 
ATOM     29  C   UNL     1      -2.315 -15.726  28.669  1.00  0.00     0.016 A 
ATOM     30  C   UNL     1      -3.156 -14.283  26.907  1.00  0.00     0.016 A 
ATOM     31  C   UNL     1      -1.356 -16.239  27.790  1.00  0.00     0.047 A 
ATOM     32  C   UNL     1      -2.188 -14.789  26.036  1.00  0.00     0.047 A 
ATOM     33  C   UNL     1      -1.292 -15.774  26.471  1.00  0.00     0.115 A 
BRANCH  33  34
ATOM     34  O   UNL     1      -0.351 -16.286  25.582  1.00  0.00    -0.508 OA
ATOM     35  H   UNL     1      -0.628 -16.740  24.716  1.00  0.00     0.293 HD
ENDBRANCH  33  34
ENDBRANCH   8  28
BRANCH   9  36
ATOM     36  O   UNL     1      -2.756 -12.330  29.833  1.00  0.00    -0.454 OA
BRANCH  36  37
ATOM     37  C   UNL     1      -1.528 -12.647  30.503  1.00  0.00     0.339 C 
ATOM     38  C   UNL     1      -1.253 -11.737  31.731  1.00  0.00     0.214 C 
ATOM     39  O   UNL     1      -0.441 -12.579  29.603  1.00  0.00    -0.335 OA
ATOM     40  C   UNL     1       0.253 -11.757  32.126  1.00  0.00     0.180 C 
ATOM     41  C   UNL     1       0.690 -13.281  30.108  1.00  0.00     0.151 C 
ATOM     42  C   UNL     1       0.923 -13.057  31.645  1.00  0.00     0.174 C 
ATOM     43  C   UNL     1       1.907 -12.881  29.264  1.00  0.00     0.042 C 
BRANCH  38  44
ATOM     44  O   UNL     1      -2.065 -12.120  32.812  1.00  0.00    -0.384 OA
ATOM     45  H   UNL     1      -2.775 -12.720  32.458  1.00  0.00     0.211 HD
ENDBRANCH  38  44
BRANCH  40  46
ATOM     46  O   UNL     1       0.919 -10.657  31.557  1.00  0.00    -0.387 OA
ATOM     47  H   UNL     1       0.218 -10.015  31.269  1.00  0.00     0.211 HD
ENDBRANCH  40  46
BRANCH  42  48
ATOM     48  O   UNL     1       2.288 -13.042  31.983  1.00  0.00    -0.388 OA
ATOM     49  H   UNL     1       2.668 -12.212  31.595  1.00  0.00     0.211 HD
ENDBRANCH  42  48
ENDBRANCH  36  37
ENDBRANCH   9  36
TORSDOF 13
ENDMDL
MODEL 3
REMARK VINA RESULT:    -7.630      1.854      2.339
REMARK INTER + INTRA:         -13.433
REMARK INTER:                 -11.774
REMARK INTRA:                  -1.659
REMARK UNBOUND:                -1.788
REMARK SMILES C[C@@H]1O[C@H](Oc2cc(O)c3c(=O)c(O[C@H]4O[C@@H](C)[C@@H](O)[C@@H](O)[C@@H]4O)c(-c4ccc(O)cc4)oc3c2)[C@@H](O)[C@@H](O)[C@@H]1O
REMARK SMILES IDX 6 1 7 2 8 3 10 4 34 5 35 6 33 7 25 8 13 9 11 10 12 11 5 12
REMARK SMILES IDX 4 13 1 14 2 15 40 16 3 17 38 18 36 19 41 20 39 22 37 24 9 26
REMARK SMILES IDX 26 28 27 29 32 30 28 31 31 32 29 33 30 34 14 36 15 37 23 38
REMARK SMILES IDX 16 39 21 40 17 41 19 42 18 43 24 44 22 46 20 48
REMARK H PARENT 41 21 39 23 37 25 9 27 30 35 24 45 22 47 20 49
REMARK Flexibility Score: inf
ROOT
ATOM      1  C   UNL     1      -7.801 -14.698  30.439  1.00  0.00     0.130 A 
ATOM      2  C   UNL     1      -7.688 -13.704  31.428  1.00  0.00     0.093 A 
ATOM      3  C   UNL     1      -6.491 -12.996  31.599  1.00  0.00     0.134 A 
ATOM      4  C   UNL     1      -5.375 -13.289  30.782  1.00  0.00     0.111 A 
ATOM      5  C   UNL     1      -5.500 -14.276  29.778  1.00  0.00     0.146 A 
ATOM      6  C   UNL     1      -6.710 -14.955  29.604  1.00  0.00     0.094 A 
ATOM      7  O   UNL     1      -4.468 -14.580  28.999  1.00  0.00    -0.452 OA
ATOM      8  C   UNL     1      -3.272 -14.015  29.124  1.00  0.00     0.180 A 
ATOM      9  C   UNL     1      -3.063 -13.009  30.087  1.00  0.00     0.214 A 
ATOM     10  C   UNL     1      -4.130 -12.644  30.916  1.00  0.00     0.239 A 
ATOM     11  O   UNL     1      -3.959 -11.731  31.768  1.00  0.00    -0.285 OA
ENDROOT
BRANCH   1  12
ATOM     12  O   UNL     1      -8.971 -15.455  30.249  1.00  0.00    -0.462 OA
BRANCH  12  13
ATOM     13  C   UNL     1      -9.896 -15.849  31.270  1.00  0.00     0.339 C 
ATOM     14  C   UNL     1     -11.061 -16.159  28.416  1.00  0.00     0.042 C 
ATOM     15  C   UNL     1     -11.633 -16.560  29.789  1.00  0.00     0.151 C 
ATOM     16  C   UNL     1     -11.410 -18.050  30.155  1.00  0.00     0.174 C 
ATOM     17  O   UNL     1     -11.233 -15.666  30.824  1.00  0.00    -0.335 OA
ATOM     18  C   UNL     1      -9.978 -18.291  30.642  1.00  0.00     0.180 C 
ATOM     19  C   UNL     1      -9.635 -17.291  31.756  1.00  0.00     0.214 C 
BRANCH  16  20
ATOM     20  O   UNL     1     -11.680 -18.882  29.059  1.00  0.00    -0.388 OA
ATOM     21  H   UNL     1     -12.564 -18.609  28.702  1.00  0.00     0.211 HD
ENDBRANCH  16  20
BRANCH  18  22
ATOM     22  O   UNL     1      -9.862 -19.610  31.109  1.00  0.00    -0.387 OA
ATOM     23  H   UNL     1     -10.731 -19.839  31.538  1.00  0.00     0.211 HD
ENDBRANCH  18  22
BRANCH  19  24
ATOM     24  O   UNL     1     -10.418 -17.537  32.897  1.00  0.00    -0.384 OA
ATOM     25  H   UNL     1     -10.657 -16.654  33.285  1.00  0.00     0.211 HD
ENDBRANCH  19  24
ENDBRANCH  12  13
ENDBRANCH   1  12
BRANCH   3  26
ATOM     26  O   UNL     1      -6.412 -12.006  32.583  1.00  0.00    -0.507 OA
ATOM     27  H   UNL     1      -5.868 -11.163  32.448  1.00  0.00     0.293 HD
ENDBRANCH   3  26
BRANCH   8  28
ATOM     28  C   UNL     1      -2.187 -14.504  28.265  1.00  0.00     0.021 A 
ATOM     29  C   UNL     1      -2.178 -14.202  26.893  1.00  0.00     0.016 A 
ATOM     30  C   UNL     1      -1.174 -15.308  28.806  1.00  0.00     0.016 A 
ATOM     31  C   UNL     1      -1.152 -14.686  26.075  1.00  0.00     0.047 A 
ATOM     32  C   UNL     1      -0.157 -15.801  27.983  1.00  0.00     0.047 A 
ATOM     33  C   UNL     1      -0.138 -15.485  26.618  1.00  0.00     0.115 A 
BRANCH  33  34
ATOM     34  O   UNL     1       0.896 -15.961  25.818  1.00  0.00    -0.508 OA
ATOM     35  H   UNL     1       0.880 -15.857  24.808  1.00  0.00     0.293 HD
ENDBRANCH  33  34
ENDBRANCH   8  28
BRANCH   9  36
ATOM     36  O   UNL     1      -1.823 -12.370  30.261  1.00  0.00    -0.454 OA
BRANCH  36  37
ATOM     37  C   UNL     1      -1.248 -11.388  29.387  1.00  0.00     0.339 C 
ATOM     38  C   UNL     1      -2.302 -10.672  28.501  1.00  0.00     0.214 C 
ATOM     39  O   UNL     1      -0.254 -11.972  28.571  1.00  0.00    -0.335 OA
ATOM     40  C   UNL     1      -1.640 -10.003  27.260  1.00  0.00     0.180 C 
ATOM     41  C   UNL     1       0.607 -10.982  28.020  1.00  0.00     0.151 C 
ATOM     42  C   UNL     1      -0.156  -9.698  27.535  1.00  0.00     0.174 C 
ATOM     43  C   UNL     1       1.424 -11.639  26.899  1.00  0.00     0.042 C 
BRANCH  38  44
ATOM     44  O   UNL     1      -3.019  -9.731  29.261  1.00  0.00    -0.384 OA
ATOM     45  H   UNL     1      -3.938 -10.088  29.391  1.00  0.00     0.211 HD
ENDBRANCH  38  44
BRANCH  40  46
ATOM     46  O   UNL     1      -1.737 -10.851  26.142  1.00  0.00    -0.387 OA
ATOM     47  H   UNL     1      -1.317 -10.370  25.381  1.00  0.00     0.211 HD
ENDBRANCH  40  46
BRANCH  42  48
ATOM     48  O   UNL     1       0.431  -9.124  26.394  1.00  0.00    -0.388 OA
ATOM     49  H   UNL     1      -0.030  -8.259  26.240  1.00  0.00     0.211 HD
ENDBRANCH  42  48
ENDBRANCH  36  37
ENDBRANCH   9  36
TORSDOF 13
ENDMDL
MODEL 4
REMARK VINA RESULT:    -7.492      4.965      8.813
REMARK INTER + INTRA:         -13.221
REMARK INTER:                 -11.700
REMARK INTRA:                  -1.521
REMARK UNBOUND:                -1.788
REMARK SMILES C[C@@H]1O[C@H](Oc2cc(O)c3c(=O)c(O[C@H]4O[C@@H](C)[C@@H](O)[C@@H](O)[C@@H]4O)c(-c4ccc(O)cc4)oc3c2)[C@@H](O)[C@@H](O)[C@@H]1O
REMARK SMILES IDX 6 1 7 2 8 3 10 4 34 5 35 6 33 7 25 8 13 9 11 10 12 11 5 12
REMARK SMILES IDX 4 13 1 14 2 15 40 16 3 17 38 18 36 19 41 20 39 22 37 24 9 26
REMARK SMILES IDX 26 28 27 29 32 30 28 31 31 32 29 33 30 34 14 36 15 37 23 38
REMARK SMILES IDX 16 39 21 40 17 41 19 42 18 43 24 44 22 46 20 48
REMARK H PARENT 41 21 39 23 37 25 9 27 30 35 24 45 22 47 20 49
REMARK Flexibility Score: inf
ROOT
ATOM      1  C   UNL     1       0.106 -20.030  28.094  1.00  0.00     0.130 A 
ATOM      2  C   UNL     1       0.658 -19.962  26.801  1.00  0.00     0.093 A 
ATOM      3  C   UNL     1       0.427 -18.848  25.981  1.00  0.00     0.134 A 
ATOM      4  C   UNL     1      -0.380 -17.785  26.447  1.00  0.00     0.111 A 
ATOM      5  C   UNL     1      -0.915 -17.851  27.753  1.00  0.00     0.146 A 
ATOM      6  C   UNL     1      -0.654 -18.958  28.568  1.00  0.00     0.094 A 
ATOM      7  O   UNL     1      -1.684 -16.872  28.217  1.00  0.00    -0.452 OA
ATOM      8  C   UNL     1      -2.016 -15.806  27.497  1.00  0.00     0.180 A 
ATOM      9  C   UNL     1      -1.513 -15.651  26.191  1.00  0.00     0.214 A 
ATOM     10  C   UNL     1      -0.684 -16.650  25.670  1.00  0.00     0.239 A 
ATOM     11  O   UNL     1      -0.212 -16.511  24.509  1.00  0.00    -0.285 OA
ENDROOT
BRANCH   1  12
ATOM     12  O   UNL     1       0.286 -21.138  28.941  1.00  0.00    -0.462 OA
BRANCH  12  13
ATOM     13  C   UNL     1      -0.511 -22.329  28.952  1.00  0.00     0.339 C 
ATOM     14  C   UNL     1       1.864 -22.460  30.938  1.00  0.00     0.042 C 
ATOM     15  C   UNL     1       0.697 -23.435  30.694  1.00  0.00     0.151 C 
ATOM     16  C   UNL     1      -0.481 -23.272  31.688  1.00  0.00     0.174 C 
ATOM     17  O   UNL     1       0.279 -23.449  29.332  1.00  0.00    -0.335 OA
ATOM     18  C   UNL     1      -1.358 -22.074  31.314  1.00  0.00     0.180 C 
ATOM     19  C   UNL     1      -1.766 -22.173  29.837  1.00  0.00     0.214 C 
BRANCH  16  20
ATOM     20  O   UNL     1      -0.011 -23.119  33.001  1.00  0.00    -0.388 OA
ATOM     21  H   UNL     1       0.892 -23.527  33.033  1.00  0.00     0.211 HD
ENDBRANCH  16  20
BRANCH  18  22
ATOM     22  O   UNL     1      -2.493 -22.054  32.140  1.00  0.00    -0.387 OA
ATOM     23  H   UNL     1      -3.220 -21.621  31.617  1.00  0.00     0.211 HD
ENDBRANCH  18  22
BRANCH  19  24
ATOM     24  O   UNL     1      -2.610 -23.278  29.632  1.00  0.00    -0.384 OA
ATOM     25  H   UNL     1      -3.462 -22.930  29.257  1.00  0.00     0.211 HD
ENDBRANCH  19  24
ENDBRANCH  12  13
ENDBRANCH   1  12
BRANCH   3  26
ATOM     26  O   UNL     1       0.996 -18.805  24.706  1.00  0.00    -0.507 OA
ATOM     27  H   UNL     1       1.196 -17.927  24.241  1.00  0.00     0.293 HD
ENDBRANCH   3  26
BRANCH   8  28
ATOM     28  C   UNL     1      -2.948 -14.838  28.090  1.00  0.00     0.021 A 
ATOM     29  C   UNL     1      -2.490 -13.893  29.022  1.00  0.00     0.016 A 
ATOM     30  C   UNL     1      -4.309 -14.881  27.755  1.00  0.00     0.016 A 
ATOM     31  C   UNL     1      -3.384 -12.985  29.598  1.00  0.00     0.047 A 
ATOM     32  C   UNL     1      -5.202 -13.982  28.343  1.00  0.00     0.047 A 
ATOM     33  C   UNL     1      -4.743 -13.026  29.258  1.00  0.00     0.115 A 
BRANCH  33  34
ATOM     34  O   UNL     1      -5.641 -12.120  29.813  1.00  0.00    -0.508 OA
ATOM     35  H   UNL     1      -6.644 -12.215  29.682  1.00  0.00     0.293 HD
ENDBRANCH  33  34
ENDBRANCH   8  28
BRANCH   9  36
ATOM     36  O   UNL     1      -1.823 -14.542  25.385  1.00  0.00    -0.454 OA
BRANCH  36  37
ATOM     37  C   UNL     1      -1.109 -13.299  25.344  1.00  0.00     0.339 C 
ATOM     38  C   UNL     1       0.430 -13.480  25.438  1.00  0.00     0.214 C 
ATOM     39  O   UNL     1      -1.553 -12.437  26.371  1.00  0.00    -0.335 OA
ATOM     40  C   UNL     1       1.131 -12.162  25.881  1.00  0.00     0.180 C 
ATOM     41  C   UNL     1      -1.188 -11.087  26.104  1.00  0.00     0.151 C 
ATOM     42  C   UNL     1       0.264 -10.940  25.525  1.00  0.00     0.174 C 
ATOM     43  C   UNL     1      -1.393 -10.281  27.393  1.00  0.00     0.042 C 
BRANCH  38  44
ATOM     44  O   UNL     1       0.943 -13.938  24.212  1.00  0.00    -0.384 OA
ATOM     45  H   UNL     1       1.712 -13.356  23.970  1.00  0.00     0.211 HD
ENDBRANCH  38  44
BRANCH  40  46
ATOM     46  O   UNL     1       1.360 -12.176  27.269  1.00  0.00    -0.387 OA
ATOM     47  H   UNL     1       0.478 -12.045  27.706  1.00  0.00     0.211 HD
ENDBRANCH  40  46
BRANCH  42  48
ATOM     48  O   UNL     1       0.898  -9.764  25.961  1.00  0.00    -0.388 OA
ATOM     49  H   UNL     1       0.479  -9.518  26.826  1.00  0.00     0.211 HD
ENDBRANCH  42  48
ENDBRANCH  36  37
ENDBRANCH   9  36
TORSDOF 13
ENDMDL
MODEL 5
REMARK VINA RESULT:    -7.453      6.988     11.110
REMARK INTER + INTRA:         -13.163
REMARK INTER:                 -11.498
REMARK INTRA:                  -1.665
REMARK UNBOUND:                -1.788
REMARK SMILES C[C@@H]1O[C@H](Oc2cc(O)c3c(=O)c(O[C@H]4O[C@@H](C)[C@@H](O)[C@@H](O)[C@@H]4O)c(-c4ccc(O)cc4)oc3c2)[C@@H](O)[C@@H](O)[C@@H]1O
REMARK SMILES IDX 6 1 7 2 8 3 10 4 34 5 35 6 33 7 25 8 13 9 11 10 12 11 5 12
REMARK SMILES IDX 4 13 1 14 2 15 40 16 3 17 38 18 36 19 41 20 39 22 37 24 9 26
REMARK SMILES IDX 26 28 27 29 32 30 28 31 31 32 29 33 30 34 14 36 15 37 23 38
REMARK SMILES IDX 16 39 21 40 17 41 19 42 18 43 24 44 22 46 20 48
REMARK H PARENT 41 21 39 23 37 25 9 27 30 35 24 45 22 47 20 49
REMARK Flexibility Score: inf
ROOT
ATOM      1  C   UNL     1      -1.599 -16.997  27.384  1.00  0.00     0.130 A 
ATOM      2  C   UNL     1      -0.807 -17.172  26.234  1.00  0.00     0.093 A 
ATOM      3  C   UNL     1      -0.256 -18.425  25.928  1.00  0.00     0.134 A 
ATOM      4  C   UNL     1      -0.483 -19.524  26.787  1.00  0.00     0.111 A 
ATOM      5  C   UNL     1      -1.295 -19.347  27.930  1.00  0.00     0.146 A 
ATOM      6  C   UNL     1      -1.858 -18.097  28.208  1.00  0.00     0.094 A 
ATOM      7  O   UNL     1      -1.520 -20.358  28.761  1.00  0.00    -0.452 OA
ATOM      8  C   UNL     1      -0.992 -21.566  28.596  1.00  0.00     0.180 A 
ATOM      9  C   UNL     1      -0.184 -21.836  27.474  1.00  0.00     0.214 A 
ATOM     10  C   UNL     1       0.064 -20.803  26.563  1.00  0.00     0.239 A 
ATOM     11  O   UNL     1       0.769 -21.040  25.545  1.00  0.00    -0.285 OA
ENDROOT
BRANCH   1  12
ATOM     12  O   UNL     1      -2.149 -15.755  27.749  1.00  0.00    -0.462 OA
BRANCH  12  13
ATOM     13  C   UNL     1      -2.721 -15.426  29.020  1.00  0.00     0.339 C 
ATOM     14  C   UNL     1      -0.959 -13.148  27.875  1.00  0.00     0.042 C 
ATOM     15  C   UNL     1      -1.852 -13.201  29.130  1.00  0.00     0.151 C 
ATOM     16  C   UNL     1      -3.259 -12.584  28.930  1.00  0.00     0.174 C 
ATOM     17  O   UNL     1      -1.891 -14.501  29.712  1.00  0.00    -0.335 OA
ATOM     18  C   UNL     1      -4.186 -13.549  28.187  1.00  0.00     0.180 C 
ATOM     19  C   UNL     1      -4.172 -14.918  28.883  1.00  0.00     0.214 C 
BRANCH  16  20
ATOM     20  O   UNL     1      -3.180 -11.372  28.227  1.00  0.00    -0.388 OA
ATOM     21  H   UNL     1      -3.716 -11.484  27.401  1.00  0.00     0.211 HD
ENDBRANCH  16  20
BRANCH  18  22
ATOM     22  O   UNL     1      -5.487 -13.020  28.165  1.00  0.00    -0.387 OA
ATOM     23  H   UNL     1      -5.690 -12.723  29.092  1.00  0.00     0.211 HD
ENDBRANCH  18  22
BRANCH  19  24
ATOM     24  O   UNL     1      -4.747 -14.827  30.162  1.00  0.00    -0.384 OA
ATOM     25  H   UNL     1      -4.702 -15.732  30.569  1.00  0.00     0.211 HD
ENDBRANCH  19  24
ENDBRANCH  12  13
ENDBRANCH   1  12
BRANCH   3  26
ATOM     26  O   UNL     1       0.518 -18.570  24.774  1.00  0.00    -0.507 OA
ATOM     27  H   UNL     1       1.522 -18.694  24.818  1.00  0.00     0.293 HD
ENDBRANCH   3  26
BRANCH   8  28
ATOM     28  C   UNL     1      -1.241 -22.573  29.634  1.00  0.00     0.021 A 
ATOM     29  C   UNL     1      -0.587 -22.490  30.874  1.00  0.00     0.016 A 
ATOM     30  C   UNL     1      -2.106 -23.647  29.374  1.00  0.00     0.016 A 
ATOM     31  C   UNL     1      -0.814 -23.463  31.853  1.00  0.00     0.047 A 
ATOM     32  C   UNL     1      -2.319 -24.624  30.350  1.00  0.00     0.047 A 
ATOM     33  C   UNL     1      -1.682 -24.531  31.594  1.00  0.00     0.115 A 
BRANCH  33  34
ATOM     34  O   UNL     1      -1.927 -25.498  32.564  1.00  0.00    -0.508 OA
ATOM     35  H   UNL     1      -1.406 -25.523  33.436  1.00  0.00     0.293 HD
ENDBRANCH  33  34
ENDBRANCH   8  28
BRANCH   9  36
ATOM     36  O   UNL     1       0.397 -23.094  27.243  1.00  0.00    -0.454 OA
BRANCH  36  37
ATOM     37  C   UNL     1       1.374 -23.741  28.070  1.00  0.00     0.339 C 
ATOM     38  C   UNL     1       2.737 -23.943  27.355  1.00  0.00     0.214 C 
ATOM     39  O   UNL     1       0.888 -24.983  28.534  1.00  0.00    -0.335 OA
ATOM     40  C   UNL     1       3.587 -25.044  28.053  1.00  0.00     0.180 C 
ATOM     41  C   UNL     1       1.628 -25.436  29.662  1.00  0.00     0.151 C 
ATOM     42  C   UNL     1       3.174 -25.195  29.529  1.00  0.00     0.174 C 
ATOM     43  C   UNL     1       1.280 -26.913  29.891  1.00  0.00     0.042 C 
BRANCH  38  44
ATOM     44  O   UNL     1       3.439 -22.726  27.291  1.00  0.00    -0.384 OA
ATOM     45  H   UNL     1       4.125 -22.811  26.576  1.00  0.00     0.211 HD
ENDBRANCH  38  44
BRANCH  40  46
ATOM     46  O   UNL     1       3.417 -26.278  27.398  1.00  0.00    -0.387 OA
ATOM     47  H   UNL     1       3.920 -26.219  26.543  1.00  0.00     0.211 HD
ENDBRANCH  40  46
BRANCH  42  48
ATOM     48  O   UNL     1       3.930 -26.215  30.132  1.00  0.00    -0.388 OA
ATOM     49  H   UNL     1       4.311 -25.832  30.965  1.00  0.00     0.211 HD
ENDBRANCH  42  48
ENDBRANCH  36  37
ENDBRANCH   9  36
TORSDOF 13
ENDMDL
MODEL 6
REMARK VINA RESULT:    -7.336      7.781     12.779
REMARK INTER + INTRA:         -12.984
REMARK INTER:                 -11.654
REMARK INTRA:                  -1.329
REMARK UNBOUND:                -1.788
REMARK SMILES C[C@@H]1O[C@H](Oc2cc(O)c3c(=O)c(O[C@H]4O[C@@H](C)[C@@H](O)[C@@H](O)[C@@H]4O)c(-c4ccc(O)cc4)oc3c2)[C@@H](O)[C@@H](O)[C@@H]1O
REMARK SMILES IDX 6 1 7 2 8 3 10 4 34 5 35 6 33 7 25 8 13 9 11 10 12 11 5 12
REMARK SMILES IDX 4 13 1 14 2 15 40 16 3 17 38 18 36 19 41 20 39 22 37 24 9 26
REMARK SMILES IDX 26 28 27 29 32 30 28 31 31 32 29 33 30 34 14 36 15 37 23 38
REMARK SMILES IDX 16 39 21 40 17 41 19 42 18 43 24 44 22 46 20 48
REMARK H PARENT 41 21 39 23 37 25 9 27 30 35 24 45 22 47 20 49
REMARK Flexibility Score: inf
ROOT
ATOM      1  C   UNL     1       0.119 -18.190  25.974  1.00  0.00     0.130 A 
ATOM      2  C   UNL     1       0.832 -18.815  24.934  1.00  0.00     0.093 A 
ATOM      3  C   UNL     1       1.100 -20.191  24.977  1.00  0.00     0.134 A 
ATOM      4  C   UNL     1       0.666 -20.960  26.080  1.00  0.00     0.111 A 
ATOM      5  C   UNL     1      -0.065 -20.330  27.112  1.00  0.00     0.146 A 
ATOM      6  C   UNL     1      -0.347 -18.962  27.042  1.00  0.00     0.094 A 
ATOM      7  O   UNL     1      -0.480 -21.024  28.166  1.00  0.00    -0.452 OA
ATOM      8  C   UNL     1      -0.220 -22.316  28.333  1.00  0.00     0.180 A 
ATOM      9  C   UNL     1       0.488 -23.028  27.345  1.00  0.00     0.214 A 
ATOM     10  C   UNL     1       0.927 -22.339  26.209  1.00  0.00     0.239 A 
ATOM     11  O   UNL     1       1.545 -22.971  25.309  1.00  0.00    -0.285 OA
ENDROOT
BRANCH   1  12
ATOM     12  O   UNL     1      -0.150 -16.809  25.990  1.00  0.00    -0.462 OA
BRANCH  12  13
ATOM     13  C   UNL     1      -0.095 -15.926  24.864  1.00  0.00     0.339 C 
ATOM     14  C   UNL     1      -2.463 -15.300  26.762  1.00  0.00     0.042 C 
ATOM     15  C   UNL     1      -1.947 -14.559  25.514  1.00  0.00     0.151 C 
ATOM     16  C   UNL     1      -1.019 -13.359  25.830  1.00  0.00     0.174 C 
ATOM     17  O   UNL     1      -1.397 -15.449  24.546  1.00  0.00    -0.335 OA
ATOM     18  C   UNL     1       0.396 -13.830  26.179  1.00  0.00     0.180 C 
ATOM     19  C   UNL     1       0.910 -14.775  25.084  1.00  0.00     0.214 C 
BRANCH  16  20
ATOM     20  O   UNL     1      -1.533 -12.592  26.887  1.00  0.00    -0.388 OA
ATOM     21  H   UNL     1      -1.897 -13.229  27.553  1.00  0.00     0.211 HD
ENDBRANCH  16  20
BRANCH  18  22
ATOM     22  O   UNL     1       1.239 -12.714  26.304  1.00  0.00    -0.387 OA
ATOM     23  H   UNL     1       1.422 -12.601  27.276  1.00  0.00     0.211 HD
ENDBRANCH  18  22
BRANCH  19  24
ATOM     24  O   UNL     1       1.082 -14.081  23.874  1.00  0.00    -0.384 OA
ATOM     25  H   UNL     1       0.207 -14.089  23.404  1.00  0.00     0.211 HD
ENDBRANCH  19  24
ENDBRANCH  12  13
ENDBRANCH   1  12
BRANCH   3  26
ATOM     26  O   UNL     1       1.801 -20.786  23.925  1.00  0.00    -0.507 OA
ATOM     27  H   UNL     1       2.553 -20.305  23.446  1.00  0.00     0.293 HD
ENDBRANCH   3  26
BRANCH   8  28
ATOM     28  C   UNL     1      -0.653 -22.949  29.585  1.00  0.00     0.021 A 
ATOM     29  C   UNL     1      -1.780 -23.786  29.603  1.00  0.00     0.016 A 
ATOM     30  C   UNL     1       0.038 -22.687  30.777  1.00  0.00     0.016 A 
ATOM     31  C   UNL     1      -2.199 -24.372  30.802  1.00  0.00     0.047 A 
ATOM     32  C   UNL     1      -0.392 -23.263  31.975  1.00  0.00     0.047 A 
ATOM     33  C   UNL     1      -1.505 -24.114  31.991  1.00  0.00     0.115 A 
BRANCH  33  34
ATOM     34  O   UNL     1      -1.903 -24.701  33.188  1.00  0.00    -0.508 OA
ATOM     35  H   UNL     1      -2.683 -25.351  33.229  1.00  0.00     0.293 HD
ENDBRANCH  33  34
ENDBRANCH   8  28
BRANCH   9  36
ATOM     36  O   UNL     1       0.786 -24.396  27.463  1.00  0.00    -0.454 OA
BRANCH  36  37
ATOM     37  C   UNL     1       1.565 -25.006  28.502  1.00  0.00     0.339 C 
ATOM     38  C   UNL     1       3.067 -25.142  28.136  1.00  0.00     0.214 C 
ATOM     39  O   UNL     1       1.037 -26.274  28.837  1.00  0.00    -0.335 OA
ATOM     40  C   UNL     1       3.773 -26.212  29.020  1.00  0.00     0.180 C 
ATOM     41  C   UNL     1       1.503 -26.704  30.111  1.00  0.00     0.151 C 
ATOM     42  C   UNL     1       3.024 -26.395  30.352  1.00  0.00     0.174 C 
ATOM     43  C   UNL     1       1.177 -28.197  30.251  1.00  0.00     0.042 C 
BRANCH  38  44
ATOM     44  O   UNL     1       3.708 -23.896  28.240  1.00  0.00    -0.384 OA
ATOM     45  H   UNL     1       4.550 -24.032  28.752  1.00  0.00     0.211 HD
ENDBRANCH  38  44
BRANCH  40  46
ATOM     46  O   UNL     1       3.820 -27.445  28.345  1.00  0.00    -0.387 OA
ATOM     47  H   UNL     1       2.881 -27.752  28.243  1.00  0.00     0.211 HD
ENDBRANCH  40  46
BRANCH  42  48
ATOM     48  O   UNL     1       3.657 -27.386  31.122  1.00  0.00    -0.388 OA
ATOM     49  H   UNL     1       3.532 -27.132  32.073  1.00  0.00     0.211 HD
ENDBRANCH  42  48
ENDBRANCH  36  37
ENDBRANCH   9  36
TORSDOF 13
ENDMDL
MODEL 7
REMARK VINA RESULT:    -7.265      4.739      9.456
REMARK INTER + INTRA:         -12.875
REMARK INTER:                 -11.349
REMARK INTRA:                  -1.526
REMARK UNBOUND:                -1.788
REMARK SMILES C[C@@H]1O[C@H](Oc2cc(O)c3c(=O)c(O[C@H]4O[C@@H](C)[C@@H](O)[C@@H](O)[C@@H]4O)c(-c4ccc(O)cc4)oc3c2)[C@@H](O)[C@@H](O)[C@@H]1O
REMARK SMILES IDX 6 1 7 2 8 3 10 4 34 5 35 6 33 7 25 8 13 9 11 10 12 11 5 12
REMARK SMILES IDX 4 13 1 14 2 15 40 16 3 17 38 18 36 19 41 20 39 22 37 24 9 26
REMARK SMILES IDX 26 28 27 29 32 30 28 31 31 32 29 33 30 34 14 36 15 37 23 38
REMARK SMILES IDX 16 39 21 40 17 41 19 42 18 43 24 44 22 46 20 48
REMARK H PARENT 41 21 39 23 37 25 9 27 30 35 24 45 22 47 20 49
REMARK Flexibility Score: inf
ROOT
ATOM      1  C   UNL     1      -2.400 -14.380  28.340  1.00  0.00     0.130 A 
ATOM      2  C   UNL     1      -2.140 -13.967  27.020  1.00  0.00     0.093 A 
ATOM      3  C   UNL     1      -1.679 -14.880  26.061  1.00  0.00     0.134 A 
ATOM      4  C   UNL     1      -1.458 -16.229  26.422  1.00  0.00     0.111 A 
ATOM      5  C   UNL     1      -1.739 -16.642  27.743  1.00  0.00     0.146 A 
ATOM      6  C   UNL     1      -2.222 -15.724  28.681  1.00  0.00     0.094 A 
ATOM      7  O   UNL     1      -1.533 -17.901  28.115  1.00  0.00    -0.452 OA
ATOM      8  C   UNL     1      -1.037 -18.827  27.301  1.00  0.00     0.180 A 
ATOM      9  C   UNL     1      -0.745 -18.506  25.962  1.00  0.00     0.214 A 
ATOM     10  C   UNL     1      -0.965 -17.196  25.523  1.00  0.00     0.239 A 
ATOM     11  O   UNL     1      -0.725 -16.904  24.320  1.00  0.00    -0.285 OA
ENDROOT
BRANCH   1  12
ATOM     12  O   UNL     1      -2.835 -13.496  29.343  1.00  0.00    -0.462 OA
BRANCH  12  13
ATOM     13  C   UNL     1      -3.213 -12.127  29.155  1.00  0.00     0.339 C 
ATOM     14  C   UNL     1      -5.554 -13.883  30.173  1.00  0.00     0.042 C 
ATOM     15  C   UNL     1      -5.457 -12.363  29.946  1.00  0.00     0.151 C 
ATOM     16  C   UNL     1      -5.148 -11.550  31.229  1.00  0.00     0.174 C 
ATOM     17  O   UNL     1      -4.600 -12.032  28.856  1.00  0.00    -0.335 OA
ATOM     18  C   UNL     1      -3.661 -11.627  31.587  1.00  0.00     0.180 C 
ATOM     19  C   UNL     1      -2.814 -11.251  30.363  1.00  0.00     0.214 C 
BRANCH  16  20
ATOM     20  O   UNL     1      -5.916 -12.009  32.309  1.00  0.00    -0.388 OA
ATOM     21  H   UNL     1      -6.754 -11.480  32.311  1.00  0.00     0.211 HD
ENDBRANCH  16  20
BRANCH  18  22
ATOM     22  O   UNL     1      -3.396 -10.757  32.657  1.00  0.00    -0.387 OA
ATOM     23  H   UNL     1      -2.450 -10.910  32.923  1.00  0.00     0.211 HD
ENDBRANCH  18  22
BRANCH  19  24
ATOM     24  O   UNL     1      -3.005  -9.898  30.028  1.00  0.00    -0.384 OA
ATOM     25  H   UNL     1      -2.322  -9.666  29.344  1.00  0.00     0.211 HD
ENDBRANCH  19  24
ENDBRANCH  12  13
ENDBRANCH   1  12
BRANCH   3  26
ATOM     26  O   UNL     1      -1.439 -14.443  24.756  1.00  0.00    -0.507 OA
ATOM     27  H   UNL     1      -0.884 -14.986  24.106  1.00  0.00     0.293 HD
ENDBRANCH   3  26
BRANCH   8  28
ATOM     28  C   UNL     1      -0.769 -20.158  27.857  1.00  0.00     0.021 A 
ATOM     29  C   UNL     1      -1.680 -21.207  27.655  1.00  0.00     0.016 A 
ATOM     30  C   UNL     1       0.383 -20.377  28.627  1.00  0.00     0.016 A 
ATOM     31  C   UNL     1      -1.429 -22.470  28.202  1.00  0.00     0.047 A 
ATOM     32  C   UNL     1       0.624 -21.636  29.183  1.00  0.00     0.047 A 
ATOM     33  C   UNL     1      -0.275 -22.688  28.966  1.00  0.00     0.115 A 
BRANCH  33  34
ATOM     34  O   UNL     1      -0.007 -23.942  29.505  1.00  0.00    -0.508 OA
ATOM     35  H   UNL     1      -0.492 -24.284  30.329  1.00  0.00     0.293 HD
ENDBRANCH  33  34
ENDBRANCH   8  28
BRANCH   9  36
ATOM     36  O   UNL     1      -0.226 -19.444  25.053  1.00  0.00    -0.454 OA
BRANCH  36  37
ATOM     37  C   UNL     1       0.980 -20.204  25.217  1.00  0.00     0.339 C 
ATOM     38  C   UNL     1       2.059 -19.870  24.152  1.00  0.00     0.214 C 
ATOM     39  O   UNL     1       0.700 -21.589  25.197  1.00  0.00    -0.335 OA
ATOM     40  C   UNL     1       3.117 -21.007  24.040  1.00  0.00     0.180 C 
ATOM     41  C   UNL     1       1.767 -22.338  25.768  1.00  0.00     0.151 C 
ATOM     42  C   UNL     1       3.187 -21.815  25.348  1.00  0.00     0.174 C 
ATOM     43  C   UNL     1       1.553 -23.814  25.405  1.00  0.00     0.042 C 
BRANCH  38  44
ATOM     44  O   UNL     1       2.668 -18.638  24.447  1.00  0.00    -0.384 OA
ATOM     45  H   UNL     1       2.350 -18.352  25.345  1.00  0.00     0.211 HD
ENDBRANCH  38  44
BRANCH  40  46
ATOM     46  O   UNL     1       2.790 -21.872  22.980  1.00  0.00    -0.387 OA
ATOM     47  H   UNL     1       2.985 -22.794  23.293  1.00  0.00     0.211 HD
ENDBRANCH  40  46
BRANCH  42  48
ATOM     48  O   UNL     1       4.124 -22.854  25.215  1.00  0.00    -0.388 OA
ATOM     49  H   UNL     1       4.438 -23.073  26.130  1.00  0.00     0.211 HD
ENDBRANCH  42  48
ENDBRANCH  36  37
ENDBRANCH   9  36
TORSDOF 13
ENDMDL
MODEL 8
REMARK VINA RESULT:    -7.169      5.205      9.546
REMARK INTER + INTRA:         -12.728
REMARK INTER:                 -10.856
REMARK INTRA:                  -1.872
REMARK UNBOUND:                -1.788
REMARK SMILES C[C@@H]1O[C@H](Oc2cc(O)c3c(=O)c(O[C@H]4O[C@@H](C)[C@@H](O)[C@@H](O)[C@@H]4O)c(-c4ccc(O)cc4)oc3c2)[C@@H](O)[C@@H](O)[C@@H]1O
REMARK SMILES IDX 6 1 7 2 8 3 10 4 34 5 35 6 33 7 25 8 13 9 11 10 12 11 5 12
REMARK SMILES IDX 4 13 1 14 2 15 40 16 3 17 38 18 36 19 41 20 39 22 37 24 9 26
REMARK SMILES IDX 26 28 27 29 32 30 28 31 31 32 29 33 30 34 14 36 15 37 23 38
REMARK SMILES IDX 16 39 21 40 17 41 19 42 18 43 24 44 22 46 20 48
REMARK H PARENT 41 21 39 23 37 25 9 27 30 35 24 45 22 47 20 49
REMARK Flexibility Score: inf
ROOT
ATOM      1  C   UNL     1       0.125 -19.018  25.751  1.00  0.00     0.130 A 
ATOM      2  C   UNL     1      -1.077 -19.186  26.464  1.00  0.00     0.093 A 
ATOM      3  C   UNL     1      -1.758 -18.080  26.991  1.00  0.00     0.134 A 
ATOM      4  C   UNL     1      -1.230 -16.780  26.821  1.00  0.00     0.111 A 
ATOM      5  C   UNL     1      -0.033 -16.615  26.088  1.00  0.00     0.146 A 
ATOM      6  C   UNL     1       0.621 -17.727  25.547  1.00  0.00     0.094 A 
ATOM      7  O   UNL     1       0.493 -15.408  25.918  1.00  0.00    -0.452 OA
ATOM      8  C   UNL     1      -0.039 -14.304  26.433  1.00  0.00     0.180 A 
ATOM      9  C   UNL     1      -1.241 -14.374  27.163  1.00  0.00     0.214 A 
ATOM     10  C   UNL     1      -1.839 -15.625  27.350  1.00  0.00     0.239 A 
ATOM     11  O   UNL     1      -2.926 -15.696  27.985  1.00  0.00    -0.285 OA
ENDROOT
BRANCH   1  12
ATOM     12  O   UNL     1       0.858 -20.098  25.229  1.00  0.00    -0.462 OA
BRANCH  12  13
ATOM     13  C   UNL     1       0.389 -21.050  24.267  1.00  0.00     0.339 C 
ATOM     14  C   UNL     1       3.211 -19.962  23.593  1.00  0.00     0.042 C 
ATOM     15  C   UNL     1       2.369 -21.067  22.927  1.00  0.00     0.151 C 
ATOM     16  C   UNL     1       2.733 -22.501  23.386  1.00  0.00     0.174 C 
ATOM     17  O   UNL     1       0.971 -20.797  22.995  1.00  0.00    -0.335 OA
ATOM     18  C   UNL     1       2.124 -22.815  24.755  1.00  0.00     0.180 C 
ATOM     19  C   UNL     1       0.621 -22.503  24.737  1.00  0.00     0.214 C 
BRANCH  16  20
ATOM     20  O   UNL     1       4.125 -22.673  23.439  1.00  0.00    -0.388 OA
ATOM     21  H   UNL     1       4.361 -23.325  22.731  1.00  0.00     0.211 HD
ENDBRANCH  16  20
BRANCH  18  22
ATOM     22  O   UNL     1       2.344 -24.168  25.062  1.00  0.00    -0.387 OA
ATOM     23  H   UNL     1       1.691 -24.410  25.773  1.00  0.00     0.211 HD
ENDBRANCH  18  22
BRANCH  19  24
ATOM     24  O   UNL     1      -0.053 -23.377  23.867  1.00  0.00    -0.384 OA
ATOM     25  H   UNL     1      -0.559 -24.020  24.432  1.00  0.00     0.211 HD
ENDBRANCH  19  24
ENDBRANCH  12  13
ENDBRANCH   1  12
BRANCH   3  26
ATOM     26  O   UNL     1      -2.954 -18.278  27.686  1.00  0.00    -0.507 OA
ATOM     27  H   UNL     1      -3.662 -18.923  27.355  1.00  0.00     0.293 HD
ENDBRANCH   3  26
BRANCH   8  28
ATOM     28  C   UNL     1       0.688 -13.042  26.253  1.00  0.00     0.021 A 
ATOM     29  C   UNL     1       1.631 -12.625  27.206  1.00  0.00     0.016 A 
ATOM     30  C   UNL     1       0.413 -12.228  25.144  1.00  0.00     0.016 A 
ATOM     31  C   UNL     1       2.307 -11.412  27.040  1.00  0.00     0.047 A 
ATOM     32  C   UNL     1       1.081 -11.010  24.989  1.00  0.00     0.047 A 
ATOM     33  C   UNL     1       2.035 -10.602  25.930  1.00  0.00     0.115 A 
BRANCH  33  34
ATOM     34  O   UNL     1       2.711  -9.400  25.745  1.00  0.00    -0.508 OA
ATOM     35  H   UNL     1       3.516  -9.148  26.311  1.00  0.00     0.293 HD
ENDBRANCH  33  34
ENDBRANCH   8  28
BRANCH   9  36
ATOM     36  O   UNL     1      -1.854 -13.241  27.725  1.00  0.00    -0.454 OA
BRANCH  36  37
ATOM     37  C   UNL     1      -1.794 -12.842  29.102  1.00  0.00     0.339 C 
ATOM     38  C   UNL     1      -3.195 -12.603  29.726  1.00  0.00     0.214 C 
ATOM     39  O   UNL     1      -1.001 -11.682  29.247  1.00  0.00    -0.335 OA
ATOM     40  C   UNL     1      -3.103 -11.723  31.008  1.00  0.00     0.180 C 
ATOM     41  C   UNL     1      -0.579 -11.513  30.596  1.00  0.00     0.151 C 
ATOM     42  C   UNL     1      -1.704 -11.834  31.643  1.00  0.00     0.174 C 
ATOM     43  C   UNL     1      -0.029 -10.088  30.742  1.00  0.00     0.042 C 
BRANCH  38  44
ATOM     44  O   UNL     1      -3.823 -13.831  29.999  1.00  0.00    -0.384 OA
ATOM     45  H   UNL     1      -3.138 -14.440  30.385  1.00  0.00     0.211 HD
ENDBRANCH  38  44
BRANCH  40  46
ATOM     46  O   UNL     1      -3.361 -10.377  30.693  1.00  0.00    -0.387 OA
ATOM     47  H   UNL     1      -2.494  -9.977  30.416  1.00  0.00     0.211 HD
ENDBRANCH  40  46
BRANCH  42  48
ATOM     48  O   UNL     1      -1.631 -11.010  32.779  1.00  0.00    -0.388 OA
ATOM     49  H   UNL     1      -1.345 -11.587  33.533  1.00  0.00     0.211 HD
ENDBRANCH  42  48
ENDBRANCH  36  37
ENDBRANCH   9  36
TORSDOF 13
ENDMDL
MODEL 9
REMARK VINA RESULT:    -7.082      4.064      8.495
REMARK INTER + INTRA:         -12.595
REMARK INTER:                 -10.805
REMARK INTRA:                  -1.790
REMARK UNBOUND:                -1.788
REMARK SMILES C[C@@H]1O[C@H](Oc2cc(O)c3c(=O)c(O[C@H]4O[C@@H](C)[C@@H](O)[C@@H](O)[C@@H]4O)c(-c4ccc(O)cc4)oc3c2)[C@@H](O)[C@@H](O)[C@@H]1O
REMARK SMILES IDX 6 1 7 2 8 3 10 4 34 5 35 6 33 7 25 8 13 9 11 10 12 11 5 12
REMARK SMILES IDX 4 13 1 14 2 15 40 16 3 17 38 18 36 19 41 20 39 22 37 24 9 26
REMARK SMILES IDX 26 28 27 29 32 30 28 31 31 32 29 33 30 34 14 36 15 37 23 38
REMARK SMILES IDX 16 39 21 40 17 41 19 42 18 43 24 44 22 46 20 48
REMARK H PARENT 41 21 39 23 37 25 9 27 30 35 24 45 22 47 20 49
REMARK Flexibility Score: inf
ROOT
ATOM      1  C   UNL     1      -3.507 -14.536  28.803  1.00  0.00     0.130 A 
ATOM      2  C   UNL     1      -3.177 -13.854  27.617  1.00  0.00     0.093 A 
ATOM      3  C   UNL     1      -2.187 -14.349  26.757  1.00  0.00     0.134 A 
ATOM      4  C   UNL     1      -1.498 -15.539  27.087  1.00  0.00     0.111 A 
ATOM      5  C   UNL     1      -1.846 -16.229  28.270  1.00  0.00     0.146 A 
ATOM      6  C   UNL     1      -2.854 -15.734  29.104  1.00  0.00     0.094 A 
ATOM      7  O   UNL     1      -1.211 -17.345  28.611  1.00  0.00    -0.452 OA
ATOM      8  C   UNL     1      -0.214 -17.861  27.900  1.00  0.00     0.180 A 
ATOM      9  C   UNL     1       0.186 -17.247  26.698  1.00  0.00     0.214 A 
ATOM     10  C   UNL     1      -0.469 -16.079  26.291  1.00  0.00     0.239 A 
ATOM     11  O   UNL     1      -0.131 -15.533  25.205  1.00  0.00    -0.285 OA
ENDROOT
BRANCH   1  12
ATOM     12  O   UNL     1      -4.471 -14.063  29.711  1.00  0.00    -0.462 OA
BRANCH  12  13
ATOM     13  C   UNL     1      -5.402 -13.000  29.475  1.00  0.00     0.339 C 
ATOM     14  C   UNL     1      -6.581 -15.250  31.250  1.00  0.00     0.042 C 
ATOM     15  C   UNL     1      -7.158 -13.882  30.837  1.00  0.00     0.151 C 
ATOM     16  C   UNL     1      -6.967 -12.770  31.899  1.00  0.00     0.174 C 
ATOM     17  O   UNL     1      -6.736 -13.488  29.534  1.00  0.00    -0.335 OA
ATOM     18  C   UNL     1      -5.539 -12.216  31.869  1.00  0.00     0.180 C 
ATOM     19  C   UNL     1      -5.172 -11.812  30.434  1.00  0.00     0.214 C 
BRANCH  16  20
ATOM     20  O   UNL     1      -7.258 -13.249  33.185  1.00  0.00    -0.388 OA
ATOM     21  H   UNL     1      -6.407 -13.248  33.692  1.00  0.00     0.211 HD
ENDBRANCH  16  20
BRANCH  18  22
ATOM     22  O   UNL     1      -5.452 -11.111  32.731  1.00  0.00    -0.387 OA
ATOM     23  H   UNL     1      -4.708 -11.300  33.364  1.00  0.00     0.211 HD
ENDBRANCH  18  22
BRANCH  19  24
ATOM     24  O   UNL     1      -5.958 -10.725  30.011  1.00  0.00    -0.384 OA
ATOM     25  H   UNL     1      -5.963 -10.062  30.751  1.00  0.00     0.211 HD
ENDBRANCH  19  24
ENDBRANCH  12  13
ENDBRANCH   1  12
BRANCH   3  26
ATOM     26  O   UNL     1      -1.889 -13.656  25.581  1.00  0.00    -0.507 OA
ATOM     27  H   UNL     1      -2.615 -13.352  24.943  1.00  0.00     0.293 HD
ENDBRANCH   3  26
BRANCH   8  28
ATOM     28  C   UNL     1       0.469 -19.046  28.432  1.00  0.00     0.021 A 
ATOM     29  C   UNL     1       1.765 -18.939  28.961  1.00  0.00     0.016 A 
ATOM     30  C   UNL     1      -0.159 -20.299  28.377  1.00  0.00     0.016 A 
ATOM     31  C   UNL     1       2.419 -20.075  29.449  1.00  0.00     0.047 A 
ATOM     32  C   UNL     1       0.503 -21.433  28.854  1.00  0.00     0.047 A 
ATOM     33  C   UNL     1       1.789 -21.324  29.399  1.00  0.00     0.115 A 
BRANCH  33  34
ATOM     34  O   UNL     1       2.423 -22.460  29.894  1.00  0.00    -0.508 OA
ATOM     35  H   UNL     1       2.173 -22.860  30.794  1.00  0.00     0.293 HD
ENDBRANCH  33  34
ENDBRANCH   8  28
BRANCH   9  36
ATOM     36  O   UNL     1       1.228 -17.750  25.900  1.00  0.00    -0.454 OA
BRANCH  36  37
ATOM     37  C   UNL     1       1.131 -18.834  24.965  1.00  0.00     0.339 C 
ATOM     38  C   UNL     1      -0.303 -19.021  24.399  1.00  0.00     0.214 C 
ATOM     39  O   UNL     1       1.574 -20.038  25.555  1.00  0.00    -0.335 OA
ATOM     40  C   UNL     1      -0.496 -20.446  23.803  1.00  0.00     0.180 C 
ATOM     41  C   UNL     1       1.887 -21.011  24.565  1.00  0.00     0.151 C 
ATOM     42  C   UNL     1       0.857 -21.046  23.380  1.00  0.00     0.174 C 
ATOM     43  C   UNL     1       2.024 -22.369  25.266  1.00  0.00     0.042 C 
BRANCH  38  44
ATOM     44  O   UNL     1      -0.582 -18.030  23.443  1.00  0.00    -0.384 OA
ATOM     45  H   UNL     1      -1.557 -18.062  23.251  1.00  0.00     0.211 HD
ENDBRANCH  38  44
BRANCH  40  46
ATOM     46  O   UNL     1      -1.099 -21.292  24.752  1.00  0.00    -0.387 OA
ATOM     47  H   UNL     1      -1.843 -21.759  24.287  1.00  0.00     0.211 HD
ENDBRANCH  40  46
BRANCH  42  48
ATOM     48  O   UNL     1       0.665 -22.344  22.875  1.00  0.00    -0.388 OA
ATOM     49  H   UNL     1       0.574 -22.256  21.891  1.00  0.00     0.211 HD
ENDBRANCH  42  48
ENDBRANCH  36  37
ENDBRANCH   9  36
TORSDOF 13
ENDMDL
