MODEL 1
REMARK VINA RESULT:    -4.039      0.000      0.000
REMARK INTER + INTRA:          -5.542
REMARK INTER:                  -5.220
REMARK INTRA:                  -0.322
REMARK UNBOUND:                -0.322
REMARK SMILES CCCCCCC(=O)[O-]
REMARK SMILES IDX 5 1 6 2 7 3 8 4 9 5 4 6 3 7 2 8 1 9
REMARK H PARENT
REMARK Flexibility Score: inf
ROOT
ATOM      1  C   UNL     1      50.882  56.879  92.616  1.00  0.00     0.006 C 
ENDROOT
BRANCH   1   2
ATOM      2  C   UNL     1      51.986  57.253  91.618  1.00  0.00     0.053 C 
BRANCH   2   3
ATOM      3  C   UNL     1      52.913  58.288  92.175  1.00  0.00     0.041 C 
ATOM      4  O   UNL     1      53.188  59.318  91.504  1.00  0.00    -0.550 OA
ATOM      5  O   UNL     1      53.501  58.101  93.420  1.00  0.00    -0.550 OA
ENDBRANCH   2   3
ENDBRANCH   1   2
BRANCH   1   6
ATOM      6  C   UNL     1      50.018  58.086  93.007  1.00  0.00     0.000 C 
BRANCH   6   7
ATOM      7  C   UNL     1      50.106  58.360  94.513  1.00  0.00    -0.000 C 
BRANCH   7   8
ATOM      8  C   UNL     1      49.723  59.810  94.832  1.00  0.00    -0.003 C 
ATOM      9  C   UNL     1      50.371  60.779  93.847  1.00  0.00     0.004 C 
ENDBRANCH   7   8
ENDBRANCH   6   7
ENDBRANCH   1   6
TORSDOF 5
ENDMDL
MODEL 2
REMARK VINA RESULT:    -3.993      2.013      3.713
REMARK INTER + INTRA:          -5.482
REMARK INTER:                  -5.069
REMARK INTRA:                  -0.413
REMARK UNBOUND:                -0.322
REMARK SMILES CCCCCCC(=O)[O-]
REMARK SMILES IDX 5 1 6 2 7 3 8 4 9 5 4 6 3 7 2 8 1 9
REMARK H PARENT
REMARK Flexibility Score: inf
ROOT
ATOM      1  C   UNL     1      50.483  58.335  94.480  1.00  0.00     0.006 C 
ENDROOT
BRANCH   1   2
ATOM      2  C   UNL     1      49.746  59.652  94.758  1.00  0.00     0.053 C 
BRANCH   2   3
ATOM      3  C   UNL     1      50.022  60.678  93.702  1.00  0.00     0.041 C 
ATOM      4  O   UNL     1      51.195  61.099  93.520  1.00  0.00    -0.550 OA
ATOM      5  O   UNL     1      48.980  61.194  92.942  1.00  0.00    -0.550 OA
ENDBRANCH   2   3
ENDBRANCH   1   2
BRANCH   1   6
ATOM      6  C   UNL     1      50.109  57.735  93.117  1.00  0.00     0.000 C 
BRANCH   6   7
ATOM      7  C   UNL     1      51.333  57.113  92.436  1.00  0.00    -0.000 C 
BRANCH   7   8
ATOM      8  C   UNL     1      52.623  57.819  92.871  1.00  0.00    -0.003 C 
ATOM      9  C   UNL     1      53.141  58.743  91.772  1.00  0.00     0.004 C 
ENDBRANCH   7   8
ENDBRANCH   6   7
ENDBRANCH   1   6
TORSDOF 5
ENDMDL
MODEL 3
REMARK VINA RESULT:    -3.982      0.841      1.352
REMARK INTER + INTRA:          -5.468
REMARK INTER:                  -5.054
REMARK INTRA:                  -0.414
REMARK UNBOUND:                -0.322
REMARK SMILES CCCCCCC(=O)[O-]
REMARK SMILES IDX 5 1 6 2 7 3 8 4 9 5 4 6 3 7 2 8 1 9
REMARK H PARENT
REMARK Flexibility Score: inf
ROOT
ATOM      1  C   UNL     1      50.131  57.817  93.364  1.00  0.00     0.006 C 
ENDROOT
BRANCH   1   2
ATOM      2  C   UNL     1      51.402  56.986  93.146  1.00  0.00     0.053 C 
BRANCH   2   3
ATOM      3  C   UNL     1      52.614  57.853  92.990  1.00  0.00     0.041 C 
ATOM      4  O   UNL     1      52.857  58.408  91.885  1.00  0.00    -0.550 OA
ATOM      5  O   UNL     1      53.493  58.023  94.053  1.00  0.00    -0.550 OA
ENDBRANCH   2   3
ENDBRANCH   1   2
BRANCH   1   6
ATOM      6  C   UNL     1      50.009  58.327  94.807  1.00  0.00     0.000 C 
BRANCH   6   7
ATOM      7  C   UNL     1      49.712  59.831  94.834  1.00  0.00    -0.000 C 
BRANCH   7   8
ATOM      8  C   UNL     1      49.961  60.466  93.461  1.00  0.00    -0.003 C 
ATOM      9  C   UNL     1      51.239  61.299  93.463  1.00  0.00     0.004 C 
ENDBRANCH   7   8
ENDBRANCH   6   7
ENDBRANCH   1   6
TORSDOF 5
ENDMDL
MODEL 4
REMARK VINA RESULT:    -3.920      1.444      2.487
REMARK INTER + INTRA:          -5.388
REMARK INTER:                  -5.037
REMARK INTRA:                  -0.352
REMARK UNBOUND:                -0.322
REMARK SMILES CCCCCCC(=O)[O-]
REMARK SMILES IDX 5 1 6 2 7 3 8 4 9 5 4 6 3 7 2 8 1 9
REMARK H PARENT
REMARK Flexibility Score: inf
ROOT
ATOM      1  C   UNL     1      50.250  58.006  94.491  1.00  0.00     0.006 C 
ENDROOT
BRANCH   1   2
ATOM      2  C   UNL     1      50.122  57.638  93.007  1.00  0.00     0.053 C 
BRANCH   2   3
ATOM      3  C   UNL     1      51.393  57.062  92.465  1.00  0.00     0.041 C 
ATOM      4  O   UNL     1      52.336  56.762  93.244  1.00  0.00    -0.550 OA
ATOM      5  O   UNL     1      51.551  56.887  91.095  1.00  0.00    -0.550 OA
ENDBRANCH   2   3
ENDBRANCH   1   2
BRANCH   1   6
ATOM      6  C   UNL     1      49.814  59.452  94.771  1.00  0.00     0.000 C 
BRANCH   6   7
ATOM      7  C   UNL     1      49.874  60.301  93.496  1.00  0.00    -0.000 C 
BRANCH   7   8
ATOM      8  C   UNL     1      51.036  61.300  93.556  1.00  0.00    -0.003 C 
ATOM      9  C   UNL     1      52.274  60.748  92.854  1.00  0.00     0.004 C 
ENDBRANCH   7   8
ENDBRANCH   6   7
ENDBRANCH   1   6
TORSDOF 5
ENDMDL
MODEL 5
REMARK VINA RESULT:    -3.796      2.217      2.899
REMARK INTER + INTRA:          -5.228
REMARK INTER:                  -4.981
REMARK INTRA:                  -0.248
REMARK UNBOUND:                -0.322
REMARK SMILES CCCCCCC(=O)[O-]
REMARK SMILES IDX 5 1 6 2 7 3 8 4 9 5 4 6 3 7 2 8 1 9
REMARK H PARENT
REMARK Flexibility Score: inf
ROOT
ATOM      1  C   UNL     1      53.208  58.337  93.779  1.00  0.00     0.006 C 
ENDROOT
BRANCH   1   2
ATOM      2  C   UNL     1      52.376  57.265  94.495  1.00  0.00     0.053 C 
BRANCH   2   3
ATOM      3  C   UNL     1      52.474  55.936  93.811  1.00  0.00     0.041 C 
ATOM      4  O   UNL     1      53.179  55.018  94.309  1.00  0.00    -0.550 OA
ATOM      5  O   UNL     1      51.815  55.721  92.607  1.00  0.00    -0.550 OA
ENDBRANCH   2   3
ENDBRANCH   1   2
BRANCH   1   6
ATOM      6  C   UNL     1      52.351  59.223  92.865  1.00  0.00     0.000 C 
BRANCH   6   7
ATOM      7  C   UNL     1      50.925  59.360  93.412  1.00  0.00    -0.000 C 
BRANCH   7   8
ATOM      8  C   UNL     1      50.567  60.832  93.653  1.00  0.00    -0.003 C 
ATOM      9  C   UNL     1      49.608  60.979  94.830  1.00  0.00     0.004 C 
ENDBRANCH   7   8
ENDBRANCH   6   7
ENDBRANCH   1   6
TORSDOF 5
ENDMDL
MODEL 6
REMARK VINA RESULT:    -3.793      2.049      2.371
REMARK INTER + INTRA:          -5.224
REMARK INTER:                  -4.932
REMARK INTRA:                  -0.292
REMARK UNBOUND:                -0.322
REMARK SMILES CCCCCCC(=O)[O-]
REMARK SMILES IDX 5 1 6 2 7 3 8 4 9 5 4 6 3 7 2 8 1 9
REMARK H PARENT
REMARK Flexibility Score: inf
ROOT
ATOM      1  C   UNL     1      51.605  57.362  92.314  1.00  0.00     0.006 C 
ENDROOT
BRANCH   1   2
ATOM      2  C   UNL     1      52.773  57.467  93.304  1.00  0.00     0.053 C 
BRANCH   2   3
ATOM      3  C   UNL     1      52.628  56.501  94.440  1.00  0.00     0.041 C 
ATOM      4  O   UNL     1      52.407  56.924  95.606  1.00  0.00    -0.550 OA
ATOM      5  O   UNL     1      52.771  55.137  94.218  1.00  0.00    -0.550 OA
ENDBRANCH   2   3
ENDBRANCH   1   2
BRANCH   1   6
ATOM      6  C   UNL     1      50.260  57.722  92.961  1.00  0.00     0.000 C 
BRANCH   6   7
ATOM      7  C   UNL     1      50.190  59.219  93.286  1.00  0.00    -0.000 C 
BRANCH   7   8
ATOM      8  C   UNL     1      49.836  59.445  94.760  1.00  0.00    -0.003 C 
ATOM      9  C   UNL     1      49.543  60.917  95.037  1.00  0.00     0.004 C 
ENDBRANCH   7   8
ENDBRANCH   6   7
ENDBRANCH   1   6
TORSDOF 5
ENDMDL
MODEL 7
REMARK VINA RESULT:    -3.742      2.242      3.996
REMARK INTER + INTRA:          -5.158
REMARK INTER:                  -4.894
REMARK INTRA:                  -0.264
REMARK UNBOUND:                -0.322
REMARK SMILES CCCCCCC(=O)[O-]
REMARK SMILES IDX 5 1 6 2 7 3 8 4 9 5 4 6 3 7 2 8 1 9
REMARK H PARENT
REMARK Flexibility Score: inf
ROOT
ATOM      1  C   UNL     1      50.489  58.290  94.519  1.00  0.00     0.006 C 
ENDROOT
BRANCH   1   2
ATOM      2  C   UNL     1      49.749  59.617  94.731  1.00  0.00     0.053 C 
BRANCH   2   3
ATOM      3  C   UNL     1      50.065  60.609  93.654  1.00  0.00     0.041 C 
ATOM      4  O   UNL     1      51.254  60.979  93.463  1.00  0.00    -0.550 OA
ATOM      5  O   UNL     1      49.043  61.151  92.884  1.00  0.00    -0.550 OA
ENDBRANCH   2   3
ENDBRANCH   1   2
BRANCH   1   6
ATOM      6  C   UNL     1      50.137  57.637  93.175  1.00  0.00     0.000 C 
BRANCH   6   7
ATOM      7  C   UNL     1      51.314  56.811  92.641  1.00  0.00    -0.000 C 
BRANCH   7   8
ATOM      8  C   UNL     1      52.431  56.705  93.686  1.00  0.00    -0.003 C 
ATOM      9  C   UNL     1      52.745  55.247  94.010  1.00  0.00     0.004 C 
ENDBRANCH   7   8
ENDBRANCH   6   7
ENDBRANCH   1   6
TORSDOF 5
ENDMDL
MODEL 8
REMARK VINA RESULT:    -3.733      2.861      4.237
REMARK INTER + INTRA:          -5.147
REMARK INTER:                  -4.917
REMARK INTRA:                  -0.229
REMARK UNBOUND:                -0.322
REMARK SMILES CCCCCCC(=O)[O-]
REMARK SMILES IDX 5 1 6 2 7 3 8 4 9 5 4 6 3 7 2 8 1 9
REMARK H PARENT
REMARK Flexibility Score: inf
ROOT
ATOM      1  C   UNL     1      51.942  59.867  93.025  1.00  0.00     0.006 C 
ENDROOT
BRANCH   1   2
ATOM      2  C   UNL     1      50.518  59.482  93.449  1.00  0.00     0.053 C 
BRANCH   2   3
ATOM      3  C   UNL     1      49.726  60.674  93.887  1.00  0.00     0.041 C 
ATOM      4  O   UNL     1      49.734  61.031  95.096  1.00  0.00    -0.550 OA
ATOM      5  O   UNL     1      48.951  61.372  92.969  1.00  0.00    -0.550 OA
ENDBRANCH   2   3
ENDBRANCH   1   2
BRANCH   1   6
ATOM      6  C   UNL     1      52.758  58.653  92.559  1.00  0.00     0.000 C 
BRANCH   6   7
ATOM      7  C   UNL     1      53.479  57.990  93.739  1.00  0.00    -0.000 C 
BRANCH   7   8
ATOM      8  C   UNL     1      52.797  56.673  94.129  1.00  0.00    -0.003 C 
ATOM      9  C   UNL     1      52.249  56.738  95.552  1.00  0.00     0.004 C 
ENDBRANCH   7   8
ENDBRANCH   6   7
ENDBRANCH   1   6
TORSDOF 5
ENDMDL
MODEL 9
REMARK VINA RESULT:    -3.732      2.119      4.208
REMARK INTER + INTRA:          -5.145
REMARK INTER:                  -4.884
REMARK INTRA:                  -0.260
REMARK UNBOUND:                -0.322
REMARK SMILES CCCCCCC(=O)[O-]
REMARK SMILES IDX 5 1 6 2 7 3 8 4 9 5 4 6 3 7 2 8 1 9
REMARK H PARENT
REMARK Flexibility Score: inf
ROOT
ATOM      1  C   UNL     1      50.680  57.075  92.620  1.00  0.00     0.006 C 
ENDROOT
BRANCH   1   2
ATOM      2  C   UNL     1      51.151  58.100  93.660  1.00  0.00     0.053 C 
BRANCH   2   3
ATOM      3  C   UNL     1      52.313  57.591  94.457  1.00  0.00     0.041 C 
ATOM      4  O   UNL     1      53.491  57.861  94.103  1.00  0.00    -0.550 OA
ATOM      5  O   UNL     1      52.096  56.790  95.572  1.00  0.00    -0.550 OA
ENDBRANCH   2   3
ENDBRANCH   1   2
BRANCH   1   6
ATOM      6  C   UNL     1      51.602  57.025  91.393  1.00  0.00     0.000 C 
BRANCH   6   7
ATOM      7  C   UNL     1      51.972  55.579  91.043  1.00  0.00    -0.000 C 
BRANCH   7   8
ATOM      8  C   UNL     1      51.944  54.687  92.289  1.00  0.00    -0.003 C 
ATOM      9  C   UNL     1      51.855  53.212  91.909  1.00  0.00     0.004 C 
ENDBRANCH   7   8
ENDBRANCH   6   7
ENDBRANCH   1   6
TORSDOF 5
ENDMDL
