MODEL 1
REMARK VINA RESULT:   120.065      0.000      0.000
REMARK INTER + INTRA:         131.119
REMARK INTER:                 130.593
REMARK INTRA:                   0.526
REMARK UNBOUND:                 0.526
REMARK SMILES C[C@@H]1[C@@H](C)CC[C@@]2(C(=O)[O-])CC[C@@]3(C)C(=CC[C@H]4[C@]5(C)CC[C@H](O)C(C)(C)[C@@H]5CC[C@]43C)[C@@H]12
REMARK SMILES IDX 7 1 6 2 11 3 33 4 5 5 12 6 15 7 2 8 3 9 13 10 16 11 1 12
REMARK SMILES IDX 4 13 14 14 31 15 17 16 18 17 30 18 32 19 19 20 29 21 28 22
REMARK SMILES IDX 21 23 20 24 25 25 22 26 23 27 26 28 27 29 8 30 9 31 10 32
REMARK SMILES IDX 24 33
REMARK H PARENT 24 34
REMARK Flexibility Score: inf
ROOT
ATOM      1  C   UNL     1      16.813  51.354  25.175  1.00  0.00     0.017 C 
ATOM      2  C   UNL     1      18.003  51.620  26.159  1.00  0.00     0.014 C 
ATOM      3  C   UNL     1      17.345  50.499  23.999  1.00  0.00     0.014 C 
ATOM      4  C   UNL     1      15.649  50.580  25.879  1.00  0.00     0.030 C 
ATOM      5  C   UNL     1      17.568  51.610  27.627  1.00  0.00     0.004 C 
ATOM      6  C   UNL     1      16.266  50.175  22.960  1.00  0.00     0.013 C 
ATOM      7  C   UNL     1      14.608  50.037  24.877  1.00  0.00    -0.063 C 
ATOM      8  C   UNL     1      16.209  49.524  26.891  1.00  0.00    -0.003 C 
ATOM      9  C   UNL     1      17.001  50.231  28.043  1.00  0.00    -0.011 C 
ATOM     10  C   UNL     1      14.990  49.439  23.516  1.00  0.00    -0.006 C 
ATOM     11  C   UNL     1      13.338  49.985  25.303  1.00  0.00    -0.027 C 
ATOM     12  C   UNL     1      15.113  48.623  27.491  1.00  0.00     0.008 C 
ATOM     13  C   UNL     1      18.123  49.328  28.593  1.00  0.00     0.008 C 
ATOM     14  C   UNL     1      15.382  47.953  23.777  1.00  0.00     0.017 C 
ATOM     15  C   UNL     1      13.747  49.523  22.470  1.00  0.00    -0.020 C 
ATOM     16  C   UNL     1      12.187  49.443  24.527  1.00  0.00     0.032 C 
ATOM     17  C   UNL     1      12.456  48.856  23.094  1.00  0.00     0.006 C 
ATOM     18  C   UNL     1      13.344  50.999  22.159  1.00  0.00     0.008 C 
ATOM     19  C   UNL     1      14.174  48.791  21.152  1.00  0.00     0.012 C 
ATOM     20  C   UNL     1      11.095  48.903  22.227  1.00  0.00    -0.025 C 
ATOM     21  C   UNL     1      12.112  51.131  21.253  1.00  0.00     0.005 C 
ATOM     22  C   UNL     1      10.815  50.364  21.676  1.00  0.00     0.003 C 
ATOM     23  C   UNL     1      11.095  47.933  21.014  1.00  0.00     0.010 C 
ATOM     24  C   UNL     1       9.949  48.392  23.193  1.00  0.00     0.012 C 
ATOM     25  C   UNL     1       9.674  50.473  20.533  1.00  0.00    -0.006 C 
ATOM     26  C   UNL     1       9.751  47.876  20.242  1.00  0.00     0.033 C 
ATOM     27  C   UNL     1       8.858  49.146  20.384  1.00  0.00     0.120 C 
ATOM     28  C   UNL     1       8.693  51.601  20.942  1.00  0.00     0.014 C 
ATOM     29  C   UNL     1      10.214  50.857  19.119  1.00  0.00     0.014 C 
ENDROOT
BRANCH   1  30
ATOM     30  C   UNL     1      16.328  52.709  24.666  1.00  0.00     0.048 C 
ATOM     31  O   UNL     1      16.496  53.754  25.355  1.00  0.00    -0.550 OA
ATOM     32  O   UNL     1      15.845  52.838  23.365  1.00  0.00    -0.550 OA
ENDBRANCH   1  30
BRANCH  27  33
ATOM     33  O   UNL     1       7.902  49.226  19.347  1.00  0.00    -0.393 OA
ATOM     34  H   UNL     1       7.242  48.490  19.449  1.00  0.00     0.210 HD
ENDBRANCH  27  33
TORSDOF 2
ENDMDL
