MODEL 1
REMARK VINA RESULT:    -4.450      0.000      0.000
REMARK INTER + INTRA:         -13.697
REMARK INTER:                 -11.734
REMARK INTRA:                  -1.962
REMARK UNBOUND:                -1.962
REMARK SMILES CCCCCCCCCCCCCCCCCCCCCCCCCCCCCC(=O)[O-]
REMARK SMILES IDX 16 1 17 2 18 3 19 4 20 5 21 6 22 7 23 8 24 9 25 10 26 11
REMARK SMILES IDX 27 12 28 13 29 14 30 15 31 16 32 17 15 18 14 19 13 20 12 21
REMARK SMILES IDX 11 22 10 23 9 24 8 25 7 26 6 27 5 28 4 29 3 30 2 31 1 32
REMARK H PARENT
REMARK Flexibility Score: inf
ROOT
ATOM      1  C   UNL     1      -2.251  -9.361   2.441  1.00  0.00     0.000 C 
ENDROOT
BRANCH   1   2
ATOM      2  C   UNL     1      -2.224  -9.068   3.959  1.00  0.00     0.000 C 
BRANCH   2   3
ATOM      3  C   UNL     1      -3.594  -9.220   4.645  1.00  0.00     0.000 C 
BRANCH   3   4
ATOM      4  C   UNL     1      -4.074 -10.674   4.810  1.00  0.00     0.000 C 
BRANCH   4   5
ATOM      5  C   UNL     1      -5.603 -10.848   4.931  1.00  0.00     0.000 C 
BRANCH   5   6
ATOM      6  C   UNL     1      -6.421  -9.550   4.819  1.00  0.00     0.000 C 
BRANCH   6   7
ATOM      7  C   UNL     1      -7.871  -9.713   5.298  1.00  0.00     0.000 C 
BRANCH   7   8
ATOM      8  C   UNL     1      -8.361  -8.445   6.011  1.00  0.00     0.000 C 
BRANCH   8   9
ATOM      9  C   UNL     1      -7.405  -7.249   5.810  1.00  0.00     0.000 C 
BRANCH   9  10
ATOM     10  C   UNL     1      -7.272  -6.343   7.049  1.00  0.00     0.000 C 
BRANCH  10  11
ATOM     11  C   UNL     1      -5.853  -5.815   7.316  1.00  0.00     0.000 C 
BRANCH  11  12
ATOM     12  C   UNL     1      -5.089  -5.476   6.026  1.00  0.00     0.000 C 
BRANCH  12  13
ATOM     13  C   UNL     1      -5.551  -4.132   5.456  1.00  0.00     0.006 C 
BRANCH  13  14
ATOM     14  C   UNL     1      -4.435  -3.464   4.644  1.00  0.00     0.053 C 
BRANCH  14  15
ATOM     15  C   UNL     1      -3.418  -2.833   5.544  1.00  0.00     0.041 C 
ATOM     16  O   UNL     1      -3.778  -2.028   6.446  1.00  0.00    -0.550 OA
ATOM     17  O   UNL     1      -2.070  -3.126   5.382  1.00  0.00    -0.550 OA
ENDBRANCH  14  15
ENDBRANCH  13  14
ENDBRANCH  12  13
ENDBRANCH  11  12
ENDBRANCH  10  11
ENDBRANCH   9  10
ENDBRANCH   8   9
ENDBRANCH   7   8
ENDBRANCH   6   7
ENDBRANCH   5   6
ENDBRANCH   4   5
ENDBRANCH   3   4
ENDBRANCH   2   3
ENDBRANCH   1   2
BRANCH   1  18
ATOM     18  C   UNL     1      -1.544 -10.668   2.027  1.00  0.00     0.000 C 
BRANCH  18  19
ATOM     19  C   UNL     1      -1.154 -10.776   0.538  1.00  0.00     0.000 C 
BRANCH  19  20
ATOM     20  C   UNL     1      -2.227 -10.314  -0.466  1.00  0.00     0.000 C 
BRANCH  20  21
ATOM     21  C   UNL     1      -1.658  -9.414  -1.577  1.00  0.00     0.000 C 
BRANCH  21  22
ATOM     22  C   UNL     1      -0.729  -8.316  -1.032  1.00  0.00     0.000 C 
BRANCH  22  23
ATOM     23  C   UNL     1      -0.621  -7.104  -1.974  1.00  0.00     0.000 C 
BRANCH  23  24
ATOM     24  C   UNL     1       0.586  -6.212  -1.634  1.00  0.00    -0.000 C 
BRANCH  24  25
ATOM     25  C   UNL     1       0.417  -4.772  -2.150  1.00  0.00    -0.000 C 
BRANCH  25  26
ATOM     26  C   UNL     1       0.729  -3.712  -1.079  1.00  0.00    -0.000 C 
BRANCH  26  27
ATOM     27  C   UNL     1       0.750  -2.258  -1.585  1.00  0.00    -0.000 C 
BRANCH  27  28
ATOM     28  C   UNL     1       1.144  -2.145  -3.068  1.00  0.00    -0.000 C 
BRANCH  28  29
ATOM     29  C   UNL     1       2.578  -1.623  -3.256  1.00  0.00    -0.000 C 
BRANCH  29  30
ATOM     30  C   UNL     1       3.005  -0.658  -2.135  1.00  0.00    -0.000 C 
BRANCH  30  31
ATOM     31  C   UNL     1       4.526  -0.637  -1.922  1.00  0.00    -0.003 C 
ATOM     32  C   UNL     1       4.924  -0.152  -0.529  1.00  0.00     0.004 C 
ENDBRANCH  30  31
ENDBRANCH  29  30
ENDBRANCH  28  29
ENDBRANCH  27  28
ENDBRANCH  26  27
ENDBRANCH  25  26
ENDBRANCH  24  25
ENDBRANCH  23  24
ENDBRANCH  22  23
ENDBRANCH  21  22
ENDBRANCH  20  21
ENDBRANCH  19  20
ENDBRANCH  18  19
ENDBRANCH   1  18
TORSDOF 28
ENDMDL
MODEL 2
REMARK VINA RESULT:    -3.982      1.144      2.033
REMARK INTER + INTRA:         -12.462
REMARK INTER:                 -10.747
REMARK INTRA:                  -1.715
REMARK UNBOUND:                -1.962
REMARK SMILES CCCCCCCCCCCCCCCCCCCCCCCCCCCCCC(=O)[O-]
REMARK SMILES IDX 16 1 17 2 18 3 19 4 20 5 21 6 22 7 23 8 24 9 25 10 26 11
REMARK SMILES IDX 27 12 28 13 29 14 30 15 31 16 32 17 15 18 14 19 13 20 12 21
REMARK SMILES IDX 11 22 10 23 9 24 8 25 7 26 6 27 5 28 4 29 3 30 2 31 1 32
REMARK H PARENT
REMARK Flexibility Score: inf
ROOT
ATOM      1  C   UNL     1      -2.266  -9.575   1.049  1.00  0.00     0.000 C 
ENDROOT
BRANCH   1   2
ATOM      2  C   UNL     1      -1.639  -9.734   2.453  1.00  0.00     0.000 C 
BRANCH   2   3
ATOM      3  C   UNL     1      -2.615  -9.433   3.606  1.00  0.00     0.000 C 
BRANCH   3   4
ATOM      4  C   UNL     1      -3.413 -10.650   4.109  1.00  0.00     0.000 C 
BRANCH   4   5
ATOM      5  C   UNL     1      -4.202 -10.420   5.416  1.00  0.00     0.000 C 
BRANCH   5   6
ATOM      6  C   UNL     1      -4.818  -9.018   5.571  1.00  0.00     0.000 C 
BRANCH   6   7
ATOM      7  C   UNL     1      -6.299  -9.057   5.974  1.00  0.00     0.000 C 
BRANCH   7   8
ATOM      8  C   UNL     1      -7.199  -9.261   4.747  1.00  0.00     0.000 C 
BRANCH   8   9
ATOM      9  C   UNL     1      -8.240  -8.132   4.585  1.00  0.00     0.000 C 
BRANCH   9  10
ATOM     10  C   UNL     1      -8.054  -6.967   5.575  1.00  0.00     0.000 C 
BRANCH  10  11
ATOM     11  C   UNL     1      -8.543  -5.601   5.068  1.00  0.00     0.000 C 
BRANCH  11  12
ATOM     12  C   UNL     1      -7.874  -4.420   5.788  1.00  0.00     0.000 C 
BRANCH  12  13
ATOM     13  C   UNL     1      -6.407  -4.731   6.099  1.00  0.00     0.006 C 
BRANCH  13  14
ATOM     14  C   UNL     1      -5.474  -4.067   5.079  1.00  0.00     0.053 C 
BRANCH  14  15
ATOM     15  C   UNL     1      -4.126  -3.803   5.675  1.00  0.00     0.041 C 
ATOM     16  O   UNL     1      -3.867  -4.170   6.854  1.00  0.00    -0.550 OA
ATOM     17  O   UNL     1      -3.156  -3.141   4.933  1.00  0.00    -0.550 OA
ENDBRANCH  14  15
ENDBRANCH  13  14
ENDBRANCH  12  13
ENDBRANCH  11  12
ENDBRANCH  10  11
ENDBRANCH   9  10
ENDBRANCH   8   9
ENDBRANCH   7   8
ENDBRANCH   6   7
ENDBRANCH   5   6
ENDBRANCH   4   5
ENDBRANCH   3   4
ENDBRANCH   2   3
ENDBRANCH   1   2
BRANCH   1  18
ATOM     18  C   UNL     1      -1.354 -10.019  -0.114  1.00  0.00     0.000 C 
BRANCH  18  19
ATOM     19  C   UNL     1      -0.617  -8.885  -0.858  1.00  0.00     0.000 C 
BRANCH  19  20
ATOM     20  C   UNL     1      -1.346  -8.313  -2.088  1.00  0.00     0.000 C 
BRANCH  20  21
ATOM     21  C   UNL     1      -0.758  -6.972  -2.562  1.00  0.00     0.000 C 
BRANCH  21  22
ATOM     22  C   UNL     1       0.266  -6.392  -1.573  1.00  0.00     0.000 C 
BRANCH  22  23
ATOM     23  C   UNL     1       0.744  -4.983  -1.966  1.00  0.00     0.000 C 
BRANCH  23  24
ATOM     24  C   UNL     1       0.084  -3.887  -1.112  1.00  0.00    -0.000 C 
BRANCH  24  25
ATOM     25  C   UNL     1       0.923  -2.600  -1.056  1.00  0.00    -0.000 C 
BRANCH  25  26
ATOM     26  C   UNL     1       0.716  -1.695  -2.284  1.00  0.00    -0.000 C 
BRANCH  26  27
ATOM     27  C   UNL     1       1.663  -1.971  -3.466  1.00  0.00    -0.000 C 
BRANCH  27  28
ATOM     28  C   UNL     1       3.144  -1.748  -3.113  1.00  0.00    -0.000 C 
BRANCH  28  29
ATOM     29  C   UNL     1       3.424  -0.311  -2.643  1.00  0.00    -0.000 C 
BRANCH  29  30
ATOM     30  C   UNL     1       3.698  -0.230  -1.131  1.00  0.00    -0.000 C 
BRANCH  30  31
ATOM     31  C   UNL     1       5.175  -0.473  -0.785  1.00  0.00    -0.003 C 
ATOM     32  C   UNL     1       6.110  -0.231  -1.969  1.00  0.00     0.004 C 
ENDBRANCH  30  31
ENDBRANCH  29  30
ENDBRANCH  28  29
ENDBRANCH  27  28
ENDBRANCH  26  27
ENDBRANCH  25  26
ENDBRANCH  24  25
ENDBRANCH  23  24
ENDBRANCH  22  23
ENDBRANCH  21  22
ENDBRANCH  20  21
ENDBRANCH  19  20
ENDBRANCH  18  19
ENDBRANCH   1  18
TORSDOF 28
ENDMDL
MODEL 3
REMARK VINA RESULT:    -3.904      2.074      5.014
REMARK INTER + INTRA:         -12.257
REMARK INTER:                 -10.535
REMARK INTRA:                  -1.722
REMARK UNBOUND:                -1.962
REMARK SMILES CCCCCCCCCCCCCCCCCCCCCCCCCCCCCC(=O)[O-]
REMARK SMILES IDX 16 1 17 2 18 3 19 4 20 5 21 6 22 7 23 8 24 9 25 10 26 11
REMARK SMILES IDX 27 12 28 13 29 14 30 15 31 16 32 17 15 18 14 19 13 20 12 21
REMARK SMILES IDX 11 22 10 23 9 24 8 25 7 26 6 27 5 28 4 29 3 30 2 31 1 32
REMARK H PARENT
REMARK Flexibility Score: inf
ROOT
ATOM      1  C   UNL     1      -1.127  -7.848  -1.930  1.00  0.00     0.000 C 
ENDROOT
BRANCH   1   2
ATOM      2  C   UNL     1      -0.497  -8.730  -0.829  1.00  0.00     0.000 C 
BRANCH   2   3
ATOM      3  C   UNL     1      -1.216 -10.076  -0.624  1.00  0.00     0.000 C 
BRANCH   3   4
ATOM      4  C   UNL     1      -2.530  -9.990   0.175  1.00  0.00     0.000 C 
BRANCH   4   5
ATOM      5  C   UNL     1      -2.452 -10.520   1.622  1.00  0.00     0.000 C 
BRANCH   5   6
ATOM      6  C   UNL     1      -1.703  -9.612   2.613  1.00  0.00     0.000 C 
BRANCH   6   7
ATOM      7  C   UNL     1      -2.525  -9.290   3.869  1.00  0.00     0.000 C 
BRANCH   7   8
ATOM      8  C   UNL     1      -3.404 -10.483   4.272  1.00  0.00     0.000 C 
BRANCH   8   9
ATOM      9  C   UNL     1      -4.750 -10.040   4.886  1.00  0.00     0.000 C 
BRANCH   9  10
ATOM     10  C   UNL     1      -4.684  -8.692   5.628  1.00  0.00     0.000 C 
BRANCH  10  11
ATOM     11  C   UNL     1      -5.800  -8.465   6.660  1.00  0.00     0.000 C 
BRANCH  11  12
ATOM     12  C   UNL     1      -5.591  -7.194   7.497  1.00  0.00     0.000 C 
BRANCH  12  13
ATOM     13  C   UNL     1      -5.543  -5.952   6.602  1.00  0.00     0.006 C 
BRANCH  13  14
ATOM     14  C   UNL     1      -4.278  -5.128   6.868  1.00  0.00     0.053 C 
BRANCH  14  15
ATOM     15  C   UNL     1      -3.450  -4.998   5.627  1.00  0.00     0.041 C 
ATOM     16  O   UNL     1      -2.486  -5.785   5.419  1.00  0.00    -0.550 OA
ATOM     17  O   UNL     1      -3.735  -4.001   4.702  1.00  0.00    -0.550 OA
ENDBRANCH  14  15
ENDBRANCH  13  14
ENDBRANCH  12  13
ENDBRANCH  11  12
ENDBRANCH  10  11
ENDBRANCH   9  10
ENDBRANCH   8   9
ENDBRANCH   7   8
ENDBRANCH   6   7
ENDBRANCH   5   6
ENDBRANCH   4   5
ENDBRANCH   3   4
ENDBRANCH   2   3
ENDBRANCH   1   2
BRANCH   1  18
ATOM     18  C   UNL     1      -0.256  -6.655  -2.374  1.00  0.00     0.000 C 
BRANCH  18  19
ATOM     19  C   UNL     1       0.039  -5.599  -1.287  1.00  0.00     0.000 C 
BRANCH  19  20
ATOM     20  C   UNL     1       0.836  -4.368  -1.755  1.00  0.00     0.000 C 
BRANCH  20  21
ATOM     21  C   UNL     1       0.376  -3.065  -1.076  1.00  0.00     0.000 C 
BRANCH  21  22
ATOM     22  C   UNL     1       0.519  -1.838  -1.992  1.00  0.00     0.000 C 
BRANCH  22  23
ATOM     23  C   UNL     1       1.460  -2.089  -3.184  1.00  0.00     0.000 C 
BRANCH  23  24
ATOM     24  C   UNL     1       2.814  -1.377  -3.013  1.00  0.00    -0.000 C 
BRANCH  24  25
ATOM     25  C   UNL     1       2.911  -0.611  -1.683  1.00  0.00    -0.000 C 
BRANCH  25  26
ATOM     26  C   UNL     1       4.353  -0.511  -1.153  1.00  0.00    -0.000 C 
BRANCH  26  27
ATOM     27  C   UNL     1       5.452  -0.584  -2.230  1.00  0.00    -0.000 C 
BRANCH  27  28
ATOM     28  C   UNL     1       6.729  -1.284  -1.735  1.00  0.00    -0.000 C 
BRANCH  28  29
ATOM     29  C   UNL     1       7.996  -0.745  -2.421  1.00  0.00    -0.000 C 
BRANCH  29  30
ATOM     30  C   UNL     1       8.973  -1.866  -2.816  1.00  0.00    -0.000 C 
BRANCH  30  31
ATOM     31  C   UNL     1       8.463  -3.260  -2.421  1.00  0.00    -0.003 C 
ATOM     32  C   UNL     1       9.451  -4.374  -2.764  1.00  0.00     0.004 C 
ENDBRANCH  30  31
ENDBRANCH  29  30
ENDBRANCH  28  29
ENDBRANCH  27  28
ENDBRANCH  26  27
ENDBRANCH  25  26
ENDBRANCH  24  25
ENDBRANCH  23  24
ENDBRANCH  22  23
ENDBRANCH  21  22
ENDBRANCH  20  21
ENDBRANCH  19  20
ENDBRANCH  18  19
ENDBRANCH   1  18
TORSDOF 28
ENDMDL
MODEL 4
REMARK VINA RESULT:    -3.746      2.652      6.358
REMARK INTER + INTRA:         -11.839
REMARK INTER:                 -10.309
REMARK INTRA:                  -1.530
REMARK UNBOUND:                -1.962
REMARK SMILES CCCCCCCCCCCCCCCCCCCCCCCCCCCCCC(=O)[O-]
REMARK SMILES IDX 16 1 17 2 18 3 19 4 20 5 21 6 22 7 23 8 24 9 25 10 26 11
REMARK SMILES IDX 27 12 28 13 29 14 30 15 31 16 32 17 15 18 14 19 13 20 12 21
REMARK SMILES IDX 11 22 10 23 9 24 8 25 7 26 6 27 5 28 4 29 3 30 2 31 1 32
REMARK H PARENT
REMARK Flexibility Score: inf
ROOT
ATOM      1  C   UNL     1       0.329  -6.144  -1.590  1.00  0.00     0.000 C 
ENDROOT
BRANCH   1   2
ATOM      2  C   UNL     1      -0.717  -6.873  -2.465  1.00  0.00     0.000 C 
BRANCH   2   3
ATOM      3  C   UNL     1      -0.949  -8.341  -2.061  1.00  0.00     0.000 C 
BRANCH   3   4
ATOM      4  C   UNL     1      -1.096  -8.578  -0.547  1.00  0.00     0.000 C 
BRANCH   4   5
ATOM      5  C   UNL     1      -1.526 -10.005  -0.146  1.00  0.00     0.000 C 
BRANCH   5   6
ATOM      6  C   UNL     1      -2.480 -10.088   1.058  1.00  0.00     0.000 C 
BRANCH   6   7
ATOM      7  C   UNL     1      -1.976  -9.300   2.276  1.00  0.00     0.000 C 
BRANCH   7   8
ATOM      8  C   UNL     1      -2.279 -10.050   3.581  1.00  0.00     0.000 C 
BRANCH   8   9
ATOM      9  C   UNL     1      -3.650  -9.663   4.178  1.00  0.00     0.000 C 
BRANCH   9  10
ATOM     10  C   UNL     1      -4.155 -10.636   5.260  1.00  0.00     0.000 C 
BRANCH  10  11
ATOM     11  C   UNL     1      -5.055 -10.000   6.332  1.00  0.00     0.000 C 
BRANCH  11  12
ATOM     12  C   UNL     1      -5.761  -8.727   5.842  1.00  0.00     0.000 C 
BRANCH  12  13
ATOM     13  C   UNL     1      -5.504  -7.558   6.798  1.00  0.00     0.006 C 
BRANCH  13  14
ATOM     14  C   UNL     1      -4.820  -6.393   6.073  1.00  0.00     0.053 C 
BRANCH  14  15
ATOM     15  C   UNL     1      -4.397  -5.331   7.040  1.00  0.00     0.041 C 
ATOM     16  O   UNL     1      -3.194  -5.250   7.412  1.00  0.00    -0.550 OA
ATOM     17  O   UNL     1      -5.332  -4.434   7.540  1.00  0.00    -0.550 OA
ENDBRANCH  14  15
ENDBRANCH  13  14
ENDBRANCH  12  13
ENDBRANCH  11  12
ENDBRANCH  10  11
ENDBRANCH   9  10
ENDBRANCH   8   9
ENDBRANCH   7   8
ENDBRANCH   6   7
ENDBRANCH   5   6
ENDBRANCH   4   5
ENDBRANCH   3   4
ENDBRANCH   2   3
ENDBRANCH   1   2
BRANCH   1  18
ATOM     18  C   UNL     1       0.739  -4.751  -2.109  1.00  0.00     0.000 C 
BRANCH  18  19
ATOM     19  C   UNL     1       0.512  -3.578  -1.132  1.00  0.00     0.000 C 
BRANCH  19  20
ATOM     20  C   UNL     1       0.651  -2.170  -1.740  1.00  0.00     0.000 C 
BRANCH  20  21
ATOM     21  C   UNL     1       1.446  -2.162  -3.057  1.00  0.00     0.000 C 
BRANCH  21  22
ATOM     22  C   UNL     1       2.806  -1.457  -2.923  1.00  0.00     0.000 C 
BRANCH  22  23
ATOM     23  C   UNL     1       2.855  -0.473  -1.740  1.00  0.00     0.000 C 
BRANCH  23  24
ATOM     24  C   UNL     1       4.267  -0.360  -1.140  1.00  0.00    -0.000 C 
BRANCH  24  25
ATOM     25  C   UNL     1       5.371  -0.613  -2.181  1.00  0.00    -0.000 C 
BRANCH  25  26
ATOM     26  C   UNL     1       6.766  -0.764  -1.550  1.00  0.00    -0.000 C 
BRANCH  26  27
ATOM     27  C   UNL     1       7.942  -0.716  -2.542  1.00  0.00    -0.000 C 
BRANCH  27  28
ATOM     28  C   UNL     1       8.619  -2.084  -2.738  1.00  0.00    -0.000 C 
BRANCH  28  29
ATOM     29  C   UNL     1       7.844  -3.224  -2.055  1.00  0.00    -0.000 C 
BRANCH  29  30
ATOM     30  C   UNL     1       8.666  -4.521  -1.962  1.00  0.00    -0.000 C 
BRANCH  30  31
ATOM     31  C   UNL     1       9.902  -4.502  -2.874  1.00  0.00    -0.003 C 
ATOM     32  C   UNL     1       9.757  -5.418  -4.089  1.00  0.00     0.004 C 
ENDBRANCH  30  31
ENDBRANCH  29  30
ENDBRANCH  28  29
ENDBRANCH  27  28
ENDBRANCH  26  27
ENDBRANCH  25  26
ENDBRANCH  24  25
ENDBRANCH  23  24
ENDBRANCH  22  23
ENDBRANCH  21  22
ENDBRANCH  20  21
ENDBRANCH  19  20
ENDBRANCH  18  19
ENDBRANCH   1  18
TORSDOF 28
ENDMDL
MODEL 5
REMARK VINA RESULT:    -3.458      4.392     10.768
REMARK INTER + INTRA:         -11.081
REMARK INTER:                  -8.127
REMARK INTRA:                  -2.954
REMARK UNBOUND:                -1.962
REMARK SMILES CCCCCCCCCCCCCCCCCCCCCCCCCCCCCC(=O)[O-]
REMARK SMILES IDX 16 1 17 2 18 3 19 4 20 5 21 6 22 7 23 8 24 9 25 10 26 11
REMARK SMILES IDX 27 12 28 13 29 14 30 15 31 16 32 17 15 18 14 19 13 20 12 21
REMARK SMILES IDX 11 22 10 23 9 24 8 25 7 26 6 27 5 28 4 29 3 30 2 31 1 32
REMARK H PARENT
REMARK Flexibility Score: inf
ROOT
ATOM      1  C   UNL     1      -5.427  -2.485   5.510  1.00  0.00     0.000 C 
ENDROOT
BRANCH   1   2
ATOM      2  C   UNL     1      -4.454  -2.064   6.635  1.00  0.00     0.000 C 
BRANCH   2   3
ATOM      3  C   UNL     1      -3.457  -3.166   7.039  1.00  0.00     0.000 C 
BRANCH   3   4
ATOM      4  C   UNL     1      -3.020  -4.093   5.890  1.00  0.00     0.000 C 
BRANCH   4   5
ATOM      5  C   UNL     1      -3.664  -5.496   5.899  1.00  0.00     0.000 C 
BRANCH   5   6
ATOM      6  C   UNL     1      -3.115  -6.476   4.848  1.00  0.00     0.000 C 
BRANCH   6   7
ATOM      7  C   UNL     1      -3.589  -7.919   5.070  1.00  0.00     0.000 C 
BRANCH   7   8
ATOM      8  C   UNL     1      -2.654  -8.919   4.374  1.00  0.00     0.000 C 
BRANCH   8   9
ATOM      9  C   UNL     1      -3.325 -10.291   4.146  1.00  0.00     0.000 C 
BRANCH   9  10
ATOM     10  C   UNL     1      -2.987 -10.932   2.787  1.00  0.00     0.000 C 
BRANCH  10  11
ATOM     11  C   UNL     1      -2.190 -10.033   1.828  1.00  0.00     0.000 C 
BRANCH  11  12
ATOM     12  C   UNL     1      -2.357 -10.436   0.354  1.00  0.00     0.000 C 
BRANCH  12  13
ATOM     13  C   UNL     1      -1.154  -9.977  -0.477  1.00  0.00     0.006 C 
BRANCH  13  14
ATOM     14  C   UNL     1      -1.586  -9.001  -1.578  1.00  0.00     0.053 C 
BRANCH  14  15
ATOM     15  C   UNL     1      -0.559  -7.929  -1.779  1.00  0.00     0.041 C 
ATOM     16  O   UNL     1       0.606  -8.067  -1.315  1.00  0.00    -0.550 OA
ATOM     17  O   UNL     1      -0.891  -6.770  -2.470  1.00  0.00    -0.550 OA
ENDBRANCH  14  15
ENDBRANCH  13  14
ENDBRANCH  12  13
ENDBRANCH  11  12
ENDBRANCH  10  11
ENDBRANCH   9  10
ENDBRANCH   8   9
ENDBRANCH   7   8
ENDBRANCH   6   7
ENDBRANCH   5   6
ENDBRANCH   4   5
ENDBRANCH   3   4
ENDBRANCH   2   3
ENDBRANCH   1   2
BRANCH   1  18
ATOM     18  C   UNL     1      -6.765  -1.718   5.498  1.00  0.00     0.000 C 
BRANCH  18  19
ATOM     19  C   UNL     1      -7.503  -1.639   6.851  1.00  0.00     0.000 C 
BRANCH  19  20
ATOM     20  C   UNL     1      -9.033  -1.798   6.784  1.00  0.00     0.000 C 
BRANCH  20  21
ATOM     21  C   UNL     1      -9.469  -3.188   6.289  1.00  0.00     0.000 C 
BRANCH  21  22
ATOM     22  C   UNL     1      -8.916  -4.328   7.161  1.00  0.00     0.000 C 
BRANCH  22  23
ATOM     23  C   UNL     1      -9.277  -5.723   6.620  1.00  0.00     0.000 C 
BRANCH  23  24
ATOM     24  C   UNL     1      -9.760  -5.671   5.160  1.00  0.00    -0.000 C 
BRANCH  24  25
ATOM     25  C   UNL     1      -8.707  -6.204   4.173  1.00  0.00    -0.000 C 
BRANCH  25  26
ATOM     26  C   UNL     1      -9.205  -7.411   3.359  1.00  0.00    -0.000 C 
BRANCH  26  27
ATOM     27  C   UNL     1      -9.279  -8.739   4.134  1.00  0.00    -0.000 C 
BRANCH  27  28
ATOM     28  C   UNL     1      -8.109  -9.686   3.814  1.00  0.00    -0.000 C 
BRANCH  28  29
ATOM     29  C   UNL     1      -6.964  -9.568   4.834  1.00  0.00    -0.000 C 
BRANCH  29  30
ATOM     30  C   UNL     1      -7.351 -10.118   6.219  1.00  0.00    -0.000 C 
BRANCH  30  31
ATOM     31  C   UNL     1      -7.491  -9.010   7.275  1.00  0.00    -0.003 C 
ATOM     32  C   UNL     1      -6.563  -7.824   7.016  1.00  0.00     0.004 C 
ENDBRANCH  30  31
ENDBRANCH  29  30
ENDBRANCH  28  29
ENDBRANCH  27  28
ENDBRANCH  26  27
ENDBRANCH  25  26
ENDBRANCH  24  25
ENDBRANCH  23  24
ENDBRANCH  22  23
ENDBRANCH  21  22
ENDBRANCH  20  21
ENDBRANCH  19  20
ENDBRANCH  18  19
ENDBRANCH   1  18
TORSDOF 28
ENDMDL
MODEL 6
REMARK VINA RESULT:    -3.436      4.532     10.829
REMARK INTER + INTRA:         -11.021
REMARK INTER:                  -7.540
REMARK INTRA:                  -3.481
REMARK UNBOUND:                -1.962
REMARK SMILES CCCCCCCCCCCCCCCCCCCCCCCCCCCCCC(=O)[O-]
REMARK SMILES IDX 16 1 17 2 18 3 19 4 20 5 21 6 22 7 23 8 24 9 25 10 26 11
REMARK SMILES IDX 27 12 28 13 29 14 30 15 31 16 32 17 15 18 14 19 13 20 12 21
REMARK SMILES IDX 11 22 10 23 9 24 8 25 7 26 6 27 5 28 4 29 3 30 2 31 1 32
REMARK H PARENT
REMARK Flexibility Score: inf
ROOT
ATOM      1  C   UNL     1      -4.409  -2.201   7.670  1.00  0.00     0.000 C 
ENDROOT
BRANCH   1   2
ATOM      2  C   UNL     1      -5.215  -3.469   8.032  1.00  0.00     0.000 C 
BRANCH   2   3
ATOM      3  C   UNL     1      -4.399  -4.771   7.936  1.00  0.00     0.000 C 
BRANCH   3   4
ATOM      4  C   UNL     1      -2.945  -4.588   7.462  1.00  0.00     0.000 C 
BRANCH   4   5
ATOM      5  C   UNL     1      -2.681  -4.981   5.994  1.00  0.00     0.000 C 
BRANCH   5   6
ATOM      6  C   UNL     1      -3.620  -6.059   5.425  1.00  0.00     0.000 C 
BRANCH   6   7
ATOM      7  C   UNL     1      -2.865  -7.226   4.770  1.00  0.00     0.000 C 
BRANCH   7   8
ATOM      8  C   UNL     1      -3.737  -8.488   4.722  1.00  0.00     0.000 C 
BRANCH   8   9
ATOM      9  C   UNL     1      -2.931  -9.746   4.334  1.00  0.00     0.000 C 
BRANCH   9  10
ATOM     10  C   UNL     1      -2.342  -9.694   2.911  1.00  0.00     0.000 C 
BRANCH  10  11
ATOM     11  C   UNL     1      -2.242 -11.054   2.202  1.00  0.00     0.000 C 
BRANCH  11  12
ATOM     12  C   UNL     1      -2.082 -10.923   0.679  1.00  0.00     0.000 C 
BRANCH  12  13
ATOM     13  C   UNL     1      -1.397  -9.602   0.314  1.00  0.00     0.006 C 
BRANCH  13  14
ATOM     14  C   UNL     1      -1.540  -9.302  -1.183  1.00  0.00     0.053 C 
BRANCH  14  15
ATOM     15  C   UNL     1      -0.624  -8.194  -1.600  1.00  0.00     0.041 C 
ATOM     16  O   UNL     1       0.578  -8.182  -1.217  1.00  0.00    -0.550 OA
ATOM     17  O   UNL     1      -1.099  -7.165  -2.404  1.00  0.00    -0.550 OA
ENDBRANCH  14  15
ENDBRANCH  13  14
ENDBRANCH  12  13
ENDBRANCH  11  12
ENDBRANCH  10  11
ENDBRANCH   9  10
ENDBRANCH   8   9
ENDBRANCH   7   8
ENDBRANCH   6   7
ENDBRANCH   5   6
ENDBRANCH   4   5
ENDBRANCH   3   4
ENDBRANCH   2   3
ENDBRANCH   1   2
BRANCH   1  18
ATOM     18  C   UNL     1      -4.540  -1.756   6.198  1.00  0.00     0.000 C 
BRANCH  18  19
ATOM     19  C   UNL     1      -5.675  -0.753   5.899  1.00  0.00     0.000 C 
BRANCH  19  20
ATOM     20  C   UNL     1      -7.044  -1.377   5.571  1.00  0.00     0.000 C 
BRANCH  20  21
ATOM     21  C   UNL     1      -7.982  -1.435   6.789  1.00  0.00     0.000 C 
BRANCH  21  22
ATOM     22  C   UNL     1      -9.184  -2.368   6.567  1.00  0.00     0.000 C 
BRANCH  22  23
ATOM     23  C   UNL     1      -9.410  -3.341   7.738  1.00  0.00     0.000 C 
BRANCH  23  24
ATOM     24  C   UNL     1      -9.127  -4.801   7.341  1.00  0.00    -0.000 C 
BRANCH  24  25
ATOM     25  C   UNL     1      -8.149  -4.909   6.159  1.00  0.00    -0.000 C 
BRANCH  25  26
ATOM     26  C   UNL     1      -8.424  -6.130   5.263  1.00  0.00    -0.000 C 
BRANCH  26  27
ATOM     27  C   UNL     1      -7.486  -7.331   5.488  1.00  0.00    -0.000 C 
BRANCH  27  28
ATOM     28  C   UNL     1      -6.755  -7.276   6.841  1.00  0.00    -0.000 C 
BRANCH  28  29
ATOM     29  C   UNL     1      -6.879  -8.591   7.628  1.00  0.00    -0.000 C 
BRANCH  29  30
ATOM     30  C   UNL     1      -5.529  -9.315   7.780  1.00  0.00    -0.000 C 
BRANCH  30  31
ATOM     31  C   UNL     1      -5.566 -10.752   7.236  1.00  0.00    -0.003 C 
ATOM     32  C   UNL     1      -6.280 -10.858   5.888  1.00  0.00     0.004 C 
ENDBRANCH  30  31
ENDBRANCH  29  30
ENDBRANCH  28  29
ENDBRANCH  27  28
ENDBRANCH  26  27
ENDBRANCH  25  26
ENDBRANCH  24  25
ENDBRANCH  23  24
ENDBRANCH  22  23
ENDBRANCH  21  22
ENDBRANCH  20  21
ENDBRANCH  19  20
ENDBRANCH  18  19
ENDBRANCH   1  18
TORSDOF 28
ENDMDL
MODEL 7
REMARK VINA RESULT:    -3.156      3.429      6.768
REMARK INTER + INTRA:         -10.283
REMARK INTER:                  -9.349
REMARK INTRA:                  -0.934
REMARK UNBOUND:                -1.962
REMARK SMILES CCCCCCCCCCCCCCCCCCCCCCCCCCCCCC(=O)[O-]
REMARK SMILES IDX 16 1 17 2 18 3 19 4 20 5 21 6 22 7 23 8 24 9 25 10 26 11
REMARK SMILES IDX 27 12 28 13 29 14 30 15 31 16 32 17 15 18 14 19 13 20 12 21
REMARK SMILES IDX 11 22 10 23 9 24 8 25 7 26 6 27 5 28 4 29 3 30 2 31 1 32
REMARK H PARENT
REMARK Flexibility Score: inf
ROOT
ATOM      1  C   UNL     1       0.357  -6.344  -1.605  1.00  0.00     0.000 C 
ENDROOT
BRANCH   1   2
ATOM      2  C   UNL     1      -0.780  -6.967  -2.447  1.00  0.00     0.000 C 
BRANCH   2   3
ATOM      3  C   UNL     1      -1.083  -8.435  -2.092  1.00  0.00     0.000 C 
BRANCH   3   4
ATOM      4  C   UNL     1      -0.659  -8.856  -0.673  1.00  0.00     0.000 C 
BRANCH   4   5
ATOM      5  C   UNL     1      -1.639  -9.805   0.048  1.00  0.00     0.000 C 
BRANCH   5   6
ATOM      6  C   UNL     1      -2.132  -9.317   1.421  1.00  0.00     0.000 C 
BRANCH   6   7
ATOM      7  C   UNL     1      -2.347 -10.462   2.422  1.00  0.00     0.000 C 
BRANCH   7   8
ATOM      8  C   UNL     1      -2.661  -9.918   3.823  1.00  0.00     0.000 C 
BRANCH   8   9
ATOM      9  C   UNL     1      -4.152 -10.071   4.193  1.00  0.00     0.000 C 
BRANCH   9  10
ATOM     10  C   UNL     1      -4.484  -9.644   5.635  1.00  0.00     0.000 C 
BRANCH  10  11
ATOM     11  C   UNL     1      -5.779  -8.830   5.788  1.00  0.00     0.000 C 
BRANCH  11  12
ATOM     12  C   UNL     1      -6.116  -8.513   7.253  1.00  0.00     0.000 C 
BRANCH  12  13
ATOM     13  C   UNL     1      -6.840  -7.168   7.367  1.00  0.00     0.006 C 
BRANCH  13  14
ATOM     14  C   UNL     1      -7.032  -6.526   5.988  1.00  0.00     0.053 C 
BRANCH  14  15
ATOM     15  C   UNL     1      -8.378  -6.860   5.422  1.00  0.00     0.041 C 
ATOM     16  O   UNL     1      -9.361  -7.052   6.188  1.00  0.00    -0.550 OA
ATOM     17  O   UNL     1      -8.546  -6.970   4.047  1.00  0.00    -0.550 OA
ENDBRANCH  14  15
ENDBRANCH  13  14
ENDBRANCH  12  13
ENDBRANCH  11  12
ENDBRANCH  10  11
ENDBRANCH   9  10
ENDBRANCH   8   9
ENDBRANCH   7   8
ENDBRANCH   6   7
ENDBRANCH   5   6
ENDBRANCH   4   5
ENDBRANCH   3   4
ENDBRANCH   2   3
ENDBRANCH   1   2
BRANCH   1  18
ATOM     18  C   UNL     1       0.721  -4.896  -1.991  1.00  0.00     0.000 C 
BRANCH  18  19
ATOM     19  C   UNL     1       0.361  -3.814  -0.950  1.00  0.00     0.000 C 
BRANCH  19  20
ATOM     20  C   UNL     1       0.338  -2.367  -1.475  1.00  0.00     0.000 C 
BRANCH  20  21
ATOM     21  C   UNL     1       1.526  -2.048  -2.400  1.00  0.00     0.000 C 
BRANCH  21  22
ATOM     22  C   UNL     1       2.587  -1.168  -1.719  1.00  0.00     0.000 C 
BRANCH  22  23
ATOM     23  C   UNL     1       3.627  -0.613  -2.709  1.00  0.00     0.000 C 
BRANCH  23  24
ATOM     24  C   UNL     1       4.894  -0.109  -1.996  1.00  0.00    -0.000 C 
BRANCH  24  25
ATOM     25  C   UNL     1       6.009  -1.168  -1.961  1.00  0.00    -0.000 C 
BRANCH  25  26
ATOM     26  C   UNL     1       7.420  -0.553  -1.960  1.00  0.00    -0.000 C 
BRANCH  26  27
ATOM     27  C   UNL     1       8.466  -1.316  -2.793  1.00  0.00    -0.000 C 
BRANCH  27  28
ATOM     28  C   UNL     1       8.548  -2.809  -2.430  1.00  0.00    -0.000 C 
BRANCH  28  29
ATOM     29  C   UNL     1       9.896  -3.435  -2.825  1.00  0.00    -0.000 C 
BRANCH  29  30
ATOM     30  C   UNL     1       9.997  -4.917  -2.422  1.00  0.00    -0.000 C 
BRANCH  30  31
ATOM     31  C   UNL     1       9.381  -5.856  -3.471  1.00  0.00    -0.003 C 
ATOM     32  C   UNL     1       9.629  -5.389  -4.905  1.00  0.00     0.004 C 
ENDBRANCH  30  31
ENDBRANCH  29  30
ENDBRANCH  28  29
ENDBRANCH  27  28
ENDBRANCH  26  27
ENDBRANCH  25  26
ENDBRANCH  24  25
ENDBRANCH  23  24
ENDBRANCH  22  23
ENDBRANCH  21  22
ENDBRANCH  20  21
ENDBRANCH  19  20
ENDBRANCH  18  19
ENDBRANCH   1  18
TORSDOF 28
ENDMDL
MODEL 8
REMARK VINA RESULT:    -2.764      4.382     12.596
REMARK INTER + INTRA:          -9.251
REMARK INTER:                  -7.980
REMARK INTRA:                  -1.272
REMARK UNBOUND:                -1.962
REMARK SMILES CCCCCCCCCCCCCCCCCCCCCCCCCCCCCC(=O)[O-]
REMARK SMILES IDX 16 1 17 2 18 3 19 4 20 5 21 6 22 7 23 8 24 9 25 10 26 11
REMARK SMILES IDX 27 12 28 13 29 14 30 15 31 16 32 17 15 18 14 19 13 20 12 21
REMARK SMILES IDX 11 22 10 23 9 24 8 25 7 26 6 27 5 28 4 29 3 30 2 31 1 32
REMARK H PARENT
REMARK Flexibility Score: inf
ROOT
ATOM      1  C   UNL     1       0.652  -6.348  -1.663  1.00  0.00     0.000 C 
ENDROOT
BRANCH   1   2
ATOM      2  C   UNL     1       0.730  -4.847  -2.028  1.00  0.00     0.000 C 
BRANCH   2   3
ATOM      3  C   UNL     1       0.369  -3.906  -0.863  1.00  0.00     0.000 C 
BRANCH   3   4
ATOM      4  C   UNL     1       0.002  -2.471  -1.283  1.00  0.00     0.000 C 
BRANCH   4   5
ATOM      5  C   UNL     1       1.025  -1.778  -2.207  1.00  0.00     0.000 C 
BRANCH   5   6
ATOM      6  C   UNL     1       2.376  -1.440  -1.552  1.00  0.00     0.000 C 
BRANCH   6   7
ATOM      7  C   UNL     1       2.926  -0.073  -1.984  1.00  0.00     0.000 C 
BRANCH   7   8
ATOM      8  C   UNL     1       4.225  -0.231  -2.786  1.00  0.00     0.000 C 
BRANCH   8   9
ATOM      9  C   UNL     1       5.320  -0.976  -1.991  1.00  0.00     0.000 C 
BRANCH   9  10
ATOM     10  C   UNL     1       6.586  -0.135  -1.736  1.00  0.00     0.000 C 
BRANCH  10  11
ATOM     11  C   UNL     1       7.873  -0.698  -2.359  1.00  0.00     0.000 C 
BRANCH  11  12
ATOM     12  C   UNL     1       8.004  -2.220  -2.189  1.00  0.00     0.000 C 
BRANCH  12  13
ATOM     13  C   UNL     1       9.000  -2.799  -3.199  1.00  0.00     0.006 C 
BRANCH  13  14
ATOM     14  C   UNL     1      10.055  -3.664  -2.499  1.00  0.00     0.053 C 
BRANCH  14  15
ATOM     15  C   UNL     1       9.922  -5.101  -2.897  1.00  0.00     0.041 C 
ATOM     16  O   UNL     1      10.062  -6.015  -2.039  1.00  0.00    -0.550 OA
ATOM     17  O   UNL     1       9.652  -5.435  -4.218  1.00  0.00    -0.550 OA
ENDBRANCH  14  15
ENDBRANCH  13  14
ENDBRANCH  12  13
ENDBRANCH  11  12
ENDBRANCH  10  11
ENDBRANCH   9  10
ENDBRANCH   8   9
ENDBRANCH   7   8
ENDBRANCH   6   7
ENDBRANCH   5   6
ENDBRANCH   4   5
ENDBRANCH   3   4
ENDBRANCH   2   3
ENDBRANCH   1   2
BRANCH   1  18
ATOM     18  C   UNL     1      -0.767  -6.949  -1.723  1.00  0.00     0.000 C 
BRANCH  18  19
ATOM     19  C   UNL     1      -0.838  -8.480  -1.911  1.00  0.00     0.000 C 
BRANCH  19  20
ATOM     20  C   UNL     1      -0.709  -9.315  -0.624  1.00  0.00     0.000 C 
BRANCH  20  21
ATOM     21  C   UNL     1      -2.029  -9.995  -0.217  1.00  0.00     0.000 C 
BRANCH  21  22
ATOM     22  C   UNL     1      -2.032 -10.450   1.251  1.00  0.00     0.000 C 
BRANCH  22  23
ATOM     23  C   UNL     1      -2.297  -9.296   2.234  1.00  0.00     0.000 C 
BRANCH  23  24
ATOM     24  C   UNL     1      -2.290  -9.769   3.698  1.00  0.00    -0.000 C 
BRANCH  24  25
ATOM     25  C   UNL     1      -3.495 -10.666   4.032  1.00  0.00    -0.000 C 
BRANCH  25  26
ATOM     26  C   UNL     1      -4.725  -9.868   4.499  1.00  0.00    -0.000 C 
BRANCH  26  27
ATOM     27  C   UNL     1      -4.839  -9.675   6.023  1.00  0.00    -0.000 C 
BRANCH  27  28
ATOM     28  C   UNL     1      -6.284  -9.421   6.488  1.00  0.00    -0.000 C 
BRANCH  28  29
ATOM     29  C   UNL     1      -6.593  -7.923   6.649  1.00  0.00    -0.000 C 
BRANCH  29  30
ATOM     30  C   UNL     1      -5.319  -7.063   6.718  1.00  0.00    -0.000 C 
BRANCH  30  31
ATOM     31  C   UNL     1      -5.543  -5.635   6.198  1.00  0.00    -0.003 C 
ATOM     32  C   UNL     1      -4.238  -4.917   5.856  1.00  0.00     0.004 C 
ENDBRANCH  30  31
ENDBRANCH  29  30
ENDBRANCH  28  29
ENDBRANCH  27  28
ENDBRANCH  26  27
ENDBRANCH  25  26
ENDBRANCH  24  25
ENDBRANCH  23  24
ENDBRANCH  22  23
ENDBRANCH  21  22
ENDBRANCH  20  21
ENDBRANCH  19  20
ENDBRANCH  18  19
ENDBRANCH   1  18
TORSDOF 28
ENDMDL
MODEL 9
REMARK VINA RESULT:    -2.545      4.608     13.336
REMARK INTER + INTRA:          -8.672
REMARK INTER:                  -7.582
REMARK INTRA:                  -1.090
REMARK UNBOUND:                -1.962
REMARK SMILES CCCCCCCCCCCCCCCCCCCCCCCCCCCCCC(=O)[O-]
REMARK SMILES IDX 16 1 17 2 18 3 19 4 20 5 21 6 22 7 23 8 24 9 25 10 26 11
REMARK SMILES IDX 27 12 28 13 29 14 30 15 31 16 32 17 15 18 14 19 13 20 12 21
REMARK SMILES IDX 11 22 10 23 9 24 8 25 7 26 6 27 5 28 4 29 3 30 2 31 1 32
REMARK H PARENT
REMARK Flexibility Score: inf
ROOT
ATOM      1  C   UNL     1       1.205  -2.472  -1.681  1.00  0.00     0.000 C 
ENDROOT
BRANCH   1   2
ATOM      2  C   UNL     1       1.880  -1.400  -2.567  1.00  0.00     0.000 C 
BRANCH   2   3
ATOM      3  C   UNL     1       3.409  -1.325  -2.396  1.00  0.00     0.000 C 
BRANCH   3   4
ATOM      4  C   UNL     1       3.891  -0.309  -1.344  1.00  0.00     0.000 C 
BRANCH   4   5
ATOM      5  C   UNL     1       5.411  -0.042  -1.341  1.00  0.00     0.000 C 
BRANCH   5   6
ATOM      6  C   UNL     1       6.274  -1.158  -1.955  1.00  0.00     0.000 C 
BRANCH   6   7
ATOM      7  C   UNL     1       7.769  -0.809  -1.990  1.00  0.00     0.000 C 
BRANCH   7   8
ATOM      8  C   UNL     1       8.533  -1.754  -2.928  1.00  0.00     0.000 C 
BRANCH   8   9
ATOM      9  C   UNL     1       8.515  -3.216  -2.433  1.00  0.00     0.000 C 
BRANCH   9  10
ATOM     10  C   UNL     1       9.783  -4.013  -2.796  1.00  0.00     0.000 C 
BRANCH  10  11
ATOM     11  C   UNL     1       9.754  -5.496  -2.394  1.00  0.00     0.000 C 
BRANCH  11  12
ATOM     12  C   UNL     1      10.125  -5.723  -0.921  1.00  0.00     0.000 C 
BRANCH  12  13
ATOM     13  C   UNL     1       9.290  -6.856  -0.316  1.00  0.00     0.006 C 
BRANCH  13  14
ATOM     14  C   UNL     1       8.204  -6.304   0.616  1.00  0.00     0.053 C 
BRANCH  14  15
ATOM     15  C   UNL     1       8.506  -6.628   2.046  1.00  0.00     0.041 C 
ATOM     16  O   UNL     1       9.677  -6.496   2.496  1.00  0.00    -0.550 OA
ATOM     17  O   UNL     1       7.496  -7.088   2.883  1.00  0.00    -0.550 OA
ENDBRANCH  14  15
ENDBRANCH  13  14
ENDBRANCH  12  13
ENDBRANCH  11  12
ENDBRANCH  10  11
ENDBRANCH   9  10
ENDBRANCH   8   9
ENDBRANCH   7   8
ENDBRANCH   6   7
ENDBRANCH   5   6
ENDBRANCH   4   5
ENDBRANCH   3   4
ENDBRANCH   2   3
ENDBRANCH   1   2
BRANCH   1  18
ATOM     18  C   UNL     1       1.060  -3.856  -2.346  1.00  0.00     0.000 C 
BRANCH  18  19
ATOM     19  C   UNL     1       0.375  -4.942  -1.491  1.00  0.00     0.000 C 
BRANCH  19  20
ATOM     20  C   UNL     1       0.589  -6.393  -1.962  1.00  0.00     0.000 C 
BRANCH  20  21
ATOM     21  C   UNL     1      -0.716  -7.208  -1.998  1.00  0.00     0.000 C 
BRANCH  21  22
ATOM     22  C   UNL     1      -0.787  -8.260  -0.878  1.00  0.00     0.000 C 
BRANCH  22  23
ATOM     23  C   UNL     1      -1.486  -9.558  -1.322  1.00  0.00     0.000 C 
BRANCH  23  24
ATOM     24  C   UNL     1      -2.293 -10.200  -0.179  1.00  0.00    -0.000 C 
BRANCH  24  25
ATOM     25  C   UNL     1      -1.699  -9.892   1.205  1.00  0.00    -0.000 C 
BRANCH  25  26
ATOM     26  C   UNL     1      -2.393 -10.665   2.341  1.00  0.00    -0.000 C 
BRANCH  26  27
ATOM     27  C   UNL     1      -2.957  -9.792   3.477  1.00  0.00    -0.000 C 
BRANCH  27  28
ATOM     28  C   UNL     1      -3.671 -10.613   4.566  1.00  0.00    -0.000 C 
BRANCH  28  29
ATOM     29  C   UNL     1      -5.018  -9.995   4.976  1.00  0.00    -0.000 C 
BRANCH  29  30
ATOM     30  C   UNL     1      -4.875  -8.973   6.116  1.00  0.00    -0.000 C 
BRANCH  30  31
ATOM     31  C   UNL     1      -5.247  -9.562   7.486  1.00  0.00    -0.003 C 
ATOM     32  C   UNL     1      -5.834 -10.970   7.387  1.00  0.00     0.004 C 
ENDBRANCH  30  31
ENDBRANCH  29  30
ENDBRANCH  28  29
ENDBRANCH  27  28
ENDBRANCH  26  27
ENDBRANCH  25  26
ENDBRANCH  24  25
ENDBRANCH  23  24
ENDBRANCH  22  23
ENDBRANCH  21  22
ENDBRANCH  20  21
ENDBRANCH  19  20
ENDBRANCH  18  19
ENDBRANCH   1  18
TORSDOF 28
ENDMDL
