MODEL 1
REMARK VINA RESULT:    -3.533      0.000      0.000
REMARK INTER + INTRA:          -4.766
REMARK INTER:                  -4.566
REMARK INTRA:                  -0.201
REMARK UNBOUND:                -0.201
REMARK SMILES CCCCCCC(=O)[O-]
REMARK SMILES IDX 5 1 6 2 7 3 8 4 9 5 4 6 3 7 2 8 1 9
REMARK H PARENT
REMARK Flexibility Score: inf
ROOT
ATOM      1  C   UNL     1     -21.574   0.517   6.469  1.00  0.00     0.006 C 
ENDROOT
BRANCH   1   2
ATOM      2  C   UNL     1     -21.029   1.724   7.244  1.00  0.00     0.053 C 
BRANCH   2   3
ATOM      3  C   UNL     1     -21.810   1.976   8.497  1.00  0.00     0.041 C 
ATOM      4  O   UNL     1     -21.818   1.122   9.421  1.00  0.00    -0.550 OA
ATOM      5  O   UNL     1     -22.499   3.171   8.658  1.00  0.00    -0.550 OA
ENDBRANCH   2   3
ENDBRANCH   1   2
BRANCH   1   6
ATOM      6  C   UNL     1     -20.602  -0.677   6.498  1.00  0.00     0.000 C 
BRANCH   6   7
ATOM      7  C   UNL     1     -21.159  -1.881   7.279  1.00  0.00    -0.000 C 
BRANCH   7   8
ATOM      8  C   UNL     1     -20.248  -2.396   8.407  1.00  0.00    -0.003 C 
ATOM      9  C   UNL     1     -20.646  -1.869   9.786  1.00  0.00     0.004 C 
ENDBRANCH   7   8
ENDBRANCH   6   7
ENDBRANCH   1   6
TORSDOF 5
ENDMDL
MODEL 2
REMARK VINA RESULT:    -3.506      2.499      4.114
REMARK INTER + INTRA:          -4.731
REMARK INTER:                  -4.659
REMARK INTRA:                  -0.072
REMARK UNBOUND:                -0.201
REMARK SMILES CCCCCCC(=O)[O-]
REMARK SMILES IDX 5 1 6 2 7 3 8 4 9 5 4 6 3 7 2 8 1 9
REMARK H PARENT
REMARK Flexibility Score: inf
ROOT
ATOM      1  C   UNL     1     -21.042  -1.276   7.240  1.00  0.00     0.006 C 
ENDROOT
BRANCH   1   2
ATOM      2  C   UNL     1     -21.047  -1.049   8.758  1.00  0.00     0.053 C 
BRANCH   2   3
ATOM      3  C   UNL     1     -20.400  -2.185   9.489  1.00  0.00     0.041 C 
ATOM      4  O   UNL     1     -20.235  -2.124  10.736  1.00  0.00    -0.550 OA
ATOM      5  O   UNL     1     -20.013  -3.326   8.799  1.00  0.00    -0.550 OA
ENDBRANCH   2   3
ENDBRANCH   1   2
BRANCH   1   6
ATOM      6  C   UNL     1     -21.292   0.027   6.459  1.00  0.00     0.000 C 
BRANCH   6   7
ATOM      7  C   UNL     1     -20.686   1.262   7.148  1.00  0.00    -0.000 C 
BRANCH   7   8
ATOM      8  C   UNL     1     -21.713   2.306   7.620  1.00  0.00    -0.003 C 
ATOM      9  C   UNL     1     -22.059   2.177   9.104  1.00  0.00     0.004 C 
ENDBRANCH   7   8
ENDBRANCH   6   7
ENDBRANCH   1   6
TORSDOF 5
ENDMDL
MODEL 3
REMARK VINA RESULT:    -3.391      2.451      4.988
REMARK INTER + INTRA:          -4.583
REMARK INTER:                  -4.446
REMARK INTRA:                  -0.137
REMARK UNBOUND:                -0.201
REMARK SMILES CCCCCCC(=O)[O-]
REMARK SMILES IDX 5 1 6 2 7 3 8 4 9 5 4 6 3 7 2 8 1 9
REMARK H PARENT
REMARK Flexibility Score: inf
ROOT
ATOM      1  C   UNL     1     -21.683   0.862   9.608  1.00  0.00     0.006 C 
ENDROOT
BRANCH   1   2
ATOM      2  C   UNL     1     -21.254   0.518   8.175  1.00  0.00     0.053 C 
BRANCH   2   3
ATOM      3  C   UNL     1     -21.004  -0.950   8.009  1.00  0.00     0.041 C 
ATOM      4  O   UNL     1     -21.064  -1.478   6.868  1.00  0.00    -0.550 OA
ATOM      5  O   UNL     1     -20.671  -1.727   9.110  1.00  0.00    -0.550 OA
ENDBRANCH   2   3
ENDBRANCH   1   2
BRANCH   1   6
ATOM      6  C   UNL     1     -22.347   2.248   9.697  1.00  0.00     0.000 C 
BRANCH   6   7
ATOM      7  C   UNL     1     -22.065   3.125   8.464  1.00  0.00    -0.000 C 
BRANCH   7   8
ATOM      8  C   UNL     1     -22.666   4.541   8.529  1.00  0.00    -0.003 C 
ATOM      9  C   UNL     1     -21.646   5.607   8.930  1.00  0.00     0.004 C 
ENDBRANCH   7   8
ENDBRANCH   6   7
ENDBRANCH   1   6
TORSDOF 5
ENDMDL
MODEL 4
REMARK VINA RESULT:    -3.277      2.169      3.970
REMARK INTER + INTRA:          -4.436
REMARK INTER:                  -4.227
REMARK INTRA:                  -0.209
REMARK UNBOUND:                -0.201
REMARK SMILES CCCCCCC(=O)[O-]
REMARK SMILES IDX 5 1 6 2 7 3 8 4 9 5 4 6 3 7 2 8 1 9
REMARK H PARENT
REMARK Flexibility Score: inf
ROOT
ATOM      1  C   UNL     1     -21.758  -0.864   6.897  1.00  0.00     0.006 C 
ENDROOT
BRANCH   1   2
ATOM      2  C   UNL     1     -20.672  -1.949   6.892  1.00  0.00     0.053 C 
BRANCH   2   3
ATOM      3  C   UNL     1     -20.435  -2.502   8.264  1.00  0.00     0.041 C 
ATOM      4  O   UNL     1     -20.047  -3.691   8.409  1.00  0.00    -0.550 OA
ATOM      5  O   UNL     1     -20.607  -1.693   9.379  1.00  0.00    -0.550 OA
ENDBRANCH   2   3
ENDBRANCH   1   2
BRANCH   1   6
ATOM      6  C   UNL     1     -21.288   0.430   6.209  1.00  0.00     0.000 C 
BRANCH   6   7
ATOM      7  C   UNL     1     -20.768   1.481   7.206  1.00  0.00    -0.000 C 
BRANCH   7   8
ATOM      8  C   UNL     1     -21.846   2.093   8.120  1.00  0.00    -0.003 C 
ATOM      9  C   UNL     1     -21.837   1.506   9.532  1.00  0.00     0.004 C 
ENDBRANCH   7   8
ENDBRANCH   6   7
ENDBRANCH   1   6
TORSDOF 5
ENDMDL
MODEL 5
REMARK VINA RESULT:    -3.190      1.754      2.635
REMARK INTER + INTRA:          -4.323
REMARK INTER:                  -4.189
REMARK INTRA:                  -0.134
REMARK UNBOUND:                -0.201
REMARK SMILES CCCCCCC(=O)[O-]
REMARK SMILES IDX 5 1 6 2 7 3 8 4 9 5 4 6 3 7 2 8 1 9
REMARK H PARENT
REMARK Flexibility Score: inf
ROOT
ATOM      1  C   UNL     1     -20.896  -0.801   9.506  1.00  0.00     0.006 C 
ENDROOT
BRANCH   1   2
ATOM      2  C   UNL     1     -21.125  -0.379   8.048  1.00  0.00     0.053 C 
BRANCH   2   3
ATOM      3  C   UNL     1     -21.424   1.085   7.935  1.00  0.00     0.041 C 
ATOM      4  O   UNL     1     -21.127   1.714   6.885  1.00  0.00    -0.550 OA
ATOM      5  O   UNL     1     -22.061   1.747   8.976  1.00  0.00    -0.550 OA
ENDBRANCH   2   3
ENDBRANCH   1   2
BRANCH   1   6
ATOM      6  C   UNL     1     -20.449  -2.269   9.620  1.00  0.00     0.000 C 
BRANCH   6   7
ATOM      7  C   UNL     1     -20.467  -3.006   8.269  1.00  0.00    -0.000 C 
BRANCH   7   8
ATOM      8  C   UNL     1     -19.626  -4.294   8.225  1.00  0.00    -0.003 C 
ATOM      9  C   UNL     1     -20.476  -5.565   8.238  1.00  0.00     0.004 C 
ENDBRANCH   7   8
ENDBRANCH   6   7
ENDBRANCH   1   6
TORSDOF 5
ENDMDL
MODEL 6
REMARK VINA RESULT:    -2.976      2.838      4.098
REMARK INTER + INTRA:          -4.047
REMARK INTER:                  -3.890
REMARK INTRA:                  -0.157
REMARK UNBOUND:                -0.201
REMARK SMILES CCCCCCC(=O)[O-]
REMARK SMILES IDX 5 1 6 2 7 3 8 4 9 5 4 6 3 7 2 8 1 9
REMARK H PARENT
REMARK Flexibility Score: inf
ROOT
ATOM      1  C   UNL     1     -21.697   1.640   8.327  1.00  0.00     0.006 C 
ENDROOT
BRANCH   1   2
ATOM      2  C   UNL     1     -21.168   0.199   8.349  1.00  0.00     0.053 C 
BRANCH   2   3
ATOM      3  C   UNL     1     -21.229  -0.434   6.993  1.00  0.00     0.041 C 
ATOM      4  O   UNL     1     -21.528   0.257   5.984  1.00  0.00    -0.550 OA
ATOM      5  O   UNL     1     -20.920  -1.779   6.839  1.00  0.00    -0.550 OA
ENDBRANCH   2   3
ENDBRANCH   1   2
BRANCH   1   6
ATOM      6  C   UNL     1     -22.183   2.099   9.714  1.00  0.00     0.000 C 
BRANCH   6   7
ATOM      7  C   UNL     1     -22.109   0.984  10.772  1.00  0.00    -0.000 C 
BRANCH   7   8
ATOM      8  C   UNL     1     -21.852   1.474  12.208  1.00  0.00    -0.003 C 
ATOM      9  C   UNL     1     -21.672   0.331  13.208  1.00  0.00     0.004 C 
ENDBRANCH   7   8
ENDBRANCH   6   7
ENDBRANCH   1   6
TORSDOF 5
ENDMDL
MODEL 7
REMARK VINA RESULT:    -2.912      2.284      3.434
REMARK INTER + INTRA:          -3.964
REMARK INTER:                  -3.854
REMARK INTRA:                  -0.109
REMARK UNBOUND:                -0.201
REMARK SMILES CCCCCCC(=O)[O-]
REMARK SMILES IDX 5 1 6 2 7 3 8 4 9 5 4 6 3 7 2 8 1 9
REMARK H PARENT
REMARK Flexibility Score: inf
ROOT
ATOM      1  C   UNL     1     -21.663   0.850   9.609  1.00  0.00     0.006 C 
ENDROOT
BRANCH   1   2
ATOM      2  C   UNL     1     -22.358   1.611  10.747  1.00  0.00     0.053 C 
BRANCH   2   3
ATOM      3  C   UNL     1     -21.794   1.242  12.085  1.00  0.00     0.041 C 
ATOM      4  O   UNL     1     -21.753   0.036  12.445  1.00  0.00    -0.550 OA
ATOM      5  O   UNL     1     -21.281   2.227  12.918  1.00  0.00    -0.550 OA
ENDBRANCH   2   3
ENDBRANCH   1   2
BRANCH   1   6
ATOM      6  C   UNL     1     -21.745   1.607   8.271  1.00  0.00     0.000 C 
BRANCH   6   7
ATOM      7  C   UNL     1     -20.762   1.066   7.218  1.00  0.00    -0.000 C 
BRANCH   7   8
ATOM      8  C   UNL     1     -21.315  -0.075   6.345  1.00  0.00    -0.003 C 
ATOM      9  C   UNL     1     -21.010  -1.463   6.910  1.00  0.00     0.004 C 
ENDBRANCH   7   8
ENDBRANCH   6   7
ENDBRANCH   1   6
TORSDOF 5
ENDMDL
MODEL 8
REMARK VINA RESULT:    -2.822      1.218      2.808
REMARK INTER + INTRA:          -3.847
REMARK INTER:                  -4.307
REMARK INTRA:                   0.460
REMARK UNBOUND:                -0.201
REMARK SMILES CCCCCCC(=O)[O-]
REMARK SMILES IDX 5 1 6 2 7 3 8 4 9 5 4 6 3 7 2 8 1 9
REMARK H PARENT
REMARK Flexibility Score: inf
ROOT
ATOM      1  C   UNL     1     -21.047  -0.750   9.570  1.00  0.00     0.006 C 
ENDROOT
BRANCH   1   2
ATOM      2  C   UNL     1     -21.398   0.636   9.010  1.00  0.00     0.053 C 
BRANCH   2   3
ATOM      3  C   UNL     1     -22.101   1.482  10.026  1.00  0.00     0.041 C 
ATOM      4  O   UNL     1     -22.790   2.470   9.661  1.00  0.00    -0.550 OA
ATOM      5  O   UNL     1     -22.024   1.157  11.374  1.00  0.00    -0.550 OA
ENDBRANCH   2   3
ENDBRANCH   1   2
BRANCH   1   6
ATOM      6  C   UNL     1     -20.621  -1.731   8.463  1.00  0.00     0.000 C 
BRANCH   6   7
ATOM      7  C   UNL     1     -21.318  -1.454   7.119  1.00  0.00    -0.000 C 
BRANCH   7   8
ATOM      8  C   UNL     1     -20.621  -0.405   6.234  1.00  0.00    -0.003 C 
ATOM      9  C   UNL     1     -21.574   0.674   5.720  1.00  0.00     0.004 C 
ENDBRANCH   7   8
ENDBRANCH   6   7
ENDBRANCH   1   6
TORSDOF 5
ENDMDL
MODEL 9
REMARK VINA RESULT:    -2.819      2.198      3.273
REMARK INTER + INTRA:          -3.844
REMARK INTER:                  -3.721
REMARK INTRA:                  -0.123
REMARK UNBOUND:                -0.201
REMARK SMILES CCCCCCC(=O)[O-]
REMARK SMILES IDX 5 1 6 2 7 3 8 4 9 5 4 6 3 7 2 8 1 9
REMARK H PARENT
REMARK Flexibility Score: inf
ROOT
ATOM      1  C   UNL     1     -21.050  -0.692   9.105  1.00  0.00     0.006 C 
ENDROOT
BRANCH   1   2
ATOM      2  C   UNL     1     -21.053  -0.772   7.572  1.00  0.00     0.053 C 
BRANCH   2   3
ATOM      3  C   UNL     1     -21.380   0.551   6.949  1.00  0.00     0.041 C 
ATOM      4  O   UNL     1     -21.667   0.622   5.726  1.00  0.00    -0.550 OA
ATOM      5  O   UNL     1     -21.403   1.700   7.729  1.00  0.00    -0.550 OA
ENDBRANCH   2   3
ENDBRANCH   1   2
BRANCH   1   6
ATOM      6  C   UNL     1     -20.661  -2.032   9.754  1.00  0.00     0.000 C 
BRANCH   6   7
ATOM      7  C   UNL     1     -20.187  -1.875  11.210  1.00  0.00    -0.000 C 
BRANCH   7   8
ATOM      8  C   UNL     1     -21.290  -2.039  12.270  1.00  0.00    -0.003 C 
ATOM      9  C   UNL     1     -21.314  -0.901  13.291  1.00  0.00     0.004 C 
ENDBRANCH   7   8
ENDBRANCH   6   7
ENDBRANCH   1   6
TORSDOF 5
ENDMDL
