MODEL 1
REMARK VINA RESULT:    -4.147      0.000      0.000
REMARK INTER + INTRA:          -5.327
REMARK INTER:                  -5.117
REMARK INTRA:                  -0.210
REMARK UNBOUND:                -0.210
REMARK SMILES [NH3+][C@@H](Cc1ccc(O)cc1)C(=O)[O-]
REMARK SMILES IDX 3 1 2 2 1 3 11 7 12 8 13 9 4 10 5 11 10 12 6 13 9 14 7 15
REMARK SMILES IDX 8 16
REMARK H PARENT 1 4 1 5 1 6 8 17
REMARK Flexibility Score: inf
ROOT
ATOM      1  C   UNL     1       0.841  10.627  -4.129  1.00  0.00     0.107 C 
ENDROOT
BRANCH   1   2
ATOM      2  C   UNL     1       1.918  10.138  -3.139  1.00  0.00     0.232 C 
BRANCH   2   3
ATOM      3  N   UNL     1       2.765   9.117  -3.767  1.00  0.00    -0.350 N 
ATOM      4  H   UNL     1       3.759   9.442  -3.821  1.00  0.00     0.345 HD
ATOM      5  H   UNL     1       2.417   8.911  -4.732  1.00  0.00     0.345 HD
ATOM      6  H   UNL     1       2.726   8.232  -3.210  1.00  0.00     0.345 HD
ENDBRANCH   2   3
BRANCH   2   7
ATOM      7  C   UNL     1       1.287   9.587  -1.886  1.00  0.00     0.099 C 
ATOM      8  O   UNL     1       0.993   8.365  -1.810  1.00  0.00    -0.544 OA
ATOM      9  O   UNL     1       1.045  10.418  -0.799  1.00  0.00    -0.544 OA
ENDBRANCH   2   7
ENDBRANCH   1   2
BRANCH   1  10
ATOM     10  C   UNL     1       0.863  12.128  -4.283  1.00  0.00    -0.041 A 
ATOM     11  C   UNL     1       1.372  12.715  -5.453  1.00  0.00     0.008 A 
ATOM     12  C   UNL     1       0.334  12.949  -3.275  1.00  0.00     0.008 A 
ATOM     13  C   UNL     1       1.364  14.105  -5.606  1.00  0.00     0.046 A 
ATOM     14  C   UNL     1       0.328  14.340  -3.429  1.00  0.00     0.046 A 
ATOM     15  C   UNL     1       0.844  14.921  -4.595  1.00  0.00     0.115 A 
BRANCH  15  16
ATOM     16  O   UNL     1       0.843  16.304  -4.760  1.00  0.00    -0.508 OA
ATOM     17  H   UNL     1       1.696  16.814  -4.955  1.00  0.00     0.293 HD
ENDBRANCH  15  16
ENDBRANCH   1  10
TORSDOF 5
ENDMDL
MODEL 2
REMARK VINA RESULT:    -4.147      0.038      1.345
REMARK INTER + INTRA:          -5.327
REMARK INTER:                  -5.116
REMARK INTRA:                  -0.210
REMARK UNBOUND:                -0.210
REMARK SMILES [NH3+][C@@H](Cc1ccc(O)cc1)C(=O)[O-]
REMARK SMILES IDX 3 1 2 2 1 3 11 7 12 8 13 9 4 10 5 11 10 12 6 13 9 14 7 15
REMARK SMILES IDX 8 16
REMARK H PARENT 1 4 1 5 1 6 8 17
REMARK Flexibility Score: inf
ROOT
ATOM      1  C   UNL     1       0.840  10.597  -4.129  1.00  0.00     0.107 C 
ENDROOT
BRANCH   1   2
ATOM      2  C   UNL     1       1.926  10.141  -3.133  1.00  0.00     0.232 C 
BRANCH   2   3
ATOM      3  N   UNL     1       2.796   9.132  -3.749  1.00  0.00    -0.350 N 
ATOM      4  H   UNL     1       2.693   8.210  -3.265  1.00  0.00     0.345 HD
ATOM      5  H   UNL     1       3.794   9.442  -3.691  1.00  0.00     0.345 HD
ATOM      6  H   UNL     1       2.548   9.019  -4.758  1.00  0.00     0.345 HD
ENDBRANCH   2   3
BRANCH   2   7
ATOM      7  C   UNL     1       1.306   9.590  -1.874  1.00  0.00     0.099 C 
ATOM      8  O   UNL     1       0.996   8.371  -1.804  1.00  0.00    -0.544 OA
ATOM      9  O   UNL     1       1.091  10.416  -0.778  1.00  0.00    -0.544 OA
ENDBRANCH   2   7
ENDBRANCH   1   2
BRANCH   1  10
ATOM     10  C   UNL     1       0.830  12.096  -4.299  1.00  0.00    -0.041 A 
ATOM     11  C   UNL     1       0.319  12.923  -3.286  1.00  0.00     0.008 A 
ATOM     12  C   UNL     1       1.374  12.678  -5.455  1.00  0.00     0.008 A 
ATOM     13  C   UNL     1       0.339  14.314  -3.435  1.00  0.00     0.046 A 
ATOM     14  C   UNL     1       1.392  14.069  -5.602  1.00  0.00     0.046 A 
ATOM     15  C   UNL     1       0.874  14.890  -4.592  1.00  0.00     0.115 A 
BRANCH  15  16
ATOM     16  O   UNL     1       0.887  16.277  -4.727  1.00  0.00    -0.508 OA
ATOM     17  H   UNL     1       0.374  16.741  -5.467  1.00  0.00     0.293 HD
ENDBRANCH  15  16
ENDBRANCH   1  10
TORSDOF 5
ENDMDL
MODEL 3
REMARK VINA RESULT:    -4.024      3.903      5.313
REMARK INTER + INTRA:          -5.176
REMARK INTER:                  -5.117
REMARK INTRA:                  -0.058
REMARK UNBOUND:                -0.210
REMARK SMILES [NH3+][C@@H](Cc1ccc(O)cc1)C(=O)[O-]
REMARK SMILES IDX 3 1 2 2 1 3 11 7 12 8 13 9 4 10 5 11 10 12 6 13 9 14 7 15
REMARK SMILES IDX 8 16
REMARK H PARENT 1 4 1 5 1 6 8 17
REMARK Flexibility Score: inf
ROOT
ATOM      1  C   UNL     1       4.614  12.668  -3.730  1.00  0.00     0.107 C 
ENDROOT
BRANCH   1   2
ATOM      2  C   UNL     1       5.199  13.199  -5.055  1.00  0.00     0.232 C 
BRANCH   2   3
ATOM      3  N   UNL     1       5.128  12.168  -6.097  1.00  0.00    -0.350 N 
ATOM      4  H   UNL     1       4.679  11.298  -5.727  1.00  0.00     0.345 HD
ATOM      5  H   UNL     1       6.091  11.941  -6.437  1.00  0.00     0.345 HD
ATOM      6  H   UNL     1       4.571  12.522  -6.908  1.00  0.00     0.345 HD
ENDBRANCH   2   3
BRANCH   2   7
ATOM      7  C   UNL     1       6.626  13.651  -4.871  1.00  0.00     0.099 C 
ATOM      8  O   UNL     1       7.029  14.027  -3.738  1.00  0.00    -0.544 OA
ATOM      9  O   UNL     1       7.510  13.637  -5.942  1.00  0.00    -0.544 OA
ENDBRANCH   2   7
ENDBRANCH   1   2
BRANCH   1  10
ATOM     10  C   UNL     1       3.258  12.037  -3.931  1.00  0.00    -0.041 A 
ATOM     11  C   UNL     1       2.228  12.752  -4.564  1.00  0.00     0.008 A 
ATOM     12  C   UNL     1       3.029  10.713  -3.525  1.00  0.00     0.008 A 
ATOM     13  C   UNL     1       0.982  12.153  -4.775  1.00  0.00     0.046 A 
ATOM     14  C   UNL     1       1.781  10.117  -3.737  1.00  0.00     0.046 A 
ATOM     15  C   UNL     1       0.754  10.836  -4.362  1.00  0.00     0.115 A 
BRANCH  15  16
ATOM     16  O   UNL     1      -0.492  10.253  -4.578  1.00  0.00    -0.508 OA
ATOM     17  H   UNL     1      -0.706   9.768  -5.442  1.00  0.00     0.293 HD
ENDBRANCH  15  16
ENDBRANCH   1  10
TORSDOF 5
ENDMDL
MODEL 4
REMARK VINA RESULT:    -3.908      3.146      3.639
REMARK INTER + INTRA:          -5.032
REMARK INTER:                  -4.799
REMARK INTRA:                  -0.233
REMARK UNBOUND:                -0.210
REMARK SMILES [NH3+][C@@H](Cc1ccc(O)cc1)C(=O)[O-]
REMARK SMILES IDX 3 1 2 2 1 3 11 7 12 8 13 9 4 10 5 11 10 12 6 13 9 14 7 15
REMARK SMILES IDX 8 16
REMARK H PARENT 1 4 1 5 1 6 8 17
REMARK Flexibility Score: inf
ROOT
ATOM      1  C   UNL     1       1.488  12.307  -4.007  1.00  0.00     0.107 C 
ENDROOT
BRANCH   1   2
ATOM      2  C   UNL     1       1.156  10.804  -4.101  1.00  0.00     0.232 C 
BRANCH   2   3
ATOM      3  N   UNL     1      -0.118  10.603  -4.802  1.00  0.00    -0.350 N 
ATOM      4  H   UNL     1      -0.800  11.359  -4.555  1.00  0.00     0.345 HD
ATOM      5  H   UNL     1      -0.524   9.675  -4.541  1.00  0.00     0.345 HD
ATOM      6  H   UNL     1       0.041  10.611  -5.836  1.00  0.00     0.345 HD
ENDBRANCH   2   3
BRANCH   2   7
ATOM      7  C   UNL     1       1.095  10.178  -2.731  1.00  0.00     0.099 C 
ATOM      8  O   UNL     1       1.000   8.928  -2.610  1.00  0.00    -0.544 OA
ATOM      9  O   UNL     1       1.165  10.973  -1.593  1.00  0.00    -0.544 OA
ENDBRANCH   2   7
ENDBRANCH   1   2
BRANCH   1  10
ATOM     10  C   UNL     1       2.934  12.582  -4.337  1.00  0.00    -0.041 A 
ATOM     11  C   UNL     1       3.871  12.791  -3.312  1.00  0.00     0.008 A 
ATOM     12  C   UNL     1       3.365  12.586  -5.674  1.00  0.00     0.008 A 
ATOM     13  C   UNL     1       5.216  13.015  -3.620  1.00  0.00     0.046 A 
ATOM     14  C   UNL     1       4.711  12.812  -5.980  1.00  0.00     0.046 A 
ATOM     15  C   UNL     1       5.640  13.028  -4.954  1.00  0.00     0.115 A 
BRANCH  15  16
ATOM     16  O   UNL     1       6.983  13.253  -5.247  1.00  0.00    -0.508 OA
ATOM     17  H   UNL     1       7.644  13.520  -4.526  1.00  0.00     0.293 HD
ENDBRANCH  15  16
ENDBRANCH   1  10
TORSDOF 5
ENDMDL
MODEL 5
REMARK VINA RESULT:    -3.905      1.676      2.274
REMARK INTER + INTRA:          -5.028
REMARK INTER:                  -4.814
REMARK INTRA:                  -0.214
REMARK UNBOUND:                -0.210
REMARK SMILES [NH3+][C@@H](Cc1ccc(O)cc1)C(=O)[O-]
REMARK SMILES IDX 3 1 2 2 1 3 11 7 12 8 13 9 4 10 5 11 10 12 6 13 9 14 7 15
REMARK SMILES IDX 8 16
REMARK H PARENT 1 4 1 5 1 6 8 17
REMARK Flexibility Score: inf
ROOT
ATOM      1  C   UNL     1       3.128  10.887  -3.773  1.00  0.00     0.107 C 
ENDROOT
BRANCH   1   2
ATOM      2  C   UNL     1       2.167  10.584  -2.605  1.00  0.00     0.232 C 
BRANCH   2   3
ATOM      3  N   UNL     1       2.909  10.484  -1.343  1.00  0.00    -0.350 N 
ATOM      4  H   UNL     1       2.295  10.109  -0.582  1.00  0.00     0.345 HD
ATOM      5  H   UNL     1       3.265  11.427  -1.065  1.00  0.00     0.345 HD
ATOM      6  H   UNL     1       3.730   9.848  -1.464  1.00  0.00     0.345 HD
ENDBRANCH   2   3
BRANCH   2   7
ATOM      7  C   UNL     1       1.400   9.310  -2.856  1.00  0.00     0.099 C 
ATOM      8  O   UNL     1       1.059   8.576  -1.891  1.00  0.00    -0.544 OA
ATOM      9  O   UNL     1       1.048   8.947  -4.150  1.00  0.00    -0.544 OA
ENDBRANCH   2   7
ENDBRANCH   1   2
BRANCH   1  10
ATOM     10  C   UNL     1       2.758  12.165  -4.485  1.00  0.00    -0.041 A 
ATOM     11  C   UNL     1       1.413  12.464  -4.754  1.00  0.00     0.008 A 
ATOM     12  C   UNL     1       3.754  13.087  -4.844  1.00  0.00     0.008 A 
ATOM     13  C   UNL     1       1.070  13.663  -5.388  1.00  0.00     0.046 A 
ATOM     14  C   UNL     1       3.409  14.285  -5.479  1.00  0.00     0.046 A 
ATOM     15  C   UNL     1       2.066  14.576  -5.752  1.00  0.00     0.115 A 
BRANCH  15  16
ATOM     16  O   UNL     1       1.711  15.766  -6.383  1.00  0.00    -0.508 OA
ATOM     17  H   UNL     1       2.281  16.600  -6.300  1.00  0.00     0.293 HD
ENDBRANCH  15  16
ENDBRANCH   1  10
TORSDOF 5
ENDMDL
MODEL 6
REMARK VINA RESULT:    -3.872      1.647      2.421
REMARK INTER + INTRA:          -4.988
REMARK INTER:                  -4.800
REMARK INTRA:                  -0.188
REMARK UNBOUND:                -0.210
REMARK SMILES [NH3+][C@@H](Cc1ccc(O)cc1)C(=O)[O-]
REMARK SMILES IDX 3 1 2 2 1 3 11 7 12 8 13 9 4 10 5 11 10 12 6 13 9 14 7 15
REMARK SMILES IDX 8 16
REMARK H PARENT 1 4 1 5 1 6 8 17
REMARK Flexibility Score: inf
ROOT
ATOM      1  C   UNL     1       0.700  12.387  -3.458  1.00  0.00     0.107 C 
ENDROOT
BRANCH   1   2
ATOM      2  C   UNL     1       1.057  11.155  -4.316  1.00  0.00     0.232 C 
BRANCH   2   3
ATOM      3  N   UNL     1      -0.140  10.628  -4.982  1.00  0.00    -0.350 N 
ATOM      4  H   UNL     1      -0.985  10.755  -4.377  1.00  0.00     0.345 HD
ATOM      5  H   UNL     1      -0.013   9.610  -5.186  1.00  0.00     0.345 HD
ATOM      6  H   UNL     1      -0.290  11.127  -5.888  1.00  0.00     0.345 HD
ENDBRANCH   2   3
BRANCH   2   7
ATOM      7  C   UNL     1       1.697  10.080  -3.475  1.00  0.00     0.099 C 
ATOM      8  O   UNL     1       2.951   9.988  -3.412  1.00  0.00    -0.544 OA
ATOM      9  O   UNL     1       0.908   9.196  -2.748  1.00  0.00    -0.544 OA
ENDBRANCH   2   7
ENDBRANCH   1   2
BRANCH   1  10
ATOM     10  C   UNL     1       0.953  13.676  -4.198  1.00  0.00    -0.041 A 
ATOM     11  C   UNL     1       0.379  14.878  -3.751  1.00  0.00     0.008 A 
ATOM     12  C   UNL     1       1.803  13.694  -5.316  1.00  0.00     0.008 A 
ATOM     13  C   UNL     1       0.640  16.077  -4.421  1.00  0.00     0.046 A 
ATOM     14  C   UNL     1       2.062  14.895  -5.985  1.00  0.00     0.046 A 
ATOM     15  C   UNL     1       1.480  16.089  -5.540  1.00  0.00     0.115 A 
BRANCH  15  16
ATOM     16  O   UNL     1       1.731  17.291  -6.198  1.00  0.00    -0.508 OA
ATOM     17  H   UNL     1       2.176  17.312  -7.109  1.00  0.00     0.293 HD
ENDBRANCH  15  16
ENDBRANCH   1  10
TORSDOF 5
ENDMDL
MODEL 7
REMARK VINA RESULT:    -3.868      1.683      2.052
REMARK INTER + INTRA:          -4.982
REMARK INTER:                  -4.763
REMARK INTRA:                  -0.220
REMARK UNBOUND:                -0.210
REMARK SMILES [NH3+][C@@H](Cc1ccc(O)cc1)C(=O)[O-]
REMARK SMILES IDX 3 1 2 2 1 3 11 7 12 8 13 9 4 10 5 11 10 12 6 13 9 14 7 15
REMARK SMILES IDX 8 16
REMARK H PARENT 1 4 1 5 1 6 8 17
REMARK Flexibility Score: inf
ROOT
ATOM      1  C   UNL     1       2.948  11.209  -3.938  1.00  0.00     0.107 C 
ENDROOT
BRANCH   1   2
ATOM      2  C   UNL     1       2.064  10.909  -2.710  1.00  0.00     0.232 C 
BRANCH   2   3
ATOM      3  N   UNL     1       2.893  10.738  -1.510  1.00  0.00    -0.350 N 
ATOM      4  H   UNL     1       2.342  10.290  -0.741  1.00  0.00     0.345 HD
ATOM      5  H   UNL     1       3.244  11.668  -1.186  1.00  0.00     0.345 HD
ATOM      6  H   UNL     1       3.719  10.137  -1.733  1.00  0.00     0.345 HD
ENDBRANCH   2   3
BRANCH   2   7
ATOM      7  C   UNL     1       1.225   9.677  -2.938  1.00  0.00     0.099 C 
ATOM      8  O   UNL     1       0.678   9.483  -4.056  1.00  0.00    -0.544 OA
ATOM      9  O   UNL     1       1.066   8.739  -1.925  1.00  0.00    -0.544 OA
ENDBRANCH   2   7
ENDBRANCH   1   2
BRANCH   1  10
ATOM     10  C   UNL     1       2.630  12.555  -4.540  1.00  0.00    -0.041 A 
ATOM     11  C   UNL     1       3.627  13.538  -4.651  1.00  0.00     0.008 A 
ATOM     12  C   UNL     1       1.343  12.821  -5.036  1.00  0.00     0.008 A 
ATOM     13  C   UNL     1       3.336  14.774  -5.237  1.00  0.00     0.046 A 
ATOM     14  C   UNL     1       1.055  14.058  -5.621  1.00  0.00     0.046 A 
ATOM     15  C   UNL     1       2.051  15.038  -5.722  1.00  0.00     0.115 A 
BRANCH  15  16
ATOM     16  O   UNL     1       1.775  16.274  -6.303  1.00  0.00    -0.508 OA
ATOM     17  H   UNL     1       2.518  16.888  -6.617  1.00  0.00     0.293 HD
ENDBRANCH  15  16
ENDBRANCH   1  10
TORSDOF 5
ENDMDL
MODEL 8
REMARK VINA RESULT:    -3.864      1.707      2.078
REMARK INTER + INTRA:          -4.978
REMARK INTER:                  -4.790
REMARK INTRA:                  -0.188
REMARK UNBOUND:                -0.210
REMARK SMILES [NH3+][C@@H](Cc1ccc(O)cc1)C(=O)[O-]
REMARK SMILES IDX 3 1 2 2 1 3 11 7 12 8 13 9 4 10 5 11 10 12 6 13 9 14 7 15
REMARK SMILES IDX 8 16
REMARK H PARENT 1 4 1 5 1 6 8 17
REMARK Flexibility Score: inf
ROOT
ATOM      1  C   UNL     1       1.110  10.227  -2.875  1.00  0.00     0.107 C 
ENDROOT
BRANCH   1   2
ATOM      2  C   UNL     1       2.241   9.214  -2.606  1.00  0.00     0.232 C 
BRANCH   2   3
ATOM      3  N   UNL     1       2.011   7.975  -3.360  1.00  0.00    -0.350 N 
ATOM      4  H   UNL     1       2.237   8.111  -4.373  1.00  0.00     0.345 HD
ATOM      5  H   UNL     1       1.011   7.684  -3.266  1.00  0.00     0.345 HD
ATOM      6  H   UNL     1       2.611   7.210  -2.975  1.00  0.00     0.345 HD
ENDBRANCH   2   3
BRANCH   2   7
ATOM      7  C   UNL     1       2.352   8.909  -1.133  1.00  0.00     0.099 C 
ATOM      8  O   UNL     1       1.353   8.476  -0.500  1.00  0.00    -0.544 OA
ATOM      9  O   UNL     1       3.560   9.084  -0.470  1.00  0.00    -0.544 OA
ENDBRANCH   2   7
ENDBRANCH   1   2
BRANCH   1  10
ATOM     10  C   UNL     1       1.554  11.324  -3.811  1.00  0.00    -0.041 A 
ATOM     11  C   UNL     1       2.920  11.570  -4.023  1.00  0.00     0.008 A 
ATOM     12  C   UNL     1       0.602  12.081  -4.514  1.00  0.00     0.008 A 
ATOM     13  C   UNL     1       3.328  12.567  -4.913  1.00  0.00     0.046 A 
ATOM     14  C   UNL     1       1.012  13.079  -5.403  1.00  0.00     0.046 A 
ATOM     15  C   UNL     1       2.377  13.325  -5.605  1.00  0.00     0.115 A 
BRANCH  15  16
ATOM     16  O   UNL     1       2.797  14.316  -6.489  1.00  0.00    -0.508 OA
ATOM     17  H   UNL     1       3.747  14.343  -6.840  1.00  0.00     0.293 HD
ENDBRANCH  15  16
ENDBRANCH   1  10
TORSDOF 5
ENDMDL
MODEL 9
REMARK VINA RESULT:    -3.860      2.547      5.240
REMARK INTER + INTRA:          -4.972
REMARK INTER:                  -4.728
REMARK INTRA:                  -0.245
REMARK UNBOUND:                -0.210
REMARK SMILES [NH3+][C@@H](Cc1ccc(O)cc1)C(=O)[O-]
REMARK SMILES IDX 3 1 2 2 1 3 11 7 12 8 13 9 4 10 5 11 10 12 6 13 9 14 7 15
REMARK SMILES IDX 8 16
REMARK H PARENT 1 4 1 5 1 6 8 17
REMARK Flexibility Score: inf
ROOT
ATOM      1  C   UNL     1       2.297  13.898  -5.790  1.00  0.00     0.107 C 
ENDROOT
BRANCH   1   2
ATOM      2  C   UNL     1       1.247  15.010  -5.596  1.00  0.00     0.232 C 
BRANCH   2   3
ATOM      3  N   UNL     1       1.517  16.134  -6.500  1.00  0.00    -0.350 N 
ATOM      4  H   UNL     1       2.097  16.863  -6.022  1.00  0.00     0.345 HD
ATOM      5  H   UNL     1       0.615  16.563  -6.812  1.00  0.00     0.345 HD
ATOM      6  H   UNL     1       2.026  15.793  -7.347  1.00  0.00     0.345 HD
ENDBRANCH   2   3
BRANCH   2   7
ATOM      7  C   UNL     1       1.228  15.490  -4.167  1.00  0.00     0.099 C 
ATOM      8  O   UNL     1       0.168  15.420  -3.490  1.00  0.00    -0.544 OA
ATOM      9  O   UNL     1       2.383  15.993  -3.580  1.00  0.00    -0.544 OA
ENDBRANCH   2   7
ENDBRANCH   1   2
BRANCH   1  10
ATOM     10  C   UNL     1       1.932  12.645  -5.033  1.00  0.00    -0.041 A 
ATOM     11  C   UNL     1       0.645  12.094  -5.149  1.00  0.00     0.008 A 
ATOM     12  C   UNL     1       2.890  11.993  -4.241  1.00  0.00     0.008 A 
ATOM     13  C   UNL     1       0.318  10.916  -4.470  1.00  0.00     0.046 A 
ATOM     14  C   UNL     1       2.561  10.816  -3.562  1.00  0.00     0.046 A 
ATOM     15  C   UNL     1       1.274  10.275  -3.674  1.00  0.00     0.115 A 
BRANCH  15  16
ATOM     16  O   UNL     1       0.934   9.102  -3.003  1.00  0.00    -0.508 OA
ATOM     17  H   UNL     1       1.114   8.190  -3.407  1.00  0.00     0.293 HD
ENDBRANCH  15  16
ENDBRANCH   1  10
TORSDOF 5
ENDMDL
