MODEL 1
REMARK VINA RESULT:    -3.673      0.000      0.000
REMARK INTER + INTRA:          -4.580
REMARK INTER:                  -4.532
REMARK INTRA:                  -0.049
REMARK UNBOUND:                -0.049
REMARK SMILES CCCCCC(=O)[O-]
REMARK SMILES IDX 4 1 5 2 6 3 7 4 8 5 3 6 2 7 1 8
REMARK H PARENT
REMARK Flexibility Score: inf
ROOT
ATOM      1  C   UNL     1     -18.498  -0.640  29.943  1.00  0.00     0.006 C 
ENDROOT
BRANCH   1   2
ATOM      2  C   UNL     1     -17.598  -1.765  30.463  1.00  0.00     0.053 C 
BRANCH   2   3
ATOM      3  C   UNL     1     -16.766  -1.282  31.609  1.00  0.00     0.041 C 
ATOM      4  O   UNL     1     -17.195  -1.381  32.789  1.00  0.00    -0.550 OA
ATOM      5  O   UNL     1     -15.538  -0.678  31.372  1.00  0.00    -0.550 OA
ENDBRANCH   2   3
ENDBRANCH   1   2
BRANCH   1   6
ATOM      6  C   UNL     1     -18.549  -0.641  28.411  1.00  0.00     0.000 C 
BRANCH   6   7
ATOM      7  C   UNL     1     -18.505   0.789  27.859  1.00  0.00    -0.003 C 
ATOM      8  C   UNL     1     -19.561   0.994  26.777  1.00  0.00     0.004 C 
ENDBRANCH   6   7
ENDBRANCH   1   6
TORSDOF 4
ENDMDL
MODEL 2
REMARK VINA RESULT:    -3.655      3.396      4.995
REMARK INTER + INTRA:          -4.559
REMARK INTER:                  -4.496
REMARK INTRA:                  -0.063
REMARK UNBOUND:                -0.049
REMARK SMILES CCCCCC(=O)[O-]
REMARK SMILES IDX 4 1 5 2 6 3 7 4 8 5 3 6 2 7 1 8
REMARK H PARENT
REMARK Flexibility Score: inf
ROOT
ATOM      1  C   UNL     1     -18.516  -0.945  28.783  1.00  0.00     0.006 C 
ENDROOT
BRANCH   1   2
ATOM      2  C   UNL     1     -18.432   0.450  28.157  1.00  0.00     0.053 C 
BRANCH   2   3
ATOM      3  C   UNL     1     -19.665   0.742  27.361  1.00  0.00     0.041 C 
ATOM      4  O   UNL     1     -19.891   0.118  26.291  1.00  0.00    -0.550 OA
ATOM      5  O   UNL     1     -20.540   1.739  27.775  1.00  0.00    -0.550 OA
ENDBRANCH   2   3
ENDBRANCH   1   2
BRANCH   1   6
ATOM      6  C   UNL     1     -18.485  -0.863  30.314  1.00  0.00     0.000 C 
BRANCH   6   7
ATOM      7  C   UNL     1     -17.105  -1.250  30.858  1.00  0.00    -0.003 C 
ATOM      8  C   UNL     1     -17.080  -1.199  32.383  1.00  0.00     0.004 C 
ENDBRANCH   6   7
ENDBRANCH   1   6
TORSDOF 4
ENDMDL
MODEL 3
REMARK VINA RESULT:    -3.648      2.741      4.748
REMARK INTER + INTRA:          -4.550
REMARK INTER:                  -4.490
REMARK INTRA:                  -0.060
REMARK UNBOUND:                -0.049
REMARK SMILES CCCCCC(=O)[O-]
REMARK SMILES IDX 4 1 5 2 6 3 7 4 8 5 3 6 2 7 1 8
REMARK H PARENT
REMARK Flexibility Score: inf
ROOT
ATOM      1  C   UNL     1     -18.480  -0.879  30.335  1.00  0.00     0.006 C 
ENDROOT
BRANCH   1   2
ATOM      2  C   UNL     1     -18.504  -0.844  28.804  1.00  0.00     0.053 C 
BRANCH   2   3
ATOM      3  C   UNL     1     -18.811   0.537  28.317  1.00  0.00     0.041 C 
ATOM      4  O   UNL     1     -17.942   1.193  27.683  1.00  0.00    -0.550 OA
ATOM      5  O   UNL     1     -20.038   1.120  28.605  1.00  0.00    -0.550 OA
ENDBRANCH   2   3
ENDBRANCH   1   2
BRANCH   1   6
ATOM      6  C   UNL     1     -17.133  -1.400  30.851  1.00  0.00     0.000 C 
BRANCH   6   7
ATOM      7  C   UNL     1     -17.041  -1.270  32.375  1.00  0.00    -0.003 C 
ATOM      8  C   UNL     1     -17.276  -2.614  33.058  1.00  0.00     0.004 C 
ENDBRANCH   6   7
ENDBRANCH   1   6
TORSDOF 4
ENDMDL
MODEL 4
REMARK VINA RESULT:    -3.590     14.118     14.882
REMARK INTER + INTRA:          -4.479
REMARK INTER:                  -4.369
REMARK INTRA:                  -0.109
REMARK UNBOUND:                -0.049
REMARK SMILES CCCCCC(=O)[O-]
REMARK SMILES IDX 4 1 5 2 6 3 7 4 8 5 3 6 2 7 1 8
REMARK H PARENT
REMARK Flexibility Score: inf
ROOT
ATOM      1  C   UNL     1      -5.061   4.614  31.817  1.00  0.00     0.006 C 
ENDROOT
BRANCH   1   2
ATOM      2  C   UNL     1      -5.050   6.131  32.021  1.00  0.00     0.053 C 
BRANCH   2   3
ATOM      3  C   UNL     1      -5.710   6.820  30.868  1.00  0.00     0.041 C 
ATOM      4  O   UNL     1      -6.230   7.956  31.022  1.00  0.00    -0.550 OA
ATOM      5  O   UNL     1      -5.793   6.185  29.635  1.00  0.00    -0.550 OA
ENDBRANCH   2   3
ENDBRANCH   1   2
BRANCH   1   6
ATOM      6  C   UNL     1      -3.875   3.954  32.531  1.00  0.00     0.000 C 
BRANCH   6   7
ATOM      7  C   UNL     1      -3.966   4.155  34.047  1.00  0.00    -0.003 C 
ATOM      8  C   UNL     1      -4.990   3.209  34.668  1.00  0.00     0.004 C 
ENDBRANCH   6   7
ENDBRANCH   1   6
TORSDOF 4
ENDMDL
MODEL 5
REMARK VINA RESULT:    -3.528     14.048     14.513
REMARK INTER + INTRA:          -4.401
REMARK INTER:                  -4.263
REMARK INTRA:                  -0.139
REMARK UNBOUND:                -0.049
REMARK SMILES CCCCCC(=O)[O-]
REMARK SMILES IDX 4 1 5 2 6 3 7 4 8 5 3 6 2 7 1 8
REMARK H PARENT
REMARK Flexibility Score: inf
ROOT
ATOM      1  C   UNL     1      -4.961   4.385  31.650  1.00  0.00     0.006 C 
ENDROOT
BRANCH   1   2
ATOM      2  C   UNL     1      -3.884   3.973  32.658  1.00  0.00     0.053 C 
BRANCH   2   3
ATOM      3  C   UNL     1      -4.408   4.076  34.055  1.00  0.00     0.041 C 
ATOM      4  O   UNL     1      -4.785   3.042  34.668  1.00  0.00    -0.550 OA
ATOM      5  O   UNL     1      -4.526   5.319  34.664  1.00  0.00    -0.550 OA
ENDBRANCH   2   3
ENDBRANCH   1   2
BRANCH   1   6
ATOM      6  C   UNL     1      -4.596   5.706  30.963  1.00  0.00     0.000 C 
BRANCH   6   7
ATOM      7  C   UNL     1      -5.371   6.877  31.577  1.00  0.00    -0.003 C 
ATOM      8  C   UNL     1      -5.804   7.874  30.506  1.00  0.00     0.004 C 
ENDBRANCH   6   7
ENDBRANCH   1   6
TORSDOF 4
ENDMDL
MODEL 6
REMARK VINA RESULT:    -3.507      4.419      5.692
REMARK INTER + INTRA:          -4.376
REMARK INTER:                  -4.173
REMARK INTRA:                  -0.202
REMARK UNBOUND:                -0.049
REMARK SMILES CCCCCC(=O)[O-]
REMARK SMILES IDX 4 1 5 2 6 3 7 4 8 5 3 6 2 7 1 8
REMARK H PARENT
REMARK Flexibility Score: inf
ROOT
ATOM      1  C   UNL     1     -19.843   1.229  27.225  1.00  0.00     0.006 C 
ENDROOT
BRANCH   1   2
ATOM      2  C   UNL     1     -20.395   0.279  26.158  1.00  0.00     0.053 C 
BRANCH   2   3
ATOM      3  C   UNL     1     -21.866   0.080  26.344  1.00  0.00     0.041 C 
ATOM      4  O   UNL     1     -22.305  -0.454  27.396  1.00  0.00    -0.550 OA
ATOM      5  O   UNL     1     -22.750   0.439  25.334  1.00  0.00    -0.550 OA
ENDBRANCH   2   3
ENDBRANCH   1   2
BRANCH   1   6
ATOM      6  C   UNL     1     -18.467   0.766  27.716  1.00  0.00     0.000 C 
BRANCH   6   7
ATOM      7  C   UNL     1     -18.603  -0.313  28.797  1.00  0.00    -0.003 C 
ATOM      8  C   UNL     1     -19.694   0.048  29.801  1.00  0.00     0.004 C 
ENDBRANCH   6   7
ENDBRANCH   1   6
TORSDOF 4
ENDMDL
MODEL 7
REMARK VINA RESULT:    -3.503      2.568      3.570
REMARK INTER + INTRA:          -4.371
REMARK INTER:                  -4.130
REMARK INTRA:                  -0.240
REMARK UNBOUND:                -0.049
REMARK SMILES CCCCCC(=O)[O-]
REMARK SMILES IDX 4 1 5 2 6 3 7 4 8 5 3 6 2 7 1 8
REMARK H PARENT
REMARK Flexibility Score: inf
ROOT
ATOM      1  C   UNL     1     -19.564   1.303  27.077  1.00  0.00     0.006 C 
ENDROOT
BRANCH   1   2
ATOM      2  C   UNL     1     -18.358   0.776  27.861  1.00  0.00     0.053 C 
BRANCH   2   3
ATOM      3  C   UNL     1     -18.793  -0.243  28.866  1.00  0.00     0.041 C 
ATOM      4  O   UNL     1     -19.567   0.083  29.804  1.00  0.00    -0.550 OA
ATOM      5  O   UNL     1     -18.303  -1.541  28.797  1.00  0.00    -0.550 OA
ENDBRANCH   2   3
ENDBRANCH   1   2
BRANCH   1   6
ATOM      6  C   UNL     1     -20.199   0.193  26.232  1.00  0.00     0.000 C 
BRANCH   6   7
ATOM      7  C   UNL     1     -21.710   0.407  26.090  1.00  0.00    -0.003 C 
ATOM      8  C   UNL     1     -22.403   0.365  27.449  1.00  0.00     0.004 C 
ENDBRANCH   6   7
ENDBRANCH   1   6
TORSDOF 4
ENDMDL
MODEL 8
REMARK VINA RESULT:    -3.396     13.403     14.042
REMARK INTER + INTRA:          -4.239
REMARK INTER:                  -4.023
REMARK INTRA:                  -0.216
REMARK UNBOUND:                -0.049
REMARK SMILES CCCCCC(=O)[O-]
REMARK SMILES IDX 4 1 5 2 6 3 7 4 8 5 3 6 2 7 1 8
REMARK H PARENT
REMARK Flexibility Score: inf
ROOT
ATOM      1  C   UNL     1      -5.097   7.225  28.700  1.00  0.00     0.006 C 
ENDROOT
BRANCH   1   2
ATOM      2  C   UNL     1      -4.727   6.623  30.059  1.00  0.00     0.053 C 
BRANCH   2   3
ATOM      3  C   UNL     1      -5.543   7.245  31.147  1.00  0.00     0.041 C 
ATOM      4  O   UNL     1      -5.351   6.919  32.348  1.00  0.00    -0.550 OA
ATOM      5  O   UNL     1      -6.549   8.149  30.831  1.00  0.00    -0.550 OA
ENDBRANCH   2   3
ENDBRANCH   1   2
BRANCH   1   6
ATOM      6  C   UNL     1      -5.921   6.237  27.867  1.00  0.00     0.000 C 
BRANCH   6   7
ATOM      7  C   UNL     1      -7.195   6.899  27.330  1.00  0.00    -0.003 C 
ATOM      8  C   UNL     1      -8.390   6.611  28.235  1.00  0.00     0.004 C 
ENDBRANCH   6   7
ENDBRANCH   1   6
TORSDOF 4
ENDMDL
MODEL 9
REMARK VINA RESULT:    -3.391     15.665     16.593
REMARK INTER + INTRA:          -4.232
REMARK INTER:                  -4.023
REMARK INTRA:                  -0.209
REMARK UNBOUND:                -0.049
REMARK SMILES CCCCCC(=O)[O-]
REMARK SMILES IDX 4 1 5 2 6 3 7 4 8 5 3 6 2 7 1 8
REMARK H PARENT
REMARK Flexibility Score: inf
ROOT
ATOM      1  C   UNL     1      -4.753   8.529  22.999  1.00  0.00     0.006 C 
ENDROOT
BRANCH   1   2
ATOM      2  C   UNL     1      -5.903   7.608  23.416  1.00  0.00     0.053 C 
BRANCH   2   3
ATOM      3  C   UNL     1      -6.017   7.556  24.907  1.00  0.00     0.041 C 
ATOM      4  O   UNL     1      -6.507   8.529  25.540  1.00  0.00    -0.550 OA
ATOM      5  O   UNL     1      -5.538   6.454  25.603  1.00  0.00    -0.550 OA
ENDBRANCH   2   3
ENDBRANCH   1   2
BRANCH   1   6
ATOM      6  C   UNL     1      -5.285   9.813  22.351  1.00  0.00     0.000 C 
BRANCH   6   7
ATOM      7  C   UNL     1      -5.206  10.994  23.326  1.00  0.00    -0.003 C 
ATOM      8  C   UNL     1      -6.544  11.723  23.417  1.00  0.00     0.004 C 
ENDBRANCH   6   7
ENDBRANCH   1   6
TORSDOF 4
ENDMDL
