MODEL 1
REMARK VINA RESULT:    -3.438      0.000      0.000
REMARK INTER + INTRA:          -4.796
REMARK INTER:                  -4.442
REMARK INTRA:                  -0.353
REMARK UNBOUND:                -0.353
REMARK SMILES CCCCCCC(=O)[O-]
REMARK SMILES IDX 5 1 6 2 7 3 8 4 9 5 4 6 3 7 2 8 1 9
REMARK H PARENT
REMARK Flexibility Score: inf
ROOT
ATOM      1  C   UNL     1     160.777 177.350 187.572  1.00  0.00     0.006 C 
ENDROOT
BRANCH   1   2
ATOM      2  C   UNL     1     160.522 178.269 186.370  1.00  0.00     0.053 C 
BRANCH   2   3
ATOM      3  C   UNL     1     160.482 177.502 185.084  1.00  0.00     0.041 C 
ATOM      4  O   UNL     1     160.328 176.253 185.096  1.00  0.00    -0.550 OA
ATOM      5  O   UNL     1     160.584 178.172 183.872  1.00  0.00    -0.550 OA
ENDBRANCH   2   3
ENDBRANCH   1   2
BRANCH   1   6
ATOM      6  C   UNL     1     162.124 177.643 188.252  1.00  0.00     0.000 C 
BRANCH   6   7
ATOM      7  C   UNL     1     163.203 176.659 187.780  1.00  0.00    -0.000 C 
BRANCH   7   8
ATOM      8  C   UNL     1     164.063 177.276 186.672  1.00  0.00    -0.003 C 
ATOM      9  C   UNL     1     164.231 178.778 186.874  1.00  0.00     0.004 C 
ENDBRANCH   7   8
ENDBRANCH   6   7
ENDBRANCH   1   6
TORSDOF 5
ENDMDL
MODEL 2
REMARK VINA RESULT:    -3.402      1.456      2.439
REMARK INTER + INTRA:          -4.750
REMARK INTER:                  -4.335
REMARK INTRA:                  -0.414
REMARK UNBOUND:                -0.353
REMARK SMILES CCCCCCC(=O)[O-]
REMARK SMILES IDX 5 1 6 2 7 3 8 4 9 5 4 6 3 7 2 8 1 9
REMARK H PARENT
REMARK Flexibility Score: inf
ROOT
ATOM      1  C   UNL     1     161.452 178.205 186.578  1.00  0.00     0.006 C 
ENDROOT
BRANCH   1   2
ATOM      2  C   UNL     1     160.199 178.269 185.694  1.00  0.00     0.053 C 
BRANCH   2   3
ATOM      3  C   UNL     1     160.382 177.512 184.415  1.00  0.00     0.041 C 
ATOM      4  O   UNL     1     160.074 176.293 184.350  1.00  0.00    -0.550 OA
ATOM      5  O   UNL     1     160.865 178.162 183.287  1.00  0.00    -0.550 OA
ENDBRANCH   2   3
ENDBRANCH   1   2
BRANCH   1   6
ATOM      6  C   UNL     1     161.245 177.316 187.814  1.00  0.00     0.000 C 
BRANCH   6   7
ATOM      7  C   UNL     1     162.179 176.100 187.779  1.00  0.00    -0.000 C 
BRANCH   7   8
ATOM      8  C   UNL     1     161.445 174.858 187.263  1.00  0.00    -0.003 C 
ATOM      9  C   UNL     1     159.966 174.897 187.631  1.00  0.00     0.004 C 
ENDBRANCH   7   8
ENDBRANCH   6   7
ENDBRANCH   1   6
TORSDOF 5
ENDMDL
MODEL 3
REMARK VINA RESULT:    -3.336      2.281      3.726
REMARK INTER + INTRA:          -4.664
REMARK INTER:                  -4.319
REMARK INTRA:                  -0.345
REMARK UNBOUND:                -0.353
REMARK SMILES CCCCCCC(=O)[O-]
REMARK SMILES IDX 5 1 6 2 7 3 8 4 9 5 4 6 3 7 2 8 1 9
REMARK H PARENT
REMARK Flexibility Score: inf
ROOT
ATOM      1  C   UNL     1     163.051 177.389 187.645  1.00  0.00     0.006 C 
ENDROOT
BRANCH   1   2
ATOM      2  C   UNL     1     163.726 178.661 187.117  1.00  0.00     0.053 C 
BRANCH   2   3
ATOM      3  C   UNL     1     164.457 178.409 185.834  1.00  0.00     0.041 C 
ATOM      4  O   UNL     1     163.818 178.176 184.775  1.00  0.00    -0.550 OA
ATOM      5  O   UNL     1     165.845 178.463 185.803  1.00  0.00    -0.550 OA
ENDBRANCH   2   3
ENDBRANCH   1   2
BRANCH   1   6
ATOM      6  C   UNL     1     161.613 177.647 188.117  1.00  0.00     0.000 C 
BRANCH   6   7
ATOM      7  C   UNL     1     160.736 178.144 186.961  1.00  0.00    -0.000 C 
BRANCH   7   8
ATOM      8  C   UNL     1     160.656 177.099 185.842  1.00  0.00    -0.003 C 
ATOM      9  C   UNL     1     160.233 177.735 184.522  1.00  0.00     0.004 C 
ENDBRANCH   7   8
ENDBRANCH   6   7
ENDBRANCH   1   6
TORSDOF 5
ENDMDL
MODEL 4
REMARK VINA RESULT:    -3.328     11.774     13.460
REMARK INTER + INTRA:          -4.654
REMARK INTER:                  -4.337
REMARK INTRA:                  -0.316
REMARK UNBOUND:                -0.353
REMARK SMILES CCCCCCC(=O)[O-]
REMARK SMILES IDX 5 1 6 2 7 3 8 4 9 5 4 6 3 7 2 8 1 9
REMARK H PARENT
REMARK Flexibility Score: inf
ROOT
ATOM      1  C   UNL     1     175.201 178.762 188.246  1.00  0.00     0.006 C 
ENDROOT
BRANCH   1   2
ATOM      2  C   UNL     1     175.228 177.643 187.197  1.00  0.00     0.053 C 
BRANCH   2   3
ATOM      3  C   UNL     1     176.447 177.726 186.330  1.00  0.00     0.041 C 
ATOM      4  O   UNL     1     177.580 177.443 186.801  1.00  0.00    -0.550 OA
ATOM      5  O   UNL     1     176.326 178.085 184.994  1.00  0.00    -0.550 OA
ENDBRANCH   2   3
ENDBRANCH   1   2
BRANCH   1   6
ATOM      6  C   UNL     1     174.585 180.058 187.697  1.00  0.00     0.000 C 
BRANCH   6   7
ATOM      7  C   UNL     1     173.363 179.758 186.820  1.00  0.00    -0.000 C 
BRANCH   7   8
ATOM      8  C   UNL     1     172.065 179.874 187.626  1.00  0.00    -0.003 C 
ATOM      9  C   UNL     1     171.165 178.664 187.400  1.00  0.00     0.004 C 
ENDBRANCH   7   8
ENDBRANCH   6   7
ENDBRANCH   1   6
TORSDOF 5
ENDMDL
MODEL 5
REMARK VINA RESULT:    -3.240      2.947      4.111
REMARK INTER + INTRA:          -4.541
REMARK INTER:                  -4.343
REMARK INTRA:                  -0.197
REMARK UNBOUND:                -0.353
REMARK SMILES CCCCCCC(=O)[O-]
REMARK SMILES IDX 5 1 6 2 7 3 8 4 9 5 4 6 3 7 2 8 1 9
REMARK H PARENT
REMARK Flexibility Score: inf
ROOT
ATOM      1  C   UNL     1     162.475 177.868 187.965  1.00  0.00     0.006 C 
ENDROOT
BRANCH   1   2
ATOM      2  C   UNL     1     163.041 178.115 186.560  1.00  0.00     0.053 C 
BRANCH   2   3
ATOM      3  C   UNL     1     164.342 178.855 186.608  1.00  0.00     0.041 C 
ATOM      4  O   UNL     1     164.491 179.824 187.398  1.00  0.00    -0.550 OA
ATOM      5  O   UNL     1     165.400 178.454 185.802  1.00  0.00    -0.550 OA
ENDBRANCH   2   3
ENDBRANCH   1   2
BRANCH   1   6
ATOM      6  C   UNL     1     161.015 177.392 187.928  1.00  0.00     0.000 C 
BRANCH   6   7
ATOM      7  C   UNL     1     160.790 176.396 186.783  1.00  0.00    -0.000 C 
BRANCH   7   8
ATOM      8  C   UNL     1     160.177 175.091 187.301  1.00  0.00    -0.003 C 
ATOM      9  C   UNL     1     161.212 173.971 187.336  1.00  0.00     0.004 C 
ENDBRANCH   7   8
ENDBRANCH   6   7
ENDBRANCH   1   6
TORSDOF 5
ENDMDL
MODEL 6
REMARK VINA RESULT:    -3.232      2.385      3.514
REMARK INTER + INTRA:          -4.530
REMARK INTER:                  -4.234
REMARK INTRA:                  -0.296
REMARK UNBOUND:                -0.353
REMARK SMILES CCCCCCC(=O)[O-]
REMARK SMILES IDX 5 1 6 2 7 3 8 4 9 5 4 6 3 7 2 8 1 9
REMARK H PARENT
REMARK Flexibility Score: inf
ROOT
ATOM      1  C   UNL     1     161.270 175.834 187.417  1.00  0.00     0.006 C 
ENDROOT
BRANCH   1   2
ATOM      2  C   UNL     1     160.101 174.852 187.565  1.00  0.00     0.053 C 
BRANCH   2   3
ATOM      3  C   UNL     1     160.138 173.784 186.514  1.00  0.00     0.041 C 
ATOM      4  O   UNL     1     160.348 172.585 186.836  1.00  0.00    -0.550 OA
ATOM      5  O   UNL     1     159.909 174.110 185.184  1.00  0.00    -0.550 OA
ENDBRANCH   2   3
ENDBRANCH   1   2
BRANCH   1   6
ATOM      6  C   UNL     1     160.899 177.252 187.878  1.00  0.00     0.000 C 
BRANCH   6   7
ATOM      7  C   UNL     1     161.029 178.256 186.726  1.00  0.00    -0.000 C 
BRANCH   7   8
ATOM      8  C   UNL     1     161.236 177.536 185.389  1.00  0.00    -0.003 C 
ATOM      9  C   UNL     1     160.068 177.785 184.441  1.00  0.00     0.004 C 
ENDBRANCH   7   8
ENDBRANCH   6   7
ENDBRANCH   1   6
TORSDOF 5
ENDMDL
MODEL 7
REMARK VINA RESULT:    -3.189      8.717     10.265
REMARK INTER + INTRA:          -4.475
REMARK INTER:                  -4.227
REMARK INTRA:                  -0.247
REMARK UNBOUND:                -0.353
REMARK SMILES CCCCCCC(=O)[O-]
REMARK SMILES IDX 5 1 6 2 7 3 8 4 9 5 4 6 3 7 2 8 1 9
REMARK H PARENT
REMARK Flexibility Score: inf
ROOT
ATOM      1  C   UNL     1     171.160 180.106 187.493  1.00  0.00     0.006 C 
ENDROOT
BRANCH   1   2
ATOM      2  C   UNL     1     170.431 178.962 186.776  1.00  0.00     0.053 C 
BRANCH   2   3
ATOM      3  C   UNL     1     170.014 179.353 185.391  1.00  0.00     0.041 C 
ATOM      4  O   UNL     1     168.796 179.363 185.074  1.00  0.00    -0.550 OA
ATOM      5  O   UNL     1     170.971 179.736 184.460  1.00  0.00    -0.550 OA
ENDBRANCH   2   3
ENDBRANCH   1   2
BRANCH   1   6
ATOM      6  C   UNL     1     172.675 179.864 187.581  1.00  0.00     0.000 C 
BRANCH   6   7
ATOM      7  C   UNL     1     172.998 178.367 187.490  1.00  0.00    -0.000 C 
BRANCH   7   8
ATOM      8  C   UNL     1     174.437 178.087 187.936  1.00  0.00    -0.003 C 
ATOM      9  C   UNL     1     175.183 179.382 188.240  1.00  0.00     0.004 C 
ENDBRANCH   7   8
ENDBRANCH   6   7
ENDBRANCH   1   6
TORSDOF 5
ENDMDL
MODEL 8
REMARK VINA RESULT:    -3.159      1.161      2.400
REMARK INTER + INTRA:          -4.435
REMARK INTER:                  -3.999
REMARK INTRA:                  -0.436
REMARK UNBOUND:                -0.353
REMARK SMILES CCCCCCC(=O)[O-]
REMARK SMILES IDX 5 1 6 2 7 3 8 4 9 5 4 6 3 7 2 8 1 9
REMARK H PARENT
REMARK Flexibility Score: inf
ROOT
ATOM      1  C   UNL     1     162.949 176.758 185.767  1.00  0.00     0.006 C 
ENDROOT
BRANCH   1   2
ATOM      2  C   UNL     1     162.349 176.971 184.371  1.00  0.00     0.053 C 
BRANCH   2   3
ATOM      3  C   UNL     1     160.860 177.118 184.424  1.00  0.00     0.041 C 
ATOM      4  O   UNL     1     160.134 176.125 184.693  1.00  0.00    -0.550 OA
ATOM      5  O   UNL     1     160.276 178.359 184.208  1.00  0.00    -0.550 OA
ENDBRANCH   2   3
ENDBRANCH   1   2
BRANCH   1   6
ATOM      6  C   UNL     1     163.062 178.070 186.557  1.00  0.00     0.000 C 
BRANCH   6   7
ATOM      7  C   UNL     1     162.623 177.875 188.013  1.00  0.00    -0.000 C 
BRANCH   7   8
ATOM      8  C   UNL     1     161.157 177.435 188.092  1.00  0.00    -0.003 C 
ATOM      9  C   UNL     1     160.215 178.596 187.791  1.00  0.00     0.004 C 
ENDBRANCH   7   8
ENDBRANCH   6   7
ENDBRANCH   1   6
TORSDOF 5
ENDMDL
MODEL 9
REMARK VINA RESULT:    -3.090      2.164      2.968
REMARK INTER + INTRA:          -4.347
REMARK INTER:                  -4.156
REMARK INTRA:                  -0.191
REMARK UNBOUND:                -0.353
REMARK SMILES CCCCCCC(=O)[O-]
REMARK SMILES IDX 5 1 6 2 7 3 8 4 9 5 4 6 3 7 2 8 1 9
REMARK H PARENT
REMARK Flexibility Score: inf
ROOT
ATOM      1  C   UNL     1     160.699 176.406 186.856  1.00  0.00     0.006 C 
ENDROOT
BRANCH   1   2
ATOM      2  C   UNL     1     160.445 175.052 187.532  1.00  0.00     0.053 C 
BRANCH   2   3
ATOM      3  C   UNL     1     160.225 173.963 186.527  1.00  0.00     0.041 C 
ATOM      4  O   UNL     1     160.037 174.248 185.315  1.00  0.00    -0.550 OA
ATOM      5  O   UNL     1     160.259 172.633 186.925  1.00  0.00    -0.550 OA
ENDBRANCH   2   3
ENDBRANCH   1   2
BRANCH   1   6
ATOM      6  C   UNL     1     160.945 177.528 187.876  1.00  0.00     0.000 C 
BRANCH   6   7
ATOM      7  C   UNL     1     162.409 177.541 188.336  1.00  0.00    -0.000 C 
BRANCH   7   8
ATOM      8  C   UNL     1     163.307 178.212 187.291  1.00  0.00    -0.003 C 
ATOM      9  C   UNL     1     164.509 177.336 186.953  1.00  0.00     0.004 C 
ENDBRANCH   7   8
ENDBRANCH   6   7
ENDBRANCH   1   6
TORSDOF 5
ENDMDL
