MODEL 1
REMARK VINA RESULT:    37.173      0.000      0.000
REMARK INTER + INTRA:          40.800
REMARK INTER:                  40.433
REMARK INTRA:                   0.366
REMARK UNBOUND:                 0.366
REMARK SMILES C[C@H]1[C@H](C)CC[C@@]2(C(=O)[O-])CC[C@@]3(C)C(=CC[C@@H]4[C@@]5(C)CC[C@H](O)C(C)(C)[C@H]5CC[C@@]43C)[C@H]12
REMARK SMILES IDX 7 1 6 2 11 3 33 4 5 5 12 6 15 7 2 8 3 9 13 10 16 11 1 12
REMARK SMILES IDX 4 13 14 14 31 15 17 16 18 17 30 18 32 19 19 20 29 21 28 22
REMARK SMILES IDX 21 23 20 24 25 25 22 26 23 27 26 28 27 29 8 30 9 31 10 32
REMARK SMILES IDX 24 33
REMARK H PARENT 24 34
REMARK Flexibility Score: inf
ROOT
ATOM      1  C   UNL     1       4.700 175.530  45.302  1.00  0.00     0.017 C 
ATOM      2  C   UNL     1       3.437 175.030  44.485  1.00  0.00     0.014 C 
ATOM      3  C   UNL     1       5.171 174.375  46.209  1.00  0.00     0.014 C 
ATOM      4  C   UNL     1       5.849 175.967  44.308  1.00  0.00     0.030 C 
ATOM      5  C   UNL     1       3.555 175.181  42.965  1.00  0.00     0.004 C 
ATOM      6  C   UNL     1       6.403 174.760  47.037  1.00  0.00     0.013 C 
ATOM      7  C   UNL     1       7.192 176.200  45.049  1.00  0.00    -0.063 C 
ATOM      8  C   UNL     1       5.244 177.130  43.413  1.00  0.00    -0.003 C 
ATOM      9  C   UNL     1       4.038 176.594  42.561  1.00  0.00    -0.011 C 
ATOM     10  C   UNL     1       7.622 175.227  46.171  1.00  0.00    -0.006 C 
ATOM     11  C   UNL     1       8.236 176.703  44.364  1.00  0.00    -0.027 C 
ATOM     12  C   UNL     1       6.191 177.918  42.489  1.00  0.00     0.008 C 
ATOM     13  C   UNL     1       2.876 177.599  42.579  1.00  0.00     0.008 C 
ATOM     14  C   UNL     1       8.104 173.945  45.415  1.00  0.00     0.017 C 
ATOM     15  C   UNL     1       8.762 175.897  47.119  1.00  0.00    -0.020 C 
ATOM     16  C   UNL     1       9.398 177.345  45.048  1.00  0.00     0.032 C 
ATOM     17  C   UNL     1       9.940 176.587  46.299  1.00  0.00     0.006 C 
ATOM     18  C   UNL     1       9.314 174.836  48.140  1.00  0.00     0.008 C 
ATOM     19  C   UNL     1       8.107 177.042  47.981  1.00  0.00     0.012 C 
ATOM     20  C   UNL     1      11.351 175.855  46.303  1.00  0.00    -0.025 C 
ATOM     21  C   UNL     1      10.685 175.129  48.766  1.00  0.00     0.005 C 
ATOM     22  C   UNL     1      11.810 175.688  47.839  1.00  0.00     0.003 C 
ATOM     23  C   UNL     1      12.458 176.599  45.461  1.00  0.00     0.010 C 
ATOM     24  C   UNL     1      11.302 174.467  45.607  1.00  0.00     0.012 C 
ATOM     25  C   UNL     1      12.604 176.926  48.478  1.00  0.00    -0.006 C 
ATOM     26  C   UNL     1      13.053 177.832  46.110  1.00  0.00     0.033 C 
ATOM     27  C   UNL     1      13.670 177.469  47.470  1.00  0.00     0.120 C 
ATOM     28  C   UNL     1      13.377 176.436  49.755  1.00  0.00     0.014 C 
ATOM     29  C   UNL     1      11.720 178.124  48.942  1.00  0.00     0.014 C 
ENDROOT
BRANCH   1  30
ATOM     30  C   UNL     1       4.266 176.663  46.233  1.00  0.00     0.048 C 
ATOM     31  O   UNL     1       5.011 177.665  46.405  1.00  0.00    -0.550 OA
ATOM     32  O   UNL     1       2.991 176.702  46.794  1.00  0.00    -0.550 OA
ENDBRANCH   1  30
BRANCH  27  33
ATOM     33  O   UNL     1      14.702 176.528  47.292  1.00  0.00    -0.393 OA
ATOM     34  H   UNL     1      15.109 176.696  46.399  1.00  0.00     0.210 HD
ENDBRANCH  27  33
TORSDOF 2
ENDMDL
