MODEL 1
REMARK VINA RESULT:    -2.841      0.000      0.000
REMARK INTER + INTRA:          -4.709
REMARK INTER:                  -4.336
REMARK INTRA:                  -0.373
REMARK UNBOUND:                -0.373
REMARK SMILES CC1=CCC[C@H](C)C(=O)C[C@H](C(C)C)C(=O)C1
REMARK SMILES IDX 8 1 9 2 6 3 7 4 5 5 4 6 3 7 2 8 1 9 10 11 11 12 15 13 16 14
REMARK SMILES IDX 17 15 12 17 13 18 14 19
REMARK H PARENT
REMARK Flexibility Score: 70.00
ROOT
ATOM      1  C   UNL     1     -36.620  -7.951  46.722  1.00  0.00     0.136 C 
ATOM      2  O   UNL     1     -37.575  -8.123  45.976  1.00  0.00    -0.299 OA
ENDROOT
BRANCH   1   3
ATOM      3  C   UNL     1     -35.600  -6.866  46.411  1.00  0.00     0.053 C 
ATOM      4  C   UNL     1     -35.054  -7.024  44.984  1.00  0.00     0.016 C 
BRANCH   3   5
ATOM      5  C   UNL     1     -36.217  -5.460  46.612  1.00  0.00     0.015 C 
BRANCH   5   6
ATOM      6  C   UNL     1     -35.824  -4.832  47.965  1.00  0.00     0.028 C 
BRANCH   6   7
ATOM      7  C   UNL     1     -37.011  -4.730  48.890  1.00  0.00    -0.028 C 
ATOM      8  C   UNL     1     -37.134  -5.398  50.061  1.00  0.00    -0.070 CG0
ATOM      9  C   UNL     1     -38.412  -5.224  50.843  1.00  0.00     0.039 C 
ATOM     10  G   UNL     1     -36.047  -6.309  50.614  1.00  0.00     0.000 G0
ENDBRANCH   6   7
ENDBRANCH   5   6
ENDBRANCH   3   5
ENDBRANCH   1   3
BRANCH   1  11
ATOM     11  C   UNL     1     -36.482  -8.814  47.955  1.00  0.00     0.087 C 
BRANCH  11  12
ATOM     12  C   UNL     1     -35.453  -8.282  48.993  1.00  0.00     0.066 C 
BRANCH  12  13
ATOM     13  C   UNL     1     -36.167  -7.742  50.224  1.00  0.00     0.140 C 
ATOM     14  O   UNL     1     -36.827  -8.499  50.923  1.00  0.00    -0.299 OA
BRANCH  13  15
ATOM     15  C   UNL     1     -36.020  -6.297  50.630  1.00  0.00     0.106 CG0
ATOM     16  G   UNL     1     -37.130  -5.423  50.061  1.00  0.00     0.000 G0
ENDBRANCH  13  15
ENDBRANCH  12  13
BRANCH  12  17
ATOM     17  C   UNL     1     -34.332  -9.304  49.385  1.00  0.00    -0.006 C 
ATOM     18  C   UNL     1     -33.524  -9.796  48.170  1.00  0.00     0.008 C 
ATOM     19  C   UNL     1     -33.360  -8.684  50.406  1.00  0.00     0.008 C 
ENDBRANCH  12  17
ENDBRANCH  11  12
ENDBRANCH   1  11
TORSDOF 1
ENDMDL
MODEL 2
REMARK VINA RESULT:    -2.800      1.732      2.089
REMARK INTER + INTRA:          -4.646
REMARK INTER:                  -4.211
REMARK INTRA:                  -0.436
REMARK UNBOUND:                -0.373
REMARK SMILES CC1=CCC[C@H](C)C(=O)C[C@H](C(C)C)C(=O)C1
REMARK SMILES IDX 8 1 9 2 6 3 7 4 5 5 4 6 3 7 2 8 1 9 10 11 11 12 15 13 16 14
REMARK SMILES IDX 17 15 12 17 13 18 14 19
REMARK H PARENT
REMARK Flexibility Score: 70.00
ROOT
ATOM      1  C   UNL     1     -35.735  -7.459  46.201  1.00  0.00     0.136 C 
ATOM      2  O   UNL     1     -35.882  -7.412  44.987  1.00  0.00    -0.299 OA
ENDROOT
BRANCH   1   3
ATOM      3  C   UNL     1     -34.647  -6.629  46.866  1.00  0.00     0.053 C 
ATOM      4  C   UNL     1     -33.260  -7.029  46.342  1.00  0.00     0.016 C 
BRANCH   3   5
ATOM      5  C   UNL     1     -34.902  -5.117  46.650  1.00  0.00     0.015 C 
BRANCH   5   6
ATOM      6  C   UNL     1     -35.680  -4.477  47.819  1.00  0.00     0.028 C 
BRANCH   6   7
ATOM      7  C   UNL     1     -37.134  -4.282  47.472  1.00  0.00    -0.028 C 
ATOM      8  C   UNL     1     -38.166  -4.888  48.106  1.00  0.00    -0.070 CG0
ATOM      9  C   UNL     1     -39.561  -4.624  47.598  1.00  0.00     0.039 C 
ATOM     10  G   UNL     1     -37.976  -5.817  49.298  1.00  0.00     0.000 G0
ENDBRANCH   6   7
ENDBRANCH   5   6
ENDBRANCH   3   5
ENDBRANCH   1   3
BRANCH   1  11
ATOM     11  C   UNL     1     -36.655  -8.332  47.022  1.00  0.00     0.087 C 
BRANCH  11  12
ATOM     12  C   UNL     1     -36.687  -7.976  48.537  1.00  0.00     0.066 C 
BRANCH  12  13
ATOM     13  C   UNL     1     -37.989  -7.270  48.891  1.00  0.00     0.140 C 
ATOM     14  O   UNL     1     -39.038  -7.899  48.897  1.00  0.00    -0.299 OA
BRANCH  13  15
ATOM     15  C   UNL     1     -37.992  -5.817  49.297  1.00  0.00     0.106 CG0
ATOM     16  G   UNL     1     -38.156  -4.886  48.103  1.00  0.00     0.000 G0
ENDBRANCH  13  15
ENDBRANCH  12  13
BRANCH  12  17
ATOM     17  C   UNL     1     -36.412  -9.182  49.497  1.00  0.00    -0.006 C 
ATOM     18  C   UNL     1     -35.973 -10.453  48.746  1.00  0.00     0.008 C 
ATOM     19  C   UNL     1     -35.328  -8.821  50.531  1.00  0.00     0.008 C 
ENDBRANCH  12  17
ENDBRANCH  11  12
ENDBRANCH   1  11
TORSDOF 1
ENDMDL
MODEL 3
REMARK VINA RESULT:    -2.712     13.553     15.872
REMARK INTER + INTRA:          -4.511
REMARK INTER:                  -4.137
REMARK INTRA:                  -0.374
REMARK UNBOUND:                -0.373
REMARK SMILES CC1=CCC[C@H](C)C(=O)C[C@H](C(C)C)C(=O)C1
REMARK SMILES IDX 8 1 9 2 6 3 7 4 5 5 4 6 3 7 2 8 1 9 10 11 11 12 15 13 16 14
REMARK SMILES IDX 17 15 12 17 13 18 14 19
REMARK H PARENT
REMARK Flexibility Score: 70.00
ROOT
ATOM      1  C   UNL     1     -49.720   0.213  43.659  1.00  0.00     0.136 C 
ATOM      2  O   UNL     1     -49.835   0.067  42.450  1.00  0.00    -0.299 OA
ENDROOT
BRANCH   1   3
ATOM      3  C   UNL     1     -49.851  -0.988  44.584  1.00  0.00     0.053 C 
ATOM      4  C   UNL     1     -50.826  -2.021  44.000  1.00  0.00     0.016 C 
BRANCH   3   5
ATOM      5  C   UNL     1     -48.467  -1.627  44.853  1.00  0.00     0.015 C 
BRANCH   5   6
ATOM      6  C   UNL     1     -47.961  -1.356  46.285  1.00  0.00     0.028 C 
BRANCH   6   7
ATOM      7  C   UNL     1     -46.662  -0.590  46.274  1.00  0.00    -0.028 C 
ATOM      8  C   UNL     1     -46.505   0.669  46.747  1.00  0.00    -0.070 CG0
ATOM      9  C   UNL     1     -45.148   1.311  46.612  1.00  0.00     0.039 C 
ATOM     10  G   UNL     1     -47.634   1.454  47.401  1.00  0.00     0.000 G0
ENDBRANCH   6   7
ENDBRANCH   5   6
ENDBRANCH   3   5
ENDBRANCH   1   3
BRANCH   1  11
ATOM     11  C   UNL     1     -49.428   1.589  44.211  1.00  0.00     0.087 C 
BRANCH  11  12
ATOM     12  C   UNL     1     -49.648   1.718  45.746  1.00  0.00     0.066 C 
BRANCH  12  13
ATOM     13  C   UNL     1     -48.408   2.294  46.416  1.00  0.00     0.140 C 
ATOM     14  O   UNL     1     -48.077   3.450  46.192  1.00  0.00    -0.299 OA
BRANCH  13  15
ATOM     15  C   UNL     1     -47.616   1.474  47.404  1.00  0.00     0.106 CG0
ATOM     16  G   UNL     1     -46.510   0.672  46.731  1.00  0.00     0.000 G0
ENDBRANCH  13  15
ENDBRANCH  12  13
BRANCH  12  17
ATOM     17  C   UNL     1     -50.937   2.509  46.156  1.00  0.00    -0.006 C 
ATOM     18  C   UNL     1     -51.502   3.364  45.007  1.00  0.00     0.008 C 
ATOM     19  C   UNL     1     -52.038   1.545  46.640  1.00  0.00     0.008 C 
ENDBRANCH  12  17
ENDBRANCH  11  12
ENDBRANCH   1  11
TORSDOF 1
ENDMDL
MODEL 4
REMARK VINA RESULT:    -2.709      1.905      3.500
REMARK INTER + INTRA:          -4.506
REMARK INTER:                  -4.681
REMARK INTRA:                   0.174
REMARK UNBOUND:                -0.373
REMARK SMILES CC1=CCC[C@H](C)C(=O)C[C@H](C(C)C)C(=O)C1
REMARK SMILES IDX 8 1 9 2 6 3 7 4 5 5 4 6 3 7 2 8 1 9 10 11 11 12 15 13 16 14
REMARK SMILES IDX 17 15 12 17 13 18 14 19
REMARK H PARENT
REMARK Flexibility Score: 70.00
ROOT
ATOM      1  C   UNL     1     -35.931  -4.633  46.437  1.00  0.00     0.136 C 
ATOM      2  O   UNL     1     -35.286  -3.931  45.670  1.00  0.00    -0.299 OA
ENDROOT
BRANCH   1   3
ATOM      3  C   UNL     1     -36.744  -3.993  47.552  1.00  0.00     0.053 C 
ATOM      4  C   UNL     1     -38.156  -4.595  47.611  1.00  0.00     0.016 C 
BRANCH   3   5
ATOM      5  C   UNL     1     -36.023  -4.146  48.914  1.00  0.00     0.015 C 
BRANCH   5   6
ATOM      6  C   UNL     1     -36.894  -4.867  49.964  1.00  0.00     0.028 C 
BRANCH   6   7
ATOM      7  C   UNL     1     -36.112  -5.931  50.691  1.00  0.00    -0.028 C 
ATOM      8  C   UNL     1     -35.786  -7.138  50.171  1.00  0.00    -0.070 CG0
ATOM      9  C   UNL     1     -35.044  -8.111  51.052  1.00  0.00     0.039 C 
ATOM     10  G   UNL     1     -36.135  -7.549  48.747  1.00  0.00     0.000 G0
ENDBRANCH   6   7
ENDBRANCH   5   6
ENDBRANCH   3   5
ENDBRANCH   1   3
BRANCH   1  11
ATOM     11  C   UNL     1     -35.922  -6.133  46.248  1.00  0.00     0.087 C 
BRANCH  11  12
ATOM     12  C   UNL     1     -34.617  -6.828  46.731  1.00  0.00     0.066 C 
BRANCH  12  13
ATOM     13  C   UNL     1     -34.911  -7.763  47.896  1.00  0.00     0.140 C 
ATOM     14  O   UNL     1     -34.118  -8.652  48.176  1.00  0.00    -0.299 OA
BRANCH  13  15
ATOM     15  C   UNL     1     -36.138  -7.568  48.750  1.00  0.00     0.106 CG0
ATOM     16  G   UNL     1     -35.790  -7.127  50.166  1.00  0.00     0.000 G0
ENDBRANCH  13  15
ENDBRANCH  12  13
BRANCH  12  17
ATOM     17  C   UNL     1     -33.810  -7.556  45.603  1.00  0.00    -0.006 C 
ATOM     18  C   UNL     1     -34.480  -7.442  44.222  1.00  0.00     0.008 C 
ATOM     19  C   UNL     1     -32.379  -6.993  45.505  1.00  0.00     0.008 C 
ENDBRANCH  12  17
ENDBRANCH  11  12
ENDBRANCH   1  11
TORSDOF 1
ENDMDL
MODEL 5
REMARK VINA RESULT:    -2.634      2.806      4.756
REMARK INTER + INTRA:          -4.392
REMARK INTER:                  -4.032
REMARK INTRA:                  -0.360
REMARK UNBOUND:                -0.373
REMARK SMILES CC1=CCC[C@H](C)C(=O)C[C@H](C(C)C)C(=O)C1
REMARK SMILES IDX 8 1 9 2 6 3 7 4 5 5 4 6 3 7 2 8 1 9 10 11 11 12 15 13 16 14
REMARK SMILES IDX 17 15 12 17 13 18 14 19
REMARK H PARENT
REMARK Flexibility Score: 70.00
ROOT
ATOM      1  C   UNL     1     -36.279  -5.514  48.055  1.00  0.00     0.136 C 
ATOM      2  O   UNL     1     -35.417  -4.678  48.290  1.00  0.00    -0.299 OA
ENDROOT
BRANCH   1   3
ATOM      3  C   UNL     1     -36.406  -6.101  46.657  1.00  0.00     0.053 C 
ATOM      4  C   UNL     1     -35.432  -5.415  45.688  1.00  0.00     0.016 C 
BRANCH   3   5
ATOM      5  C   UNL     1     -36.172  -7.631  46.682  1.00  0.00     0.015 C 
BRANCH   5   6
ATOM      6  C   UNL     1     -37.469  -8.430  46.441  1.00  0.00     0.028 C 
BRANCH   6   7
ATOM      7  C   UNL     1     -37.732  -9.406  47.560  1.00  0.00    -0.028 C 
ATOM      8  C   UNL     1     -38.742  -9.298  48.455  1.00  0.00    -0.070 CG0
ATOM      9  C   UNL     1     -38.832 -10.333  49.547  1.00  0.00     0.039 C 
ATOM     10  G   UNL     1     -39.779  -8.184  48.405  1.00  0.00     0.000 G0
ENDBRANCH   6   7
ENDBRANCH   5   6
ENDBRANCH   3   5
ENDBRANCH   1   3
BRANCH   1  11
ATOM     11  C   UNL     1     -37.194  -5.964  49.171  1.00  0.00     0.087 C 
BRANCH  11  12
ATOM     12  C   UNL     1     -38.709  -5.827  48.846  1.00  0.00     0.066 C 
BRANCH  12  13
ATOM     13  C   UNL     1     -39.474  -7.044  49.347  1.00  0.00     0.140 C 
ATOM     14  O   UNL     1     -39.873  -7.076  50.504  1.00  0.00    -0.299 OA
BRANCH  13  15
ATOM     15  C   UNL     1     -39.802  -8.185  48.417  1.00  0.00     0.106 CG0
ATOM     16  G   UNL     1     -38.742  -9.277  48.449  1.00  0.00     0.000 G0
ENDBRANCH  13  15
ENDBRANCH  12  13
BRANCH  12  17
ATOM     17  C   UNL     1     -39.366  -4.495  49.344  1.00  0.00    -0.006 C 
ATOM     18  C   UNL     1     -38.557  -3.815  50.464  1.00  0.00     0.008 C 
ATOM     19  C   UNL     1     -39.530  -3.498  48.181  1.00  0.00     0.008 C 
ENDBRANCH  12  17
ENDBRANCH  11  12
ENDBRANCH   1  11
TORSDOF 1
ENDMDL
MODEL 6
REMARK VINA RESULT:    -2.605     14.245     15.968
REMARK INTER + INTRA:          -4.348
REMARK INTER:                  -3.919
REMARK INTRA:                  -0.429
REMARK UNBOUND:                -0.373
REMARK SMILES CC1=CCC[C@H](C)C(=O)C[C@H](C(C)C)C(=O)C1
REMARK SMILES IDX 8 1 9 2 6 3 7 4 5 5 4 6 3 7 2 8 1 9 10 11 11 12 15 13 16 14
REMARK SMILES IDX 17 15 12 17 13 18 14 19
REMARK H PARENT
REMARK Flexibility Score: 70.00
ROOT
ATOM      1  C   UNL     1     -35.816   5.213  57.053  1.00  0.00     0.136 C 
ATOM      2  O   UNL     1     -37.023   5.322  56.889  1.00  0.00    -0.299 OA
ENDROOT
BRANCH   1   3
ATOM      3  C   UNL     1     -34.855   5.976  56.154  1.00  0.00     0.053 C 
ATOM      4  C   UNL     1     -35.281   5.862  54.683  1.00  0.00     0.016 C 
BRANCH   3   5
ATOM      5  C   UNL     1     -34.761   7.460  56.586  1.00  0.00     0.015 C 
BRANCH   5   6
ATOM      6  C   UNL     1     -33.383   7.814  57.182  1.00  0.00     0.028 C 
BRANCH   6   7
ATOM      7  C   UNL     1     -33.473   8.068  58.665  1.00  0.00    -0.028 C 
ATOM      8  C   UNL     1     -32.994   7.237  59.620  1.00  0.00    -0.070 CG0
ATOM      9  C   UNL     1     -33.213   7.615  61.063  1.00  0.00     0.039 C 
ATOM     10  G   UNL     1     -32.251   5.947  59.299  1.00  0.00     0.000 G0
ENDBRANCH   6   7
ENDBRANCH   5   6
ENDBRANCH   3   5
ENDBRANCH   1   3
BRANCH   1  11
ATOM     11  C   UNL     1     -35.299   4.330  58.167  1.00  0.00     0.087 C 
BRANCH  11  12
ATOM     12  C   UNL     1     -33.758   4.120  58.149  1.00  0.00     0.066 C 
BRANCH  12  13
ATOM     13  C   UNL     1     -33.125   4.714  59.400  1.00  0.00     0.140 C 
ATOM     14  O   UNL     1     -33.293   4.170  60.483  1.00  0.00    -0.299 OA
BRANCH  13  15
ATOM     15  C   UNL     1     -32.238   5.931  59.312  1.00  0.00     0.106 CG0
ATOM     16  G   UNL     1     -32.994   7.217  59.616  1.00  0.00     0.000 G0
ENDBRANCH  13  15
ENDBRANCH  12  13
BRANCH  12  17
ATOM     17  C   UNL     1     -33.304   2.637  57.928  1.00  0.00    -0.006 C 
ATOM     18  C   UNL     1     -34.474   1.640  57.997  1.00  0.00     0.008 C 
ATOM     19  C   UNL     1     -32.600   2.479  56.567  1.00  0.00     0.008 C 
ENDBRANCH  12  17
ENDBRANCH  11  12
ENDBRANCH   1  11
TORSDOF 1
ENDMDL
MODEL 7
REMARK VINA RESULT:    -2.602      2.285      4.325
REMARK INTER + INTRA:          -4.345
REMARK INTER:                  -4.198
REMARK INTRA:                  -0.146
REMARK UNBOUND:                -0.373
REMARK SMILES CC1=CCC[C@H](C)C(=O)C[C@H](C(C)C)C(=O)C1
REMARK SMILES IDX 8 1 9 2 6 3 7 4 5 5 4 6 3 7 2 8 1 9 10 11 11 12 15 13 16 14
REMARK SMILES IDX 17 15 12 17 13 18 14 19
REMARK H PARENT
REMARK Flexibility Score: 70.00
ROOT
ATOM      1  C   UNL     1     -36.939  -4.888  49.438  1.00  0.00     0.136 C 
ATOM      2  O   UNL     1     -37.694  -4.493  50.316  1.00  0.00    -0.299 OA
ENDROOT
BRANCH   1   3
ATOM      3  C   UNL     1     -36.924  -4.198  48.082  1.00  0.00     0.053 C 
ATOM      4  C   UNL     1     -37.200  -2.695  48.234  1.00  0.00     0.016 C 
BRANCH   3   5
ATOM      5  C   UNL     1     -35.576  -4.440  47.359  1.00  0.00     0.015 C 
BRANCH   5   6
ATOM      6  C   UNL     1     -35.716  -5.393  46.155  1.00  0.00     0.028 C 
BRANCH   6   7
ATOM      7  C   UNL     1     -34.472  -6.223  45.962  1.00  0.00    -0.028 C 
ATOM      8  C   UNL     1     -34.337  -7.512  46.355  1.00  0.00    -0.070 CG0
ATOM      9  C   UNL     1     -33.005  -8.183  46.134  1.00  0.00     0.039 C 
ATOM     10  G   UNL     1     -35.465  -8.302  47.006  1.00  0.00     0.000 G0
ENDBRANCH   6   7
ENDBRANCH   5   6
ENDBRANCH   3   5
ENDBRANCH   1   3
BRANCH   1  11
ATOM     11  C   UNL     1     -36.017  -6.050  49.727  1.00  0.00     0.087 C 
BRANCH  11  12
ATOM     12  C   UNL     1     -36.546  -7.424  49.223  1.00  0.00     0.066 C 
BRANCH  12  13
ATOM     13  C   UNL     1     -35.444  -8.190  48.505  1.00  0.00     0.140 C 
ATOM     14  O   UNL     1     -34.568  -8.744  49.154  1.00  0.00    -0.299 OA
BRANCH  13  15
ATOM     15  C   UNL     1     -35.453  -8.327  47.003  1.00  0.00     0.106 CG0
ATOM     16  G   UNL     1     -34.330  -7.536  46.346  1.00  0.00     0.000 G0
ENDBRANCH  13  15
ENDBRANCH  12  13
BRANCH  12  17
ATOM     17  C   UNL     1     -37.229  -8.304  50.324  1.00  0.00    -0.006 C 
ATOM     18  C   UNL     1     -36.713  -7.991  51.741  1.00  0.00     0.008 C 
ATOM     19  C   UNL     1     -38.758  -8.116  50.304  1.00  0.00     0.008 C 
ENDBRANCH  12  17
ENDBRANCH  11  12
ENDBRANCH   1  11
TORSDOF 1
ENDMDL
MODEL 8
REMARK VINA RESULT:    -2.516     14.198     16.345
REMARK INTER + INTRA:          -4.213
REMARK INTER:                  -4.167
REMARK INTRA:                  -0.047
REMARK UNBOUND:                -0.373
REMARK SMILES CC1=CCC[C@H](C)C(=O)C[C@H](C(C)C)C(=O)C1
REMARK SMILES IDX 8 1 9 2 6 3 7 4 5 5 4 6 3 7 2 8 1 9 10 11 11 12 15 13 16 14
REMARK SMILES IDX 17 15 12 17 13 18 14 19
REMARK H PARENT
REMARK Flexibility Score: 70.00
ROOT
ATOM      1  C   UNL     1     -47.568  -0.002  45.484  1.00  0.00     0.136 C 
ATOM      2  O   UNL     1     -47.361  -1.165  45.165  1.00  0.00    -0.299 OA
ENDROOT
BRANCH   1   3
ATOM      3  C   UNL     1     -46.805   0.614  46.646  1.00  0.00     0.053 C 
ATOM      4  C   UNL     1     -45.296   0.369  46.496  1.00  0.00     0.016 C 
BRANCH   3   5
ATOM      5  C   UNL     1     -47.108   2.129  46.760  1.00  0.00     0.015 C 
BRANCH   5   6
ATOM      6  C   UNL     1     -48.093   2.448  47.903  1.00  0.00     0.028 C 
BRANCH   6   7
ATOM      7  C   UNL     1     -49.116   3.471  47.478  1.00  0.00    -0.028 C 
ATOM      8  C   UNL     1     -50.334   3.176  46.966  1.00  0.00    -0.070 CG0
ATOM      9  C   UNL     1     -51.219   4.321  46.542  1.00  0.00     0.039 C 
ATOM     10  G   UNL     1     -50.841   1.749  46.801  1.00  0.00     0.000 G0
ENDBRANCH   6   7
ENDBRANCH   5   6
ENDBRANCH   3   5
ENDBRANCH   1   3
BRANCH   1  11
ATOM     11  C   UNL     1     -48.572   0.810  44.698  1.00  0.00     0.087 C 
BRANCH  11  12
ATOM     12  C   UNL     1     -50.029   0.270  44.776  1.00  0.00     0.066 C 
BRANCH  12  13
ATOM     13  C   UNL     1     -50.960   1.329  45.352  1.00  0.00     0.140 C 
ATOM     14  O   UNL     1     -51.837   1.812  44.649  1.00  0.00    -0.299 OA
BRANCH  13  15
ATOM     15  C   UNL     1     -50.855   1.743  46.798  1.00  0.00     0.106 CG0
ATOM     16  G   UNL     1     -50.347   3.171  46.952  1.00  0.00     0.000 G0
ENDBRANCH  13  15
ENDBRANCH  12  13
BRANCH  12  17
ATOM     17  C   UNL     1     -50.584  -0.308  43.431  1.00  0.00    -0.006 C 
ATOM     18  C   UNL     1     -49.814   0.204  42.200  1.00  0.00     0.008 C 
ATOM     19  C   UNL     1     -50.536  -1.848  43.436  1.00  0.00     0.008 C 
ENDBRANCH  12  17
ENDBRANCH  11  12
ENDBRANCH   1  11
TORSDOF 1
ENDMDL
MODEL 9
REMARK VINA RESULT:    -2.424     14.791     17.142
REMARK INTER + INTRA:          -4.072
REMARK INTER:                  -3.757
REMARK INTRA:                  -0.314
REMARK UNBOUND:                -0.373
REMARK SMILES CC1=CCC[C@H](C)C(=O)C[C@H](C(C)C)C(=O)C1
REMARK SMILES IDX 8 1 9 2 6 3 7 4 5 5 4 6 3 7 2 8 1 9 10 11 11 12 15 13 16 14
REMARK SMILES IDX 17 15 12 17 13 18 14 19
REMARK H PARENT
REMARK Flexibility Score: 70.00
ROOT
ATOM      1  C   UNL     1     -47.772   1.522  46.910  1.00  0.00     0.136 C 
ATOM      2  O   UNL     1     -46.977   0.954  47.646  1.00  0.00    -0.299 OA
ENDROOT
BRANCH   1   3
ATOM      3  C   UNL     1     -47.564   1.495  45.403  1.00  0.00     0.053 C 
ATOM      4  C   UNL     1     -46.162   2.005  45.038  1.00  0.00     0.016 C 
BRANCH   3   5
ATOM      5  C   UNL     1     -47.794   0.070  44.844  1.00  0.00     0.015 C 
BRANCH   5   6
ATOM      6  C   UNL     1     -49.262  -0.386  44.976  1.00  0.00     0.028 C 
BRANCH   6   7
ATOM      7  C   UNL     1     -50.161   0.376  44.036  1.00  0.00    -0.028 C 
ATOM      8  C   UNL     1     -51.102   1.269  44.423  1.00  0.00    -0.070 CG0
ATOM      9  C   UNL     1     -51.955   1.907  43.356  1.00  0.00     0.039 C 
ATOM     10  G   UNL     1     -51.332   1.651  45.880  1.00  0.00     0.000 G0
ENDBRANCH   6   7
ENDBRANCH   5   6
ENDBRANCH   3   5
ENDBRANCH   1   3
BRANCH   1  11
ATOM     11  C   UNL     1     -48.963   2.229  47.516  1.00  0.00     0.087 C 
BRANCH  11  12
ATOM     12  C   UNL     1     -49.507   3.408  46.658  1.00  0.00     0.066 C 
BRANCH  12  13
ATOM     13  C   UNL     1     -50.908   3.096  46.150  1.00  0.00     0.140 C 
ATOM     14  O   UNL     1     -51.684   4.011  45.910  1.00  0.00    -0.299 OA
BRANCH  13  15
ATOM     15  C   UNL     1     -51.330   1.674  45.878  1.00  0.00     0.106 CG0
ATOM     16  G   UNL     1     -51.101   1.273  44.427  1.00  0.00     0.000 G0
ENDBRANCH  13  15
ENDBRANCH  12  13
BRANCH  12  17
ATOM     17  C   UNL     1     -49.453   4.806  47.363  1.00  0.00    -0.006 C 
ATOM     18  C   UNL     1     -49.445   4.699  48.899  1.00  0.00     0.008 C 
ATOM     19  C   UNL     1     -48.207   5.595  46.918  1.00  0.00     0.008 C 
ENDBRANCH  12  17
ENDBRANCH  11  12
ENDBRANCH   1  11
TORSDOF 1
ENDMDL
