MODEL 1
REMARK VINA RESULT:    -5.072      0.000      0.000
REMARK INTER + INTRA:          -5.865
REMARK INTER:                  -5.814
REMARK INTRA:                  -0.051
REMARK UNBOUND:                -0.051
REMARK SMILES O=C([O-])c1cc(O)c(O)c(O)c1
REMARK SMILES IDX 4 1 5 2 12 3 6 4 10 5 8 6 2 7 1 8 3 9 7 10 11 12 9 14
REMARK H PARENT 7 11 11 13 9 15
REMARK Flexibility Score: inf
ROOT
ATOM      1  C   UNL     1     -13.060 -42.333 -10.110  1.00  0.00     0.005 A 
ATOM      2  C   UNL     1     -14.341 -42.808 -10.442  1.00  0.00     0.060 A 
ATOM      3  C   UNL     1     -12.912 -40.995  -9.710  1.00  0.00     0.060 A 
ATOM      4  C   UNL     1     -15.454 -41.964 -10.377  1.00  0.00     0.162 A 
ATOM      5  C   UNL     1     -14.023 -40.143  -9.642  1.00  0.00     0.162 A 
ATOM      6  C   UNL     1     -15.299 -40.626  -9.977  1.00  0.00     0.200 A 
ENDROOT
BRANCH   1   7
ATOM      7  C   UNL     1     -11.883 -43.227 -10.178  1.00  0.00     0.072 C 
ATOM      8  O   UNL     1     -10.740 -42.761 -10.432  1.00  0.00    -0.545 OA
ATOM      9  O   UNL     1     -12.021 -44.593  -9.965  1.00  0.00    -0.545 OA
ENDBRANCH   1   7
BRANCH   4  10
ATOM     10  O   UNL     1     -16.709 -42.473 -10.715  1.00  0.00    -0.504 OA
ATOM     11  H   UNL     1     -16.862 -43.460 -10.879  1.00  0.00     0.293 HD
ENDBRANCH   4  10
BRANCH   5  12
ATOM     12  O   UNL     1     -13.862 -38.816  -9.245  1.00  0.00    -0.504 OA
ATOM     13  H   UNL     1     -13.453 -38.122  -9.859  1.00  0.00     0.293 HD
ENDBRANCH   5  12
BRANCH   6  14
ATOM     14  O   UNL     1     -16.415 -39.791  -9.915  1.00  0.00    -0.502 OA
ATOM     15  H   UNL     1     -17.064 -39.698 -10.687  1.00  0.00     0.293 HD
ENDBRANCH   6  14
TORSDOF 4
ENDMDL
MODEL 2
REMARK VINA RESULT:    -5.047      0.117      2.432
REMARK INTER + INTRA:          -5.835
REMARK INTER:                  -5.785
REMARK INTRA:                  -0.050
REMARK UNBOUND:                -0.051
REMARK SMILES O=C([O-])c1cc(O)c(O)c(O)c1
REMARK SMILES IDX 4 1 5 2 12 3 6 4 10 5 8 6 2 7 1 8 3 9 7 10 11 12 9 14
REMARK H PARENT 7 11 11 13 9 15
REMARK Flexibility Score: inf
ROOT
ATOM      1  C   UNL     1     -13.027 -42.325 -10.023  1.00  0.00     0.005 A 
ATOM      2  C   UNL     1     -12.875 -40.987  -9.619  1.00  0.00     0.060 A 
ATOM      3  C   UNL     1     -14.307 -42.794 -10.361  1.00  0.00     0.060 A 
ATOM      4  C   UNL     1     -13.980 -40.132  -9.553  1.00  0.00     0.162 A 
ATOM      5  C   UNL     1     -15.419 -41.944 -10.297  1.00  0.00     0.162 A 
ATOM      6  C   UNL     1     -15.258 -40.608  -9.891  1.00  0.00     0.200 A 
ENDROOT
BRANCH   1   7
ATOM      7  C   UNL     1     -11.857 -43.229 -10.094  1.00  0.00     0.072 C 
ATOM      8  O   UNL     1     -10.740 -42.801 -10.490  1.00  0.00    -0.545 OA
ATOM      9  O   UNL     1     -11.975 -44.563  -9.725  1.00  0.00    -0.545 OA
ENDBRANCH   1   7
BRANCH   4  10
ATOM     10  O   UNL     1     -13.788 -38.811  -9.147  1.00  0.00    -0.504 OA
ATOM     11  H   UNL     1     -14.276 -38.038  -9.580  1.00  0.00     0.293 HD
ENDBRANCH   4  10
BRANCH   5  12
ATOM     12  O   UNL     1     -16.684 -42.422 -10.634  1.00  0.00    -0.504 OA
ATOM     13  H   UNL     1     -17.524 -42.058 -10.200  1.00  0.00     0.293 HD
ENDBRANCH   5  12
BRANCH   6  14
ATOM     14  O   UNL     1     -16.355 -39.748  -9.822  1.00  0.00    -0.502 OA
ATOM     15  H   UNL     1     -16.449 -39.050  -9.094  1.00  0.00     0.293 HD
ENDBRANCH   6  14
TORSDOF 4
ENDMDL
MODEL 3
REMARK VINA RESULT:    -4.875      7.999      9.477
REMARK INTER + INTRA:          -5.638
REMARK INTER:                  -5.593
REMARK INTRA:                  -0.045
REMARK UNBOUND:                -0.051
REMARK SMILES O=C([O-])c1cc(O)c(O)c(O)c1
REMARK SMILES IDX 4 1 5 2 12 3 6 4 10 5 8 6 2 7 1 8 3 9 7 10 11 12 9 14
REMARK H PARENT 7 11 11 13 9 15
REMARK Flexibility Score: inf
ROOT
ATOM      1  C   UNL     1     -13.794 -48.417  -3.038  1.00  0.00     0.005 A 
ATOM      2  C   UNL     1     -12.732 -47.497  -3.028  1.00  0.00     0.060 A 
ATOM      3  C   UNL     1     -14.526 -48.601  -4.223  1.00  0.00     0.060 A 
ATOM      4  C   UNL     1     -12.406 -46.771  -4.180  1.00  0.00     0.162 A 
ATOM      5  C   UNL     1     -14.205 -47.879  -5.380  1.00  0.00     0.162 A 
ATOM      6  C   UNL     1     -13.142 -46.960  -5.361  1.00  0.00     0.200 A 
ENDROOT
BRANCH   1   7
ATOM      7  C   UNL     1     -14.138 -49.185  -1.820  1.00  0.00     0.072 C 
ATOM      8  O   UNL     1     -13.568 -50.281  -1.572  1.00  0.00    -0.545 OA
ATOM      9  O   UNL     1     -15.095 -48.707  -0.933  1.00  0.00    -0.545 OA
ENDBRANCH   1   7
BRANCH   4  10
ATOM     10  O   UNL     1     -11.345 -45.866  -4.129  1.00  0.00    -0.504 OA
ATOM     11  H   UNL     1     -10.439 -46.075  -4.529  1.00  0.00     0.293 HD
ENDBRANCH   4  10
BRANCH   5  12
ATOM     12  O   UNL     1     -14.940 -48.071  -6.549  1.00  0.00    -0.504 OA
ATOM     13  H   UNL     1     -14.792 -47.498  -7.371  1.00  0.00     0.293 HD
ENDBRANCH   5  12
BRANCH   6  14
ATOM     14  O   UNL     1     -12.810 -46.232  -6.504  1.00  0.00    -0.502 OA
ATOM     15  H   UNL     1     -12.864 -45.222  -6.536  1.00  0.00     0.293 HD
ENDBRANCH   6  14
TORSDOF 4
ENDMDL
MODEL 4
REMARK VINA RESULT:    -4.842      9.280     10.240
REMARK INTER + INTRA:          -5.600
REMARK INTER:                  -5.555
REMARK INTRA:                  -0.045
REMARK UNBOUND:                -0.051
REMARK SMILES O=C([O-])c1cc(O)c(O)c(O)c1
REMARK SMILES IDX 4 1 5 2 12 3 6 4 10 5 8 6 2 7 1 8 3 9 7 10 11 12 9 14
REMARK H PARENT 7 11 11 13 9 15
REMARK Flexibility Score: inf
ROOT
ATOM      1  C   UNL     1     -14.085 -48.299  -3.415  1.00  0.00     0.005 A 
ATOM      2  C   UNL     1     -13.329 -48.661  -2.287  1.00  0.00     0.060 A 
ATOM      3  C   UNL     1     -15.152 -47.399  -3.260  1.00  0.00     0.060 A 
ATOM      4  C   UNL     1     -13.633 -48.135  -1.026  1.00  0.00     0.162 A 
ATOM      5  C   UNL     1     -15.462 -46.867  -2.001  1.00  0.00     0.162 A 
ATOM      6  C   UNL     1     -14.701 -47.235  -0.878  1.00  0.00     0.200 A 
ENDROOT
BRANCH   1   7
ATOM      7  C   UNL     1     -13.764 -48.856  -4.748  1.00  0.00     0.072 C 
ATOM      8  O   UNL     1     -14.329 -49.905  -5.156  1.00  0.00    -0.545 OA
ATOM      9  O   UNL     1     -12.834 -48.228  -5.568  1.00  0.00    -0.545 OA
ENDBRANCH   1   7
BRANCH   4  10
ATOM     10  O   UNL     1     -12.859 -48.520   0.070  1.00  0.00    -0.504 OA
ATOM     11  H   UNL     1     -12.200 -49.287   0.021  1.00  0.00     0.293 HD
ENDBRANCH   4  10
BRANCH   5  12
ATOM     12  O   UNL     1     -16.524 -45.975  -1.862  1.00  0.00    -0.504 OA
ATOM     13  H   UNL     1     -17.306 -45.974  -2.505  1.00  0.00     0.293 HD
ENDBRANCH   5  12
BRANCH   6  14
ATOM     14  O   UNL     1     -14.996 -46.716   0.383  1.00  0.00    -0.502 OA
ATOM     15  H   UNL     1     -15.274 -45.751   0.518  1.00  0.00     0.293 HD
ENDBRANCH   6  14
TORSDOF 4
ENDMDL
MODEL 5
REMARK VINA RESULT:    -4.824      9.259     10.170
REMARK INTER + INTRA:          -5.580
REMARK INTER:                  -5.536
REMARK INTRA:                  -0.045
REMARK UNBOUND:                -0.051
REMARK SMILES O=C([O-])c1cc(O)c(O)c(O)c1
REMARK SMILES IDX 4 1 5 2 12 3 6 4 10 5 8 6 2 7 1 8 3 9 7 10 11 12 9 14
REMARK H PARENT 7 11 11 13 9 15
REMARK Flexibility Score: inf
ROOT
ATOM      1  C   UNL     1     -14.077 -48.278  -3.431  1.00  0.00     0.005 A 
ATOM      2  C   UNL     1     -15.130 -47.361  -3.275  1.00  0.00     0.060 A 
ATOM      3  C   UNL     1     -13.335 -48.662  -2.302  1.00  0.00     0.060 A 
ATOM      4  C   UNL     1     -15.438 -46.835  -2.015  1.00  0.00     0.162 A 
ATOM      5  C   UNL     1     -13.637 -48.141  -1.037  1.00  0.00     0.162 A 
ATOM      6  C   UNL     1     -14.692 -47.224  -0.890  1.00  0.00     0.200 A 
ENDROOT
BRANCH   1   7
ATOM      7  C   UNL     1     -13.752 -48.834  -4.763  1.00  0.00     0.072 C 
ATOM      8  O   UNL     1     -14.309 -49.888  -5.170  1.00  0.00    -0.545 OA
ATOM      9  O   UNL     1     -12.826 -48.201  -5.584  1.00  0.00    -0.545 OA
ENDBRANCH   1   7
BRANCH   4  10
ATOM     10  O   UNL     1     -16.492 -45.927  -1.902  1.00  0.00    -0.504 OA
ATOM     11  H   UNL     1     -16.826 -45.388  -2.691  1.00  0.00     0.293 HD
ENDBRANCH   4  10
BRANCH   5  12
ATOM     12  O   UNL     1     -12.892 -48.530   0.075  1.00  0.00    -0.504 OA
ATOM     13  H   UNL     1     -11.900 -48.727   0.009  1.00  0.00     0.293 HD
ENDBRANCH   5  12
BRANCH   6  14
ATOM     14  O   UNL     1     -15.006 -46.695   0.363  1.00  0.00    -0.502 OA
ATOM     15  H   UNL     1     -14.911 -47.232   1.215  1.00  0.00     0.293 HD
ENDBRANCH   6  14
TORSDOF 4
ENDMDL
MODEL 6
REMARK VINA RESULT:    -4.804      2.256      2.314
REMARK INTER + INTRA:          -5.557
REMARK INTER:                  -5.512
REMARK INTRA:                  -0.045
REMARK UNBOUND:                -0.051
REMARK SMILES O=C([O-])c1cc(O)c(O)c(O)c1
REMARK SMILES IDX 4 1 5 2 12 3 6 4 10 5 8 6 2 7 1 8 3 9 7 10 11 12 9 14
REMARK H PARENT 7 11 11 13 9 15
REMARK Flexibility Score: inf
ROOT
ATOM      1  C   UNL     1     -12.733 -42.016  -7.880  1.00  0.00     0.005 A 
ATOM      2  C   UNL     1     -13.997 -42.592  -7.670  1.00  0.00     0.060 A 
ATOM      3  C   UNL     1     -12.651 -40.753  -8.490  1.00  0.00     0.060 A 
ATOM      4  C   UNL     1     -15.161 -41.921  -8.062  1.00  0.00     0.162 A 
ATOM      5  C   UNL     1     -13.812 -40.075  -8.884  1.00  0.00     0.162 A 
ATOM      6  C   UNL     1     -15.073 -40.659  -8.671  1.00  0.00     0.200 A 
ENDROOT
BRANCH   1   7
ATOM      7  C   UNL     1     -11.502 -42.726  -7.466  1.00  0.00     0.072 C 
ATOM      8  O   UNL     1     -10.907 -43.496  -8.266  1.00  0.00    -0.545 OA
ATOM      9  O   UNL     1     -10.986 -42.554  -6.187  1.00  0.00    -0.545 OA
ENDBRANCH   1   7
BRANCH   4  10
ATOM     10  O   UNL     1     -16.398 -42.528  -7.836  1.00  0.00    -0.504 OA
ATOM     11  H   UNL     1     -17.128 -42.077  -7.300  1.00  0.00     0.293 HD
ENDBRANCH   4  10
BRANCH   5  12
ATOM     12  O   UNL     1     -13.718 -38.822  -9.488  1.00  0.00    -0.504 OA
ATOM     13  H   UNL     1     -14.331 -38.059  -9.230  1.00  0.00     0.293 HD
ENDBRANCH   5  12
BRANCH   6  14
ATOM     14  O   UNL     1     -16.239 -39.997  -9.058  1.00  0.00    -0.502 OA
ATOM     15  H   UNL     1     -16.565 -39.993 -10.017  1.00  0.00     0.293 HD
ENDBRANCH   6  14
TORSDOF 4
ENDMDL
MODEL 7
REMARK VINA RESULT:    -4.788      2.013      2.970
REMARK INTER + INTRA:          -5.538
REMARK INTER:                  -5.494
REMARK INTRA:                  -0.045
REMARK UNBOUND:                -0.051
REMARK SMILES O=C([O-])c1cc(O)c(O)c(O)c1
REMARK SMILES IDX 4 1 5 2 12 3 6 4 10 5 8 6 2 7 1 8 3 9 7 10 11 12 9 14
REMARK H PARENT 7 11 11 13 9 15
REMARK Flexibility Score: inf
ROOT
ATOM      1  C   UNL     1     -12.660 -42.108  -8.200  1.00  0.00     0.005 A 
ATOM      2  C   UNL     1     -12.622 -40.824  -8.770  1.00  0.00     0.060 A 
ATOM      3  C   UNL     1     -13.906 -42.682  -7.898  1.00  0.00     0.060 A 
ATOM      4  C   UNL     1     -13.805 -40.124  -9.034  1.00  0.00     0.162 A 
ATOM      5  C   UNL     1     -15.095 -41.988  -8.159  1.00  0.00     0.162 A 
ATOM      6  C   UNL     1     -15.047 -40.704  -8.729  1.00  0.00     0.200 A 
ENDROOT
BRANCH   1   7
ATOM      7  C   UNL     1     -11.409 -42.848  -7.922  1.00  0.00     0.072 C 
ATOM      8  O   UNL     1     -10.908 -42.845  -6.766  1.00  0.00    -0.545 OA
ATOM      9  O   UNL     1     -10.769 -43.555  -8.932  1.00  0.00    -0.545 OA
ENDBRANCH   1   7
BRANCH   4  10
ATOM     10  O   UNL     1     -13.724 -38.851  -9.600  1.00  0.00    -0.504 OA
ATOM     11  H   UNL     1     -12.839 -38.429  -9.853  1.00  0.00     0.293 HD
ENDBRANCH   4  10
BRANCH   5  12
ATOM     12  O   UNL     1     -16.325 -42.570  -7.853  1.00  0.00    -0.504 OA
ATOM     13  H   UNL     1     -16.438 -43.189  -7.059  1.00  0.00     0.293 HD
ENDBRANCH   5  12
BRANCH   6  14
ATOM     14  O   UNL     1     -16.221 -39.999  -8.995  1.00  0.00    -0.502 OA
ATOM     15  H   UNL     1     -17.065 -40.457  -9.318  1.00  0.00     0.293 HD
ENDBRANCH   6  14
TORSDOF 4
ENDMDL
MODEL 8
REMARK VINA RESULT:    -4.738      7.930      9.259
REMARK INTER + INTRA:          -5.481
REMARK INTER:                  -5.436
REMARK INTRA:                  -0.045
REMARK UNBOUND:                -0.051
REMARK SMILES O=C([O-])c1cc(O)c(O)c(O)c1
REMARK SMILES IDX 4 1 5 2 12 3 6 4 10 5 8 6 2 7 1 8 3 9 7 10 11 12 9 14
REMARK H PARENT 7 11 11 13 9 15
REMARK Flexibility Score: inf
ROOT
ATOM      1  C   UNL     1      -9.914 -44.707  -3.550  1.00  0.00     0.005 A 
ATOM      2  C   UNL     1      -9.764 -44.035  -2.325  1.00  0.00     0.060 A 
ATOM      3  C   UNL     1     -10.953 -45.642  -3.692  1.00  0.00     0.060 A 
ATOM      4  C   UNL     1     -10.634 -44.291  -1.259  1.00  0.00     0.162 A 
ATOM      5  C   UNL     1     -11.829 -45.904  -2.629  1.00  0.00     0.162 A 
ATOM      6  C   UNL     1     -11.670 -45.227  -1.408  1.00  0.00     0.200 A 
ENDROOT
BRANCH   1   7
ATOM      7  C   UNL     1      -8.994 -44.436  -4.678  1.00  0.00     0.072 C 
ATOM      8  O   UNL     1      -8.007 -45.188  -4.892  1.00  0.00    -0.545 OA
ATOM      9  O   UNL     1      -9.207 -43.348  -5.515  1.00  0.00    -0.545 OA
ENDBRANCH   1   7
BRANCH   4  10
ATOM     10  O   UNL     1     -10.450 -43.603  -0.059  1.00  0.00    -0.504 OA
ATOM     11  H   UNL     1      -9.537 -43.299   0.253  1.00  0.00     0.293 HD
ENDBRANCH   4  10
BRANCH   5  12
ATOM     12  O   UNL     1     -12.855 -46.834  -2.783  1.00  0.00    -0.504 OA
ATOM     13  H   UNL     1     -13.758 -46.573  -3.161  1.00  0.00     0.293 HD
ENDBRANCH   5  12
BRANCH   6  14
ATOM     14  O   UNL     1     -12.533 -45.476  -0.339  1.00  0.00    -0.502 OA
ATOM     15  H   UNL     1     -12.201 -45.571   0.613  1.00  0.00     0.293 HD
ENDBRANCH   6  14
TORSDOF 4
ENDMDL
MODEL 9
REMARK VINA RESULT:    -4.695      7.921      9.123
REMARK INTER + INTRA:          -5.431
REMARK INTER:                  -5.385
REMARK INTRA:                  -0.047
REMARK UNBOUND:                -0.051
REMARK SMILES O=C([O-])c1cc(O)c(O)c(O)c1
REMARK SMILES IDX 4 1 5 2 12 3 6 4 10 5 8 6 2 7 1 8 3 9 7 10 11 12 9 14
REMARK H PARENT 7 11 11 13 9 15
REMARK Flexibility Score: inf
ROOT
ATOM      1  C   UNL     1     -13.472 -48.239  -2.948  1.00  0.00     0.005 A 
ATOM      2  C   UNL     1     -14.265 -48.519  -4.074  1.00  0.00     0.060 A 
ATOM      3  C   UNL     1     -12.460 -47.270  -3.050  1.00  0.00     0.060 A 
ATOM      4  C   UNL     1     -14.052 -47.845  -5.282  1.00  0.00     0.162 A 
ATOM      5  C   UNL     1     -12.241 -46.591  -4.256  1.00  0.00     0.162 A 
ATOM      6  C   UNL     1     -13.038 -46.878  -5.377  1.00  0.00     0.200 A 
ENDROOT
BRANCH   1   7
ATOM      7  C   UNL     1     -13.698 -48.952  -1.670  1.00  0.00     0.072 C 
ATOM      8  O   UNL     1     -13.647 -50.210  -1.622  1.00  0.00    -0.545 OA
ATOM      9  O   UNL     1     -13.971 -48.243  -0.507  1.00  0.00    -0.545 OA
ENDBRANCH   1   7
BRANCH   4  10
ATOM     10  O   UNL     1     -14.859 -48.152  -6.377  1.00  0.00    -0.504 OA
ATOM     11  H   UNL     1     -15.630 -47.561  -6.661  1.00  0.00     0.293 HD
ENDBRANCH   4  10
BRANCH   5  12
ATOM     12  O   UNL     1     -11.233 -45.632  -4.343  1.00  0.00    -0.504 OA
ATOM     13  H   UNL     1     -11.140 -44.893  -3.657  1.00  0.00     0.293 HD
ENDBRANCH   5  12
BRANCH   6  14
ATOM     14  O   UNL     1     -12.832 -46.211  -6.586  1.00  0.00    -0.502 OA
ATOM     15  H   UNL     1     -12.793 -46.698  -7.472  1.00  0.00     0.293 HD
ENDBRANCH   6  14
TORSDOF 4
ENDMDL
