MODEL 1
REMARK VINA RESULT:    -4.075      0.000      0.000
REMARK INTER + INTRA:          -4.432
REMARK INTER:                  -4.432
REMARK INTRA:                   0.000
REMARK UNBOUND:                 0.000
REMARK SMILES Oc1cccc(O)c1O
REMARK SMILES IDX 4 1 5 2 6 3 8 4 2 5 3 6 7 7 1 9 9 11
REMARK H PARENT 7 8 1 10 9 12
REMARK Flexibility Score: inf
ROOT
ATOM      1  C   UNL     1      -8.299 -17.072 -23.125  1.00  0.00     0.008 A 
ATOM      2  C   UNL     1      -6.912 -17.197 -23.020  1.00  0.00     0.050 A 
ATOM      3  C   UNL     1      -6.160 -16.196 -22.390  1.00  0.00     0.161 A 
ATOM      4  C   UNL     1      -6.806 -15.062 -21.862  1.00  0.00     0.200 A 
ATOM      5  C   UNL     1      -8.205 -14.942 -21.971  1.00  0.00     0.161 A 
ATOM      6  C   UNL     1      -8.943 -15.949 -22.603  1.00  0.00     0.050 A 
ENDROOT
BRANCH   3   7
ATOM      7  O   UNL     1      -4.776 -16.322 -22.285  1.00  0.00    -0.504 OA
ATOM      8  H   UNL     1      -4.288 -16.118 -21.420  1.00  0.00     0.293 HD
ENDBRANCH   3   7
BRANCH   5   9
ATOM      9  O   UNL     1      -8.876 -13.832 -21.459  1.00  0.00    -0.504 OA
ATOM     10  H   UNL     1      -9.098 -13.745 -20.474  1.00  0.00     0.293 HD
ENDBRANCH   5   9
BRANCH   4  11
ATOM     11  O   UNL     1      -6.075 -14.055 -21.231  1.00  0.00    -0.502 OA
ATOM     12  H   UNL     1      -5.950 -14.027 -20.226  1.00  0.00     0.293 HD
ENDBRANCH   4  11
TORSDOF 3
ENDMDL
MODEL 2
REMARK VINA RESULT:    -3.522      2.592      4.178
REMARK INTER + INTRA:          -3.831
REMARK INTER:                  -3.831
REMARK INTRA:                   0.000
REMARK UNBOUND:                 0.000
REMARK SMILES Oc1cccc(O)c1O
REMARK SMILES IDX 4 1 5 2 6 3 8 4 2 5 3 6 7 7 1 9 9 11
REMARK H PARENT 7 8 1 10 9 12
REMARK Flexibility Score: inf
ROOT
ATOM      1  C   UNL     1      -3.768 -17.667 -21.882  1.00  0.00     0.008 A 
ATOM      2  C   UNL     1      -4.420 -16.480 -22.222  1.00  0.00     0.050 A 
ATOM      3  C   UNL     1      -5.784 -16.492 -22.546  1.00  0.00     0.161 A 
ATOM      4  C   UNL     1      -6.497 -17.706 -22.527  1.00  0.00     0.200 A 
ATOM      5  C   UNL     1      -5.834 -18.899 -22.184  1.00  0.00     0.161 A 
ATOM      6  C   UNL     1      -4.472 -18.872 -21.863  1.00  0.00     0.050 A 
ENDROOT
BRANCH   3   7
ATOM      7  O   UNL     1      -6.433 -15.306 -22.885  1.00  0.00    -0.504 OA
ATOM      8  H   UNL     1      -7.235 -15.299 -23.506  1.00  0.00     0.293 HD
ENDBRANCH   3   7
BRANCH   5   9
ATOM      9  O   UNL     1      -6.511 -20.119 -22.156  1.00  0.00    -0.504 OA
ATOM     10  H   UNL     1      -6.474 -20.736 -21.354  1.00  0.00     0.293 HD
ENDBRANCH   5   9
BRANCH   4  11
ATOM     11  O   UNL     1      -7.855 -17.739 -22.846  1.00  0.00    -0.502 OA
ATOM     12  H   UNL     1      -8.307 -16.992 -23.358  1.00  0.00     0.293 HD
ENDBRANCH   4  11
TORSDOF 3
ENDMDL
MODEL 3
REMARK VINA RESULT:    -3.384      3.165      4.444
REMARK INTER + INTRA:          -3.680
REMARK INTER:                  -3.680
REMARK INTRA:                   0.000
REMARK UNBOUND:                 0.000
REMARK SMILES Oc1cccc(O)c1O
REMARK SMILES IDX 4 1 5 2 6 3 8 4 2 5 3 6 7 7 1 9 9 11
REMARK H PARENT 7 8 1 10 9 12
REMARK Flexibility Score: inf
ROOT
ATOM      1  C   UNL     1      -6.386 -16.419 -22.734  1.00  0.00     0.008 A 
ATOM      2  C   UNL     1      -7.060 -17.619 -22.967  1.00  0.00     0.050 A 
ATOM      3  C   UNL     1      -6.375 -18.840 -22.884  1.00  0.00     0.161 A 
ATOM      4  C   UNL     1      -5.004 -18.853 -22.565  1.00  0.00     0.200 A 
ATOM      5  C   UNL     1      -4.330 -17.639 -22.332  1.00  0.00     0.161 A 
ATOM      6  C   UNL     1      -5.027 -16.428 -22.418  1.00  0.00     0.050 A 
ENDROOT
BRANCH   3   7
ATOM      7  O   UNL     1      -7.049 -20.038 -23.116  1.00  0.00    -0.504 OA
ATOM      8  H   UNL     1      -8.042 -20.056 -23.323  1.00  0.00     0.293 HD
ENDBRANCH   3   7
BRANCH   5   9
ATOM      9  O   UNL     1      -2.972 -17.618 -22.013  1.00  0.00    -0.504 OA
ATOM     10  H   UNL     1      -2.319 -17.002 -22.483  1.00  0.00     0.293 HD
ENDBRANCH   5   9
BRANCH   4  11
ATOM     11  O   UNL     1      -4.305 -20.058 -22.477  1.00  0.00    -0.502 OA
ATOM     12  H   UNL     1      -4.776 -20.954 -22.446  1.00  0.00     0.293 HD
ENDBRANCH   4  11
TORSDOF 3
ENDMDL
MODEL 4
REMARK VINA RESULT:    -3.367      1.059      2.058
REMARK INTER + INTRA:          -3.662
REMARK INTER:                  -3.662
REMARK INTRA:                   0.000
REMARK UNBOUND:                 0.000
REMARK SMILES Oc1cccc(O)c1O
REMARK SMILES IDX 4 1 5 2 6 3 8 4 2 5 3 6 7 7 1 9 9 11
REMARK H PARENT 7 8 1 10 9 12
REMARK Flexibility Score: inf
ROOT
ATOM      1  C   UNL     1      -9.122 -15.496 -22.621  1.00  0.00     0.008 A 
ATOM      2  C   UNL     1      -8.629 -16.750 -22.987  1.00  0.00     0.050 A 
ATOM      3  C   UNL     1      -7.284 -17.074 -22.759  1.00  0.00     0.161 A 
ATOM      4  C   UNL     1      -6.429 -16.130 -22.159  1.00  0.00     0.200 A 
ATOM      5  C   UNL     1      -6.931 -14.867 -21.793  1.00  0.00     0.161 A 
ATOM      6  C   UNL     1      -8.276 -14.558 -22.027  1.00  0.00     0.050 A 
ENDROOT
BRANCH   3   7
ATOM      7  O   UNL     1      -6.795 -18.327 -23.125  1.00  0.00    -0.504 OA
ATOM      8  H   UNL     1      -6.999 -19.156 -22.579  1.00  0.00     0.293 HD
ENDBRANCH   3   7
BRANCH   5   9
ATOM      9  O   UNL     1      -6.111 -13.910 -21.197  1.00  0.00    -0.504 OA
ATOM     10  H   UNL     1      -6.456 -12.996 -20.930  1.00  0.00     0.293 HD
ENDBRANCH   5   9
BRANCH   4  11
ATOM     11  O   UNL     1      -5.088 -16.433 -21.924  1.00  0.00    -0.502 OA
ATOM     12  H   UNL     1      -4.508 -16.890 -22.617  1.00  0.00     0.293 HD
ENDBRANCH   4  11
TORSDOF 3
ENDMDL
MODEL 5
REMARK VINA RESULT:    -3.254     12.481     12.876
REMARK INTER + INTRA:          -3.539
REMARK INTER:                  -3.539
REMARK INTRA:                   0.000
REMARK UNBOUND:                 0.000
REMARK SMILES Oc1cccc(O)c1O
REMARK SMILES IDX 4 1 5 2 6 3 8 4 2 5 3 6 7 7 1 9 9 11
REMARK H PARENT 7 8 1 10 9 12
REMARK Flexibility Score: inf
ROOT
ATOM      1  C   UNL     1      -5.255 -19.611 -10.080  1.00  0.00     0.008 A 
ATOM      2  C   UNL     1      -6.151 -19.701 -11.147  1.00  0.00     0.050 A 
ATOM      3  C   UNL     1      -7.388 -19.042 -11.088  1.00  0.00     0.161 A 
ATOM      4  C   UNL     1      -7.725 -18.288  -9.947  1.00  0.00     0.200 A 
ATOM      5  C   UNL     1      -6.817 -18.202  -8.875  1.00  0.00     0.161 A 
ATOM      6  C   UNL     1      -5.587 -18.865  -8.948  1.00  0.00     0.050 A 
ENDROOT
BRANCH   3   7
ATOM      7  O   UNL     1      -8.281 -19.133 -12.154  1.00  0.00    -0.504 OA
ATOM      8  H   UNL     1      -9.272 -18.958 -12.032  1.00  0.00     0.293 HD
ENDBRANCH   3   7
BRANCH   5   9
ATOM      9  O   UNL     1      -7.121 -17.462  -7.732  1.00  0.00    -0.504 OA
ATOM     10  H   UNL     1      -6.410 -17.189  -7.064  1.00  0.00     0.293 HD
ENDBRANCH   5   9
BRANCH   4  11
ATOM     11  O   UNL     1      -8.950 -17.625  -9.870  1.00  0.00    -0.502 OA
ATOM     12  H   UNL     1      -9.179 -16.842 -10.470  1.00  0.00     0.293 HD
ENDBRANCH   4  11
TORSDOF 3
ENDMDL
MODEL 6
REMARK VINA RESULT:    -3.247     12.498     12.931
REMARK INTER + INTRA:          -3.532
REMARK INTER:                  -3.532
REMARK INTRA:                   0.000
REMARK UNBOUND:                 0.000
REMARK SMILES Oc1cccc(O)c1O
REMARK SMILES IDX 4 1 5 2 6 3 8 4 2 5 3 6 7 7 1 9 9 11
REMARK H PARENT 7 8 1 10 9 12
REMARK Flexibility Score: inf
ROOT
ATOM      1  C   UNL     1      -5.295 -19.586 -10.092  1.00  0.00     0.008 A 
ATOM      2  C   UNL     1      -5.608 -18.864  -8.939  1.00  0.00     0.050 A 
ATOM      3  C   UNL     1      -6.838 -18.198  -8.836  1.00  0.00     0.161 A 
ATOM      4  C   UNL     1      -7.758 -18.259  -9.900  1.00  0.00     0.200 A 
ATOM      5  C   UNL     1      -7.436 -18.987 -11.060  1.00  0.00     0.161 A 
ATOM      6  C   UNL     1      -6.204 -19.647 -11.149  1.00  0.00     0.050 A 
ENDROOT
BRANCH   3   7
ATOM      7  O   UNL     1      -7.150 -17.479  -7.683  1.00  0.00    -0.504 OA
ATOM      8  H   UNL     1      -6.473 -17.351  -6.939  1.00  0.00     0.293 HD
ENDBRANCH   3   7
BRANCH   5   9
ATOM      9  O   UNL     1      -8.325 -19.067 -12.132  1.00  0.00    -0.504 OA
ATOM     10  H   UNL     1      -8.948 -18.306 -12.371  1.00  0.00     0.293 HD
ENDBRANCH   5   9
BRANCH   4  11
ATOM     11  O   UNL     1      -8.987 -17.603  -9.816  1.00  0.00    -0.502 OA
ATOM     12  H   UNL     1      -9.643 -17.781  -9.066  1.00  0.00     0.293 HD
ENDBRANCH   4  11
TORSDOF 3
ENDMDL
MODEL 7
REMARK VINA RESULT:    -3.154     13.836     14.179
REMARK INTER + INTRA:          -3.431
REMARK INTER:                  -3.431
REMARK INTRA:                   0.000
REMARK UNBOUND:                 0.000
REMARK SMILES Oc1cccc(O)c1O
REMARK SMILES IDX 4 1 5 2 6 3 8 4 2 5 3 6 7 7 1 9 9 11
REMARK H PARENT 7 8 1 10 9 12
REMARK Flexibility Score: inf
ROOT
ATOM      1  C   UNL     1      -6.430 -18.942  -9.830  1.00  0.00     0.008 A 
ATOM      2  C   UNL     1      -5.137 -19.448  -9.983  1.00  0.00     0.050 A 
ATOM      3  C   UNL     1      -4.127 -19.089  -9.079  1.00  0.00     0.161 A 
ATOM      4  C   UNL     1      -4.419 -18.215  -8.014  1.00  0.00     0.200 A 
ATOM      5  C   UNL     1      -5.724 -17.709  -7.866  1.00  0.00     0.161 A 
ATOM      6  C   UNL     1      -6.722 -18.075  -8.776  1.00  0.00     0.050 A 
ENDROOT
BRANCH   3   7
ATOM      7  O   UNL     1      -2.838 -19.595  -9.234  1.00  0.00    -0.504 OA
ATOM      8  H   UNL     1      -2.150 -19.127  -9.812  1.00  0.00     0.293 HD
ENDBRANCH   3   7
BRANCH   5   9
ATOM      9  O   UNL     1      -6.046 -16.841  -6.821  1.00  0.00    -0.504 OA
ATOM     10  H   UNL     1      -6.926 -16.341  -6.790  1.00  0.00     0.293 HD
ENDBRANCH   5   9
BRANCH   4  11
ATOM     11  O   UNL     1      -3.428 -17.847  -7.104  1.00  0.00    -0.502 OA
ATOM     12  H   UNL     1      -3.647 -17.465  -6.192  1.00  0.00     0.293 HD
ENDBRANCH   4  11
TORSDOF 3
ENDMDL
MODEL 8
REMARK VINA RESULT:    -3.149     13.803     14.401
REMARK INTER + INTRA:          -3.425
REMARK INTER:                  -3.425
REMARK INTRA:                   0.000
REMARK UNBOUND:                 0.000
REMARK SMILES Oc1cccc(O)c1O
REMARK SMILES IDX 4 1 5 2 6 3 8 4 2 5 3 6 7 7 1 9 9 11
REMARK H PARENT 7 8 1 10 9 12
REMARK Flexibility Score: inf
ROOT
ATOM      1  C   UNL     1      -6.425 -18.981  -9.882  1.00  0.00     0.008 A 
ATOM      2  C   UNL     1      -6.742 -18.110  -8.838  1.00  0.00     0.050 A 
ATOM      3  C   UNL     1      -5.759 -17.727  -7.915  1.00  0.00     0.161 A 
ATOM      4  C   UNL     1      -4.447 -18.224  -8.043  1.00  0.00     0.200 A 
ATOM      5  C   UNL     1      -4.134 -19.102  -9.097  1.00  0.00     0.161 A 
ATOM      6  C   UNL     1      -5.126 -19.476 -10.011  1.00  0.00     0.050 A 
ENDROOT
BRANCH   3   7
ATOM      7  O   UNL     1      -6.077 -16.857  -6.873  1.00  0.00    -0.504 OA
ATOM      8  H   UNL     1      -5.409 -16.638  -6.143  1.00  0.00     0.293 HD
ENDBRANCH   3   7
BRANCH   5   9
ATOM      9  O   UNL     1      -2.845 -19.612  -9.253  1.00  0.00    -0.504 OA
ATOM     10  H   UNL     1      -2.384 -20.140  -8.521  1.00  0.00     0.293 HD
ENDBRANCH   5   9
BRANCH   4  11
ATOM     11  O   UNL     1      -3.455 -17.855  -7.135  1.00  0.00    -0.502 OA
ATOM     12  H   UNL     1      -3.489 -18.122  -6.159  1.00  0.00     0.293 HD
ENDBRANCH   4  11
TORSDOF 3
ENDMDL
MODEL 9
REMARK VINA RESULT:    -3.061     20.435     21.608
REMARK INTER + INTRA:          -3.329
REMARK INTER:                  -3.329
REMARK INTRA:                   0.000
REMARK UNBOUND:                 0.000
REMARK SMILES Oc1cccc(O)c1O
REMARK SMILES IDX 4 1 5 2 6 3 8 4 2 5 3 6 7 7 1 9 9 11
REMARK H PARENT 7 8 1 10 9 12
REMARK Flexibility Score: inf
ROOT
ATOM      1  C   UNL     1      -4.865  -1.099  -4.051  1.00  0.00     0.008 A 
ATOM      2  C   UNL     1      -4.808  -0.607  -5.357  1.00  0.00     0.050 A 
ATOM      3  C   UNL     1      -5.014  -1.467  -6.445  1.00  0.00     0.161 A 
ATOM      4  C   UNL     1      -5.278  -2.831  -6.218  1.00  0.00     0.200 A 
ATOM      5  C   UNL     1      -5.333  -3.321  -4.899  1.00  0.00     0.161 A 
ATOM      6  C   UNL     1      -5.126  -2.451  -3.823  1.00  0.00     0.050 A 
ENDROOT
BRANCH   3   7
ATOM      7  O   UNL     1      -4.957  -0.974  -7.747  1.00  0.00    -0.504 OA
ATOM      8  H   UNL     1      -4.512  -0.088  -7.960  1.00  0.00     0.293 HD
ENDBRANCH   3   7
BRANCH   5   9
ATOM      9  O   UNL     1      -5.593  -4.667  -4.641  1.00  0.00    -0.504 OA
ATOM     10  H   UNL     1      -5.017  -5.215  -4.012  1.00  0.00     0.293 HD
ENDBRANCH   5   9
BRANCH   4  11
ATOM     11  O   UNL     1      -5.485  -3.703  -7.287  1.00  0.00    -0.502 OA
ATOM     12  H   UNL     1      -6.412  -3.932  -7.625  1.00  0.00     0.293 HD
ENDBRANCH   4  11
TORSDOF 3
ENDMDL
