MODEL 1
REMARK VINA RESULT:    -3.111      0.000      0.000
REMARK INTER + INTRA:          -3.898
REMARK INTER:                  -3.838
REMARK INTRA:                  -0.060
REMARK UNBOUND:                -0.060
REMARK SMILES CCCCCC(=O)[O-]
REMARK SMILES IDX 4 1 5 2 6 3 7 4 8 5 3 6 2 7 1 8
REMARK H PARENT
REMARK Flexibility Score: inf
ROOT
ATOM      1  C   UNL     1      92.238 102.075  91.592  1.00  0.00     0.006 C 
ENDROOT
BRANCH   1   2
ATOM      2  C   UNL     1      91.463 100.765  91.368  1.00  0.00     0.053 C 
BRANCH   2   3
ATOM      3  C   UNL     1      90.387 100.552  92.389  1.00  0.00     0.041 C 
ATOM      4  O   UNL     1      90.654  99.991  93.485  1.00  0.00    -0.550 OA
ATOM      5  O   UNL     1      89.097 101.011  92.151  1.00  0.00    -0.550 OA
ENDBRANCH   2   3
ENDBRANCH   1   2
BRANCH   1   6
ATOM      6  C   UNL     1      92.226 103.027  90.380  1.00  0.00     0.000 C 
BRANCH   6   7
ATOM      7  C   UNL     1      93.537 103.079  89.578  1.00  0.00    -0.003 C 
ATOM      8  C   UNL     1      94.384 104.312  89.894  1.00  0.00     0.004 C 
ENDBRANCH   6   7
ENDBRANCH   1   6
TORSDOF 4
ENDMDL
MODEL 2
REMARK VINA RESULT:    -3.101      1.724      2.698
REMARK INTER + INTRA:          -3.887
REMARK INTER:                  -3.816
REMARK INTRA:                  -0.070
REMARK UNBOUND:                -0.060
REMARK SMILES CCCCCC(=O)[O-]
REMARK SMILES IDX 4 1 5 2 6 3 7 4 8 5 3 6 2 7 1 8
REMARK H PARENT
REMARK Flexibility Score: inf
ROOT
ATOM      1  C   UNL     1      93.518 102.990  89.722  1.00  0.00     0.006 C 
ENDROOT
BRANCH   1   2
ATOM      2  C   UNL     1      92.149 102.794  90.398  1.00  0.00     0.053 C 
BRANCH   2   3
ATOM      3  C   UNL     1      92.209 101.838  91.550  1.00  0.00     0.041 C 
ATOM      4  O   UNL     1      91.159 101.280  91.967  1.00  0.00    -0.550 OA
ATOM      5  O   UNL     1      93.429 101.528  92.138  1.00  0.00    -0.550 OA
ENDBRANCH   2   3
ENDBRANCH   1   2
BRANCH   1   6
ATOM      6  C   UNL     1      94.192 104.336  90.050  1.00  0.00     0.000 C 
BRANCH   6   7
ATOM      7  C   UNL     1      95.587 104.535  89.434  1.00  0.00    -0.003 C 
ATOM      8  C   UNL     1      95.992 106.004  89.325  1.00  0.00     0.004 C 
ENDBRANCH   6   7
ENDBRANCH   1   6
TORSDOF 4
ENDMDL
MODEL 3
REMARK VINA RESULT:    -3.088      2.839      3.683
REMARK INTER + INTRA:          -3.870
REMARK INTER:                  -3.638
REMARK INTRA:                  -0.232
REMARK UNBOUND:                -0.060
REMARK SMILES CCCCCC(=O)[O-]
REMARK SMILES IDX 4 1 5 2 6 3 7 4 8 5 3 6 2 7 1 8
REMARK H PARENT
REMARK Flexibility Score: inf
ROOT
ATOM      1  C   UNL     1      90.647 100.622  92.513  1.00  0.00     0.006 C 
ENDROOT
BRANCH   1   2
ATOM      2  C   UNL     1      89.520 100.016  91.657  1.00  0.00     0.053 C 
BRANCH   2   3
ATOM      3  C   UNL     1      89.612  98.523  91.562  1.00  0.00     0.041 C 
ATOM      4  O   UNL     1      89.060  97.796  92.431  1.00  0.00    -0.550 OA
ATOM      5  O   UNL     1      90.271  97.930  90.492  1.00  0.00    -0.550 OA
ENDBRANCH   2   3
ENDBRANCH   1   2
BRANCH   1   6
ATOM      6  C   UNL     1      92.011 100.685  91.801  1.00  0.00     0.000 C 
BRANCH   6   7
ATOM      7  C   UNL     1      93.138  99.887  92.478  1.00  0.00    -0.003 C 
ATOM      8  C   UNL     1      92.657  99.065  93.673  1.00  0.00     0.004 C 
ENDBRANCH   6   7
ENDBRANCH   1   6
TORSDOF 4
ENDMDL
MODEL 4
REMARK VINA RESULT:    -3.073     14.413     15.278
REMARK INTER + INTRA:          -3.852
REMARK INTER:                  -3.783
REMARK INTRA:                  -0.069
REMARK UNBOUND:                -0.060
REMARK SMILES CCCCCC(=O)[O-]
REMARK SMILES IDX 4 1 5 2 6 3 7 4 8 5 3 6 2 7 1 8
REMARK H PARENT
REMARK Flexibility Score: inf
ROOT
ATOM      1  C   UNL     1     104.456  94.982  89.734  1.00  0.00     0.006 C 
ENDROOT
BRANCH   1   2
ATOM      2  C   UNL     1     105.851  95.169  90.357  1.00  0.00     0.053 C 
BRANCH   2   3
ATOM      3  C   UNL     1     105.858  96.193  91.451  1.00  0.00     0.041 C 
ATOM      4  O   UNL     1     104.788  96.503  92.038  1.00  0.00    -0.550 OA
ATOM      5  O   UNL     1     107.053  96.776  91.854  1.00  0.00    -0.550 OA
ENDBRANCH   2   3
ENDBRANCH   1   2
BRANCH   1   6
ATOM      6  C   UNL     1     103.738  93.692  90.175  1.00  0.00     0.000 C 
BRANCH   6   7
ATOM      7  C   UNL     1     102.469  93.347  89.379  1.00  0.00    -0.003 C 
ATOM      8  C   UNL     1     102.204  91.844  89.295  1.00  0.00     0.004 C 
ENDBRANCH   6   7
ENDBRANCH   1   6
TORSDOF 4
ENDMDL
MODEL 5
REMARK VINA RESULT:    -3.065      3.824      4.661
REMARK INTER + INTRA:          -3.841
REMARK INTER:                  -3.685
REMARK INTRA:                  -0.156
REMARK UNBOUND:                -0.060
REMARK SMILES CCCCCC(=O)[O-]
REMARK SMILES IDX 4 1 5 2 6 3 7 4 8 5 3 6 2 7 1 8
REMARK H PARENT
REMARK Flexibility Score: inf
ROOT
ATOM      1  C   UNL     1      89.507  98.631  92.335  1.00  0.00     0.006 C 
ENDROOT
BRANCH   1   2
ATOM      2  C   UNL     1      89.004  98.823  90.893  1.00  0.00     0.053 C 
BRANCH   2   3
ATOM      3  C   UNL     1      89.649  97.874  89.929  1.00  0.00     0.041 C 
ATOM      4  O   UNL     1      90.900  97.874  89.780  1.00  0.00    -0.550 OA
ATOM      5  O   UNL     1      88.876  96.959  89.225  1.00  0.00    -0.550 OA
ENDBRANCH   2   3
ENDBRANCH   1   2
BRANCH   1   6
ATOM      6  C   UNL     1      90.285  99.838  92.894  1.00  0.00     0.000 C 
BRANCH   6   7
ATOM      7  C   UNL     1      91.785  99.862  92.554  1.00  0.00    -0.003 C 
ATOM      8  C   UNL     1      92.627  99.006  93.500  1.00  0.00     0.004 C 
ENDBRANCH   6   7
ENDBRANCH   1   6
TORSDOF 4
ENDMDL
MODEL 6
REMARK VINA RESULT:    -3.040      3.404      4.650
REMARK INTER + INTRA:          -3.811
REMARK INTER:                  -3.646
REMARK INTRA:                  -0.165
REMARK UNBOUND:                -0.060
REMARK SMILES CCCCCC(=O)[O-]
REMARK SMILES IDX 4 1 5 2 6 3 7 4 8 5 3 6 2 7 1 8
REMARK H PARENT
REMARK Flexibility Score: inf
ROOT
ATOM      1  C   UNL     1      89.221  98.202  91.847  1.00  0.00     0.006 C 
ENDROOT
BRANCH   1   2
ATOM      2  C   UNL     1      90.436  99.010  92.338  1.00  0.00     0.053 C 
BRANCH   2   3
ATOM      3  C   UNL     1      90.185 100.488  92.328  1.00  0.00     0.041 C 
ATOM      4  O   UNL     1      91.016 101.270  91.796  1.00  0.00    -0.550 OA
ATOM      5  O   UNL     1      89.012 101.000  92.870  1.00  0.00    -0.550 OA
ENDBRANCH   2   3
ENDBRANCH   1   2
BRANCH   1   6
ATOM      6  C   UNL     1      88.875  98.428  90.363  1.00  0.00     0.000 C 
BRANCH   6   7
ATOM      7  C   UNL     1      89.442  97.377  89.394  1.00  0.00    -0.003 C 
ATOM      8  C   UNL     1      90.803  97.766  88.818  1.00  0.00     0.004 C 
ENDBRANCH   6   7
ENDBRANCH   1   6
TORSDOF 4
ENDMDL
MODEL 7
REMARK VINA RESULT:    -3.034     15.434     16.557
REMARK INTER + INTRA:          -3.803
REMARK INTER:                  -3.569
REMARK INTRA:                  -0.234
REMARK UNBOUND:                -0.060
REMARK SMILES CCCCCC(=O)[O-]
REMARK SMILES IDX 4 1 5 2 6 3 7 4 8 5 3 6 2 7 1 8
REMARK H PARENT
REMARK Flexibility Score: inf
ROOT
ATOM      1  C   UNL     1     107.696  97.390  92.755  1.00  0.00     0.006 C 
ENDROOT
BRANCH   1   2
ATOM      2  C   UNL     1     108.852  97.912  91.883  1.00  0.00     0.053 C 
BRANCH   2   3
ATOM      3  C   UNL     1     108.712  99.368  91.556  1.00  0.00     0.041 C 
ATOM      4  O   UNL     1     109.125 100.243  92.363  1.00  0.00    -0.550 OA
ATOM      5  O   UNL     1     108.164  99.761  90.341  1.00  0.00    -0.550 OA
ENDBRANCH   2   3
ENDBRANCH   1   2
BRANCH   1   6
ATOM      6  C   UNL     1     106.412  97.066  91.966  1.00  0.00     0.000 C 
BRANCH   6   7
ATOM      7  C   UNL     1     105.262  98.070  92.149  1.00  0.00    -0.003 C 
ATOM      8  C   UNL     1     105.362  98.865  93.451  1.00  0.00     0.004 C 
ENDBRANCH   6   7
ENDBRANCH   1   6
TORSDOF 4
ENDMDL
MODEL 8
REMARK VINA RESULT:    -3.020      3.636      4.970
REMARK INTER + INTRA:          -3.786
REMARK INTER:                  -3.645
REMARK INTRA:                  -0.141
REMARK UNBOUND:                -0.060
REMARK SMILES CCCCCC(=O)[O-]
REMARK SMILES IDX 4 1 5 2 6 3 7 4 8 5 3 6 2 7 1 8
REMARK H PARENT
REMARK Flexibility Score: inf
ROOT
ATOM      1  C   UNL     1      89.422  99.704  91.864  1.00  0.00     0.006 C 
ENDROOT
BRANCH   1   2
ATOM      2  C   UNL     1      90.284  99.866  93.129  1.00  0.00     0.053 C 
BRANCH   2   3
ATOM      3  C   UNL     1      91.750  99.733  92.846  1.00  0.00     0.041 C 
ATOM      4  O   UNL     1      92.259 100.311  91.850  1.00  0.00    -0.550 OA
ATOM      5  O   UNL     1      92.564  99.006  93.705  1.00  0.00    -0.550 OA
ENDBRANCH   2   3
ENDBRANCH   1   2
BRANCH   1   6
ATOM      6  C   UNL     1      89.261  98.244  91.398  1.00  0.00     0.000 C 
BRANCH   6   7
ATOM      7  C   UNL     1      90.021  97.882  90.111  1.00  0.00    -0.003 C 
ATOM      8  C   UNL     1      89.167  97.107  89.108  1.00  0.00     0.004 C 
ENDBRANCH   6   7
ENDBRANCH   1   6
TORSDOF 4
ENDMDL
MODEL 9
REMARK VINA RESULT:    -3.005     14.908     15.933
REMARK INTER + INTRA:          -3.768
REMARK INTER:                  -3.545
REMARK INTRA:                  -0.223
REMARK UNBOUND:                -0.060
REMARK SMILES CCCCCC(=O)[O-]
REMARK SMILES IDX 4 1 5 2 6 3 7 4 8 5 3 6 2 7 1 8
REMARK H PARENT
REMARK Flexibility Score: inf
ROOT
ATOM      1  C   UNL     1     108.569  98.251  91.973  1.00  0.00     0.006 C 
ENDROOT
BRANCH   1   2
ATOM      2  C   UNL     1     107.581  97.929  93.109  1.00  0.00     0.053 C 
BRANCH   2   3
ATOM      3  C   UNL     1     106.173  98.316  92.771  1.00  0.00     0.041 C 
ATOM      4  O   UNL     1     105.653  97.936  91.689  1.00  0.00    -0.550 OA
ATOM      5  O   UNL     1     105.420  99.062  93.669  1.00  0.00    -0.550 OA
ENDBRANCH   2   3
ENDBRANCH   1   2
BRANCH   1   6
ATOM      6  C   UNL     1     108.782  99.758  91.734  1.00  0.00     0.000 C 
BRANCH   6   7
ATOM      7  C   UNL     1     108.863 100.180  90.258  1.00  0.00    -0.003 C 
ATOM      8  C   UNL     1     107.499 100.208  89.567  1.00  0.00     0.004 C 
ENDBRANCH   6   7
ENDBRANCH   1   6
TORSDOF 4
ENDMDL
