MODEL 1
REMARK VINA RESULT:    -4.184      0.000      0.000
REMARK INTER + INTRA:          -9.801
REMARK INTER:                  -8.097
REMARK INTRA:                  -1.703
REMARK UNBOUND:                -1.703
REMARK SMILES CCCCCCCCCCCCCCCCCC(=O)[O-]
REMARK SMILES IDX 10 1 11 2 12 3 13 4 14 5 15 6 16 7 17 8 18 9 19 10 20 11
REMARK SMILES IDX 9 12 8 13 7 14 6 15 5 16 4 17 3 18 2 19 1 20
REMARK H PARENT
REMARK Flexibility Score: inf
ROOT
ATOM      1  C   UNL     1      19.280   4.052  41.633  1.00  0.00     0.000 C 
ENDROOT
BRANCH   1   2
ATOM      2  C   UNL     1      18.167   3.142  41.097  1.00  0.00     0.000 C 
BRANCH   2   3
ATOM      3  C   UNL     1      17.206   2.729  42.219  1.00  0.00     0.000 C 
BRANCH   3   4
ATOM      4  C   UNL     1      17.773   1.553  43.023  1.00  0.00     0.000 C 
BRANCH   4   5
ATOM      5  C   UNL     1      17.108   1.460  44.404  1.00  0.00     0.000 C 
BRANCH   5   6
ATOM      6  C   UNL     1      17.195   0.051  45.019  1.00  0.00     0.000 C 
BRANCH   6   7
ATOM      7  C   UNL     1      17.976  -0.981  44.179  1.00  0.00     0.006 C 
BRANCH   7   8
ATOM      8  C   UNL     1      19.030  -1.777  44.964  1.00  0.00     0.053 C 
BRANCH   8   9
ATOM      9  C   UNL     1      20.424  -1.412  44.559  1.00  0.00     0.041 C 
ATOM     10  O   UNL     1      21.396  -1.680  45.314  1.00  0.00    -0.550 OA
ATOM     11  O   UNL     1      20.647  -0.746  43.360  1.00  0.00    -0.550 OA
ENDBRANCH   8   9
ENDBRANCH   7   8
ENDBRANCH   6   7
ENDBRANCH   5   6
ENDBRANCH   4   5
ENDBRANCH   3   4
ENDBRANCH   2   3
ENDBRANCH   1   2
BRANCH   1  12
ATOM     12  C   UNL     1      20.657   3.578  41.150  1.00  0.00     0.000 C 
BRANCH  12  13
ATOM     13  C   UNL     1      21.435   2.800  42.228  1.00  0.00    -0.000 C 
BRANCH  13  14
ATOM     14  C   UNL     1      22.884   3.276  42.462  1.00  0.00    -0.000 C 
BRANCH  14  15
ATOM     15  C   UNL     1      23.171   4.728  42.036  1.00  0.00    -0.000 C 
BRANCH  15  16
ATOM     16  C   UNL     1      24.375   4.901  41.092  1.00  0.00    -0.000 C 
BRANCH  16  17
ATOM     17  C   UNL     1      25.135   3.587  40.807  1.00  0.00    -0.000 C 
BRANCH  17  18
ATOM     18  C   UNL     1      24.925   3.085  39.368  1.00  0.00    -0.000 C 
BRANCH  18  19
ATOM     19  C   UNL     1      24.017   1.847  39.303  1.00  0.00    -0.003 C 
ATOM     20  C   UNL     1      22.719   2.107  38.539  1.00  0.00     0.004 C 
ENDBRANCH  18  19
ENDBRANCH  17  18
ENDBRANCH  16  17
ENDBRANCH  15  16
ENDBRANCH  14  15
ENDBRANCH  13  14
ENDBRANCH  12  13
ENDBRANCH   1  12
TORSDOF 16
ENDMDL
MODEL 2
REMARK VINA RESULT:    -4.174     11.887     14.501
REMARK INTER + INTRA:          -9.781
REMARK INTER:                  -8.119
REMARK INTRA:                  -1.662
REMARK UNBOUND:                -1.703
REMARK SMILES CCCCCCCCCCCCCCCCCC(=O)[O-]
REMARK SMILES IDX 10 1 11 2 12 3 13 4 14 5 15 6 16 7 17 8 18 9 19 10 20 11
REMARK SMILES IDX 9 12 8 13 7 14 6 15 5 16 4 17 3 18 2 19 1 20
REMARK H PARENT
REMARK Flexibility Score: inf
ROOT
ATOM      1  C   UNL     1      22.774  -3.998  54.393  1.00  0.00     0.000 C 
ENDROOT
BRANCH   1   2
ATOM      2  C   UNL     1      23.181  -2.520  54.344  1.00  0.00     0.000 C 
BRANCH   2   3
ATOM      3  C   UNL     1      23.481  -1.985  55.750  1.00  0.00     0.000 C 
BRANCH   3   4
ATOM      4  C   UNL     1      24.135  -3.064  56.620  1.00  0.00     0.000 C 
BRANCH   4   5
ATOM      5  C   UNL     1      23.369  -3.245  57.939  1.00  0.00     0.000 C 
BRANCH   5   6
ATOM      6  C   UNL     1      21.895  -2.813  57.842  1.00  0.00     0.000 C 
BRANCH   6   7
ATOM      7  C   UNL     1      20.902  -3.948  57.514  1.00  0.00     0.006 C 
BRANCH   7   8
ATOM      8  C   UNL     1      19.449  -3.489  57.319  1.00  0.00     0.053 C 
BRANCH   8   9
ATOM      9  C   UNL     1      19.359  -2.271  56.453  1.00  0.00     0.041 C 
ATOM     10  O   UNL     1      19.083  -1.151  56.960  1.00  0.00    -0.550 OA
ATOM     11  O   UNL     1      19.549  -2.378  55.081  1.00  0.00    -0.550 OA
ENDBRANCH   8   9
ENDBRANCH   7   8
ENDBRANCH   6   7
ENDBRANCH   5   6
ENDBRANCH   4   5
ENDBRANCH   3   4
ENDBRANCH   2   3
ENDBRANCH   1   2
BRANCH   1  12
ATOM     12  C   UNL     1      21.792  -4.335  53.261  1.00  0.00     0.000 C 
BRANCH  12  13
ATOM     13  C   UNL     1      22.189  -3.701  51.915  1.00  0.00    -0.000 C 
BRANCH  13  14
ATOM     14  C   UNL     1      22.992  -4.620  50.970  1.00  0.00    -0.000 C 
BRANCH  14  15
ATOM     15  C   UNL     1      23.785  -5.741  51.667  1.00  0.00    -0.000 C 
BRANCH  15  16
ATOM     16  C   UNL     1      25.184  -5.331  52.166  1.00  0.00    -0.000 C 
BRANCH  16  17
ATOM     17  C   UNL     1      25.605  -6.030  53.478  1.00  0.00    -0.000 C 
BRANCH  17  18
ATOM     18  C   UNL     1      27.132  -6.072  53.659  1.00  0.00    -0.000 C 
BRANCH  18  19
ATOM     19  C   UNL     1      27.878  -6.265  52.329  1.00  0.00    -0.003 C 
ATOM     20  C   UNL     1      29.344  -6.650  52.526  1.00  0.00     0.004 C 
ENDBRANCH  18  19
ENDBRANCH  17  18
ENDBRANCH  16  17
ENDBRANCH  15  16
ENDBRANCH  14  15
ENDBRANCH  13  14
ENDBRANCH  12  13
ENDBRANCH   1  12
TORSDOF 16
ENDMDL
MODEL 3
REMARK VINA RESULT:    -4.128     13.753     15.535
REMARK INTER + INTRA:          -9.692
REMARK INTER:                  -7.597
REMARK INTRA:                  -2.095
REMARK UNBOUND:                -1.703
REMARK SMILES CCCCCCCCCCCCCCCCCC(=O)[O-]
REMARK SMILES IDX 10 1 11 2 12 3 13 4 14 5 15 6 16 7 17 8 18 9 19 10 20 11
REMARK SMILES IDX 9 12 8 13 7 14 6 15 5 16 4 17 3 18 2 19 1 20
REMARK H PARENT
REMARK Flexibility Score: inf
ROOT
ATOM      1  C   UNL     1      22.682  -1.719  55.311  1.00  0.00     0.000 C 
ENDROOT
BRANCH   1   2
ATOM      2  C   UNL     1      23.744  -2.507  56.089  1.00  0.00     0.000 C 
BRANCH   2   3
ATOM      3  C   UNL     1      24.258  -3.696  55.267  1.00  0.00     0.000 C 
BRANCH   3   4
ATOM      4  C   UNL     1      23.331  -3.986  54.081  1.00  0.00     0.000 C 
BRANCH   4   5
ATOM      5  C   UNL     1      24.025  -4.889  53.050  1.00  0.00     0.000 C 
BRANCH   5   6
ATOM      6  C   UNL     1      25.218  -5.665  53.637  1.00  0.00     0.000 C 
BRANCH   6   7
ATOM      7  C   UNL     1      26.350  -5.976  52.637  1.00  0.00     0.006 C 
BRANCH   7   8
ATOM      8  C   UNL     1      27.765  -5.909  53.233  1.00  0.00     0.053 C 
BRANCH   8   9
ATOM      9  C   UNL     1      28.745  -6.716  52.439  1.00  0.00     0.041 C 
ATOM     10  O   UNL     1      28.492  -7.025  51.245  1.00  0.00    -0.550 OA
ATOM     11  O   UNL     1      29.925  -7.153  53.028  1.00  0.00    -0.550 OA
ENDBRANCH   8   9
ENDBRANCH   7   8
ENDBRANCH   6   7
ENDBRANCH   5   6
ENDBRANCH   4   5
ENDBRANCH   3   4
ENDBRANCH   2   3
ENDBRANCH   1   2
BRANCH   1  12
ATOM     12  C   UNL     1      21.996  -0.684  56.213  1.00  0.00     0.000 C 
BRANCH  12  13
ATOM     13  C   UNL     1      20.683  -1.202  56.829  1.00  0.00    -0.000 C 
BRANCH  13  14
ATOM     14  C   UNL     1      19.975  -2.313  56.024  1.00  0.00    -0.000 C 
BRANCH  14  15
ATOM     15  C   UNL     1      19.639  -3.585  56.824  1.00  0.00    -0.000 C 
BRANCH  15  16
ATOM     16  C   UNL     1      20.861  -4.376  57.327  1.00  0.00    -0.000 C 
BRANCH  16  17
ATOM     17  C   UNL     1      20.927  -5.824  56.792  1.00  0.00    -0.000 C 
BRANCH  17  18
ATOM     18  C   UNL     1      20.672  -5.905  55.278  1.00  0.00    -0.000 C 
BRANCH  18  19
ATOM     19  C   UNL     1      21.306  -7.151  54.639  1.00  0.00    -0.003 C 
ATOM     20  C   UNL     1      20.953  -7.300  53.159  1.00  0.00     0.004 C 
ENDBRANCH  18  19
ENDBRANCH  17  18
ENDBRANCH  16  17
ENDBRANCH  15  16
ENDBRANCH  14  15
ENDBRANCH  13  14
ENDBRANCH  12  13
ENDBRANCH   1  12
TORSDOF 16
ENDMDL
MODEL 4
REMARK VINA RESULT:    -4.036      9.749     13.873
REMARK INTER + INTRA:          -9.515
REMARK INTER:                  -7.608
REMARK INTRA:                  -1.907
REMARK UNBOUND:                -1.703
REMARK SMILES CCCCCCCCCCCCCCCCCC(=O)[O-]
REMARK SMILES IDX 10 1 11 2 12 3 13 4 14 5 15 6 16 7 17 8 18 9 19 10 20 11
REMARK SMILES IDX 9 12 8 13 7 14 6 15 5 16 4 17 3 18 2 19 1 20
REMARK H PARENT
REMARK Flexibility Score: inf
ROOT
ATOM      1  C   UNL     1      22.844  -3.055  53.798  1.00  0.00     0.000 C 
ENDROOT
BRANCH   1   2
ATOM      2  C   UNL     1      22.727  -4.531  54.198  1.00  0.00     0.000 C 
BRANCH   2   3
ATOM      3  C   UNL     1      23.336  -5.442  53.125  1.00  0.00     0.000 C 
BRANCH   3   4
ATOM      4  C   UNL     1      23.970  -4.617  51.999  1.00  0.00     0.000 C 
BRANCH   4   5
ATOM      5  C   UNL     1      23.624  -5.206  50.624  1.00  0.00     0.000 C 
BRANCH   5   6
ATOM      6  C   UNL     1      22.660  -4.318  49.815  1.00  0.00     0.000 C 
BRANCH   6   7
ATOM      7  C   UNL     1      23.321  -3.124  49.096  1.00  0.00     0.006 C 
BRANCH   7   8
ATOM      8  C   UNL     1      23.933  -3.462  47.728  1.00  0.00     0.053 C 
BRANCH   8   9
ATOM      9  C   UNL     1      24.665  -2.296  47.140  1.00  0.00     0.041 C 
ATOM     10  O   UNL     1      24.051  -1.228  46.876  1.00  0.00    -0.550 OA
ATOM     11  O   UNL     1      26.021  -2.399  46.853  1.00  0.00    -0.550 OA
ENDBRANCH   8   9
ENDBRANCH   7   8
ENDBRANCH   6   7
ENDBRANCH   5   6
ENDBRANCH   4   5
ENDBRANCH   3   4
ENDBRANCH   2   3
ENDBRANCH   1   2
BRANCH   1  12
ATOM     12  C   UNL     1      23.613  -2.257  54.861  1.00  0.00     0.000 C 
BRANCH  12  13
ATOM     13  C   UNL     1      24.292  -3.157  55.910  1.00  0.00    -0.000 C 
BRANCH  13  14
ATOM     14  C   UNL     1      23.835  -2.926  57.366  1.00  0.00    -0.000 C 
BRANCH  14  15
ATOM     15  C   UNL     1      22.667  -3.816  57.832  1.00  0.00    -0.000 C 
BRANCH  15  16
ATOM     16  C   UNL     1      21.265  -3.266  57.510  1.00  0.00    -0.000 C 
BRANCH  16  17
ATOM     17  C   UNL     1      21.124  -1.746  57.745  1.00  0.00    -0.000 C 
BRANCH  17  18
ATOM     18  C   UNL     1      20.637  -0.999  56.492  1.00  0.00    -0.000 C 
BRANCH  18  19
ATOM     19  C   UNL     1      19.677  -1.842  55.639  1.00  0.00    -0.003 C 
ATOM     20  C   UNL     1      18.783  -0.990  54.738  1.00  0.00     0.004 C 
ENDBRANCH  18  19
ENDBRANCH  17  18
ENDBRANCH  16  17
ENDBRANCH  15  16
ENDBRANCH  14  15
ENDBRANCH  13  14
ENDBRANCH  12  13
ENDBRANCH   1  12
TORSDOF 16
ENDMDL
MODEL 5
REMARK VINA RESULT:    -3.990     10.330     14.497
REMARK INTER + INTRA:          -9.425
REMARK INTER:                  -6.816
REMARK INTRA:                  -2.609
REMARK UNBOUND:                -1.703
REMARK SMILES CCCCCCCCCCCCCCCCCC(=O)[O-]
REMARK SMILES IDX 10 1 11 2 12 3 13 4 14 5 15 6 16 7 17 8 18 9 19 10 20 11
REMARK SMILES IDX 9 12 8 13 7 14 6 15 5 16 4 17 3 18 2 19 1 20
REMARK H PARENT
REMARK Flexibility Score: inf
ROOT
ATOM      1  C   UNL     1      24.245  -2.971  56.274  1.00  0.00     0.000 C 
ENDROOT
BRANCH   1   2
ATOM      2  C   UNL     1      23.582  -2.139  55.169  1.00  0.00     0.000 C 
BRANCH   2   3
ATOM      3  C   UNL     1      23.166  -3.025  53.988  1.00  0.00     0.000 C 
BRANCH   3   4
ATOM      4  C   UNL     1      23.778  -4.425  54.108  1.00  0.00     0.000 C 
BRANCH   4   5
ATOM      5  C   UNL     1      22.877  -5.478  53.447  1.00  0.00     0.000 C 
BRANCH   5   6
ATOM      6  C   UNL     1      22.550  -5.152  51.979  1.00  0.00     0.000 C 
BRANCH   6   7
ATOM      7  C   UNL     1      23.745  -5.244  51.007  1.00  0.00     0.006 C 
BRANCH   7   8
ATOM      8  C   UNL     1      23.358  -5.286  49.521  1.00  0.00     0.053 C 
BRANCH   8   9
ATOM      9  C   UNL     1      22.442  -4.161  49.150  1.00  0.00     0.041 C 
ATOM     10  O   UNL     1      21.279  -4.402  48.731  1.00  0.00    -0.550 OA
ATOM     11  O   UNL     1      22.884  -2.847  49.237  1.00  0.00    -0.550 OA
ENDBRANCH   8   9
ENDBRANCH   7   8
ENDBRANCH   6   7
ENDBRANCH   5   6
ENDBRANCH   4   5
ENDBRANCH   3   4
ENDBRANCH   2   3
ENDBRANCH   1   2
BRANCH   1  12
ATOM     12  C   UNL     1      23.369  -3.008  57.534  1.00  0.00     0.000 C 
BRANCH  12  13
ATOM     13  C   UNL     1      22.525  -4.292  57.640  1.00  0.00    -0.000 C 
BRANCH  13  14
ATOM     14  C   UNL     1      21.005  -4.093  57.460  1.00  0.00    -0.000 C 
BRANCH  14  15
ATOM     15  C   UNL     1      20.457  -4.474  56.072  1.00  0.00    -0.000 C 
BRANCH  15  16
ATOM     16  C   UNL     1      19.303  -3.589  55.566  1.00  0.00    -0.000 C 
BRANCH  16  17
ATOM     17  C   UNL     1      19.772  -2.332  54.802  1.00  0.00    -0.000 C 
BRANCH  17  18
ATOM     18  C   UNL     1      19.554  -1.038  55.605  1.00  0.00    -0.000 C 
BRANCH  18  19
ATOM     19  C   UNL     1      20.832  -0.559  56.310  1.00  0.00    -0.003 C 
ATOM     20  C   UNL     1      20.679  -0.493  57.829  1.00  0.00     0.004 C 
ENDBRANCH  18  19
ENDBRANCH  17  18
ENDBRANCH  16  17
ENDBRANCH  15  16
ENDBRANCH  14  15
ENDBRANCH  13  14
ENDBRANCH  12  13
ENDBRANCH   1  12
TORSDOF 16
ENDMDL
MODEL 6
REMARK VINA RESULT:    -3.942      8.663     11.360
REMARK INTER + INTRA:          -9.332
REMARK INTER:                  -6.965
REMARK INTRA:                  -2.367
REMARK UNBOUND:                -1.703
REMARK SMILES CCCCCCCCCCCCCCCCCC(=O)[O-]
REMARK SMILES IDX 10 1 11 2 12 3 13 4 14 5 15 6 16 7 17 8 18 9 19 10 20 11
REMARK SMILES IDX 9 12 8 13 7 14 6 15 5 16 4 17 3 18 2 19 1 20
REMARK H PARENT
REMARK Flexibility Score: inf
ROOT
ATOM      1  C   UNL     1      30.205   7.766  44.891  1.00  0.00     0.000 C 
ENDROOT
BRANCH   1   2
ATOM      2  C   UNL     1      28.920   7.527  44.087  1.00  0.00     0.000 C 
BRANCH   2   3
ATOM      3  C   UNL     1      27.901   6.724  44.905  1.00  0.00     0.000 C 
BRANCH   3   4
ATOM      4  C   UNL     1      27.464   5.463  44.151  1.00  0.00     0.000 C 
BRANCH   4   5
ATOM      5  C   UNL     1      28.505   4.344  44.299  1.00  0.00     0.000 C 
BRANCH   5   6
ATOM      6  C   UNL     1      29.305   4.093  43.008  1.00  0.00     0.000 C 
BRANCH   6   7
ATOM      7  C   UNL     1      28.558   4.433  41.701  1.00  0.00     0.006 C 
BRANCH   7   8
ATOM      8  C   UNL     1      29.338   5.345  40.740  1.00  0.00     0.053 C 
BRANCH   8   9
ATOM      9  C   UNL     1      29.844   4.595  39.547  1.00  0.00     0.041 C 
ATOM     10  O   UNL     1      29.065   3.864  38.879  1.00  0.00    -0.550 OA
ATOM     11  O   UNL     1      31.184   4.680  39.190  1.00  0.00    -0.550 OA
ENDBRANCH   8   9
ENDBRANCH   7   8
ENDBRANCH   6   7
ENDBRANCH   5   6
ENDBRANCH   4   5
ENDBRANCH   3   4
ENDBRANCH   2   3
ENDBRANCH   1   2
BRANCH   1  12
ATOM     12  C   UNL     1      31.403   7.070  44.230  1.00  0.00     0.000 C 
BRANCH  12  13
ATOM     13  C   UNL     1      32.129   6.097  45.177  1.00  0.00    -0.000 C 
BRANCH  13  14
ATOM     14  C   UNL     1      31.238   5.449  46.259  1.00  0.00    -0.000 C 
BRANCH  14  15
ATOM     15  C   UNL     1      31.355   6.074  47.662  1.00  0.00    -0.000 C 
BRANCH  15  16
ATOM     16  C   UNL     1      31.017   5.123  48.825  1.00  0.00    -0.000 C 
BRANCH  16  17
ATOM     17  C   UNL     1      29.504   5.003  49.110  1.00  0.00    -0.000 C 
BRANCH  17  18
ATOM     18  C   UNL     1      28.697   6.170  48.514  1.00  0.00    -0.000 C 
BRANCH  18  19
ATOM     19  C   UNL     1      27.212   5.824  48.325  1.00  0.00    -0.003 C 
ATOM     20  C   UNL     1      26.997   4.391  47.838  1.00  0.00     0.004 C 
ENDBRANCH  18  19
ENDBRANCH  17  18
ENDBRANCH  16  17
ENDBRANCH  15  16
ENDBRANCH  14  15
ENDBRANCH  13  14
ENDBRANCH  12  13
ENDBRANCH   1  12
TORSDOF 16
ENDMDL
MODEL 7
REMARK VINA RESULT:    -3.932      1.816      6.681
REMARK INTER + INTRA:          -9.313
REMARK INTER:                  -7.202
REMARK INTRA:                  -2.112
REMARK UNBOUND:                -1.703
REMARK SMILES CCCCCCCCCCCCCCCCCC(=O)[O-]
REMARK SMILES IDX 10 1 11 2 12 3 13 4 14 5 15 6 16 7 17 8 18 9 19 10 20 11
REMARK SMILES IDX 9 12 8 13 7 14 6 15 5 16 4 17 3 18 2 19 1 20
REMARK H PARENT
REMARK Flexibility Score: inf
ROOT
ATOM      1  C   UNL     1      21.220   3.000  42.259  1.00  0.00     0.000 C 
ENDROOT
BRANCH   1   2
ATOM      2  C   UNL     1      22.298   3.145  43.341  1.00  0.00     0.000 C 
BRANCH   2   3
ATOM      3  C   UNL     1      23.082   4.451  43.164  1.00  0.00     0.000 C 
BRANCH   3   4
ATOM      4  C   UNL     1      23.157   4.852  41.686  1.00  0.00     0.000 C 
BRANCH   4   5
ATOM      5  C   UNL     1      24.610   4.843  41.188  1.00  0.00     0.000 C 
BRANCH   5   6
ATOM      6  C   UNL     1      24.950   3.597  40.351  1.00  0.00     0.000 C 
BRANCH   6   7
ATOM      7  C   UNL     1      23.732   2.784  39.866  1.00  0.00     0.006 C 
BRANCH   7   8
ATOM      8  C   UNL     1      24.084   1.548  39.023  1.00  0.00     0.053 C 
BRANCH   8   9
ATOM      9  C   UNL     1      23.672   0.276  39.697  1.00  0.00     0.041 C 
ATOM     10  O   UNL     1      23.698  -0.814  39.066  1.00  0.00    -0.550 OA
ATOM     11  O   UNL     1      23.228   0.299  41.013  1.00  0.00    -0.550 OA
ENDBRANCH   8   9
ENDBRANCH   7   8
ENDBRANCH   6   7
ENDBRANCH   5   6
ENDBRANCH   4   5
ENDBRANCH   3   4
ENDBRANCH   2   3
ENDBRANCH   1   2
BRANCH   1  12
ATOM     12  C   UNL     1      19.832   3.340  42.819  1.00  0.00     0.000 C 
BRANCH  12  13
ATOM     13  C   UNL     1      18.698   3.075  41.811  1.00  0.00    -0.000 C 
BRANCH  13  14
ATOM     14  C   UNL     1      17.486   2.304  42.377  1.00  0.00    -0.000 C 
BRANCH  14  15
ATOM     15  C   UNL     1      17.812   1.324  43.520  1.00  0.00    -0.000 C 
BRANCH  15  16
ATOM     16  C   UNL     1      17.983  -0.143  43.085  1.00  0.00    -0.000 C 
BRANCH  16  17
ATOM     17  C   UNL     1      18.960  -0.945  43.974  1.00  0.00    -0.000 C 
BRANCH  17  18
ATOM     18  C   UNL     1      20.423  -0.505  43.786  1.00  0.00    -0.000 C 
BRANCH  18  19
ATOM     19  C   UNL     1      21.145  -0.276  45.124  1.00  0.00    -0.003 C 
ATOM     20  C   UNL     1      20.756   1.046  45.786  1.00  0.00     0.004 C 
ENDBRANCH  18  19
ENDBRANCH  17  18
ENDBRANCH  16  17
ENDBRANCH  15  16
ENDBRANCH  14  15
ENDBRANCH  13  14
ENDBRANCH  12  13
ENDBRANCH   1  12
TORSDOF 16
ENDMDL
MODEL 8
REMARK VINA RESULT:    -3.921      5.572      9.239
REMARK INTER + INTRA:          -9.292
REMARK INTER:                  -7.056
REMARK INTRA:                  -2.236
REMARK UNBOUND:                -1.703
REMARK SMILES CCCCCCCCCCCCCCCCCC(=O)[O-]
REMARK SMILES IDX 10 1 11 2 12 3 13 4 14 5 15 6 16 7 17 8 18 9 19 10 20 11
REMARK SMILES IDX 9 12 8 13 7 14 6 15 5 16 4 17 3 18 2 19 1 20
REMARK H PARENT
REMARK Flexibility Score: inf
ROOT
ATOM      1  C   UNL     1      28.967   7.223  41.491  1.00  0.00     0.000 C 
ENDROOT
BRANCH   1   2
ATOM      2  C   UNL     1      27.529   7.743  41.372  1.00  0.00     0.000 C 
BRANCH   2   3
ATOM      3  C   UNL     1      26.526   6.717  41.914  1.00  0.00     0.000 C 
BRANCH   3   4
ATOM      4  C   UNL     1      27.242   5.607  42.692  1.00  0.00     0.000 C 
BRANCH   4   5
ATOM      5  C   UNL     1      26.925   4.227  42.096  1.00  0.00     0.000 C 
BRANCH   5   6
ATOM      6  C   UNL     1      26.283   4.309  40.699  1.00  0.00     0.000 C 
BRANCH   6   7
ATOM      7  C   UNL     1      24.965   3.524  40.539  1.00  0.00     0.006 C 
BRANCH   7   8
ATOM      8  C   UNL     1      24.816   2.795  39.194  1.00  0.00     0.053 C 
BRANCH   8   9
ATOM      9  C   UNL     1      23.620   1.894  39.176  1.00  0.00     0.041 C 
ATOM     10  O   UNL     1      23.758   0.652  39.336  1.00  0.00    -0.550 OA
ATOM     11  O   UNL     1      22.354   2.423  38.953  1.00  0.00    -0.550 OA
ENDBRANCH   8   9
ENDBRANCH   7   8
ENDBRANCH   6   7
ENDBRANCH   5   6
ENDBRANCH   4   5
ENDBRANCH   3   4
ENDBRANCH   2   3
ENDBRANCH   1   2
BRANCH   1  12
ATOM     12  C   UNL     1      29.700   7.320  40.146  1.00  0.00     0.000 C 
BRANCH  12  13
ATOM     13  C   UNL     1      29.959   5.945  39.504  1.00  0.00    -0.000 C 
BRANCH  13  14
ATOM     14  C   UNL     1      30.916   5.024  40.291  1.00  0.00    -0.000 C 
BRANCH  14  15
ATOM     15  C   UNL     1      32.411   5.371  40.161  1.00  0.00    -0.000 C 
BRANCH  15  16
ATOM     16  C   UNL     1      33.163   5.507  41.498  1.00  0.00    -0.000 C 
BRANCH  16  17
ATOM     17  C   UNL     1      32.523   6.521  42.472  1.00  0.00    -0.000 C 
BRANCH  17  18
ATOM     18  C   UNL     1      32.377   5.960  43.896  1.00  0.00    -0.000 C 
BRANCH  18  19
ATOM     19  C   UNL     1      30.910   5.722  44.288  1.00  0.00    -0.003 C 
ATOM     20  C   UNL     1      30.427   4.314  43.944  1.00  0.00     0.004 C 
ENDBRANCH  18  19
ENDBRANCH  17  18
ENDBRANCH  16  17
ENDBRANCH  15  16
ENDBRANCH  14  15
ENDBRANCH  13  14
ENDBRANCH  12  13
ENDBRANCH   1  12
TORSDOF 16
ENDMDL
MODEL 9
REMARK VINA RESULT:    -3.840      2.718      5.787
REMARK INTER + INTRA:          -9.135
REMARK INTER:                  -6.449
REMARK INTRA:                  -2.687
REMARK UNBOUND:                -1.703
REMARK SMILES CCCCCCCCCCCCCCCCCC(=O)[O-]
REMARK SMILES IDX 10 1 11 2 12 3 13 4 14 5 15 6 16 7 17 8 18 9 19 10 20 11
REMARK SMILES IDX 9 12 8 13 7 14 6 15 5 16 4 17 3 18 2 19 1 20
REMARK H PARENT
REMARK Flexibility Score: inf
ROOT
ATOM      1  C   UNL     1      17.252   0.639  44.254  1.00  0.00     0.000 C 
ENDROOT
BRANCH   1   2
ATOM      2  C   UNL     1      17.130   2.005  43.566  1.00  0.00     0.000 C 
BRANCH   2   3
ATOM      3  C   UNL     1      17.998   2.064  42.303  1.00  0.00     0.000 C 
BRANCH   3   4
ATOM      4  C   UNL     1      18.652   3.442  42.149  1.00  0.00     0.000 C 
BRANCH   4   5
ATOM      5  C   UNL     1      19.505   3.506  40.874  1.00  0.00     0.000 C 
BRANCH   5   6
ATOM      6  C   UNL     1      20.978   3.854  41.153  1.00  0.00     0.000 C 
BRANCH   6   7
ATOM      7  C   UNL     1      21.987   2.733  40.828  1.00  0.00     0.006 C 
BRANCH   7   8
ATOM      8  C   UNL     1      23.462   3.157  40.910  1.00  0.00     0.053 C 
BRANCH   8   9
ATOM      9  C   UNL     1      24.274   2.575  39.796  1.00  0.00     0.041 C 
ATOM     10  O   UNL     1      23.966   1.458  39.302  1.00  0.00    -0.550 OA
ATOM     11  O   UNL     1      25.392   3.252  39.323  1.00  0.00    -0.550 OA
ENDBRANCH   8   9
ENDBRANCH   7   8
ENDBRANCH   6   7
ENDBRANCH   5   6
ENDBRANCH   4   5
ENDBRANCH   3   4
ENDBRANCH   2   3
ENDBRANCH   1   2
BRANCH   1  12
ATOM     12  C   UNL     1      18.005  -0.359  43.364  1.00  0.00     0.000 C 
BRANCH  12  13
ATOM     13  C   UNL     1      19.209  -1.006  44.074  1.00  0.00    -0.000 C 
BRANCH  13  14
ATOM     14  C   UNL     1      20.591  -0.605  43.516  1.00  0.00    -0.000 C 
BRANCH  14  15
ATOM     15  C   UNL     1      21.035   0.833  43.843  1.00  0.00    -0.000 C 
BRANCH  15  16
ATOM     16  C   UNL     1      20.736   1.292  45.282  1.00  0.00    -0.000 C 
BRANCH  16  17
ATOM     17  C   UNL     1      20.484   2.811  45.410  1.00  0.00    -0.000 C 
BRANCH  17  18
ATOM     18  C   UNL     1      21.505   3.647  44.619  1.00  0.00    -0.000 C 
BRANCH  18  19
ATOM     19  C   UNL     1      22.861   3.753  45.333  1.00  0.00    -0.003 C 
ATOM     20  C   UNL     1      23.958   4.326  44.436  1.00  0.00     0.004 C 
ENDBRANCH  18  19
ENDBRANCH  17  18
ENDBRANCH  16  17
ENDBRANCH  15  16
ENDBRANCH  14  15
ENDBRANCH  13  14
ENDBRANCH  12  13
ENDBRANCH   1  12
TORSDOF 16
ENDMDL
