MODEL 1
REMARK VINA RESULT:     3.111      0.000      0.000
REMARK INTER + INTRA:           3.288
REMARK INTER:                   3.383
REMARK INTRA:                  -0.095
REMARK UNBOUND:                -0.095
REMARK SMILES CC(=O)[C@H]1CC[C@@H]2[C@H]3CC=C4C[C@@H](O)CC[C@@]4(C)[C@@H]3CC[C@]12C
REMARK SMILES IDX 4 1 5 2 6 3 7 4 22 5 21 6 20 7 19 8 8 9 9 10 10 11 11 12
REMARK SMILES IDX 17 13 16 14 15 15 13 16 12 17 18 18 23 19 2 20 1 21 3 22
REMARK SMILES IDX 14 23
REMARK H PARENT 14 24
REMARK Flexibility Score: inf
ROOT
ATOM      1  C   UNL     1      73.875  34.088  54.617  1.00  0.00     0.062 C 
ATOM      2  C   UNL     1      73.859  32.600  55.005  1.00  0.00     0.012 C 
ATOM      3  C   UNL     1      74.589  31.849  53.891  1.00  0.00     0.005 C 
ATOM      4  C   UNL     1      74.916  32.876  52.783  1.00  0.00    -0.001 C 
ATOM      5  C   UNL     1      73.969  34.082  53.071  1.00  0.00    -0.020 C 
ATOM      6  C   UNL     1      74.471  35.427  52.470  1.00  0.00     0.008 C 
ATOM      7  C   UNL     1      75.974  35.664  52.618  1.00  0.00     0.005 C 
ATOM      8  C   UNL     1      76.764  34.486  51.996  1.00  0.00     0.003 C 
ATOM      9  C   UNL     1      76.442  33.219  52.820  1.00  0.00     0.000 C 
ATOM     10  C   UNL     1      77.288  31.991  52.387  1.00  0.00     0.031 C 
ATOM     11  C   UNL     1      78.486  32.272  51.525  1.00  0.00    -0.027 C 
ATOM     12  C   UNL     1      78.967  33.507  51.263  1.00  0.00    -0.065 C 
ATOM     13  C   UNL     1      78.314  34.747  51.876  1.00  0.00    -0.008 C 
ATOM     14  C   UNL     1      78.570  35.970  50.945  1.00  0.00     0.014 C 
ATOM     15  C   UNL     1      80.045  36.125  50.569  1.00  0.00     0.033 C 
ATOM     16  C   UNL     1      80.499  34.957  49.697  1.00  0.00     0.118 C 
ATOM     17  C   UNL     1      80.149  33.574  50.291  1.00  0.00     0.063 C 
ATOM     18  C   UNL     1      78.961  35.018  53.262  1.00  0.00     0.016 C 
ATOM     19  C   UNL     1      72.576  33.790  52.445  1.00  0.00     0.012 C 
ENDROOT
BRANCH   1  20
ATOM     20  C   UNL     1      72.733  34.919  55.199  1.00  0.00     0.133 C 
ATOM     21  C   UNL     1      71.637  34.323  56.038  1.00  0.00     0.088 C 
ATOM     22  O   UNL     1      72.715  36.122  54.990  1.00  0.00    -0.300 OA
ENDBRANCH   1  20
BRANCH  16  23
ATOM     23  O   UNL     1      79.927  35.099  48.416  1.00  0.00    -0.393 OA
ATOM     24  H   UNL     1      79.048  35.547  48.539  1.00  0.00     0.210 HD
ENDBRANCH  16  23
TORSDOF 2
ENDMDL
MODEL 2
REMARK VINA RESULT:     3.965     15.703     17.252
REMARK INTER + INTRA:           4.217
REMARK INTER:                   3.366
REMARK INTRA:                   0.851
REMARK UNBOUND:                -0.095
REMARK SMILES CC(=O)[C@H]1CC[C@@H]2[C@H]3CC=C4C[C@@H](O)CC[C@@]4(C)[C@@H]3CC[C@]12C
REMARK SMILES IDX 4 1 5 2 6 3 7 4 22 5 21 6 20 7 19 8 8 9 9 10 10 11 11 12
REMARK SMILES IDX 17 13 16 14 15 15 13 16 12 17 18 18 23 19 2 20 1 21 3 22
REMARK SMILES IDX 14 23
REMARK H PARENT 14 24
REMARK Flexibility Score: inf
ROOT
ATOM      1  C   UNL     1      86.793  32.113  66.311  1.00  0.00     0.062 C 
ATOM      2  C   UNL     1      85.389  32.237  66.925  1.00  0.00     0.012 C 
ATOM      3  C   UNL     1      84.464  31.355  66.086  1.00  0.00     0.005 C 
ATOM      4  C   UNL     1      85.295  30.818  64.898  1.00  0.00    -0.001 C 
ATOM      5  C   UNL     1      86.534  31.763  64.824  1.00  0.00    -0.020 C 
ATOM      6  C   UNL     1      87.760  31.128  64.107  1.00  0.00     0.008 C 
ATOM      7  C   UNL     1      88.015  29.665  64.466  1.00  0.00     0.005 C 
ATOM      8  C   UNL     1      86.749  28.818  64.184  1.00  0.00     0.003 C 
ATOM      9  C   UNL     1      85.636  29.310  65.136  1.00  0.00     0.000 C 
ATOM     10  C   UNL     1      84.351  28.441  65.056  1.00  0.00     0.031 C 
ATOM     11  C   UNL     1      84.484  27.109  64.374  1.00  0.00    -0.027 C 
ATOM     12  C   UNL     1      85.658  26.554  64.000  1.00  0.00    -0.065 C 
ATOM     13  C   UNL     1      86.984  27.262  64.287  1.00  0.00    -0.008 C 
ATOM     14  C   UNL     1      88.036  26.819  63.228  1.00  0.00     0.014 C 
ATOM     15  C   UNL     1      88.124  25.298  63.085  1.00  0.00     0.033 C 
ATOM     16  C   UNL     1      86.828  24.741  62.502  1.00  0.00     0.118 C 
ATOM     17  C   UNL     1      85.562  25.226  63.244  1.00  0.00     0.063 C 
ATOM     18  C   UNL     1      87.476  26.847  65.699  1.00  0.00     0.016 C 
ATOM     19  C   UNL     1      86.146  33.042  64.028  1.00  0.00     0.012 C 
ENDROOT
BRANCH   1  20
ATOM     20  C   UNL     1      87.711  33.310  66.550  1.00  0.00     0.133 C 
ATOM     21  C   UNL     1      88.115  34.257  65.456  1.00  0.00     0.088 C 
ATOM     22  O   UNL     1      88.120  33.520  67.681  1.00  0.00    -0.300 OA
ENDBRANCH   1  20
BRANCH  16  23
ATOM     23  O   UNL     1      86.759  25.088  61.137  1.00  0.00    -0.393 OA
ATOM     24  H   UNL     1      87.451  25.784  60.979  1.00  0.00     0.210 HD
ENDBRANCH  16  23
TORSDOF 2
ENDMDL
MODEL 3
REMARK VINA RESULT:     5.962      1.162      6.678
REMARK INTER + INTRA:           6.389
REMARK INTER:                   6.470
REMARK INTRA:                  -0.080
REMARK UNBOUND:                -0.095
REMARK SMILES CC(=O)[C@H]1CC[C@@H]2[C@H]3CC=C4C[C@@H](O)CC[C@@]4(C)[C@@H]3CC[C@]12C
REMARK SMILES IDX 4 1 5 2 6 3 7 4 22 5 21 6 20 7 19 8 8 9 9 10 10 11 11 12
REMARK SMILES IDX 17 13 16 14 15 15 13 16 12 17 18 18 23 19 2 20 1 21 3 22
REMARK SMILES IDX 14 23
REMARK H PARENT 14 24
REMARK Flexibility Score: inf
ROOT
ATOM      1  C   UNL     1      79.379  33.845  50.233  1.00  0.00     0.062 C 
ATOM      2  C   UNL     1      79.823  32.383  50.408  1.00  0.00     0.012 C 
ATOM      3  C   UNL     1      79.213  31.895  51.722  1.00  0.00     0.005 C 
ATOM      4  C   UNL     1      78.524  33.108  52.387  1.00  0.00    -0.001 C 
ATOM      5  C   UNL     1      79.142  34.352  51.678  1.00  0.00    -0.020 C 
ATOM      6  C   UNL     1      78.249  35.624  51.757  1.00  0.00     0.008 C 
ATOM      7  C   UNL     1      76.758  35.364  51.543  1.00  0.00     0.005 C 
ATOM      8  C   UNL     1      76.251  34.306  52.554  1.00  0.00     0.003 C 
ATOM      9  C   UNL     1      76.972  32.975  52.239  1.00  0.00     0.000 C 
ATOM     10  C   UNL     1      76.442  31.790  53.092  1.00  0.00     0.031 C 
ATOM     11  C   UNL     1      75.136  32.007  53.802  1.00  0.00    -0.027 C 
ATOM     12  C   UNL     1      74.324  33.068  53.605  1.00  0.00    -0.065 C 
ATOM     13  C   UNL     1      74.682  34.147  52.581  1.00  0.00    -0.008 C 
ATOM     14  C   UNL     1      74.027  35.493  53.010  1.00  0.00     0.014 C 
ATOM     15  C   UNL     1      72.534  35.351  53.315  1.00  0.00     0.033 C 
ATOM     16  C   UNL     1      72.323  34.482  54.552  1.00  0.00     0.118 C 
ATOM     17  C   UNL     1      73.079  33.135  54.495  1.00  0.00     0.063 C 
ATOM     18  C   UNL     1      74.122  33.726  51.196  1.00  0.00     0.016 C 
ATOM     19  C   UNL     1      80.498  34.698  52.357  1.00  0.00     0.012 C 
ENDROOT
BRANCH   1  20
ATOM     20  C   UNL     1      80.312  34.706  49.383  1.00  0.00     0.133 C 
ATOM     21  C   UNL     1      79.992  36.125  49.005  1.00  0.00     0.088 C 
ATOM     22  O   UNL     1      81.372  34.230  49.009  1.00  0.00    -0.300 OA
ENDBRANCH   1  20
BRANCH  16  23
ATOM     23  O   UNL     1      72.713  35.215  55.693  1.00  0.00    -0.393 OA
ATOM     24  H   UNL     1      73.365  35.900  55.387  1.00  0.00     0.210 HD
ENDBRANCH  16  23
TORSDOF 2
ENDMDL
