MODEL 1
REMARK VINA RESULT:    -3.263      0.000      0.000
REMARK INTER + INTRA:         -11.763
REMARK INTER:                  -8.605
REMARK INTRA:                  -3.158
REMARK UNBOUND:                -3.158
REMARK SMILES CCCCCCCCCCCCCCCCCCCCCCCCCCCCCC(=O)[O-]
REMARK SMILES IDX 16 1 17 2 18 3 19 4 20 5 21 6 22 7 23 8 24 9 25 10 26 11
REMARK SMILES IDX 27 12 28 13 29 14 30 15 31 16 32 17 15 18 14 19 13 20 12 21
REMARK SMILES IDX 11 22 10 23 9 24 8 25 7 26 6 27 5 28 4 29 3 30 2 31 1 32
REMARK H PARENT
REMARK Flexibility Score: inf
ROOT
ATOM      1  C   UNL     1     -12.807  10.365   4.014  1.00  0.00     0.000 C 
ENDROOT
BRANCH   1   2
ATOM      2  C   UNL     1     -13.431   9.143   3.307  1.00  0.00     0.000 C 
BRANCH   2   3
ATOM      3  C   UNL     1     -14.883   8.875   3.747  1.00  0.00     0.000 C 
BRANCH   3   4
ATOM      4  C   UNL     1     -15.907   9.252   2.659  1.00  0.00     0.000 C 
BRANCH   4   5
ATOM      5  C   UNL     1     -16.745  10.499   3.000  1.00  0.00     0.000 C 
BRANCH   5   6
ATOM      6  C   UNL     1     -18.254  10.194   3.060  1.00  0.00     0.000 C 
BRANCH   6   7
ATOM      7  C   UNL     1     -18.985  10.552   1.754  1.00  0.00     0.000 C 
BRANCH   7   8
ATOM      8  C   UNL     1     -18.117  11.278   0.711  1.00  0.00     0.000 C 
BRANCH   8   9
ATOM      9  C   UNL     1     -18.096  10.557  -0.650  1.00  0.00     0.000 C 
BRANCH   9  10
ATOM     10  C   UNL     1     -16.671  10.408  -1.209  1.00  0.00     0.000 C 
BRANCH  10  11
ATOM     11  C   UNL     1     -16.610  10.624  -2.729  1.00  0.00     0.000 C 
BRANCH  11  12
ATOM     12  C   UNL     1     -15.518   9.748  -3.361  1.00  0.00     0.000 C 
BRANCH  12  13
ATOM     13  C   UNL     1     -14.237   9.689  -2.516  1.00  0.00     0.006 C 
BRANCH  13  14
ATOM     14  C   UNL     1     -13.171  10.691  -2.979  1.00  0.00     0.053 C 
BRANCH  14  15
ATOM     15  C   UNL     1     -13.031  10.665  -4.469  1.00  0.00     0.041 C 
ATOM     16  O   UNL     1     -12.610   9.629  -5.050  1.00  0.00    -0.550 OA
ATOM     17  O   UNL     1     -13.366  11.786  -5.219  1.00  0.00    -0.550 OA
ENDBRANCH  14  15
ENDBRANCH  13  14
ENDBRANCH  12  13
ENDBRANCH  11  12
ENDBRANCH  10  11
ENDBRANCH   9  10
ENDBRANCH   8   9
ENDBRANCH   7   8
ENDBRANCH   6   7
ENDBRANCH   5   6
ENDBRANCH   4   5
ENDBRANCH   3   4
ENDBRANCH   2   3
ENDBRANCH   1   2
BRANCH   1  18
ATOM     18  C   UNL     1     -11.843  10.007   5.161  1.00  0.00     0.000 C 
BRANCH  18  19
ATOM     19  C   UNL     1     -12.391   9.016   6.204  1.00  0.00     0.000 C 
BRANCH  19  20
ATOM     20  C   UNL     1     -13.121   9.656   7.400  1.00  0.00     0.000 C 
BRANCH  20  21
ATOM     21  C   UNL     1     -14.627   9.346   7.419  1.00  0.00     0.000 C 
BRANCH  21  22
ATOM     22  C   UNL     1     -15.489  10.566   7.052  1.00  0.00     0.000 C 
BRANCH  22  23
ATOM     23  C   UNL     1     -16.929  10.238   6.608  1.00  0.00     0.000 C 
BRANCH  23  24
ATOM     24  C   UNL     1     -17.729   9.347   7.581  1.00  0.00    -0.000 C 
BRANCH  24  25
ATOM     25  C   UNL     1     -18.296  10.072   8.816  1.00  0.00    -0.000 C 
BRANCH  25  26
ATOM     26  C   UNL     1     -18.155   9.250  10.107  1.00  0.00    -0.000 C 
BRANCH  26  27
ATOM     27  C   UNL     1     -16.694   9.114  10.574  1.00  0.00    -0.000 C 
BRANCH  27  28
ATOM     28  C   UNL     1     -15.950  10.445  10.805  1.00  0.00    -0.000 C 
BRANCH  28  29
ATOM     29  C   UNL     1     -16.433  11.268  12.013  1.00  0.00    -0.000 C 
BRANCH  29  30
ATOM     30  C   UNL     1     -15.379  11.368  13.129  1.00  0.00    -0.000 C 
BRANCH  30  31
ATOM     31  C   UNL     1     -13.994  10.884  12.672  1.00  0.00    -0.003 C 
ATOM     32  C   UNL     1     -13.131  10.386  13.832  1.00  0.00     0.004 C 
ENDBRANCH  30  31
ENDBRANCH  29  30
ENDBRANCH  28  29
ENDBRANCH  27  28
ENDBRANCH  26  27
ENDBRANCH  25  26
ENDBRANCH  24  25
ENDBRANCH  23  24
ENDBRANCH  22  23
ENDBRANCH  21  22
ENDBRANCH  20  21
ENDBRANCH  19  20
ENDBRANCH  18  19
ENDBRANCH   1  18
TORSDOF 28
ENDMDL
MODEL 2
REMARK VINA RESULT:    -3.023      1.329      2.041
REMARK INTER + INTRA:         -11.129
REMARK INTER:                  -8.627
REMARK INTRA:                  -2.502
REMARK UNBOUND:                -3.158
REMARK SMILES CCCCCCCCCCCCCCCCCCCCCCCCCCCCCC(=O)[O-]
REMARK SMILES IDX 16 1 17 2 18 3 19 4 20 5 21 6 22 7 23 8 24 9 25 10 26 11
REMARK SMILES IDX 27 12 28 13 29 14 30 15 31 16 32 17 15 18 14 19 13 20 12 21
REMARK SMILES IDX 11 22 10 23 9 24 8 25 7 26 6 27 5 28 4 29 3 30 2 31 1 32
REMARK H PARENT
REMARK Flexibility Score: inf
ROOT
ATOM      1  C   UNL     1     -12.914  10.723   4.529  1.00  0.00     0.000 C 
ENDROOT
BRANCH   1   2
ATOM      2  C   UNL     1     -12.372   9.662   3.547  1.00  0.00     0.000 C 
BRANCH   2   3
ATOM      3  C   UNL     1     -13.491   8.893   2.821  1.00  0.00     0.000 C 
BRANCH   3   4
ATOM      4  C   UNL     1     -14.846   8.999   3.547  1.00  0.00     0.000 C 
BRANCH   4   5
ATOM      5  C   UNL     1     -16.061   8.998   2.599  1.00  0.00     0.000 C 
BRANCH   5   6
ATOM      6  C   UNL     1     -16.859  10.313   2.666  1.00  0.00     0.000 C 
BRANCH   6   7
ATOM      7  C   UNL     1     -18.375  10.097   2.513  1.00  0.00     0.000 C 
BRANCH   7   8
ATOM      8  C   UNL     1     -18.859   9.947   1.060  1.00  0.00     0.000 C 
BRANCH   8   9
ATOM      9  C   UNL     1     -17.897  10.591   0.044  1.00  0.00     0.000 C 
BRANCH   9  10
ATOM     10  C   UNL     1     -18.259  12.055  -0.256  1.00  0.00     0.000 C 
BRANCH  10  11
ATOM     11  C   UNL     1     -17.418  12.648  -1.396  1.00  0.00     0.000 C 
BRANCH  11  12
ATOM     12  C   UNL     1     -16.521  11.574  -2.029  1.00  0.00     0.000 C 
BRANCH  12  13
ATOM     13  C   UNL     1     -15.330  12.170  -2.795  1.00  0.00     0.006 C 
BRANCH  13  14
ATOM     14  C   UNL     1     -14.097  11.254  -2.784  1.00  0.00     0.053 C 
BRANCH  14  15
ATOM     15  C   UNL     1     -14.287  10.097  -3.715  1.00  0.00     0.041 C 
ATOM     16  O   UNL     1     -14.041   8.924  -3.327  1.00  0.00    -0.550 OA
ATOM     17  O   UNL     1     -14.739  10.314  -5.011  1.00  0.00    -0.550 OA
ENDBRANCH  14  15
ENDBRANCH  13  14
ENDBRANCH  12  13
ENDBRANCH  11  12
ENDBRANCH  10  11
ENDBRANCH   9  10
ENDBRANCH   8   9
ENDBRANCH   7   8
ENDBRANCH   6   7
ENDBRANCH   5   6
ENDBRANCH   4   5
ENDBRANCH   3   4
ENDBRANCH   2   3
ENDBRANCH   1   2
BRANCH   1  18
ATOM     18  C   UNL     1     -12.133  10.815   5.854  1.00  0.00     0.000 C 
BRANCH  18  19
ATOM     19  C   UNL     1     -12.437   9.710   6.883  1.00  0.00     0.000 C 
BRANCH  19  20
ATOM     20  C   UNL     1     -13.930   9.373   7.063  1.00  0.00     0.000 C 
BRANCH  20  21
ATOM     21  C   UNL     1     -14.370   9.372   8.536  1.00  0.00     0.000 C 
BRANCH  21  22
ATOM     22  C   UNL     1     -15.888   9.181   8.701  1.00  0.00     0.000 C 
BRANCH  22  23
ATOM     23  C   UNL     1     -16.653  10.426   9.196  1.00  0.00     0.000 C 
BRANCH  23  24
ATOM     24  C   UNL     1     -17.955  10.132   9.968  1.00  0.00    -0.000 C 
BRANCH  24  25
ATOM     25  C   UNL     1     -17.935  10.522  11.458  1.00  0.00    -0.000 C 
BRANCH  25  26
ATOM     26  C   UNL     1     -17.663  12.018  11.679  1.00  0.00    -0.000 C 
BRANCH  26  27
ATOM     27  C   UNL     1     -16.733  12.287  12.876  1.00  0.00    -0.000 C 
BRANCH  27  28
ATOM     28  C   UNL     1     -16.487  11.078  13.803  1.00  0.00    -0.000 C 
BRANCH  28  29
ATOM     29  C   UNL     1     -15.031  10.583  13.867  1.00  0.00    -0.000 C 
BRANCH  29  30
ATOM     30  C   UNL     1     -14.232  10.907  12.593  1.00  0.00    -0.000 C 
BRANCH  30  31
ATOM     31  C   UNL     1     -13.599   9.656  11.964  1.00  0.00    -0.003 C 
ATOM     32  C   UNL     1     -12.710   8.889  12.944  1.00  0.00     0.004 C 
ENDBRANCH  30  31
ENDBRANCH  29  30
ENDBRANCH  28  29
ENDBRANCH  27  28
ENDBRANCH  26  27
ENDBRANCH  25  26
ENDBRANCH  24  25
ENDBRANCH  23  24
ENDBRANCH  22  23
ENDBRANCH  21  22
ENDBRANCH  20  21
ENDBRANCH  19  20
ENDBRANCH  18  19
ENDBRANCH   1  18
TORSDOF 28
ENDMDL
MODEL 3
REMARK VINA RESULT:    -2.991      4.748     11.902
REMARK INTER + INTRA:         -11.046
REMARK INTER:                  -8.882
REMARK INTRA:                  -2.164
REMARK UNBOUND:                -3.158
REMARK SMILES CCCCCCCCCCCCCCCCCCCCCCCCCCCCCC(=O)[O-]
REMARK SMILES IDX 16 1 17 2 18 3 19 4 20 5 21 6 22 7 23 8 24 9 25 10 26 11
REMARK SMILES IDX 27 12 28 13 29 14 30 15 31 16 32 17 15 18 14 19 13 20 12 21
REMARK SMILES IDX 11 22 10 23 9 24 8 25 7 26 6 27 5 28 4 29 3 30 2 31 1 32
REMARK H PARENT
REMARK Flexibility Score: inf
ROOT
ATOM      1  C   UNL     1     -12.404   9.874   3.363  1.00  0.00     0.000 C 
ENDROOT
BRANCH   1   2
ATOM      2  C   UNL     1     -11.949   9.214   4.682  1.00  0.00     0.000 C 
BRANCH   2   3
ATOM      3  C   UNL     1     -12.624   9.830   5.922  1.00  0.00     0.000 C 
BRANCH   3   4
ATOM      4  C   UNL     1     -12.874  11.343   5.766  1.00  0.00     0.000 C 
BRANCH   4   5
ATOM      5  C   UNL     1     -14.363  11.735   5.814  1.00  0.00     0.000 C 
BRANCH   5   6
ATOM      6  C   UNL     1     -15.237  10.829   4.927  1.00  0.00     0.000 C 
BRANCH   6   7
ATOM      7  C   UNL     1     -16.426  10.219   5.691  1.00  0.00     0.000 C 
BRANCH   7   8
ATOM      8  C   UNL     1     -16.060   9.571   7.038  1.00  0.00     0.000 C 
BRANCH   8   9
ATOM      9  C   UNL     1     -17.174   9.720   8.091  1.00  0.00     0.000 C 
BRANCH   9  10
ATOM     10  C   UNL     1     -16.624  10.126   9.469  1.00  0.00     0.000 C 
BRANCH  10  11
ATOM     11  C   UNL     1     -17.660  10.876  10.318  1.00  0.00     0.000 C 
BRANCH  11  12
ATOM     12  C   UNL     1     -17.102  11.182  11.716  1.00  0.00     0.000 C 
BRANCH  12  13
ATOM     13  C   UNL     1     -15.840  10.371  12.045  1.00  0.00     0.006 C 
BRANCH  13  14
ATOM     14  C   UNL     1     -14.959  11.044  13.106  1.00  0.00     0.053 C 
BRANCH  14  15
ATOM     15  C   UNL     1     -13.521  10.673  12.916  1.00  0.00     0.041 C 
ATOM     16  O   UNL     1     -12.643  11.111  13.706  1.00  0.00    -0.550 OA
ATOM     17  O   UNL     1     -13.150   9.842  11.866  1.00  0.00    -0.550 OA
ENDBRANCH  14  15
ENDBRANCH  13  14
ENDBRANCH  12  13
ENDBRANCH  11  12
ENDBRANCH  10  11
ENDBRANCH   9  10
ENDBRANCH   8   9
ENDBRANCH   7   8
ENDBRANCH   6   7
ENDBRANCH   5   6
ENDBRANCH   4   5
ENDBRANCH   3   4
ENDBRANCH   2   3
ENDBRANCH   1   2
BRANCH   1  18
ATOM     18  C   UNL     1     -12.719   8.875   2.233  1.00  0.00     0.000 C 
BRANCH  18  19
ATOM     19  C   UNL     1     -12.042   9.166   0.881  1.00  0.00     0.000 C 
BRANCH  19  20
ATOM     20  C   UNL     1     -13.000   9.299  -0.319  1.00  0.00     0.000 C 
BRANCH  20  21
ATOM     21  C   UNL     1     -14.464   9.010   0.048  1.00  0.00     0.000 C 
BRANCH  21  22
ATOM     22  C   UNL     1     -15.457   9.579  -0.980  1.00  0.00     0.000 C 
BRANCH  22  23
ATOM     23  C   UNL     1     -16.841   9.956  -0.412  1.00  0.00     0.000 C 
BRANCH  23  24
ATOM     24  C   UNL     1     -17.844  10.513  -1.442  1.00  0.00    -0.000 C 
BRANCH  24  25
ATOM     25  C   UNL     1     -17.724  12.023  -1.722  1.00  0.00    -0.000 C 
BRANCH  25  26
ATOM     26  C   UNL     1     -17.559  12.342  -3.217  1.00  0.00    -0.000 C 
BRANCH  26  27
ATOM     27  C   UNL     1     -16.137  12.811  -3.576  1.00  0.00    -0.000 C 
BRANCH  27  28
ATOM     28  C   UNL     1     -15.545  12.194  -4.860  1.00  0.00    -0.000 C 
BRANCH  28  29
ATOM     29  C   UNL     1     -15.827  10.694  -5.060  1.00  0.00    -0.000 C 
BRANCH  29  30
ATOM     30  C   UNL     1     -14.905   9.794  -4.220  1.00  0.00    -0.000 C 
BRANCH  30  31
ATOM     31  C   UNL     1     -13.599   9.448  -4.953  1.00  0.00    -0.003 C 
ATOM     32  C   UNL     1     -12.522  10.519  -4.778  1.00  0.00     0.004 C 
ENDBRANCH  30  31
ENDBRANCH  29  30
ENDBRANCH  28  29
ENDBRANCH  27  28
ENDBRANCH  26  27
ENDBRANCH  25  26
ENDBRANCH  24  25
ENDBRANCH  23  24
ENDBRANCH  22  23
ENDBRANCH  21  22
ENDBRANCH  20  21
ENDBRANCH  19  20
ENDBRANCH  18  19
ENDBRANCH   1  18
TORSDOF 28
ENDMDL
MODEL 4
REMARK VINA RESULT:    -2.811      1.908      5.092
REMARK INTER + INTRA:         -10.571
REMARK INTER:                  -7.587
REMARK INTRA:                  -2.983
REMARK UNBOUND:                -3.158
REMARK SMILES CCCCCCCCCCCCCCCCCCCCCCCCCCCCCC(=O)[O-]
REMARK SMILES IDX 16 1 17 2 18 3 19 4 20 5 21 6 22 7 23 8 24 9 25 10 26 11
REMARK SMILES IDX 27 12 28 13 29 14 30 15 31 16 32 17 15 18 14 19 13 20 12 21
REMARK SMILES IDX 11 22 10 23 9 24 8 25 7 26 6 27 5 28 4 29 3 30 2 31 1 32
REMARK H PARENT
REMARK Flexibility Score: inf
ROOT
ATOM      1  C   UNL     1     -18.080  12.243   1.345  1.00  0.00     0.000 C 
ENDROOT
BRANCH   1   2
ATOM      2  C   UNL     1     -19.084  12.890   0.368  1.00  0.00     0.000 C 
BRANCH   2   3
ATOM      3  C   UNL     1     -18.565  12.933  -1.081  1.00  0.00     0.000 C 
BRANCH   3   4
ATOM      4  C   UNL     1     -17.551  11.811  -1.378  1.00  0.00     0.000 C 
BRANCH   4   5
ATOM      5  C   UNL     1     -17.823  11.061  -2.696  1.00  0.00     0.000 C 
BRANCH   5   6
ATOM      6  C   UNL     1     -16.923   9.822  -2.862  1.00  0.00     0.000 C 
BRANCH   6   7
ATOM      7  C   UNL     1     -16.286   9.369  -1.536  1.00  0.00     0.000 C 
BRANCH   7   8
ATOM      8  C   UNL     1     -14.818   9.793  -1.351  1.00  0.00     0.000 C 
BRANCH   8   9
ATOM      9  C   UNL     1     -13.973   9.585  -2.621  1.00  0.00     0.000 C 
BRANCH   9  10
ATOM     10  C   UNL     1     -12.944  10.709  -2.829  1.00  0.00     0.000 C 
BRANCH  10  11
ATOM     11  C   UNL     1     -12.388  10.741  -4.260  1.00  0.00     0.000 C 
BRANCH  11  12
ATOM     12  C   UNL     1     -13.475  10.362  -5.277  1.00  0.00     0.000 C 
BRANCH  12  13
ATOM     13  C   UNL     1     -13.976  11.565  -6.089  1.00  0.00     0.006 C 
BRANCH  13  14
ATOM     14  C   UNL     1     -15.488  11.790  -5.949  1.00  0.00     0.053 C 
BRANCH  14  15
ATOM     15  C   UNL     1     -15.771  12.948  -5.043  1.00  0.00     0.041 C 
ATOM     16  O   UNL     1     -15.266  12.989  -3.889  1.00  0.00    -0.550 OA
ATOM     17  O   UNL     1     -16.592  13.984  -5.473  1.00  0.00    -0.550 OA
ENDBRANCH  14  15
ENDBRANCH  13  14
ENDBRANCH  12  13
ENDBRANCH  11  12
ENDBRANCH  10  11
ENDBRANCH   9  10
ENDBRANCH   8   9
ENDBRANCH   7   8
ENDBRANCH   6   7
ENDBRANCH   5   6
ENDBRANCH   4   5
ENDBRANCH   3   4
ENDBRANCH   2   3
ENDBRANCH   1   2
BRANCH   1  18
ATOM     18  C   UNL     1     -18.623  11.003   2.080  1.00  0.00     0.000 C 
BRANCH  18  19
ATOM     19  C   UNL     1     -18.103   9.647   1.568  1.00  0.00     0.000 C 
BRANCH  19  20
ATOM     20  C   UNL     1     -16.815   9.139   2.245  1.00  0.00     0.000 C 
BRANCH  20  21
ATOM     21  C   UNL     1     -16.963   8.971   3.766  1.00  0.00     0.000 C 
BRANCH  21  22
ATOM     22  C   UNL     1     -15.625   9.112   4.512  1.00  0.00     0.000 C 
BRANCH  22  23
ATOM     23  C   UNL     1     -14.930  10.480   4.353  1.00  0.00     0.000 C 
BRANCH  23  24
ATOM     24  C   UNL     1     -13.400  10.421   4.170  1.00  0.00    -0.000 C 
BRANCH  24  25
ATOM     25  C   UNL     1     -12.580  10.535   5.469  1.00  0.00    -0.000 C 
BRANCH  25  26
ATOM     26  C   UNL     1     -12.627   9.256   6.319  1.00  0.00    -0.000 C 
BRANCH  26  27
ATOM     27  C   UNL     1     -13.115   9.509   7.757  1.00  0.00    -0.000 C 
BRANCH  27  28
ATOM     28  C   UNL     1     -14.638   9.376   7.967  1.00  0.00    -0.000 C 
BRANCH  28  29
ATOM     29  C   UNL     1     -15.127   9.619   9.407  1.00  0.00    -0.000 C 
BRANCH  29  30
ATOM     30  C   UNL     1     -16.513  10.284   9.464  1.00  0.00    -0.000 C 
BRANCH  30  31
ATOM     31  C   UNL     1     -16.800  10.923  10.832  1.00  0.00    -0.003 C 
ATOM     32  C   UNL     1     -17.605  10.006  11.754  1.00  0.00     0.004 C 
ENDBRANCH  30  31
ENDBRANCH  29  30
ENDBRANCH  28  29
ENDBRANCH  27  28
ENDBRANCH  26  27
ENDBRANCH  25  26
ENDBRANCH  24  25
ENDBRANCH  23  24
ENDBRANCH  22  23
ENDBRANCH  21  22
ENDBRANCH  20  21
ENDBRANCH  19  20
ENDBRANCH  18  19
ENDBRANCH   1  18
TORSDOF 28
ENDMDL
MODEL 5
REMARK VINA RESULT:    -2.796      1.518      3.167
REMARK INTER + INTRA:         -10.532
REMARK INTER:                  -8.210
REMARK INTRA:                  -2.321
REMARK UNBOUND:                -3.158
REMARK SMILES CCCCCCCCCCCCCCCCCCCCCCCCCCCCCC(=O)[O-]
REMARK SMILES IDX 16 1 17 2 18 3 19 4 20 5 21 6 22 7 23 8 24 9 25 10 26 11
REMARK SMILES IDX 27 12 28 13 29 14 30 15 31 16 32 17 15 18 14 19 13 20 12 21
REMARK SMILES IDX 11 22 10 23 9 24 8 25 7 26 6 27 5 28 4 29 3 30 2 31 1 32
REMARK H PARENT
REMARK Flexibility Score: inf
ROOT
ATOM      1  C   UNL     1     -12.510  10.968   4.723  1.00  0.00     0.000 C 
ENDROOT
BRANCH   1   2
ATOM      2  C   UNL     1     -12.348   9.724   3.823  1.00  0.00     0.000 C 
BRANCH   2   3
ATOM      3  C   UNL     1     -13.631   8.875   3.741  1.00  0.00     0.000 C 
BRANCH   3   4
ATOM      4  C   UNL     1     -14.862   9.706   3.329  1.00  0.00     0.000 C 
BRANCH   4   5
ATOM      5  C   UNL     1     -16.006   9.674   4.361  1.00  0.00     0.000 C 
BRANCH   5   6
ATOM      6  C   UNL     1     -17.359  10.082   3.749  1.00  0.00     0.000 C 
BRANCH   6   7
ATOM      7  C   UNL     1     -17.434   9.809   2.236  1.00  0.00     0.000 C 
BRANCH   7   8
ATOM      8  C   UNL     1     -17.982  10.977   1.399  1.00  0.00     0.000 C 
BRANCH   8   9
ATOM      9  C   UNL     1     -17.878  10.723  -0.116  1.00  0.00     0.000 C 
BRANCH   9  10
ATOM     10  C   UNL     1     -17.318  11.938  -0.876  1.00  0.00     0.000 C 
BRANCH  10  11
ATOM     11  C   UNL     1     -16.844  11.580  -2.292  1.00  0.00     0.000 C 
BRANCH  11  12
ATOM     12  C   UNL     1     -17.163  10.114  -2.621  1.00  0.00     0.000 C 
BRANCH  12  13
ATOM     13  C   UNL     1     -15.903   9.247  -2.760  1.00  0.00     0.006 C 
BRANCH  13  14
ATOM     14  C   UNL     1     -14.705  10.025  -3.324  1.00  0.00     0.053 C 
BRANCH  14  15
ATOM     15  C   UNL     1     -13.600  10.100  -2.318  1.00  0.00     0.041 C 
ATOM     16  O   UNL     1     -13.643   9.396  -1.274  1.00  0.00    -0.550 OA
ATOM     17  O   UNL     1     -12.520  10.948  -2.532  1.00  0.00    -0.550 OA
ENDBRANCH  14  15
ENDBRANCH  13  14
ENDBRANCH  12  13
ENDBRANCH  11  12
ENDBRANCH  10  11
ENDBRANCH   9  10
ENDBRANCH   8   9
ENDBRANCH   7   8
ENDBRANCH   6   7
ENDBRANCH   5   6
ENDBRANCH   4   5
ENDBRANCH   3   4
ENDBRANCH   2   3
ENDBRANCH   1   2
BRANCH   1  18
ATOM     18  C   UNL     1     -12.063  10.754   6.182  1.00  0.00     0.000 C 
BRANCH  18  19
ATOM     19  C   UNL     1     -12.554   9.453   6.843  1.00  0.00     0.000 C 
BRANCH  19  20
ATOM     20  C   UNL     1     -13.805   9.598   7.733  1.00  0.00     0.000 C 
BRANCH  20  21
ATOM     21  C   UNL     1     -13.568   9.135   9.179  1.00  0.00     0.000 C 
BRANCH  21  22
ATOM     22  C   UNL     1     -14.879   8.923   9.956  1.00  0.00     0.000 C 
BRANCH  22  23
ATOM     23  C   UNL     1     -14.781   9.159  11.477  1.00  0.00     0.000 C 
BRANCH  23  24
ATOM     24  C   UNL     1     -14.255  10.548  11.893  1.00  0.00    -0.000 C 
BRANCH  24  25
ATOM     25  C   UNL     1     -14.440  10.900  13.381  1.00  0.00    -0.000 C 
BRANCH  25  26
ATOM     26  C   UNL     1     -15.914  11.099  13.769  1.00  0.00    -0.000 C 
BRANCH  26  27
ATOM     27  C   UNL     1     -16.681  11.987  12.772  1.00  0.00    -0.000 C 
BRANCH  27  28
ATOM     28  C   UNL     1     -18.183  12.168  13.072  1.00  0.00    -0.000 C 
BRANCH  28  29
ATOM     29  C   UNL     1     -19.125  11.214  12.314  1.00  0.00    -0.000 C 
BRANCH  29  30
ATOM     30  C   UNL     1     -18.453   9.881  11.940  1.00  0.00    -0.000 C 
BRANCH  30  31
ATOM     31  C   UNL     1     -18.501   9.605  10.429  1.00  0.00    -0.003 C 
ATOM     32  C   UNL     1     -18.939  10.826   9.620  1.00  0.00     0.004 C 
ENDBRANCH  30  31
ENDBRANCH  29  30
ENDBRANCH  28  29
ENDBRANCH  27  28
ENDBRANCH  26  27
ENDBRANCH  25  26
ENDBRANCH  24  25
ENDBRANCH  23  24
ENDBRANCH  22  23
ENDBRANCH  21  22
ENDBRANCH  20  21
ENDBRANCH  19  20
ENDBRANCH  18  19
ENDBRANCH   1  18
TORSDOF 28
ENDMDL
MODEL 6
REMARK VINA RESULT:    -2.688      2.915      3.578
REMARK INTER + INTRA:         -10.247
REMARK INTER:                  -7.836
REMARK INTRA:                  -2.410
REMARK UNBOUND:                -3.158
REMARK SMILES CCCCCCCCCCCCCCCCCCCCCCCCCCCCCC(=O)[O-]
REMARK SMILES IDX 16 1 17 2 18 3 19 4 20 5 21 6 22 7 23 8 24 9 25 10 26 11
REMARK SMILES IDX 27 12 28 13 29 14 30 15 31 16 32 17 15 18 14 19 13 20 12 21
REMARK SMILES IDX 11 22 10 23 9 24 8 25 7 26 6 27 5 28 4 29 3 30 2 31 1 32
REMARK H PARENT
REMARK Flexibility Score: inf
ROOT
ATOM      1  C   UNL     1     -12.032  10.607   5.063  1.00  0.00     0.000 C 
ENDROOT
BRANCH   1   2
ATOM      2  C   UNL     1     -12.966  10.013   3.986  1.00  0.00     0.000 C 
BRANCH   2   3
ATOM      3  C   UNL     1     -14.413  10.529   4.100  1.00  0.00     0.000 C 
BRANCH   3   4
ATOM      4  C   UNL     1     -15.454   9.405   3.941  1.00  0.00     0.000 C 
BRANCH   4   5
ATOM      5  C   UNL     1     -16.847   9.766   4.492  1.00  0.00     0.000 C 
BRANCH   5   6
ATOM      6  C   UNL     1     -17.983   9.327   3.549  1.00  0.00     0.000 C 
BRANCH   6   7
ATOM      7  C   UNL     1     -18.606  10.506   2.780  1.00  0.00     0.000 C 
BRANCH   7   8
ATOM      8  C   UNL     1     -18.760  10.276   1.266  1.00  0.00     0.000 C 
BRANCH   8   9
ATOM      9  C   UNL     1     -17.462   9.778   0.605  1.00  0.00     0.000 C 
BRANCH   9  10
ATOM     10  C   UNL     1     -16.989  10.706  -0.527  1.00  0.00     0.000 C 
BRANCH  10  11
ATOM     11  C   UNL     1     -17.745  10.462  -1.841  1.00  0.00     0.000 C 
BRANCH  11  12
ATOM     12  C   UNL     1     -18.457  11.740  -2.308  1.00  0.00     0.000 C 
BRANCH  12  13
ATOM     13  C   UNL     1     -17.807  13.019  -1.758  1.00  0.00     0.006 C 
BRANCH  13  14
ATOM     14  C   UNL     1     -18.731  14.241  -1.844  1.00  0.00     0.053 C 
BRANCH  14  15
ATOM     15  C   UNL     1     -18.681  15.035  -0.577  1.00  0.00     0.041 C 
ATOM     16  O   UNL     1     -18.425  16.268  -0.610  1.00  0.00    -0.550 OA
ATOM     17  O   UNL     1     -18.920  14.414   0.644  1.00  0.00    -0.550 OA
ENDBRANCH  14  15
ENDBRANCH  13  14
ENDBRANCH  12  13
ENDBRANCH  11  12
ENDBRANCH  10  11
ENDBRANCH   9  10
ENDBRANCH   8   9
ENDBRANCH   7   8
ENDBRANCH   6   7
ENDBRANCH   5   6
ENDBRANCH   4   5
ENDBRANCH   3   4
ENDBRANCH   2   3
ENDBRANCH   1   2
BRANCH   1  18
ATOM     18  C   UNL     1     -12.019   9.823   6.389  1.00  0.00     0.000 C 
BRANCH  18  19
ATOM     19  C   UNL     1     -13.398   9.391   6.920  1.00  0.00     0.000 C 
BRANCH  19  20
ATOM     20  C   UNL     1     -13.517   9.310   8.454  1.00  0.00     0.000 C 
BRANCH  20  21
ATOM     21  C   UNL     1     -14.923   8.907   8.926  1.00  0.00     0.000 C 
BRANCH  21  22
ATOM     22  C   UNL     1     -16.038   9.669   8.188  1.00  0.00     0.000 C 
BRANCH  22  23
ATOM     23  C   UNL     1     -17.474   9.272   8.586  1.00  0.00     0.000 C 
BRANCH  23  24
ATOM     24  C   UNL     1     -17.878   9.632  10.030  1.00  0.00    -0.000 C 
BRANCH  24  25
ATOM     25  C   UNL     1     -18.972  10.710  10.153  1.00  0.00    -0.000 C 
BRANCH  25  26
ATOM     26  C   UNL     1     -18.667  11.747  11.247  1.00  0.00    -0.000 C 
BRANCH  26  27
ATOM     27  C   UNL     1     -19.125  11.294  12.646  1.00  0.00    -0.000 C 
BRANCH  27  28
ATOM     28  C   UNL     1     -18.057  11.402  13.754  1.00  0.00    -0.000 C 
BRANCH  28  29
ATOM     29  C   UNL     1     -17.039  10.249  13.802  1.00  0.00    -0.000 C 
BRANCH  29  30
ATOM     30  C   UNL     1     -15.596  10.734  14.025  1.00  0.00    -0.000 C 
BRANCH  30  31
ATOM     31  C   UNL     1     -14.928  11.204  12.723  1.00  0.00    -0.003 C 
ATOM     32  C   UNL     1     -13.936  10.183  12.165  1.00  0.00     0.004 C 
ENDBRANCH  30  31
ENDBRANCH  29  30
ENDBRANCH  28  29
ENDBRANCH  27  28
ENDBRANCH  26  27
ENDBRANCH  25  26
ENDBRANCH  24  25
ENDBRANCH  23  24
ENDBRANCH  22  23
ENDBRANCH  21  22
ENDBRANCH  20  21
ENDBRANCH  19  20
ENDBRANCH  18  19
ENDBRANCH   1  18
TORSDOF 28
ENDMDL
MODEL 7
REMARK VINA RESULT:    -2.688      1.727      2.625
REMARK INTER + INTRA:         -10.245
REMARK INTER:                  -7.988
REMARK INTRA:                  -2.258
REMARK UNBOUND:                -3.158
REMARK SMILES CCCCCCCCCCCCCCCCCCCCCCCCCCCCCC(=O)[O-]
REMARK SMILES IDX 16 1 17 2 18 3 19 4 20 5 21 6 22 7 23 8 24 9 25 10 26 11
REMARK SMILES IDX 27 12 28 13 29 14 30 15 31 16 32 17 15 18 14 19 13 20 12 21
REMARK SMILES IDX 11 22 10 23 9 24 8 25 7 26 6 27 5 28 4 29 3 30 2 31 1 32
REMARK H PARENT
REMARK Flexibility Score: inf
ROOT
ATOM      1  C   UNL     1     -12.909   8.876   3.821  1.00  0.00     0.000 C 
ENDROOT
BRANCH   1   2
ATOM      2  C   UNL     1     -12.343   9.733   2.669  1.00  0.00     0.000 C 
BRANCH   2   3
ATOM      3  C   UNL     1     -12.300   8.977   1.328  1.00  0.00     0.000 C 
BRANCH   3   4
ATOM      4  C   UNL     1     -13.687   8.875   0.664  1.00  0.00     0.000 C 
BRANCH   4   5
ATOM      5  C   UNL     1     -13.644   8.926  -0.875  1.00  0.00     0.000 C 
BRANCH   5   6
ATOM      6  C   UNL     1     -15.003   9.312  -1.488  1.00  0.00     0.000 C 
BRANCH   6   7
ATOM      7  C   UNL     1     -16.162   9.197  -0.481  1.00  0.00     0.000 C 
BRANCH   7   8
ATOM      8  C   UNL     1     -17.044  10.454  -0.371  1.00  0.00     0.000 C 
BRANCH   8   9
ATOM      9  C   UNL     1     -18.103  10.537  -1.485  1.00  0.00     0.000 C 
BRANCH   9  10
ATOM     10  C   UNL     1     -18.665  11.959  -1.652  1.00  0.00     0.000 C 
BRANCH  10  11
ATOM     11  C   UNL     1     -17.584  12.978  -2.038  1.00  0.00     0.000 C 
BRANCH  11  12
ATOM     12  C   UNL     1     -17.611  13.258  -3.548  1.00  0.00     0.000 C 
BRANCH  12  13
ATOM     13  C   UNL     1     -16.246  13.041  -4.219  1.00  0.00     0.006 C 
BRANCH  13  14
ATOM     14  C   UNL     1     -15.776  11.580  -4.153  1.00  0.00     0.053 C 
BRANCH  14  15
ATOM     15  C   UNL     1     -14.618  11.354  -5.074  1.00  0.00     0.041 C 
ATOM     16  O   UNL     1     -13.880  12.317  -5.414  1.00  0.00    -0.550 OA
ATOM     17  O   UNL     1     -14.351  10.078  -5.556  1.00  0.00    -0.550 OA
ENDBRANCH  14  15
ENDBRANCH  13  14
ENDBRANCH  12  13
ENDBRANCH  11  12
ENDBRANCH  10  11
ENDBRANCH   9  10
ENDBRANCH   8   9
ENDBRANCH   7   8
ENDBRANCH   6   7
ENDBRANCH   5   6
ENDBRANCH   4   5
ENDBRANCH   3   4
ENDBRANCH   2   3
ENDBRANCH   1   2
BRANCH   1  18
ATOM     18  C   UNL     1     -12.153   9.032   5.155  1.00  0.00     0.000 C 
BRANCH  18  19
ATOM     19  C   UNL     1     -13.029   9.008   6.422  1.00  0.00     0.000 C 
BRANCH  19  20
ATOM     20  C   UNL     1     -14.527   9.286   6.191  1.00  0.00     0.000 C 
BRANCH  20  21
ATOM     21  C   UNL     1     -14.887  10.775   6.318  1.00  0.00     0.000 C 
BRANCH  21  22
ATOM     22  C   UNL     1     -16.260  11.000   6.975  1.00  0.00     0.000 C 
BRANCH  22  23
ATOM     23  C   UNL     1     -17.043   9.713   7.306  1.00  0.00     0.000 C 
BRANCH  23  24
ATOM     24  C   UNL     1     -17.146   9.376   8.808  1.00  0.00    -0.000 C 
BRANCH  24  25
ATOM     25  C   UNL     1     -16.802  10.533   9.764  1.00  0.00    -0.000 C 
BRANCH  25  26
ATOM     26  C   UNL     1     -17.954  10.880  10.721  1.00  0.00    -0.000 C 
BRANCH  26  27
ATOM     27  C   UNL     1     -17.570  11.951  11.758  1.00  0.00    -0.000 C 
BRANCH  27  28
ATOM     28  C   UNL     1     -17.765  11.539  13.232  1.00  0.00    -0.000 C 
BRANCH  28  29
ATOM     29  C   UNL     1     -16.621  10.708  13.840  1.00  0.00    -0.000 C 
BRANCH  29  30
ATOM     30  C   UNL     1     -15.241  11.364  13.655  1.00  0.00    -0.000 C 
BRANCH  30  31
ATOM     31  C   UNL     1     -14.255  10.451  12.909  1.00  0.00    -0.003 C 
ATOM     32  C   UNL     1     -12.856  10.463  13.528  1.00  0.00     0.004 C 
ENDBRANCH  30  31
ENDBRANCH  29  30
ENDBRANCH  28  29
ENDBRANCH  27  28
ENDBRANCH  26  27
ENDBRANCH  25  26
ENDBRANCH  24  25
ENDBRANCH  23  24
ENDBRANCH  22  23
ENDBRANCH  21  22
ENDBRANCH  20  21
ENDBRANCH  19  20
ENDBRANCH  18  19
ENDBRANCH   1  18
TORSDOF 28
ENDMDL
MODEL 8
REMARK VINA RESULT:    -2.637      4.855     11.912
REMARK INTER + INTRA:         -10.110
REMARK INTER:                  -8.190
REMARK INTRA:                  -1.921
REMARK UNBOUND:                -3.158
REMARK SMILES CCCCCCCCCCCCCCCCCCCCCCCCCCCCCC(=O)[O-]
REMARK SMILES IDX 16 1 17 2 18 3 19 4 20 5 21 6 22 7 23 8 24 9 25 10 26 11
REMARK SMILES IDX 27 12 28 13 29 14 30 15 31 16 32 17 15 18 14 19 13 20 12 21
REMARK SMILES IDX 11 22 10 23 9 24 8 25 7 26 6 27 5 28 4 29 3 30 2 31 1 32
REMARK H PARENT
REMARK Flexibility Score: inf
ROOT
ATOM      1  C   UNL     1     -12.560   9.798   3.311  1.00  0.00     0.000 C 
ENDROOT
BRANCH   1   2
ATOM      2  C   UNL     1     -12.241   9.040   4.617  1.00  0.00     0.000 C 
BRANCH   2   3
ATOM      3  C   UNL     1     -12.890   9.685   5.856  1.00  0.00     0.000 C 
BRANCH   3   4
ATOM      4  C   UNL     1     -12.907  11.224   5.778  1.00  0.00     0.000 C 
BRANCH   4   5
ATOM      5  C   UNL     1     -14.324  11.827   5.721  1.00  0.00     0.000 C 
BRANCH   5   6
ATOM      6  C   UNL     1     -15.334  10.888   5.035  1.00  0.00     0.000 C 
BRANCH   6   7
ATOM      7  C   UNL     1     -16.538  10.553   5.933  1.00  0.00     0.000 C 
BRANCH   7   8
ATOM      8  C   UNL     1     -16.178  10.207   7.388  1.00  0.00     0.000 C 
BRANCH   8   9
ATOM      9  C   UNL     1     -16.798   8.877   7.855  1.00  0.00     0.000 C 
BRANCH   9  10
ATOM     10  C   UNL     1     -17.239   8.923   9.328  1.00  0.00     0.000 C 
BRANCH  10  11
ATOM     11  C   UNL     1     -18.761   9.055   9.483  1.00  0.00     0.000 C 
BRANCH  11  12
ATOM     12  C   UNL     1     -19.125   9.558  10.888  1.00  0.00     0.000 C 
BRANCH  12  13
ATOM     13  C   UNL     1     -18.000   9.336  11.910  1.00  0.00     0.006 C 
BRANCH  13  14
ATOM     14  C   UNL     1     -17.843  10.509  12.887  1.00  0.00     0.053 C 
BRANCH  14  15
ATOM     15  C   UNL     1     -16.860  11.509  12.362  1.00  0.00     0.041 C 
ATOM     16  O   UNL     1     -15.991  11.161  11.519  1.00  0.00    -0.550 OA
ATOM     17  O   UNL     1     -16.904  12.826  12.802  1.00  0.00    -0.550 OA
ENDBRANCH  14  15
ENDBRANCH  13  14
ENDBRANCH  12  13
ENDBRANCH  11  12
ENDBRANCH  10  11
ENDBRANCH   9  10
ENDBRANCH   8   9
ENDBRANCH   7   8
ENDBRANCH   6   7
ENDBRANCH   5   6
ENDBRANCH   4   5
ENDBRANCH   3   4
ENDBRANCH   2   3
ENDBRANCH   1   2
BRANCH   1  18
ATOM     18  C   UNL     1     -12.789   8.885   2.090  1.00  0.00     0.000 C 
BRANCH  18  19
ATOM     19  C   UNL     1     -11.997   9.258   0.824  1.00  0.00     0.000 C 
BRANCH  19  20
ATOM     20  C   UNL     1     -12.805   9.235  -0.488  1.00  0.00     0.000 C 
BRANCH  20  21
ATOM     21  C   UNL     1     -14.290   8.903  -0.271  1.00  0.00     0.000 C 
BRANCH  21  22
ATOM     22  C   UNL     1     -15.227   9.830  -1.065  1.00  0.00     0.000 C 
BRANCH  22  23
ATOM     23  C   UNL     1     -16.732   9.609  -0.811  1.00  0.00     0.000 C 
BRANCH  23  24
ATOM     24  C   UNL     1     -17.676  10.506  -1.637  1.00  0.00    -0.000 C 
BRANCH  24  25
ATOM     25  C   UNL     1     -18.086  11.826  -0.957  1.00  0.00    -0.000 C 
BRANCH  25  26
ATOM     26  C   UNL     1     -18.637  12.862  -1.949  1.00  0.00    -0.000 C 
BRANCH  26  27
ATOM     27  C   UNL     1     -17.531  13.552  -2.770  1.00  0.00    -0.000 C 
BRANCH  27  28
ATOM     28  C   UNL     1     -17.974  14.093  -4.145  1.00  0.00    -0.000 C 
BRANCH  28  29
ATOM     29  C   UNL     1     -17.222  13.510  -5.355  1.00  0.00    -0.000 C 
BRANCH  29  30
ATOM     30  C   UNL     1     -15.734  13.244  -5.064  1.00  0.00    -0.000 C 
BRANCH  30  31
ATOM     31  C   UNL     1     -15.320  11.803  -5.401  1.00  0.00    -0.003 C 
ATOM     32  C   UNL     1     -13.816  11.661  -5.638  1.00  0.00     0.004 C 
ENDBRANCH  30  31
ENDBRANCH  29  30
ENDBRANCH  28  29
ENDBRANCH  27  28
ENDBRANCH  26  27
ENDBRANCH  25  26
ENDBRANCH  24  25
ENDBRANCH  23  24
ENDBRANCH  22  23
ENDBRANCH  21  22
ENDBRANCH  20  21
ENDBRANCH  19  20
ENDBRANCH  18  19
ENDBRANCH   1  18
TORSDOF 28
ENDMDL
MODEL 9
REMARK VINA RESULT:    -2.612      1.905      3.544
REMARK INTER + INTRA:         -10.046
REMARK INTER:                  -8.073
REMARK INTRA:                  -1.973
REMARK UNBOUND:                -3.158
REMARK SMILES CCCCCCCCCCCCCCCCCCCCCCCCCCCCCC(=O)[O-]
REMARK SMILES IDX 16 1 17 2 18 3 19 4 20 5 21 6 22 7 23 8 24 9 25 10 26 11
REMARK SMILES IDX 27 12 28 13 29 14 30 15 31 16 32 17 15 18 14 19 13 20 12 21
REMARK SMILES IDX 11 22 10 23 9 24 8 25 7 26 6 27 5 28 4 29 3 30 2 31 1 32
REMARK H PARENT
REMARK Flexibility Score: inf
ROOT
ATOM      1  C   UNL     1     -12.489  11.029   4.848  1.00  0.00     0.000 C 
ENDROOT
BRANCH   1   2
ATOM      2  C   UNL     1     -12.775   9.892   3.843  1.00  0.00     0.000 C 
BRANCH   2   3
ATOM      3  C   UNL     1     -14.248   9.445   3.850  1.00  0.00     0.000 C 
BRANCH   3   4
ATOM      4  C   UNL     1     -15.220  10.619   4.078  1.00  0.00     0.000 C 
BRANCH   4   5
ATOM      5  C   UNL     1     -16.579  10.195   4.668  1.00  0.00     0.000 C 
BRANCH   5   6
ATOM      6  C   UNL     1     -17.593   9.799   3.579  1.00  0.00     0.000 C 
BRANCH   6   7
ATOM      7  C   UNL     1     -16.946   9.652   2.190  1.00  0.00     0.000 C 
BRANCH   7   8
ATOM      8  C   UNL     1     -17.871  10.000   1.011  1.00  0.00     0.000 C 
BRANCH   8   9
ATOM      9  C   UNL     1     -17.153   9.929  -0.350  1.00  0.00     0.000 C 
BRANCH   9  10
ATOM     10  C   UNL     1     -17.203  11.267  -1.108  1.00  0.00     0.000 C 
BRANCH  10  11
ATOM     11  C   UNL     1     -18.558  11.506  -1.789  1.00  0.00     0.000 C 
BRANCH  11  12
ATOM     12  C   UNL     1     -18.406  11.530  -3.317  1.00  0.00     0.000 C 
BRANCH  12  13
ATOM     13  C   UNL     1     -18.349  12.954  -3.888  1.00  0.00     0.006 C 
BRANCH  13  14
ATOM     14  C   UNL     1     -16.924  13.524  -3.926  1.00  0.00     0.053 C 
BRANCH  14  15
ATOM     15  C   UNL     1     -16.136  12.911  -5.041  1.00  0.00     0.041 C 
ATOM     16  O   UNL     1     -16.726  12.436  -6.049  1.00  0.00    -0.550 OA
ATOM     17  O   UNL     1     -14.749  12.863  -4.970  1.00  0.00    -0.550 OA
ENDBRANCH  14  15
ENDBRANCH  13  14
ENDBRANCH  12  13
ENDBRANCH  11  12
ENDBRANCH  10  11
ENDBRANCH   9  10
ENDBRANCH   8   9
ENDBRANCH   7   8
ENDBRANCH   6   7
ENDBRANCH   5   6
ENDBRANCH   4   5
ENDBRANCH   3   4
ENDBRANCH   2   3
ENDBRANCH   1   2
BRANCH   1  18
ATOM     18  C   UNL     1     -11.967  10.546   6.215  1.00  0.00     0.000 C 
BRANCH  18  19
ATOM     19  C   UNL     1     -12.679   9.314   6.802  1.00  0.00     0.000 C 
BRANCH  19  20
ATOM     20  C   UNL     1     -13.884   9.623   7.712  1.00  0.00     0.000 C 
BRANCH  20  21
ATOM     21  C   UNL     1     -13.736   9.030   9.123  1.00  0.00     0.000 C 
BRANCH  21  22
ATOM     22  C   UNL     1     -15.086   8.876   9.846  1.00  0.00     0.000 C 
BRANCH  22  23
ATOM     23  C   UNL     1     -15.045   9.137  11.365  1.00  0.00     0.000 C 
BRANCH  23  24
ATOM     24  C   UNL     1     -14.281  10.407  11.793  1.00  0.00    -0.000 C 
BRANCH  24  25
ATOM     25  C   UNL     1     -14.431  10.793  13.276  1.00  0.00    -0.000 C 
BRANCH  25  26
ATOM     26  C   UNL     1     -15.872  11.178  13.650  1.00  0.00    -0.000 C 
BRANCH  26  27
ATOM     27  C   UNL     1     -16.502  12.175  12.660  1.00  0.00    -0.000 C 
BRANCH  27  28
ATOM     28  C   UNL     1     -18.024  12.378  12.810  1.00  0.00    -0.000 C 
BRANCH  28  29
ATOM     29  C   UNL     1     -18.885  11.733  11.709  1.00  0.00    -0.000 C 
BRANCH  29  30
ATOM     30  C   UNL     1     -18.051  10.966  10.668  1.00  0.00    -0.000 C 
BRANCH  30  31
ATOM     31  C   UNL     1     -18.887  10.528   9.455  1.00  0.00    -0.003 C 
ATOM     32  C   UNL     1     -18.035  10.286   8.208  1.00  0.00     0.004 C 
ENDBRANCH  30  31
ENDBRANCH  29  30
ENDBRANCH  28  29
ENDBRANCH  27  28
ENDBRANCH  26  27
ENDBRANCH  25  26
ENDBRANCH  24  25
ENDBRANCH  23  24
ENDBRANCH  22  23
ENDBRANCH  21  22
ENDBRANCH  20  21
ENDBRANCH  19  20
ENDBRANCH  18  19
ENDBRANCH   1  18
TORSDOF 28
ENDMDL
