MODEL 1
REMARK VINA RESULT:    -5.475      0.000      0.000
REMARK INTER + INTRA:          -7.464
REMARK INTER:                  -6.916
REMARK INTRA:                  -0.549
REMARK UNBOUND:                -0.549
REMARK SMILES Oc1cc(O)cc(CCc2ccccc2O)c1
REMARK SMILES IDX 9 1 10 2 12 3 13 4 11 5 14 6 15 7 16 8 8 10 7 11 6 12 17 13
REMARK SMILES IDX 4 14 2 15 3 16 5 17 1 19
REMARK H PARENT 16 9 5 18 1 20
REMARK Flexibility Score: inf
ROOT
ATOM      1  C   UNL     1      47.607 -30.538 -28.482  1.00  0.00     0.044 C 
ENDROOT
BRANCH   1   2
ATOM      2  C   UNL     1      47.343 -32.024 -28.418  1.00  0.00    -0.006 A 
ATOM      3  C   UNL     1      46.537 -34.054 -29.489  1.00  0.00     0.001 A 
ATOM      4  C   UNL     1      46.751 -34.767 -28.307  1.00  0.00     0.004 A 
ATOM      5  C   UNL     1      46.830 -32.689 -29.546  1.00  0.00     0.007 A 
ATOM      6  C   UNL     1      47.254 -34.116 -27.178  1.00  0.00     0.046 A 
ATOM      7  C   UNL     1      47.548 -32.745 -27.225  1.00  0.00     0.118 A 
BRANCH   7   8
ATOM      8  O   UNL     1      48.039 -32.099 -26.090  1.00  0.00    -0.508 OA
ATOM      9  H   UNL     1      47.542 -31.327 -25.662  1.00  0.00     0.293 HD
ENDBRANCH   7   8
ENDBRANCH   1   2
BRANCH   1  10
ATOM     10  C   UNL     1      48.953 -30.224 -29.151  1.00  0.00     0.040 C 
BRANCH  10  11
ATOM     11  C   UNL     1      48.781 -29.362 -30.377  1.00  0.00    -0.040 A 
ATOM     12  C   UNL     1      49.904 -28.905 -31.082  1.00  0.00     0.050 A 
ATOM     13  C   UNL     1      47.495 -29.065 -30.859  1.00  0.00     0.050 A 
ATOM     14  C   UNL     1      49.747 -28.144 -32.249  1.00  0.00     0.119 A 
ATOM     15  C   UNL     1      47.336 -28.308 -32.024  1.00  0.00     0.119 A 
ATOM     16  C   UNL     1      48.462 -27.846 -32.716  1.00  0.00     0.092 A 
BRANCH  14  17
ATOM     17  O   UNL     1      50.857 -27.683 -32.952  1.00  0.00    -0.508 OA
ATOM     18  H   UNL     1      50.937 -26.714 -33.238  1.00  0.00     0.293 HD
ENDBRANCH  14  17
BRANCH  15  19
ATOM     19  O   UNL     1      46.052 -28.023 -32.487  1.00  0.00    -0.508 OA
ATOM     20  H   UNL     1      45.542 -27.209 -32.165  1.00  0.00     0.293 HD
ENDBRANCH  15  19
ENDBRANCH  10  11
ENDBRANCH   1  10
TORSDOF 6
ENDMDL
MODEL 2
REMARK VINA RESULT:    -5.471      0.148      2.040
REMARK INTER + INTRA:          -7.458
REMARK INTER:                  -6.900
REMARK INTRA:                  -0.558
REMARK UNBOUND:                -0.549
REMARK SMILES Oc1cc(O)cc(CCc2ccccc2O)c1
REMARK SMILES IDX 9 1 10 2 12 3 13 4 11 5 14 6 15 7 16 8 8 10 7 11 6 12 17 13
REMARK SMILES IDX 4 14 2 15 3 16 5 17 1 19
REMARK H PARENT 16 9 5 18 1 20
REMARK Flexibility Score: inf
ROOT
ATOM      1  C   UNL     1      47.466 -30.551 -28.427  1.00  0.00     0.044 C 
ENDROOT
BRANCH   1   2
ATOM      2  C   UNL     1      47.251 -32.045 -28.375  1.00  0.00    -0.006 A 
ATOM      3  C   UNL     1      46.543 -34.096 -29.474  1.00  0.00     0.001 A 
ATOM      4  C   UNL     1      46.748 -34.807 -28.290  1.00  0.00     0.004 A 
ATOM      5  C   UNL     1      46.791 -32.722 -29.519  1.00  0.00     0.007 A 
ATOM      6  C   UNL     1      47.199 -34.145 -27.145  1.00  0.00     0.046 A 
ATOM      7  C   UNL     1      47.448 -32.764 -27.180  1.00  0.00     0.118 A 
BRANCH   7   8
ATOM      8  O   UNL     1      47.886 -32.107 -26.030  1.00  0.00    -0.508 OA
ATOM      9  H   UNL     1      48.753 -31.584 -26.015  1.00  0.00     0.293 HD
ENDBRANCH   7   8
ENDBRANCH   1   2
BRANCH   1  10
ATOM     10  C   UNL     1      48.812 -30.189 -29.074  1.00  0.00     0.040 C 
BRANCH  10  11
ATOM     11  C   UNL     1      48.626 -29.410 -30.352  1.00  0.00    -0.040 A 
ATOM     12  C   UNL     1      47.336 -29.120 -30.820  1.00  0.00     0.050 A 
ATOM     13  C   UNL     1      49.741 -28.915 -31.048  1.00  0.00     0.050 A 
ATOM     14  C   UNL     1      47.159 -28.355 -31.981  1.00  0.00     0.119 A 
ATOM     15  C   UNL     1      49.568 -28.150 -32.206  1.00  0.00     0.119 A 
ATOM     16  C   UNL     1      48.276 -27.874 -32.673  1.00  0.00     0.092 A 
BRANCH  14  17
ATOM     17  O   UNL     1      45.882 -28.065 -32.455  1.00  0.00    -0.508 OA
ATOM     18  H   UNL     1      45.498 -27.129 -32.401  1.00  0.00     0.293 HD
ENDBRANCH  14  17
BRANCH  15  19
ATOM     19  O   UNL     1      50.686 -27.667 -32.883  1.00  0.00    -0.508 OA
ATOM     20  H   UNL     1      51.602 -28.082 -32.755  1.00  0.00     0.293 HD
ENDBRANCH  15  19
ENDBRANCH  10  11
ENDBRANCH   1  10
TORSDOF 6
ENDMDL
MODEL 3
REMARK VINA RESULT:    -5.413      1.695      2.810
REMARK INTER + INTRA:          -7.385
REMARK INTER:                  -6.805
REMARK INTRA:                  -0.580
REMARK UNBOUND:                -0.549
REMARK SMILES Oc1cc(O)cc(CCc2ccccc2O)c1
REMARK SMILES IDX 9 1 10 2 12 3 13 4 11 5 14 6 15 7 16 8 8 10 7 11 6 12 17 13
REMARK SMILES IDX 4 14 2 15 3 16 5 17 1 19
REMARK H PARENT 16 9 5 18 1 20
REMARK Flexibility Score: inf
ROOT
ATOM      1  C   UNL     1      48.170 -29.873 -28.746  1.00  0.00     0.044 C 
ENDROOT
BRANCH   1   2
ATOM      2  C   UNL     1      47.803 -31.326 -28.932  1.00  0.00    -0.006 A 
ATOM      3  C   UNL     1      48.482 -33.660 -29.022  1.00  0.00     0.001 A 
ATOM      4  C   UNL     1      47.180 -34.030 -29.365  1.00  0.00     0.004 A 
ATOM      5  C   UNL     1      48.795 -32.316 -28.807  1.00  0.00     0.007 A 
ATOM      6  C   UNL     1      46.188 -33.056 -29.498  1.00  0.00     0.046 A 
ATOM      7  C   UNL     1      46.493 -31.703 -29.288  1.00  0.00     0.118 A 
BRANCH   7   8
ATOM      8  O   UNL     1      45.500 -30.734 -29.435  1.00  0.00    -0.508 OA
ATOM      9  H   UNL     1      44.532 -30.986 -29.595  1.00  0.00     0.293 HD
ENDBRANCH   7   8
ENDBRANCH   1   2
BRANCH   1  10
ATOM     10  C   UNL     1      49.651 -29.613 -29.061  1.00  0.00     0.040 C 
BRANCH  10  11
ATOM     11  C   UNL     1      49.836 -29.047 -30.447  1.00  0.00    -0.040 A 
ATOM     12  C   UNL     1      48.742 -28.506 -31.141  1.00  0.00     0.050 A 
ATOM     13  C   UNL     1      51.114 -28.999 -31.028  1.00  0.00     0.050 A 
ATOM     14  C   UNL     1      48.920 -27.936 -32.409  1.00  0.00     0.119 A 
ATOM     15  C   UNL     1      51.293 -28.428 -32.293  1.00  0.00     0.119 A 
ATOM     16  C   UNL     1      50.195 -27.901 -32.983  1.00  0.00     0.092 A 
BRANCH  14  17
ATOM     17  O   UNL     1      47.839 -27.400 -33.105  1.00  0.00    -0.508 OA
ATOM     18  H   UNL     1      46.894 -27.733 -32.952  1.00  0.00     0.293 HD
ENDBRANCH  14  17
BRANCH  15  19
ATOM     19  O   UNL     1      52.569 -28.390 -32.853  1.00  0.00    -0.508 OA
ATOM     20  H   UNL     1      52.746 -27.922 -33.734  1.00  0.00     0.293 HD
ENDBRANCH  15  19
ENDBRANCH  10  11
ENDBRANCH   1  10
TORSDOF 6
ENDMDL
MODEL 4
REMARK VINA RESULT:    -5.393      3.376      6.404
REMARK INTER + INTRA:          -7.360
REMARK INTER:                  -6.948
REMARK INTRA:                  -0.411
REMARK UNBOUND:                -0.549
REMARK SMILES Oc1cc(O)cc(CCc2ccccc2O)c1
REMARK SMILES IDX 9 1 10 2 12 3 13 4 11 5 14 6 15 7 16 8 8 10 7 11 6 12 17 13
REMARK SMILES IDX 4 14 2 15 3 16 5 17 1 19
REMARK H PARENT 16 9 5 18 1 20
REMARK Flexibility Score: inf
ROOT
ATOM      1  C   UNL     1      46.856 -28.660 -31.489  1.00  0.00     0.044 C 
ENDROOT
BRANCH   1   2
ATOM      2  C   UNL     1      48.366 -28.662 -31.519  1.00  0.00    -0.006 A 
ATOM      3  C   UNL     1      50.479 -29.237 -30.461  1.00  0.00     0.001 A 
ATOM      4  C   UNL     1      51.174 -28.602 -31.493  1.00  0.00     0.004 A 
ATOM      5  C   UNL     1      49.082 -29.267 -30.471  1.00  0.00     0.007 A 
ATOM      6  C   UNL     1      50.473 -27.992 -32.536  1.00  0.00     0.046 A 
ATOM      7  C   UNL     1      49.071 -28.015 -32.554  1.00  0.00     0.118 A 
BRANCH   7   8
ATOM      8  O   UNL     1      48.377 -27.394 -33.593  1.00  0.00    -0.508 OA
ATOM      9  H   UNL     1      48.804 -27.240 -34.499  1.00  0.00     0.293 HD
ENDBRANCH   7   8
ENDBRANCH   1   2
BRANCH   1  10
ATOM     10  C   UNL     1      46.308 -29.408 -30.264  1.00  0.00     0.040 C 
BRANCH  10  11
ATOM     11  C   UNL     1      44.804 -29.331 -30.188  1.00  0.00    -0.040 A 
ATOM     12  C   UNL     1      44.113 -28.323 -30.879  1.00  0.00     0.050 A 
ATOM     13  C   UNL     1      44.079 -30.304 -29.479  1.00  0.00     0.050 A 
ATOM     14  C   UNL     1      42.713 -28.278 -30.850  1.00  0.00     0.119 A 
ATOM     15  C   UNL     1      42.681 -30.261 -29.451  1.00  0.00     0.119 A 
ATOM     16  C   UNL     1      42.000 -29.245 -30.134  1.00  0.00     0.092 A 
BRANCH  14  17
ATOM     17  O   UNL     1      42.020 -27.279 -31.530  1.00  0.00    -0.508 OA
ATOM     18  H   UNL     1      41.615 -26.489 -31.040  1.00  0.00     0.293 HD
ENDBRANCH  14  17
BRANCH  15  19
ATOM     19  O   UNL     1      41.980 -31.234 -28.743  1.00  0.00    -0.508 OA
ATOM     20  H   UNL     1      41.343 -30.988 -27.994  1.00  0.00     0.293 HD
ENDBRANCH  15  19
ENDBRANCH  10  11
ENDBRANCH   1  10
TORSDOF 6
ENDMDL
MODEL 5
REMARK VINA RESULT:    -5.371     12.725     14.199
REMARK INTER + INTRA:          -7.332
REMARK INTER:                  -6.807
REMARK INTRA:                  -0.525
REMARK UNBOUND:                -0.549
REMARK SMILES Oc1cc(O)cc(CCc2ccccc2O)c1
REMARK SMILES IDX 9 1 10 2 12 3 13 4 11 5 14 6 15 7 16 8 8 10 7 11 6 12 17 13
REMARK SMILES IDX 4 14 2 15 3 16 5 17 1 19
REMARK H PARENT 16 9 5 18 1 20
REMARK Flexibility Score: inf
ROOT
ATOM      1  C   UNL     1      54.762 -39.515 -22.472  1.00  0.00     0.044 C 
ENDROOT
BRANCH   1   2
ATOM      2  C   UNL     1      55.876 -38.760 -23.158  1.00  0.00    -0.006 A 
ATOM      3  C   UNL     1      56.847 -36.642 -23.856  1.00  0.00     0.001 A 
ATOM      4  C   UNL     1      57.879 -37.325 -24.505  1.00  0.00     0.004 A 
ATOM      5  C   UNL     1      55.849 -37.354 -23.187  1.00  0.00     0.007 A 
ATOM      6  C   UNL     1      57.913 -38.721 -24.489  1.00  0.00     0.046 A 
ATOM      7  C   UNL     1      56.913 -39.445 -23.822  1.00  0.00     0.118 A 
BRANCH   7   8
ATOM      8  O   UNL     1      56.947 -40.840 -23.820  1.00  0.00    -0.508 OA
ATOM      9  H   UNL     1      57.327 -41.363 -24.600  1.00  0.00     0.293 HD
ENDBRANCH   7   8
ENDBRANCH   1   2
BRANCH   1  10
ATOM     10  C   UNL     1      53.389 -38.881 -22.746  1.00  0.00     0.040 C 
BRANCH  10  11
ATOM     11  C   UNL     1      52.619 -38.644 -21.470  1.00  0.00    -0.040 A 
ATOM     12  C   UNL     1      51.527 -39.462 -21.143  1.00  0.00     0.050 A 
ATOM     13  C   UNL     1      53.028 -37.646 -20.571  1.00  0.00     0.050 A 
ATOM     14  C   UNL     1      50.839 -39.276 -19.936  1.00  0.00     0.119 A 
ATOM     15  C   UNL     1      52.344 -37.459 -19.365  1.00  0.00     0.119 A 
ATOM     16  C   UNL     1      51.248 -38.273 -19.051  1.00  0.00     0.092 A 
BRANCH  14  17
ATOM     17  O   UNL     1      49.752 -40.081 -19.606  1.00  0.00    -0.508 OA
ATOM     18  H   UNL     1      49.746 -41.073 -19.812  1.00  0.00     0.293 HD
ENDBRANCH  14  17
BRANCH  15  19
ATOM     19  O   UNL     1      52.765 -36.464 -18.485  1.00  0.00    -0.508 OA
ATOM     20  H   UNL     1      53.381 -36.670 -17.708  1.00  0.00     0.293 HD
ENDBRANCH  15  19
ENDBRANCH  10  11
ENDBRANCH   1  10
TORSDOF 6
ENDMDL
MODEL 6
REMARK VINA RESULT:    -5.364      3.404      4.999
REMARK INTER + INTRA:          -7.324
REMARK INTER:                  -6.919
REMARK INTRA:                  -0.405
REMARK UNBOUND:                -0.549
REMARK SMILES Oc1cc(O)cc(CCc2ccccc2O)c1
REMARK SMILES IDX 9 1 10 2 12 3 13 4 11 5 14 6 15 7 16 8 8 10 7 11 6 12 17 13
REMARK SMILES IDX 4 14 2 15 3 16 5 17 1 19
REMARK H PARENT 16 9 5 18 1 20
REMARK Flexibility Score: inf
ROOT
ATOM      1  C   UNL     1      45.591 -28.486 -31.310  1.00  0.00     0.044 C 
ENDROOT
BRANCH   1   2
ATOM      2  C   UNL     1      44.189 -28.842 -30.875  1.00  0.00    -0.006 A 
ATOM      3  C   UNL     1      42.705 -29.937 -29.289  1.00  0.00     0.001 A 
ATOM      4  C   UNL     1      41.604 -29.605 -30.083  1.00  0.00     0.004 A 
ATOM      5  C   UNL     1      43.992 -29.560 -29.682  1.00  0.00     0.007 A 
ATOM      6  C   UNL     1      41.789 -28.898 -31.274  1.00  0.00     0.046 A 
ATOM      7  C   UNL     1      43.077 -28.517 -31.678  1.00  0.00     0.118 A 
BRANCH   7   8
ATOM      8  O   UNL     1      43.255 -27.822 -32.875  1.00  0.00    -0.508 OA
ATOM      9  H   UNL     1      43.361 -28.305 -33.759  1.00  0.00     0.293 HD
ENDBRANCH   7   8
ENDBRANCH   1   2
BRANCH   1  10
ATOM     10  C   UNL     1      46.645 -29.349 -30.601  1.00  0.00     0.040 C 
BRANCH  10  11
ATOM     11  C   UNL     1      48.043 -29.006 -31.052  1.00  0.00    -0.040 A 
ATOM     12  C   UNL     1      49.144 -29.322 -30.241  1.00  0.00     0.050 A 
ATOM     13  C   UNL     1      48.259 -28.427 -32.314  1.00  0.00     0.050 A 
ATOM     14  C   UNL     1      50.447 -29.049 -30.678  1.00  0.00     0.119 A 
ATOM     15  C   UNL     1      49.559 -28.156 -32.753  1.00  0.00     0.119 A 
ATOM     16  C   UNL     1      50.651 -28.464 -31.932  1.00  0.00     0.092 A 
BRANCH  14  17
ATOM     17  O   UNL     1      51.545 -29.356 -29.878  1.00  0.00    -0.508 OA
ATOM     18  H   UNL     1      51.494 -29.303 -28.867  1.00  0.00     0.293 HD
ENDBRANCH  14  17
BRANCH  15  19
ATOM     19  O   UNL     1      49.752 -27.581 -34.007  1.00  0.00    -0.508 OA
ATOM     20  H   UNL     1      50.135 -26.649 -34.109  1.00  0.00     0.293 HD
ENDBRANCH  15  19
ENDBRANCH  10  11
ENDBRANCH   1  10
TORSDOF 6
ENDMDL
MODEL 7
REMARK VINA RESULT:    -5.357      1.702      2.020
REMARK INTER + INTRA:          -7.315
REMARK INTER:                  -6.739
REMARK INTRA:                  -0.575
REMARK UNBOUND:                -0.549
REMARK SMILES Oc1cc(O)cc(CCc2ccccc2O)c1
REMARK SMILES IDX 9 1 10 2 12 3 13 4 11 5 14 6 15 7 16 8 8 10 7 11 6 12 17 13
REMARK SMILES IDX 4 14 2 15 3 16 5 17 1 19
REMARK H PARENT 16 9 5 18 1 20
REMARK Flexibility Score: inf
ROOT
ATOM      1  C   UNL     1      48.327 -29.904 -28.690  1.00  0.00     0.044 C 
ENDROOT
BRANCH   1   2
ATOM      2  C   UNL     1      47.872 -31.328 -28.906  1.00  0.00    -0.006 A 
ATOM      3  C   UNL     1      48.406 -33.698 -29.039  1.00  0.00     0.001 A 
ATOM      4  C   UNL     1      47.085 -33.980 -29.395  1.00  0.00     0.004 A 
ATOM      5  C   UNL     1      48.800 -32.380 -28.797  1.00  0.00     0.007 A 
ATOM      6  C   UNL     1      46.156 -32.943 -29.513  1.00  0.00     0.046 A 
ATOM      7  C   UNL     1      46.543 -31.616 -29.275  1.00  0.00     0.118 A 
BRANCH   7   8
ATOM      8  O   UNL     1      45.612 -30.585 -29.406  1.00  0.00    -0.508 OA
ATOM      9  H   UNL     1      44.718 -30.613 -28.932  1.00  0.00     0.293 HD
ENDBRANCH   7   8
ENDBRANCH   1   2
BRANCH   1  10
ATOM     10  C   UNL     1      49.808 -29.717 -29.051  1.00  0.00     0.040 C 
BRANCH  10  11
ATOM     11  C   UNL     1      49.976 -29.078 -30.407  1.00  0.00    -0.040 A 
ATOM     12  C   UNL     1      51.233 -29.061 -31.029  1.00  0.00     0.050 A 
ATOM     13  C   UNL     1      48.863 -28.551 -31.085  1.00  0.00     0.050 A 
ATOM     14  C   UNL     1      51.383 -28.511 -32.310  1.00  0.00     0.119 A 
ATOM     15  C   UNL     1      49.010 -28.004 -32.363  1.00  0.00     0.119 A 
ATOM     16  C   UNL     1      50.270 -27.981 -32.973  1.00  0.00     0.092 A 
BRANCH  14  17
ATOM     17  O   UNL     1      52.628 -28.488 -32.933  1.00  0.00    -0.508 OA
ATOM     18  H   UNL     1      53.245 -29.292 -32.913  1.00  0.00     0.293 HD
ENDBRANCH  14  17
BRANCH  15  19
ATOM     19  O   UNL     1      47.895 -27.487 -33.020  1.00  0.00    -0.508 OA
ATOM     20  H   UNL     1      47.652 -26.504 -32.958  1.00  0.00     0.293 HD
ENDBRANCH  15  19
ENDBRANCH  10  11
ENDBRANCH   1  10
TORSDOF 6
ENDMDL
MODEL 8
REMARK VINA RESULT:    -5.344      2.999      6.520
REMARK INTER + INTRA:          -7.298
REMARK INTER:                  -6.765
REMARK INTRA:                  -0.533
REMARK UNBOUND:                -0.549
REMARK SMILES Oc1cc(O)cc(CCc2ccccc2O)c1
REMARK SMILES IDX 9 1 10 2 12 3 13 4 11 5 14 6 15 7 16 8 8 10 7 11 6 12 17 13
REMARK SMILES IDX 4 14 2 15 3 16 5 17 1 19
REMARK H PARENT 16 9 5 18 1 20
REMARK Flexibility Score: inf
ROOT
ATOM      1  C   UNL     1      51.708 -29.034 -32.075  1.00  0.00     0.044 C 
ENDROOT
BRANCH   1   2
ATOM      2  C   UNL     1      52.849 -28.572 -31.201  1.00  0.00    -0.006 A 
ATOM      3  C   UNL     1      53.800 -28.285 -28.980  1.00  0.00     0.001 A 
ATOM      4  C   UNL     1      54.908 -27.638 -29.533  1.00  0.00     0.004 A 
ATOM      5  C   UNL     1      52.774 -28.749 -29.807  1.00  0.00     0.007 A 
ATOM      6  C   UNL     1      54.991 -27.451 -30.915  1.00  0.00     0.046 A 
ATOM      7  C   UNL     1      53.964 -27.910 -31.753  1.00  0.00     0.118 A 
BRANCH   7   8
ATOM      8  O   UNL     1      54.048 -27.709 -33.131  1.00  0.00    -0.508 OA
ATOM      9  H   UNL     1      54.931 -27.508 -33.586  1.00  0.00     0.293 HD
ENDBRANCH   7   8
ENDBRANCH   1   2
BRANCH   1  10
ATOM     10  C   UNL     1      50.640 -27.943 -32.246  1.00  0.00     0.040 C 
BRANCH  10  11
ATOM     11  C   UNL     1      49.291 -28.400 -31.751  1.00  0.00    -0.040 A 
ATOM     12  C   UNL     1      49.192 -29.188 -30.595  1.00  0.00     0.050 A 
ATOM     13  C   UNL     1      48.119 -27.988 -32.408  1.00  0.00     0.050 A 
ATOM     14  C   UNL     1      47.937 -29.574 -30.106  1.00  0.00     0.119 A 
ATOM     15  C   UNL     1      46.865 -28.371 -31.921  1.00  0.00     0.119 A 
ATOM     16  C   UNL     1      46.776 -29.167 -30.772  1.00  0.00     0.092 A 
BRANCH  14  17
ATOM     17  O   UNL     1      47.830 -30.359 -28.960  1.00  0.00    -0.508 OA
ATOM     18  H   UNL     1      47.123 -30.177 -28.258  1.00  0.00     0.293 HD
ENDBRANCH  14  17
BRANCH  15  19
ATOM     19  O   UNL     1      45.714 -27.952 -32.586  1.00  0.00    -0.508 OA
ATOM     20  H   UNL     1      45.060 -27.307 -32.157  1.00  0.00     0.293 HD
ENDBRANCH  15  19
ENDBRANCH  10  11
ENDBRANCH   1  10
TORSDOF 6
ENDMDL
MODEL 9
REMARK VINA RESULT:    -5.335      3.002      6.663
REMARK INTER + INTRA:          -7.288
REMARK INTER:                  -6.772
REMARK INTRA:                  -0.515
REMARK UNBOUND:                -0.549
REMARK SMILES Oc1cc(O)cc(CCc2ccccc2O)c1
REMARK SMILES IDX 9 1 10 2 12 3 13 4 11 5 14 6 15 7 16 8 8 10 7 11 6 12 17 13
REMARK SMILES IDX 4 14 2 15 3 16 5 17 1 19
REMARK H PARENT 16 9 5 18 1 20
REMARK Flexibility Score: inf
ROOT
ATOM      1  C   UNL     1      51.834 -29.068 -32.039  1.00  0.00     0.044 C 
ENDROOT
BRANCH   1   2
ATOM      2  C   UNL     1      52.996 -28.627 -31.180  1.00  0.00    -0.006 A 
ATOM      3  C   UNL     1      54.024 -28.448 -28.983  1.00  0.00     0.001 A 
ATOM      4  C   UNL     1      55.092 -27.738 -29.536  1.00  0.00     0.004 A 
ATOM      5  C   UNL     1      52.979 -28.890 -29.799  1.00  0.00     0.007 A 
ATOM      6  C   UNL     1      55.116 -27.464 -30.906  1.00  0.00     0.046 A 
ATOM      7  C   UNL     1      54.070 -27.901 -31.732  1.00  0.00     0.118 A 
BRANCH   7   8
ATOM      8  O   UNL     1      54.094 -27.614 -33.097  1.00  0.00    -0.508 OA
ATOM      9  H   UNL     1      54.961 -27.605 -33.623  1.00  0.00     0.293 HD
ENDBRANCH   7   8
ENDBRANCH   1   2
BRANCH   1  10
ATOM     10  C   UNL     1      50.798 -27.947 -32.218  1.00  0.00     0.040 C 
BRANCH  10  11
ATOM     11  C   UNL     1      49.442 -28.350 -31.694  1.00  0.00    -0.040 A 
ATOM     12  C   UNL     1      48.278 -27.952 -32.370  1.00  0.00     0.050 A 
ATOM     13  C   UNL     1      49.337 -29.178 -30.565  1.00  0.00     0.050 A 
ATOM     14  C   UNL     1      47.019 -28.365 -31.913  1.00  0.00     0.119 A 
ATOM     15  C   UNL     1      48.081 -29.593 -30.109  1.00  0.00     0.119 A 
ATOM     16  C   UNL     1      46.923 -29.183 -30.782  1.00  0.00     0.092 A 
BRANCH  14  17
ATOM     17  O   UNL     1      45.859 -27.972 -32.575  1.00  0.00    -0.508 OA
ATOM     18  H   UNL     1      45.106 -27.500 -32.088  1.00  0.00     0.293 HD
ENDBRANCH  14  17
BRANCH  15  19
ATOM     19  O   UNL     1      47.996 -30.415 -28.987  1.00  0.00    -0.508 OA
ATOM     20  H   UNL     1      47.498 -30.123 -28.154  1.00  0.00     0.293 HD
ENDBRANCH  15  19
ENDBRANCH  10  11
ENDBRANCH   1  10
TORSDOF 6
ENDMDL
