MODEL 1
REMARK VINA RESULT:    -5.187      0.000      0.000
REMARK INTER + INTRA:          -5.908
REMARK INTER:                  -5.642
REMARK INTRA:                  -0.266
REMARK UNBOUND:                -0.266
REMARK SMILES C[C@H]1[C@@H](C)CC[C@@]2(C(=O)[O-])CC[C@]3(C)C(=CC[C@@H]4[C@@]5(C)CC[C@H](O)C(C)(C)[C@H]5CC[C@@]43C)[C@@H]12
REMARK SMILES IDX 7 1 6 2 11 3 33 4 5 5 12 6 15 7 2 8 3 9 13 10 16 11 1 12
REMARK SMILES IDX 4 13 14 14 31 15 17 16 18 17 30 18 32 19 19 20 29 21 28 22
REMARK SMILES IDX 21 23 20 24 25 25 22 26 23 27 26 28 27 29 8 30 9 31 10 32
REMARK SMILES IDX 24 33
REMARK H PARENT 24 34
REMARK Flexibility Score: inf
ROOT
ATOM      1  C   UNL     1      12.209  29.140  65.707  1.00  0.00     0.017 C 
ATOM      2  C   UNL     1      13.157  30.125  66.462  1.00  0.00     0.014 C 
ATOM      3  C   UNL     1      11.250  29.981  64.836  1.00  0.00     0.014 C 
ATOM      4  C   UNL     1      13.001  28.148  64.766  1.00  0.00     0.030 C 
ATOM      5  C   UNL     1      14.476  29.468  66.859  1.00  0.00     0.004 C 
ATOM      6  C   UNL     1      10.171  29.139  64.156  1.00  0.00     0.013 C 
ATOM      7  C   UNL     1      12.182  27.623  63.560  1.00  0.00    -0.063 C 
ATOM      8  C   UNL     1      14.416  28.707  64.362  1.00  0.00    -0.003 C 
ATOM      9  C   UNL     1      15.289  28.983  65.633  1.00  0.00    -0.011 C 
ATOM     10  C   UNL     1      10.665  27.830  63.416  1.00  0.00    -0.006 C 
ATOM     11  C   UNL     1      12.762  26.710  62.761  1.00  0.00    -0.027 C 
ATOM     12  C   UNL     1      14.361  29.878  63.355  1.00  0.00     0.008 C 
ATOM     13  C   UNL     1      16.499  29.894  65.367  1.00  0.00     0.008 C 
ATOM     14  C   UNL     1      10.023  26.607  64.151  1.00  0.00     0.017 C 
ATOM     15  C   UNL     1      10.216  27.838  61.867  1.00  0.00    -0.020 C 
ATOM     16  C   UNL     1      12.201  26.243  61.454  1.00  0.00     0.032 C 
ATOM     17  C   UNL     1      10.685  26.517  61.136  1.00  0.00     0.006 C 
ATOM     18  C   UNL     1      10.905  29.007  61.107  1.00  0.00     0.008 C 
ATOM     19  C   UNL     1       8.654  28.004  61.821  1.00  0.00     0.012 C 
ATOM     20  C   UNL     1      10.421  26.423  59.539  1.00  0.00    -0.025 C 
ATOM     21  C   UNL     1      10.582  29.055  59.611  1.00  0.00     0.005 C 
ATOM     22  C   UNL     1      10.868  27.754  58.792  1.00  0.00     0.003 C 
ATOM     23  C   UNL     1       8.931  26.042  59.172  1.00  0.00     0.010 C 
ATOM     24  C   UNL     1      11.275  25.199  59.026  1.00  0.00     0.012 C 
ATOM     25  C   UNL     1      10.269  27.899  57.321  1.00  0.00    -0.006 C 
ATOM     26  C   UNL     1       8.061  27.154  58.563  1.00  0.00     0.033 C 
ATOM     27  C   UNL     1       8.696  27.903  57.358  1.00  0.00     0.120 C 
ATOM     28  C   UNL     1      10.799  26.782  56.377  1.00  0.00     0.014 C 
ATOM     29  C   UNL     1      10.749  29.232  56.671  1.00  0.00     0.014 C 
ENDROOT
BRANCH   1  30
ATOM     30  C   UNL     1      11.429  28.387  66.785  1.00  0.00     0.048 C 
ATOM     31  O   UNL     1      10.585  28.991  67.500  1.00  0.00    -0.550 OA
ATOM     32  O   UNL     1      11.723  27.062  67.089  1.00  0.00    -0.550 OA
ENDBRANCH   1  30
BRANCH  27  33
ATOM     33  O   UNL     1       8.138  27.488  56.132  1.00  0.00    -0.393 OA
ATOM     34  H   UNL     1       7.425  26.823  56.320  1.00  0.00     0.210 HD
ENDBRANCH  27  33
TORSDOF 2
ENDMDL
MODEL 2
REMARK VINA RESULT:    -5.034      2.829      8.287
REMARK INTER + INTRA:          -5.741
REMARK INTER:                  -5.476
REMARK INTRA:                  -0.265
REMARK UNBOUND:                -0.266
REMARK SMILES C[C@H]1[C@@H](C)CC[C@@]2(C(=O)[O-])CC[C@]3(C)C(=CC[C@@H]4[C@@]5(C)CC[C@H](O)C(C)(C)[C@H]5CC[C@@]43C)[C@@H]12
REMARK SMILES IDX 7 1 6 2 11 3 33 4 5 5 12 6 15 7 2 8 3 9 13 10 16 11 1 12
REMARK SMILES IDX 4 13 14 14 31 15 17 16 18 17 30 18 32 19 19 20 29 21 28 22
REMARK SMILES IDX 21 23 20 24 25 25 22 26 23 27 26 28 27 29 8 30 9 31 10 32
REMARK SMILES IDX 24 33
REMARK H PARENT 24 34
REMARK Flexibility Score: inf
ROOT
ATOM      1  C   UNL     1      11.181  24.146  61.670  1.00  0.00     0.017 C 
ATOM      2  C   UNL     1      10.989  22.651  61.262  1.00  0.00     0.014 C 
ATOM      3  C   UNL     1      10.298  24.414  62.909  1.00  0.00     0.014 C 
ATOM      4  C   UNL     1      12.680  24.479  62.041  1.00  0.00     0.030 C 
ATOM      5  C   UNL     1      12.185  22.106  60.485  1.00  0.00     0.004 C 
ATOM      6  C   UNL     1      10.283  25.886  63.321  1.00  0.00     0.013 C 
ATOM      7  C   UNL     1      12.844  25.663  63.027  1.00  0.00    -0.063 C 
ATOM      8  C   UNL     1      13.491  23.199  62.464  1.00  0.00    -0.003 C 
ATOM      9  C   UNL     1      13.493  22.135  61.314  1.00  0.00    -0.011 C 
ATOM     10  C   UNL     1      11.691  26.601  63.418  1.00  0.00    -0.006 C 
ATOM     11  C   UNL     1      14.094  26.058  63.324  1.00  0.00    -0.027 C 
ATOM     12  C   UNL     1      13.100  22.641  63.852  1.00  0.00     0.008 C 
ATOM     13  C   UNL     1      13.896  20.725  61.775  1.00  0.00     0.008 C 
ATOM     14  C   UNL     1      11.714  27.735  62.339  1.00  0.00     0.017 C 
ATOM     15  C   UNL     1      11.917  27.234  64.884  1.00  0.00    -0.020 C 
ATOM     16  C   UNL     1      14.443  27.045  64.395  1.00  0.00     0.032 C 
ATOM     17  C   UNL     1      13.312  27.973  64.972  1.00  0.00     0.006 C 
ATOM     18  C   UNL     1      11.968  26.111  65.958  1.00  0.00     0.008 C 
ATOM     19  C   UNL     1      10.722  28.212  65.175  1.00  0.00     0.012 C 
ATOM     20  C   UNL     1      13.748  28.559  66.419  1.00  0.00    -0.025 C 
ATOM     21  C   UNL     1      12.241  26.617  67.377  1.00  0.00     0.005 C 
ATOM     22  C   UNL     1      13.525  27.489  67.575  1.00  0.00     0.003 C 
ATOM     23  C   UNL     1      13.050  29.931  66.777  1.00  0.00     0.010 C 
ATOM     24  C   UNL     1      15.280  28.919  66.302  1.00  0.00     0.012 C 
ATOM     25  C   UNL     1      13.534  28.114  69.041  1.00  0.00    -0.006 C 
ATOM     26  C   UNL     1      11.973  29.895  67.875  1.00  0.00     0.033 C 
ATOM     27  C   UNL     1      12.399  29.193  69.194  1.00  0.00     0.120 C 
ATOM     28  C   UNL     1      14.923  28.716  69.397  1.00  0.00     0.014 C 
ATOM     29  C   UNL     1      13.298  26.999  70.105  1.00  0.00     0.014 C 
ENDROOT
BRANCH   1  30
ATOM     30  C   UNL     1      10.699  24.978  60.481  1.00  0.00     0.048 C 
ATOM     31  O   UNL     1       9.477  25.000  60.173  1.00  0.00    -0.550 OA
ATOM     32  O   UNL     1      11.603  25.618  59.640  1.00  0.00    -0.550 OA
ENDBRANCH   1  30
BRANCH  27  33
ATOM     33  O   UNL     1      12.689  30.125  70.211  1.00  0.00    -0.393 OA
ATOM     34  H   UNL     1      12.385  29.749  71.078  1.00  0.00     0.210 HD
ENDBRANCH  27  33
TORSDOF 2
ENDMDL
MODEL 3
REMARK VINA RESULT:    -5.003      2.418      4.568
REMARK INTER + INTRA:          -5.708
REMARK INTER:                  -5.713
REMARK INTRA:                   0.005
REMARK UNBOUND:                -0.266
REMARK SMILES C[C@H]1[C@@H](C)CC[C@@]2(C(=O)[O-])CC[C@]3(C)C(=CC[C@@H]4[C@@]5(C)CC[C@H](O)C(C)(C)[C@H]5CC[C@@]43C)[C@@H]12
REMARK SMILES IDX 7 1 6 2 11 3 33 4 5 5 12 6 15 7 2 8 3 9 13 10 16 11 1 12
REMARK SMILES IDX 4 13 14 14 31 15 17 16 18 17 30 18 32 19 19 20 29 21 28 22
REMARK SMILES IDX 21 23 20 24 25 25 22 26 23 27 26 28 27 29 8 30 9 31 10 32
REMARK SMILES IDX 24 33
REMARK H PARENT 24 34
REMARK Flexibility Score: inf
ROOT
ATOM      1  C   UNL     1      12.012  24.630  65.060  1.00  0.00     0.017 C 
ATOM      2  C   UNL     1      12.391  23.226  65.628  1.00  0.00     0.014 C 
ATOM      3  C   UNL     1      13.006  24.966  63.925  1.00  0.00     0.014 C 
ATOM      4  C   UNL     1      10.547  24.663  64.469  1.00  0.00     0.030 C 
ATOM      5  C   UNL     1      11.204  22.531  66.291  1.00  0.00     0.004 C 
ATOM      6  C   UNL     1      12.833  26.384  63.383  1.00  0.00     0.013 C 
ATOM      7  C   UNL     1      10.330  25.727  63.363  1.00  0.00    -0.063 C 
ATOM      8  C   UNL     1      10.031  23.232  64.067  1.00  0.00    -0.003 C 
ATOM      9  C   UNL     1      10.043  22.268  65.302  1.00  0.00    -0.011 C 
ATOM     10  C   UNL     1      11.353  26.827  63.038  1.00  0.00    -0.006 C 
ATOM     11  C   UNL     1       9.087  25.870  62.871  1.00  0.00    -0.027 C 
ATOM     12  C   UNL     1      10.705  22.658  62.799  1.00  0.00     0.008 C 
ATOM     13  C   UNL     1       9.952  20.779  64.926  1.00  0.00     0.008 C 
ATOM     14  C   UNL     1      10.985  28.010  63.994  1.00  0.00     0.017 C 
ATOM     15  C   UNL     1      11.237  27.305  61.502  1.00  0.00    -0.020 C 
ATOM     16  C   UNL     1       8.735  26.702  61.676  1.00  0.00     0.032 C 
ATOM     17  C   UNL     1       9.765  27.775  61.166  1.00  0.00     0.006 C 
ATOM     18  C   UNL     1      11.530  26.118  60.540  1.00  0.00     0.008 C 
ATOM     19  C   UNL     1      12.281  28.458  61.277  1.00  0.00     0.012 C 
ATOM     20  C   UNL     1       9.450  28.170  59.626  1.00  0.00    -0.025 C 
ATOM     21  C   UNL     1      11.382  26.467  59.057  1.00  0.00     0.005 C 
ATOM     22  C   UNL     1      10.013  27.079  58.614  1.00  0.00     0.003 C 
ATOM     23  C   UNL     1       9.951  29.616  59.234  1.00  0.00     0.010 C 
ATOM     24  C   UNL     1       7.878  28.257  59.510  1.00  0.00     0.012 C 
ATOM     25  C   UNL     1      10.110  27.589  57.107  1.00  0.00    -0.006 C 
ATOM     26  C   UNL     1      11.165  29.698  58.293  1.00  0.00     0.033 C 
ATOM     27  C   UNL     1      11.057  28.841  57.002  1.00  0.00     0.120 C 
ATOM     28  C   UNL     1       8.704  27.906  56.520  1.00  0.00     0.014 C 
ATOM     29  C   UNL     1      10.679  26.462  56.191  1.00  0.00     0.014 C 
ENDROOT
BRANCH   1  30
ATOM     30  C   UNL     1      12.171  25.617  66.218  1.00  0.00     0.048 C 
ATOM     31  O   UNL     1      11.212  25.835  67.005  1.00  0.00    -0.550 OA
ATOM     32  O   UNL     1      13.323  26.386  66.351  1.00  0.00    -0.550 OA
ENDBRANCH   1  30
BRANCH  27  33
ATOM     33  O   UNL     1      10.764  29.631  55.873  1.00  0.00    -0.393 OA
ATOM     34  H   UNL     1      11.544  30.217  55.688  1.00  0.00     0.210 HD
ENDBRANCH  27  33
TORSDOF 2
ENDMDL
MODEL 4
REMARK VINA RESULT:    -4.863      4.281      6.603
REMARK INTER + INTRA:          -5.555
REMARK INTER:                  -5.351
REMARK INTRA:                  -0.205
REMARK UNBOUND:                -0.266
REMARK SMILES C[C@H]1[C@@H](C)CC[C@@]2(C(=O)[O-])CC[C@]3(C)C(=CC[C@@H]4[C@@]5(C)CC[C@H](O)C(C)(C)[C@H]5CC[C@@]43C)[C@@H]12
REMARK SMILES IDX 7 1 6 2 11 3 33 4 5 5 12 6 15 7 2 8 3 9 13 10 16 11 1 12
REMARK SMILES IDX 4 13 14 14 31 15 17 16 18 17 30 18 32 19 19 20 29 21 28 22
REMARK SMILES IDX 21 23 20 24 25 25 22 26 23 27 26 28 27 29 8 30 9 31 10 32
REMARK SMILES IDX 24 33
REMARK H PARENT 24 34
REMARK Flexibility Score: inf
ROOT
ATOM      1  C   UNL     1       9.836  20.841  64.244  1.00  0.00     0.017 C 
ATOM      2  C   UNL     1       8.969  20.041  65.267  1.00  0.00     0.014 C 
ATOM      3  C   UNL     1       8.900  21.339  63.120  1.00  0.00     0.014 C 
ATOM      4  C   UNL     1      10.539  22.093  64.903  1.00  0.00     0.030 C 
ATOM      5  C   UNL     1       9.596  20.013  66.659  1.00  0.00     0.004 C 
ATOM      6  C   UNL     1       9.653  22.015  61.975  1.00  0.00     0.013 C 
ATOM      7  C   UNL     1      10.850  23.243  63.913  1.00  0.00    -0.063 C 
ATOM      8  C   UNL     1       9.802  22.576  66.207  1.00  0.00    -0.003 C 
ATOM      9  C   UNL     1       9.743  21.428  67.271  1.00  0.00    -0.011 C 
ATOM     10  C   UNL     1      10.731  23.098  62.387  1.00  0.00    -0.006 C 
ATOM     11  C   UNL     1      11.523  24.308  64.384  1.00  0.00    -0.027 C 
ATOM     12  C   UNL     1       8.448  23.272  65.939  1.00  0.00     0.008 C 
ATOM     13  C   UNL     1       8.708  21.667  68.383  1.00  0.00     0.008 C 
ATOM     14  C   UNL     1      12.128  22.567  61.925  1.00  0.00     0.017 C 
ATOM     15  C   UNL     1      10.422  24.516  61.682  1.00  0.00    -0.020 C 
ATOM     16  C   UNL     1      11.737  25.582  63.628  1.00  0.00     0.032 C 
ATOM     17  C   UNL     1      11.514  25.590  62.072  1.00  0.00     0.006 C 
ATOM     18  C   UNL     1       9.068  25.090  62.188  1.00  0.00     0.008 C 
ATOM     19  C   UNL     1      10.367  24.279  60.130  1.00  0.00     0.012 C 
ATOM     20  C   UNL     1      11.281  27.106  61.545  1.00  0.00    -0.025 C 
ATOM     21  C   UNL     1       8.722  26.468  61.616  1.00  0.00     0.005 C 
ATOM     22  C   UNL     1       9.790  27.594  61.808  1.00  0.00     0.003 C 
ATOM     23  C   UNL     1      11.684  27.312  60.031  1.00  0.00     0.010 C 
ATOM     24  C   UNL     1      12.297  28.009  62.346  1.00  0.00     0.012 C 
ATOM     25  C   UNL     1       9.376  28.882  60.965  1.00  0.00    -0.006 C 
ATOM     26  C   UNL     1      10.534  27.511  59.028  1.00  0.00     0.033 C 
ATOM     27  C   UNL     1       9.498  28.600  59.422  1.00  0.00     0.120 C 
ATOM     28  C   UNL     1      10.220  30.125  61.370  1.00  0.00     0.014 C 
ATOM     29  C   UNL     1       7.902  29.282  61.278  1.00  0.00     0.014 C 
ENDROOT
BRANCH   1  30
ATOM     30  C   UNL     1      10.860  19.852  63.686  1.00  0.00     0.048 C 
ATOM     31  O   UNL     1      10.479  18.801  63.105  1.00  0.00    -0.550 OA
ATOM     32  O   UNL     1      12.221  20.020  63.920  1.00  0.00    -0.550 OA
ENDBRANCH   1  30
BRANCH  27  33
ATOM     33  O   UNL     1       9.678  29.785  58.681  1.00  0.00    -0.393 OA
ATOM     34  H   UNL     1       8.984  30.438  58.959  1.00  0.00     0.210 HD
ENDBRANCH  27  33
TORSDOF 2
ENDMDL
MODEL 5
REMARK VINA RESULT:    -4.768      3.529      5.612
REMARK INTER + INTRA:          -5.452
REMARK INTER:                  -5.453
REMARK INTRA:                   0.001
REMARK UNBOUND:                -0.266
REMARK SMILES C[C@H]1[C@@H](C)CC[C@@]2(C(=O)[O-])CC[C@]3(C)C(=CC[C@@H]4[C@@]5(C)CC[C@H](O)C(C)(C)[C@H]5CC[C@@]43C)[C@@H]12
REMARK SMILES IDX 7 1 6 2 11 3 33 4 5 5 12 6 15 7 2 8 3 9 13 10 16 11 1 12
REMARK SMILES IDX 4 13 14 14 31 15 17 16 18 17 30 18 32 19 19 20 29 21 28 22
REMARK SMILES IDX 21 23 20 24 25 25 22 26 23 27 26 28 27 29 8 30 9 31 10 32
REMARK SMILES IDX 24 33
REMARK H PARENT 24 34
REMARK Flexibility Score: inf
ROOT
ATOM      1  C   UNL     1      14.173  28.526  65.022  1.00  0.00     0.017 C 
ATOM      2  C   UNL     1      14.982  29.077  66.238  1.00  0.00     0.014 C 
ATOM      3  C   UNL     1      14.723  27.122  64.684  1.00  0.00     0.014 C 
ATOM      4  C   UNL     1      12.630  28.397  65.337  1.00  0.00     0.030 C 
ATOM      5  C   UNL     1      14.199  30.122  67.028  1.00  0.00     0.004 C 
ATOM      6  C   UNL     1      14.110  26.532  63.415  1.00  0.00     0.013 C 
ATOM      7  C   UNL     1      11.897  27.317  64.502  1.00  0.00    -0.063 C 
ATOM      8  C   UNL     1      12.340  28.295  66.880  1.00  0.00    -0.003 C 
ATOM      9  C   UNL     1      12.894  29.551  67.635  1.00  0.00    -0.011 C 
ATOM     10  C   UNL     1      12.534  26.606  63.297  1.00  0.00    -0.006 C 
ATOM     11  C   UNL     1      10.566  27.206  64.656  1.00  0.00    -0.027 C 
ATOM     12  C   UNL     1      12.747  26.940  67.504  1.00  0.00     0.008 C 
ATOM     13  C   UNL     1      13.023  29.352  69.155  1.00  0.00     0.008 C 
ATOM     14  C   UNL     1      12.199  27.519  62.071  1.00  0.00     0.017 C 
ATOM     15  C   UNL     1      11.902  25.138  63.077  1.00  0.00    -0.020 C 
ATOM     16  C   UNL     1       9.732  26.101  64.084  1.00  0.00     0.032 C 
ATOM     17  C   UNL     1      10.330  25.215  62.931  1.00  0.00     0.006 C 
ATOM     18  C   UNL     1      12.166  24.242  64.320  1.00  0.00     0.008 C 
ATOM     19  C   UNL     1      12.574  24.511  61.802  1.00  0.00     0.012 C 
ATOM     20  C   UNL     1       9.528  23.810  62.828  1.00  0.00    -0.025 C 
ATOM     21  C   UNL     1      11.547  22.844  64.224  1.00  0.00     0.005 C 
ATOM     22  C   UNL     1      10.011  22.777  63.937  1.00  0.00     0.003 C 
ATOM     23  C   UNL     1       9.583  23.160  61.389  1.00  0.00     0.010 C 
ATOM     24  C   UNL     1       8.003  24.161  63.040  1.00  0.00     0.012 C 
ATOM     25  C   UNL     1       9.580  21.271  63.645  1.00  0.00    -0.006 C 
ATOM     26  C   UNL     1      10.447  21.897  61.231  1.00  0.00     0.033 C 
ATOM     27  C   UNL     1      10.174  20.778  62.273  1.00  0.00     0.120 C 
ATOM     28  C   UNL     1       8.034  21.103  63.672  1.00  0.00     0.014 C 
ATOM     29  C   UNL     1      10.103  20.331  64.773  1.00  0.00     0.014 C 
ENDROOT
BRANCH   1  30
ATOM     30  C   UNL     1      14.430  29.492  63.864  1.00  0.00     0.048 C 
ATOM     31  O   UNL     1      15.603  29.868  63.597  1.00  0.00    -0.550 OA
ATOM     32  O   UNL     1      13.375  30.075  63.169  1.00  0.00    -0.550 OA
ENDBRANCH   1  30
BRANCH  27  33
ATOM     33  O   UNL     1       9.421  19.722  61.721  1.00  0.00    -0.393 OA
ATOM     34  H   UNL     1       9.558  18.913  62.279  1.00  0.00     0.210 HD
ENDBRANCH  27  33
TORSDOF 2
ENDMDL
MODEL 6
REMARK VINA RESULT:    -4.467      3.629      7.310
REMARK INTER + INTRA:          -5.124
REMARK INTER:                  -5.235
REMARK INTRA:                   0.111
REMARK UNBOUND:                -0.266
REMARK SMILES C[C@H]1[C@@H](C)CC[C@@]2(C(=O)[O-])CC[C@]3(C)C(=CC[C@@H]4[C@@]5(C)CC[C@H](O)C(C)(C)[C@H]5CC[C@@]43C)[C@@H]12
REMARK SMILES IDX 7 1 6 2 11 3 33 4 5 5 12 6 15 7 2 8 3 9 13 10 16 11 1 12
REMARK SMILES IDX 4 13 14 14 31 15 17 16 18 17 30 18 32 19 19 20 29 21 28 22
REMARK SMILES IDX 21 23 20 24 25 25 22 26 23 27 26 28 27 29 8 30 9 31 10 32
REMARK SMILES IDX 24 33
REMARK H PARENT 24 34
REMARK Flexibility Score: inf
ROOT
ATOM      1  C   UNL     1      11.085  28.629  60.571  1.00  0.00     0.017 C 
ATOM      2  C   UNL     1      10.261  29.488  59.560  1.00  0.00     0.014 C 
ATOM      3  C   UNL     1      10.220  28.428  61.835  1.00  0.00     0.014 C 
ATOM      4  C   UNL     1      11.457  27.209  59.987  1.00  0.00     0.030 C 
ATOM      5  C   UNL     1      10.706  29.265  58.116  1.00  0.00     0.004 C 
ATOM      6  C   UNL     1      10.971  27.724  62.965  1.00  0.00     0.013 C 
ATOM      7  C   UNL     1      11.671  26.114  61.063  1.00  0.00    -0.063 C 
ATOM      8  C   UNL     1      10.489  26.763  58.830  1.00  0.00    -0.003 C 
ATOM      9  C   UNL     1      10.511  27.800  57.656  1.00  0.00    -0.011 C 
ATOM     10  C   UNL     1      11.771  26.418  62.567  1.00  0.00    -0.006 C 
ATOM     11  C   UNL     1      12.072  24.900  60.647  1.00  0.00    -0.027 C 
ATOM     12  C   UNL     1       9.073  26.374  59.314  1.00  0.00     0.008 C 
ATOM     13  C   UNL     1       9.320  27.668  56.691  1.00  0.00     0.008 C 
ATOM     14  C   UNL     1      13.288  26.704  62.818  1.00  0.00     0.017 C 
ATOM     15  C   UNL     1      11.295  25.157  63.455  1.00  0.00    -0.020 C 
ATOM     16  C   UNL     1      12.139  23.682  61.516  1.00  0.00     0.032 C 
ATOM     17  C   UNL     1      12.113  23.859  63.078  1.00  0.00     0.006 C 
ATOM     18  C   UNL     1       9.806  24.817  63.161  1.00  0.00     0.008 C 
ATOM     19  C   UNL     1      11.476  25.541  64.969  1.00  0.00     0.012 C 
ATOM     20  C   UNL     1      11.671  22.473  63.794  1.00  0.00    -0.025 C 
ATOM     21  C   UNL     1       9.285  23.592  63.918  1.00  0.00     0.005 C 
ATOM     22  C   UNL     1      10.094  22.265  63.744  1.00  0.00     0.003 C 
ATOM     23  C   UNL     1      12.213  22.330  65.272  1.00  0.00     0.010 C 
ATOM     24  C   UNL     1      12.396  21.319  62.998  1.00  0.00     0.012 C 
ATOM     25  C   UNL     1       9.557  21.166  64.765  1.00  0.00    -0.006 C 
ATOM     26  C   UNL     1      11.179  22.452  66.404  1.00  0.00     0.033 C 
ATOM     27  C   UNL     1       9.919  21.557  66.246  1.00  0.00     0.120 C 
ATOM     28  C   UNL     1      10.100  19.750  64.418  1.00  0.00     0.014 C 
ATOM     29  C   UNL     1       8.007  21.037  64.654  1.00  0.00     0.014 C 
ENDROOT
BRANCH   1  30
ATOM     30  C   UNL     1      12.335  29.444  60.904  1.00  0.00     0.048 C 
ATOM     31  O   UNL     1      13.336  29.415  60.139  1.00  0.00    -0.550 OA
ATOM     32  O   UNL     1      12.447  30.125  62.112  1.00  0.00    -0.550 OA
ENDBRANCH   1  30
BRANCH  27  33
ATOM     33  O   UNL     1       9.968  20.432  67.093  1.00  0.00    -0.393 OA
ATOM     34  H   UNL     1      10.691  19.831  66.775  1.00  0.00     0.210 HD
ENDBRANCH  27  33
TORSDOF 2
ENDMDL
MODEL 7
REMARK VINA RESULT:    -4.322      4.776      8.692
REMARK INTER + INTRA:          -4.967
REMARK INTER:                  -4.702
REMARK INTRA:                  -0.265
REMARK UNBOUND:                -0.266
REMARK SMILES C[C@H]1[C@@H](C)CC[C@@]2(C(=O)[O-])CC[C@]3(C)C(=CC[C@@H]4[C@@]5(C)CC[C@H](O)C(C)(C)[C@H]5CC[C@@]43C)[C@@H]12
REMARK SMILES IDX 7 1 6 2 11 3 33 4 5 5 12 6 15 7 2 8 3 9 13 10 16 11 1 12
REMARK SMILES IDX 4 13 14 14 31 15 17 16 18 17 30 18 32 19 19 20 29 21 28 22
REMARK SMILES IDX 21 23 20 24 25 25 22 26 23 27 26 28 27 29 8 30 9 31 10 32
REMARK SMILES IDX 24 33
REMARK H PARENT 24 34
REMARK Flexibility Score: inf
ROOT
ATOM      1  C   UNL     1      11.749  21.477  63.168  1.00  0.00     0.017 C 
ATOM      2  C   UNL     1      12.980  21.099  62.285  1.00  0.00     0.014 C 
ATOM      3  C   UNL     1      12.231  21.584  64.631  1.00  0.00     0.014 C 
ATOM      4  C   UNL     1      11.112  22.861  62.747  1.00  0.00     0.030 C 
ATOM      5  C   UNL     1      12.805  21.534  60.832  1.00  0.00     0.004 C 
ATOM      6  C   UNL     1      11.087  21.806  65.620  1.00  0.00     0.013 C 
ATOM      7  C   UNL     1      10.367  23.593  63.892  1.00  0.00    -0.063 C 
ATOM      8  C   UNL     1      12.131  23.780  61.978  1.00  0.00    -0.003 C 
ATOM      9  C   UNL     1      12.659  23.068  60.687  1.00  0.00    -0.011 C 
ATOM     10  C   UNL     1      10.045  22.937  65.244  1.00  0.00    -0.006 C 
ATOM     11  C   UNL     1       9.729  24.737  63.589  1.00  0.00    -0.027 C 
ATOM     12  C   UNL     1      13.237  24.377  62.879  1.00  0.00     0.008 C 
ATOM     13  C   UNL     1      13.936  23.702  60.108  1.00  0.00     0.008 C 
ATOM     14  C   UNL     1       8.659  22.244  65.032  1.00  0.00     0.017 C 
ATOM     15  C   UNL     1       9.936  24.036  66.421  1.00  0.00    -0.020 C 
ATOM     16  C   UNL     1       9.130  25.670  64.596  1.00  0.00     0.032 C 
ATOM     17  C   UNL     1       8.875  25.149  66.058  1.00  0.00     0.006 C 
ATOM     18  C   UNL     1      11.289  24.783  66.593  1.00  0.00     0.008 C 
ATOM     19  C   UNL     1       9.558  23.282  67.748  1.00  0.00     0.012 C 
ATOM     20  C   UNL     1       8.735  26.398  67.083  1.00  0.00    -0.025 C 
ATOM     21  C   UNL     1      11.260  25.889  67.652  1.00  0.00     0.005 C 
ATOM     22  C   UNL     1      10.157  26.985  67.488  1.00  0.00     0.003 C 
ATOM     23  C   UNL     1       7.875  26.063  68.366  1.00  0.00     0.010 C 
ATOM     24  C   UNL     1       7.891  27.494  66.323  1.00  0.00     0.012 C 
ATOM     25  C   UNL     1      10.123  27.916  68.782  1.00  0.00    -0.006 C 
ATOM     26  C   UNL     1       8.637  25.935  69.696  1.00  0.00     0.033 C 
ATOM     27  C   UNL     1       9.587  27.119  70.028  1.00  0.00     0.120 C 
ATOM     28  C   UNL     1       9.279  29.200  68.539  1.00  0.00     0.014 C 
ATOM     29  C   UNL     1      11.556  28.437  69.110  1.00  0.00     0.014 C 
ENDROOT
BRANCH   1  30
ATOM     30  C   UNL     1      10.748  20.331  63.018  1.00  0.00     0.048 C 
ATOM     31  O   UNL     1      11.006  19.193  63.495  1.00  0.00    -0.550 OA
ATOM     32  O   UNL     1       9.599  20.478  62.247  1.00  0.00    -0.550 OA
ENDBRANCH   1  30
BRANCH  27  33
ATOM     33  O   UNL     1       9.036  27.974  71.004  1.00  0.00    -0.393 OA
ATOM     34  H   UNL     1       8.315  27.485  71.479  1.00  0.00     0.210 HD
ENDBRANCH  27  33
TORSDOF 2
ENDMDL
MODEL 8
REMARK VINA RESULT:    -4.264      5.208      7.236
REMARK INTER + INTRA:          -4.904
REMARK INTER:                  -5.057
REMARK INTRA:                   0.154
REMARK UNBOUND:                -0.266
REMARK SMILES C[C@H]1[C@@H](C)CC[C@@]2(C(=O)[O-])CC[C@]3(C)C(=CC[C@@H]4[C@@]5(C)CC[C@H](O)C(C)(C)[C@H]5CC[C@@]43C)[C@@H]12
REMARK SMILES IDX 7 1 6 2 11 3 33 4 5 5 12 6 15 7 2 8 3 9 13 10 16 11 1 12
REMARK SMILES IDX 4 13 14 14 31 15 17 16 18 17 30 18 32 19 19 20 29 21 28 22
REMARK SMILES IDX 21 23 20 24 25 25 22 26 23 27 26 28 27 29 8 30 9 31 10 32
REMARK SMILES IDX 24 33
REMARK H PARENT 24 34
REMARK Flexibility Score: inf
ROOT
ATOM      1  C   UNL     1       8.762  20.479  66.745  1.00  0.00     0.017 C 
ATOM      2  C   UNL     1       8.015  20.368  68.112  1.00  0.00     0.014 C 
ATOM      3  C   UNL     1       7.875  21.306  65.787  1.00  0.00     0.014 C 
ATOM      4  C   UNL     1      10.160  21.201  66.883  1.00  0.00     0.030 C 
ATOM      5  C   UNL     1       8.972  20.125  69.276  1.00  0.00     0.004 C 
ATOM      6  C   UNL     1       8.429  21.363  64.364  1.00  0.00     0.013 C 
ATOM      7  C   UNL     1      10.641  21.908  65.591  1.00  0.00    -0.063 C 
ATOM      8  C   UNL     1      10.238  22.117  68.160  1.00  0.00    -0.003 C 
ATOM      9  C   UNL     1       9.985  21.281  69.461  1.00  0.00    -0.011 C 
ATOM     10  C   UNL     1       9.964  21.720  64.223  1.00  0.00    -0.006 C 
ATOM     11  C   UNL     1      11.861  22.475  65.607  1.00  0.00    -0.027 C 
ATOM     12  C   UNL     1       9.397  23.410  68.055  1.00  0.00     0.008 C 
ATOM     13  C   UNL     1       9.640  22.139  70.690  1.00  0.00     0.008 C 
ATOM     14  C   UNL     1      10.677  20.479  63.592  1.00  0.00     0.017 C 
ATOM     15  C   UNL     1      10.172  23.012  63.280  1.00  0.00    -0.020 C 
ATOM     16  C   UNL     1      12.403  23.359  64.526  1.00  0.00     0.032 C 
ATOM     17  C   UNL     1      11.707  23.352  63.116  1.00  0.00     0.006 C 
ATOM     18  C   UNL     1       9.530  24.269  63.932  1.00  0.00     0.008 C 
ATOM     19  C   UNL     1       9.492  22.710  61.895  1.00  0.00     0.012 C 
ATOM     20  C   UNL     1      12.082  24.699  62.297  1.00  0.00    -0.025 C 
ATOM     21  C   UNL     1       9.732  25.559  63.131  1.00  0.00     0.005 C 
ATOM     22  C   UNL     1      11.207  25.938  62.776  1.00  0.00     0.003 C 
ATOM     23  C   UNL     1      12.002  24.523  60.729  1.00  0.00     0.010 C 
ATOM     24  C   UNL     1      13.610  24.972  62.581  1.00  0.00     0.012 C 
ATOM     25  C   UNL     1      11.220  27.167  61.759  1.00  0.00    -0.006 C 
ATOM     26  C   UNL     1      10.837  25.226  60.011  1.00  0.00     0.033 C 
ATOM     27  C   UNL     1      10.664  26.731  60.353  1.00  0.00     0.120 C 
ATOM     28  C   UNL     1      12.642  27.783  61.627  1.00  0.00     0.014 C 
ATOM     29  C   UNL     1      10.331  28.326  62.303  1.00  0.00     0.014 C 
ENDROOT
BRANCH   1  30
ATOM     30  C   UNL     1       8.918  19.049  66.227  1.00  0.00     0.048 C 
ATOM     31  O   UNL     1       7.973  18.224  66.339  1.00  0.00    -0.550 OA
ATOM     32  O   UNL     1      10.140  18.591  65.743  1.00  0.00    -0.550 OA
ENDBRANCH   1  30
BRANCH  27  33
ATOM     33  O   UNL     1      11.141  27.560  59.318  1.00  0.00    -0.393 OA
ATOM     34  H   UNL     1      11.099  28.503  59.625  1.00  0.00     0.210 HD
ENDBRANCH  27  33
TORSDOF 2
ENDMDL
MODEL 9
REMARK VINA RESULT:    -3.769      3.803      8.239
REMARK INTER + INTRA:          -4.366
REMARK INTER:                  -4.118
REMARK INTRA:                  -0.248
REMARK UNBOUND:                -0.266
REMARK SMILES C[C@H]1[C@@H](C)CC[C@@]2(C(=O)[O-])CC[C@]3(C)C(=CC[C@@H]4[C@@]5(C)CC[C@H](O)C(C)(C)[C@H]5CC[C@@]43C)[C@@H]12
REMARK SMILES IDX 7 1 6 2 11 3 33 4 5 5 12 6 15 7 2 8 3 9 13 10 16 11 1 12
REMARK SMILES IDX 4 13 14 14 31 15 17 16 18 17 30 18 32 19 19 20 29 21 28 22
REMARK SMILES IDX 21 23 20 24 25 25 22 26 23 27 26 28 27 29 8 30 9 31 10 32
REMARK SMILES IDX 24 33
REMARK H PARENT 24 34
REMARK Flexibility Score: inf
ROOT
ATOM      1  C   UNL     1      10.118  22.287  62.986  1.00  0.00     0.017 C 
ATOM      2  C   UNL     1      10.799  20.974  62.485  1.00  0.00     0.014 C 
ATOM      3  C   UNL     1      10.135  22.269  64.531  1.00  0.00     0.014 C 
ATOM      4  C   UNL     1      10.875  23.582  62.491  1.00  0.00     0.030 C 
ATOM      5  C   UNL     1      11.375  21.122  61.079  1.00  0.00     0.004 C 
ATOM      6  C   UNL     1       9.364  23.434  65.148  1.00  0.00     0.013 C 
ATOM      7  C   UNL     1      10.694  24.816  63.411  1.00  0.00    -0.063 C 
ATOM      8  C   UNL     1      12.378  23.294  62.124  1.00  0.00    -0.003 C 
ATOM      9  C   UNL     1      12.478  22.206  61.002  1.00  0.00    -0.011 C 
ATOM     10  C   UNL     1       9.673  24.870  64.559  1.00  0.00    -0.006 C 
ATOM     11  C   UNL     1      11.241  25.978  63.012  1.00  0.00    -0.027 C 
ATOM     12  C   UNL     1      13.283  23.035  63.351  1.00  0.00     0.008 C 
ATOM     13  C   UNL     1      13.876  21.576  60.873  1.00  0.00     0.008 C 
ATOM     14  C   UNL     1       8.356  25.397  63.898  1.00  0.00     0.017 C 
ATOM     15  C   UNL     1      10.147  25.882  65.723  1.00  0.00    -0.020 C 
ATOM     16  C   UNL     1      11.333  27.211  63.857  1.00  0.00     0.032 C 
ATOM     17  C   UNL     1      10.428  27.323  65.138  1.00  0.00     0.006 C 
ATOM     18  C   UNL     1      11.494  25.407  66.339  1.00  0.00     0.008 C 
ATOM     19  C   UNL     1       9.025  25.909  66.822  1.00  0.00     0.012 C 
ATOM     20  C   UNL     1      11.034  28.429  66.158  1.00  0.00    -0.025 C 
ATOM     21  C   UNL     1      12.051  26.344  67.414  1.00  0.00     0.005 C 
ATOM     22  C   UNL     1      12.245  27.841  67.006  1.00  0.00     0.003 C 
ATOM     23  C   UNL     1       9.943  29.074  67.103  1.00  0.00     0.010 C 
ATOM     24  C   UNL     1      11.531  29.627  65.260  1.00  0.00     0.012 C 
ATOM     25  C   UNL     1      12.611  28.710  68.292  1.00  0.00    -0.006 C 
ATOM     26  C   UNL     1       9.987  28.674  68.587  1.00  0.00     0.033 C 
ATOM     27  C   UNL     1      11.378  28.810  69.266  1.00  0.00     0.120 C 
ATOM     28  C   UNL     1      13.123  30.125  67.899  1.00  0.00     0.014 C 
ATOM     29  C   UNL     1      13.796  28.056  69.065  1.00  0.00     0.014 C 
ENDROOT
BRANCH   1  30
ATOM     30  C   UNL     1       8.680  22.246  62.468  1.00  0.00     0.048 C 
ATOM     31  O   UNL     1       7.892  21.339  62.847  1.00  0.00    -0.550 OA
ATOM     32  O   UNL     1       8.250  23.121  61.476  1.00  0.00    -0.550 OA
ENDBRANCH   1  30
BRANCH  27  33
ATOM     33  O   UNL     1      11.448  29.950  70.090  1.00  0.00    -0.393 OA
ATOM     34  H   UNL     1      11.093  30.727  69.584  1.00  0.00     0.210 HD
ENDBRANCH  27  33
TORSDOF 2
ENDMDL
