MODEL 1
REMARK VINA RESULT:    -3.852      0.000      0.000
REMARK INTER + INTRA:          -4.858
REMARK INTER:                  -4.752
REMARK INTRA:                  -0.106
REMARK UNBOUND:                -0.106
REMARK SMILES CCCCCC(=O)[O-]
REMARK SMILES IDX 4 1 5 2 6 3 7 4 8 5 3 6 2 7 1 8
REMARK H PARENT
REMARK Flexibility Score: inf
ROOT
ATOM      1  C   UNL     1      13.374  -7.238  14.185  1.00  0.00     0.006 C 
ENDROOT
BRANCH   1   2
ATOM      2  C   UNL     1      14.098  -7.044  15.524  1.00  0.00     0.053 C 
BRANCH   2   3
ATOM      3  C   UNL     1      13.184  -6.407  16.523  1.00  0.00     0.041 C 
ATOM      4  O   UNL     1      11.993  -6.802  16.634  1.00  0.00    -0.550 OA
ATOM      5  O   UNL     1      13.661  -5.413  17.367  1.00  0.00    -0.550 OA
ENDBRANCH   2   3
ENDBRANCH   1   2
BRANCH   1   6
ATOM      6  C   UNL     1      14.289  -6.986  12.976  1.00  0.00     0.000 C 
BRANCH   6   7
ATOM      7  C   UNL     1      15.742  -7.412  13.236  1.00  0.00    -0.003 C 
ATOM      8  C   UNL     1      15.956  -8.879  12.875  1.00  0.00     0.004 C 
ENDBRANCH   6   7
ENDBRANCH   1   6
TORSDOF 4
ENDMDL
MODEL 2
REMARK VINA RESULT:    -3.757     14.807     17.181
REMARK INTER + INTRA:          -4.741
REMARK INTER:                  -4.614
REMARK INTRA:                  -0.127
REMARK UNBOUND:                -0.106
REMARK SMILES CCCCCC(=O)[O-]
REMARK SMILES IDX 4 1 5 2 6 3 7 4 8 5 3 6 2 7 1 8
REMARK H PARENT
REMARK Flexibility Score: inf
ROOT
ATOM      1  C   UNL     1       7.355  -5.601  30.302  1.00  0.00     0.006 C 
ENDROOT
BRANCH   1   2
ATOM      2  C   UNL     1       7.379  -6.832  29.386  1.00  0.00     0.053 C 
BRANCH   2   3
ATOM      3  C   UNL     1       8.574  -6.790  28.487  1.00  0.00     0.041 C 
ATOM      4  O   UNL     1       9.405  -5.849  28.582  1.00  0.00    -0.550 OA
ATOM      5  O   UNL     1       8.798  -7.818  27.580  1.00  0.00    -0.550 OA
ENDBRANCH   2   3
ENDBRANCH   1   2
BRANCH   1   6
ATOM      6  C   UNL     1       7.729  -5.938  31.754  1.00  0.00     0.000 C 
BRANCH   6   7
ATOM      7  C   UNL     1       6.825  -5.232  32.775  1.00  0.00    -0.003 C 
ATOM      8  C   UNL     1       5.393  -5.754  32.694  1.00  0.00     0.004 C 
ENDBRANCH   6   7
ENDBRANCH   1   6
TORSDOF 4
ENDMDL
MODEL 3
REMARK VINA RESULT:    -3.722     15.525     17.243
REMARK INTER + INTRA:          -4.698
REMARK INTER:                  -4.545
REMARK INTRA:                  -0.154
REMARK UNBOUND:                -0.106
REMARK SMILES CCCCCC(=O)[O-]
REMARK SMILES IDX 4 1 5 2 6 3 7 4 8 5 3 6 2 7 1 8
REMARK H PARENT
REMARK Flexibility Score: inf
ROOT
ATOM      1  C   UNL     1       6.443  -5.867  29.887  1.00  0.00     0.006 C 
ENDROOT
BRANCH   1   2
ATOM      2  C   UNL     1       6.769  -6.491  31.250  1.00  0.00     0.053 C 
BRANCH   2   3
ATOM      3  C   UNL     1       6.430  -5.539  32.354  1.00  0.00     0.041 C 
ATOM      4  O   UNL     1       5.267  -5.518  32.838  1.00  0.00    -0.550 OA
ATOM      5  O   UNL     1       7.410  -4.709  32.882  1.00  0.00    -0.550 OA
ENDBRANCH   2   3
ENDBRANCH   1   2
BRANCH   1   6
ATOM      6  C   UNL     1       7.680  -5.265  29.201  1.00  0.00     0.000 C 
BRANCH   6   7
ATOM      7  C   UNL     1       8.835  -6.270  29.080  1.00  0.00    -0.003 C 
ATOM      8  C   UNL     1       8.584  -7.263  27.949  1.00  0.00     0.004 C 
ENDBRANCH   6   7
ENDBRANCH   1   6
TORSDOF 4
ENDMDL
MODEL 4
REMARK VINA RESULT:    -3.661     14.425     16.782
REMARK INTER + INTRA:          -4.623
REMARK INTER:                  -4.546
REMARK INTRA:                  -0.077
REMARK UNBOUND:                -0.106
REMARK SMILES CCCCCC(=O)[O-]
REMARK SMILES IDX 4 1 5 2 6 3 7 4 8 5 3 6 2 7 1 8
REMARK H PARENT
REMARK Flexibility Score: inf
ROOT
ATOM      1  C   UNL     1       7.874  -5.759  29.900  1.00  0.00     0.006 C 
ENDROOT
BRANCH   1   2
ATOM      2  C   UNL     1       8.921  -6.407  28.985  1.00  0.00     0.053 C 
BRANCH   2   3
ATOM      3  C   UNL     1       8.265  -7.364  28.040  1.00  0.00     0.041 C 
ATOM      4  O   UNL     1       8.942  -8.270  27.485  1.00  0.00    -0.550 OA
ATOM      5  O   UNL     1       6.898  -7.287  27.810  1.00  0.00    -0.550 OA
ENDBRANCH   2   3
ENDBRANCH   1   2
BRANCH   1   6
ATOM      6  C   UNL     1       7.898  -6.334  31.326  1.00  0.00     0.000 C 
BRANCH   6   7
ATOM      7  C   UNL     1       7.355  -5.347  32.370  1.00  0.00    -0.003 C 
ATOM      8  C   UNL     1       5.855  -5.538  32.577  1.00  0.00     0.004 C 
ENDBRANCH   6   7
ENDBRANCH   1   6
TORSDOF 4
ENDMDL
MODEL 5
REMARK VINA RESULT:    -3.634     15.663     17.316
REMARK INTER + INTRA:          -4.590
REMARK INTER:                  -4.490
REMARK INTRA:                  -0.100
REMARK UNBOUND:                -0.106
REMARK SMILES CCCCCC(=O)[O-]
REMARK SMILES IDX 4 1 5 2 6 3 7 4 8 5 3 6 2 7 1 8
REMARK H PARENT
REMARK Flexibility Score: inf
ROOT
ATOM      1  C   UNL     1       7.856  -6.013  30.325  1.00  0.00     0.006 C 
ENDROOT
BRANCH   1   2
ATOM      2  C   UNL     1       7.009  -6.634  31.442  1.00  0.00     0.053 C 
BRANCH   2   3
ATOM      3  C   UNL     1       6.530  -5.574  32.384  1.00  0.00     0.041 C 
ATOM      4  O   UNL     1       5.322  -5.543  32.741  1.00  0.00    -0.550 OA
ATOM      5  O   UNL     1       7.426  -4.651  32.906  1.00  0.00    -0.550 OA
ENDBRANCH   2   3
ENDBRANCH   1   2
BRANCH   1   6
ATOM      6  C   UNL     1       7.006  -5.258  29.289  1.00  0.00     0.000 C 
BRANCH   6   7
ATOM      7  C   UNL     1       7.862  -4.520  28.248  1.00  0.00    -0.003 C 
ATOM      8  C   UNL     1       7.040  -4.172  27.010  1.00  0.00     0.004 C 
ENDBRANCH   6   7
ENDBRANCH   1   6
TORSDOF 4
ENDMDL
MODEL 6
REMARK VINA RESULT:    -3.620     16.066     17.706
REMARK INTER + INTRA:          -4.573
REMARK INTER:                  -4.419
REMARK INTRA:                  -0.153
REMARK UNBOUND:                -0.106
REMARK SMILES CCCCCC(=O)[O-]
REMARK SMILES IDX 4 1 5 2 6 3 7 4 8 5 3 6 2 7 1 8
REMARK H PARENT
REMARK Flexibility Score: inf
ROOT
ATOM      1  C   UNL     1       7.334  -6.541  30.690  1.00  0.00     0.006 C 
ENDROOT
BRANCH   1   2
ATOM      2  C   UNL     1       7.225  -5.533  29.540  1.00  0.00     0.053 C 
BRANCH   2   3
ATOM      3  C   UNL     1       5.999  -5.801  28.725  1.00  0.00     0.041 C 
ATOM      4  O   UNL     1       5.278  -6.802  28.977  1.00  0.00    -0.550 OA
ATOM      5  O   UNL     1       5.624  -4.917  27.722  1.00  0.00    -0.550 OA
ENDBRANCH   2   3
ENDBRANCH   1   2
BRANCH   1   6
ATOM      6  C   UNL     1       7.900  -5.914  31.975  1.00  0.00     0.000 C 
BRANCH   6   7
ATOM      7  C   UNL     1       6.832  -5.168  32.788  1.00  0.00    -0.003 C 
ATOM      8  C   UNL     1       5.492  -5.895  32.732  1.00  0.00     0.004 C 
ENDBRANCH   6   7
ENDBRANCH   1   6
TORSDOF 4
ENDMDL
MODEL 7
REMARK VINA RESULT:    -3.608      2.887      4.456
REMARK INTER + INTRA:          -4.557
REMARK INTER:                  -4.481
REMARK INTRA:                  -0.076
REMARK UNBOUND:                -0.106
REMARK SMILES CCCCCC(=O)[O-]
REMARK SMILES IDX 4 1 5 2 6 3 7 4 8 5 3 6 2 7 1 8
REMARK H PARENT
REMARK Flexibility Score: inf
ROOT
ATOM      1  C   UNL     1      13.539  -7.232  14.274  1.00  0.00     0.006 C 
ENDROOT
BRANCH   1   2
ATOM      2  C   UNL     1      14.960  -7.372  13.714  1.00  0.00     0.053 C 
BRANCH   2   3
ATOM      3  C   UNL     1      15.351  -8.815  13.639  1.00  0.00     0.041 C 
ATOM      4  O   UNL     1      16.322  -9.171  12.921  1.00  0.00    -0.550 OA
ATOM      5  O   UNL     1      14.676  -9.758  14.403  1.00  0.00    -0.550 OA
ENDBRANCH   2   3
ENDBRANCH   1   2
BRANCH   1   6
ATOM      6  C   UNL     1      13.523  -6.739  15.730  1.00  0.00     0.000 C 
BRANCH   6   7
ATOM      7  C   UNL     1      12.184  -7.011  16.431  1.00  0.00    -0.003 C 
ATOM      8  C   UNL     1      12.395  -7.743  17.753  1.00  0.00     0.004 C 
ENDBRANCH   6   7
ENDBRANCH   1   6
TORSDOF 4
ENDMDL
MODEL 8
REMARK VINA RESULT:    -3.583      0.919      1.861
REMARK INTER + INTRA:          -4.527
REMARK INTER:                  -4.401
REMARK INTRA:                  -0.126
REMARK UNBOUND:                -0.106
REMARK SMILES CCCCCC(=O)[O-]
REMARK SMILES IDX 4 1 5 2 6 3 7 4 8 5 3 6 2 7 1 8
REMARK H PARENT
REMARK Flexibility Score: inf
ROOT
ATOM      1  C   UNL     1      13.819  -8.103  15.162  1.00  0.00     0.006 C 
ENDROOT
BRANCH   1   2
ATOM      2  C   UNL     1      14.352  -7.356  16.391  1.00  0.00     0.053 C 
BRANCH   2   3
ATOM      3  C   UNL     1      13.346  -6.358  16.871  1.00  0.00     0.041 C 
ATOM      4  O   UNL     1      13.725  -5.249  17.332  1.00  0.00    -0.550 OA
ATOM      5  O   UNL     1      11.989  -6.631  16.763  1.00  0.00    -0.550 OA
ENDBRANCH   2   3
ENDBRANCH   1   2
BRANCH   1   6
ATOM      6  C   UNL     1      14.911  -8.374  14.114  1.00  0.00     0.000 C 
BRANCH   6   7
ATOM      7  C   UNL     1      15.215  -7.144  13.246  1.00  0.00    -0.003 C 
ATOM      8  C   UNL     1      13.933  -6.401  12.879  1.00  0.00     0.004 C 
ENDBRANCH   6   7
ENDBRANCH   1   6
TORSDOF 4
ENDMDL
