MODEL 1
REMARK VINA RESULT:    -5.149      0.000      0.000
REMARK INTER + INTRA:          -5.149
REMARK INTER:                  -5.149
REMARK INTRA:                   0.000
REMARK UNBOUND:                 0.000
REMARK SMILES CC(C)=C1CC[C@@H](C)CC1=O
REMARK SMILES IDX 8 1 7 2 6 3 5 4 4 5 2 6 1 7 3 8 10 9 11 10 9 11
REMARK H PARENT
REMARK Flexibility Score: inf
ROOT
ATOM      1  C   UNL     1      -2.598 -16.773  -5.763  1.00  0.00     0.008 C 
ATOM      2  C   UNL     1      -3.018 -15.779  -6.853  1.00  0.00    -0.006 C 
ATOM      3  C   UNL     1      -2.016 -14.617  -6.940  1.00  0.00     0.008 C 
ATOM      4  C   UNL     1      -2.365 -13.665  -8.093  1.00  0.00     0.039 C 
ATOM      5  C   UNL     1      -3.810 -13.189  -8.040  1.00  0.00    -0.006 C 
ATOM      6  C   UNL     1      -4.166 -11.951  -8.492  1.00  0.00    -0.070 C 
ATOM      7  C   UNL     1      -3.142 -11.007  -9.081  1.00  0.00     0.039 C 
ATOM      8  C   UNL     1      -5.587 -11.446  -8.393  1.00  0.00     0.039 C 
ATOM      9  C   UNL     1      -4.814 -14.193  -7.578  1.00  0.00     0.159 C 
ATOM     10  O   UNL     1      -5.994 -14.190  -8.021  1.00  0.00    -0.295 OA
ATOM     11  C   UNL     1      -4.428 -15.237  -6.571  1.00  0.00     0.084 C 
ENDROOT
TORSDOF 0
ENDMDL
MODEL 2
REMARK VINA RESULT:    -5.041      1.547      2.403
REMARK INTER + INTRA:          -5.041
REMARK INTER:                  -5.041
REMARK INTRA:                   0.000
REMARK UNBOUND:                 0.000
REMARK SMILES CC(C)=C1CC[C@@H](C)CC1=O
REMARK SMILES IDX 8 1 7 2 6 3 5 4 4 5 2 6 1 7 3 8 10 9 11 10 9 11
REMARK H PARENT
REMARK Flexibility Score: inf
ROOT
ATOM      1  C   UNL     1      -2.013 -16.715  -5.749  1.00  0.00     0.008 C 
ATOM      2  C   UNL     1      -2.850 -15.459  -6.026  1.00  0.00    -0.006 C 
ATOM      3  C   UNL     1      -4.136 -15.823  -6.785  1.00  0.00     0.008 C 
ATOM      4  C   UNL     1      -5.034 -14.594  -6.981  1.00  0.00     0.039 C 
ATOM      5  C   UNL     1      -4.292 -13.424  -7.614  1.00  0.00    -0.006 C 
ATOM      6  C   UNL     1      -4.931 -12.539  -8.434  1.00  0.00    -0.070 C 
ATOM      7  C   UNL     1      -6.407 -12.673  -8.732  1.00  0.00     0.039 C 
ATOM      8  C   UNL     1      -4.194 -11.407  -9.112  1.00  0.00     0.039 C 
ATOM      9  C   UNL     1      -2.871 -13.244  -7.193  1.00  0.00     0.159 C 
ATOM     10  O   UNL     1      -2.348 -12.100  -7.124  1.00  0.00    -0.295 OA
ATOM     11  C   UNL     1      -2.035 -14.438  -6.834  1.00  0.00     0.084 C 
ENDROOT
TORSDOF 0
ENDMDL
MODEL 3
REMARK VINA RESULT:    -4.533      1.096      4.137
REMARK INTER + INTRA:          -4.533
REMARK INTER:                  -4.533
REMARK INTRA:                   0.000
REMARK UNBOUND:                 0.000
REMARK SMILES CC(C)=C1CC[C@@H](C)CC1=O
REMARK SMILES IDX 8 1 7 2 6 3 5 4 4 5 2 6 1 7 3 8 10 9 11 10 9 11
REMARK H PARENT
REMARK Flexibility Score: inf
ROOT
ATOM      1  C   UNL     1      -4.064 -11.374  -9.122  1.00  0.00     0.008 C 
ATOM      2  C   UNL     1      -3.795 -12.340  -7.962  1.00  0.00    -0.006 C 
ATOM      3  C   UNL     1      -2.424 -13.016  -8.127  1.00  0.00     0.008 C 
ATOM      4  C   UNL     1      -2.094 -13.909  -6.924  1.00  0.00     0.039 C 
ATOM      5  C   UNL     1      -3.203 -14.905  -6.614  1.00  0.00    -0.006 C 
ATOM      6  C   UNL     1      -2.926 -16.134  -6.087  1.00  0.00    -0.070 C 
ATOM      7  C   UNL     1      -1.507 -16.550  -5.773  1.00  0.00     0.039 C 
ATOM      8  C   UNL     1      -4.013 -17.152  -5.828  1.00  0.00     0.039 C 
ATOM      9  C   UNL     1      -4.599 -14.413  -6.811  1.00  0.00     0.159 C 
ATOM     10  O   UNL     1      -5.546 -14.823  -6.087  1.00  0.00    -0.295 OA
ATOM     11  C   UNL     1      -4.899 -13.406  -7.882  1.00  0.00     0.084 C 
ENDROOT
TORSDOF 0
ENDMDL
MODEL 4
REMARK VINA RESULT:    -4.351      1.781      4.657
REMARK INTER + INTRA:          -4.351
REMARK INTER:                  -4.351
REMARK INTRA:                   0.000
REMARK UNBOUND:                 0.000
REMARK SMILES CC(C)=C1CC[C@@H](C)CC1=O
REMARK SMILES IDX 8 1 7 2 6 3 5 4 4 5 2 6 1 7 3 8 10 9 11 10 9 11
REMARK H PARENT
REMARK Flexibility Score: inf
ROOT
ATOM      1  C   UNL     1      -5.618 -11.384  -8.368  1.00  0.00     0.008 C 
ATOM      2  C   UNL     1      -4.782 -12.661  -8.213  1.00  0.00    -0.006 C 
ATOM      3  C   UNL     1      -5.655 -13.821  -7.710  1.00  0.00     0.008 C 
ATOM      4  C   UNL     1      -4.859 -15.132  -7.646  1.00  0.00     0.039 C 
ATOM      5  C   UNL     1      -3.564 -14.990  -6.858  1.00  0.00    -0.006 C 
ATOM      6  C   UNL     1      -3.050 -16.034  -6.144  1.00  0.00    -0.070 C 
ATOM      7  C   UNL     1      -3.737 -17.381  -6.121  1.00  0.00     0.039 C 
ATOM      8  C   UNL     1      -1.796 -15.889  -5.313  1.00  0.00     0.039 C 
ATOM      9  C   UNL     1      -2.843 -13.691  -7.010  1.00  0.00     0.159 C 
ATOM     10  O   UNL     1      -1.585 -13.629  -6.951  1.00  0.00    -0.295 OA
ATOM     11  C   UNL     1      -3.614 -12.425  -7.243  1.00  0.00     0.084 C 
ENDROOT
TORSDOF 0
ENDMDL
MODEL 5
REMARK VINA RESULT:    -3.594      1.415      3.959
REMARK INTER + INTRA:          -3.594
REMARK INTER:                  -3.594
REMARK INTRA:                   0.000
REMARK UNBOUND:                 0.000
REMARK SMILES CC(C)=C1CC[C@@H](C)CC1=O
REMARK SMILES IDX 8 1 7 2 6 3 5 4 4 5 2 6 1 7 3 8 10 9 11 10 9 11
REMARK H PARENT
REMARK Flexibility Score: inf
ROOT
ATOM      1  C   UNL     1      -2.282 -10.237  -7.931  1.00  0.00     0.008 C 
ATOM      2  C   UNL     1      -3.106 -11.482  -7.581  1.00  0.00    -0.006 C 
ATOM      3  C   UNL     1      -2.241 -12.513  -6.839  1.00  0.00     0.008 C 
ATOM      4  C   UNL     1      -3.074 -13.722  -6.391  1.00  0.00     0.039 C 
ATOM      5  C   UNL     1      -3.868 -14.339  -7.534  1.00  0.00    -0.006 C 
ATOM      6  C   UNL     1      -4.134 -15.677  -7.571  1.00  0.00    -0.070 C 
ATOM      7  C   UNL     1      -3.667 -16.600  -6.469  1.00  0.00     0.039 C 
ATOM      8  C   UNL     1      -4.873 -16.310  -8.729  1.00  0.00     0.039 C 
ATOM      9  C   UNL     1      -4.428 -13.382  -8.534  1.00  0.00     0.159 C 
ATOM     10  O   UNL     1      -5.518 -13.615  -9.124  1.00  0.00    -0.295 OA
ATOM     11  C   UNL     1      -3.697 -12.110  -8.852  1.00  0.00     0.084 C 
ENDROOT
TORSDOF 0
ENDMDL
MODEL 6
REMARK VINA RESULT:    -3.281      1.358      1.620
REMARK INTER + INTRA:          -3.281
REMARK INTER:                  -3.281
REMARK INTRA:                   0.000
REMARK UNBOUND:                 0.000
REMARK SMILES CC(C)=C1CC[C@@H](C)CC1=O
REMARK SMILES IDX 8 1 7 2 6 3 5 4 4 5 2 6 1 7 3 8 10 9 11 10 9 11
REMARK H PARENT
REMARK Flexibility Score: inf
ROOT
ATOM      1  C   UNL     1      -1.860 -16.312  -5.391  1.00  0.00     0.008 C 
ATOM      2  C   UNL     1      -2.466 -15.435  -6.493  1.00  0.00    -0.006 C 
ATOM      3  C   UNL     1      -2.797 -14.036  -5.950  1.00  0.00     0.008 C 
ATOM      4  C   UNL     1      -3.309 -13.112  -7.063  1.00  0.00     0.039 C 
ATOM      5  C   UNL     1      -4.464 -13.724  -7.845  1.00  0.00    -0.006 C 
ATOM      6  C   UNL     1      -5.448 -12.946  -8.383  1.00  0.00    -0.070 C 
ATOM      7  C   UNL     1      -5.422 -11.441  -8.242  1.00  0.00     0.039 C 
ATOM      8  C   UNL     1      -6.628 -13.547  -9.113  1.00  0.00     0.039 C 
ATOM      9  C   UNL     1      -4.388 -15.197  -8.080  1.00  0.00     0.159 C 
ATOM     10  O   UNL     1      -4.861 -15.719  -9.125  1.00  0.00    -0.295 OA
ATOM     11  C   UNL     1      -3.732 -16.089  -7.066  1.00  0.00     0.084 C 
ENDROOT
TORSDOF 0
ENDMDL
MODEL 7
REMARK VINA RESULT:    -2.955      1.987      4.285
REMARK INTER + INTRA:          -2.955
REMARK INTER:                  -2.955
REMARK INTRA:                   0.000
REMARK UNBOUND:                 0.000
REMARK SMILES CC(C)=C1CC[C@@H](C)CC1=O
REMARK SMILES IDX 8 1 7 2 6 3 5 4 4 5 2 6 1 7 3 8 10 9 11 10 9 11
REMARK H PARENT
REMARK Flexibility Score: inf
ROOT
ATOM      1  C   UNL     1      -2.607 -10.362  -7.967  1.00  0.00     0.008 C 
ATOM      2  C   UNL     1      -2.576 -11.890  -8.088  1.00  0.00    -0.006 C 
ATOM      3  C   UNL     1      -3.777 -12.392  -8.905  1.00  0.00     0.008 C 
ATOM      4  C   UNL     1      -3.708 -13.910  -9.123  1.00  0.00     0.039 C 
ATOM      5  C   UNL     1      -3.523 -14.679  -7.821  1.00  0.00    -0.006 C 
ATOM      6  C   UNL     1      -4.048 -15.928  -7.654  1.00  0.00    -0.070 C 
ATOM      7  C   UNL     1      -4.820 -16.608  -8.762  1.00  0.00     0.039 C 
ATOM      8  C   UNL     1      -3.918 -16.677  -6.347  1.00  0.00     0.039 C 
ATOM      9  C   UNL     1      -2.644 -14.035  -6.800  1.00  0.00     0.159 C 
ATOM     10  O   UNL     1      -1.940 -14.725  -6.014  1.00  0.00    -0.295 OA
ATOM     11  C   UNL     1      -2.579 -12.539  -6.696  1.00  0.00     0.084 C 
ENDROOT
TORSDOF 0
ENDMDL
