MODEL 1
REMARK VINA RESULT:    -5.805      0.000      0.000
REMARK INTER + INTRA:          -6.759
REMARK INTER:                  -6.654
REMARK INTRA:                  -0.105
REMARK UNBOUND:                -0.105
REMARK SMILES COc1ccc(C(C)=O)cc1O
REMARK SMILES IDX 6 1 10 2 11 3 3 4 4 5 5 6 7 7 8 8 9 9 12 10 2 12 1 13
REMARK H PARENT 12 11
REMARK Flexibility Score: inf
ROOT
ATOM      1  C   UNL     1     -17.801  37.484  15.212  1.00  0.00     0.021 A 
ATOM      2  C   UNL     1     -16.774  36.866  14.475  1.00  0.00     0.062 A 
ATOM      3  C   UNL     1     -17.067  35.910  13.495  1.00  0.00     0.158 A 
ATOM      4  C   UNL     1     -18.401  35.554  13.233  1.00  0.00     0.160 A 
ATOM      5  C   UNL     1     -19.430  36.170  13.966  1.00  0.00     0.051 A 
ATOM      6  C   UNL     1     -19.133  37.122  14.943  1.00  0.00     0.016 A 
ENDROOT
BRANCH   1   7
ATOM      7  C   UNL     1     -17.502  38.501  16.256  1.00  0.00     0.159 C 
ATOM      8  C   UNL     1     -16.478  39.577  16.046  1.00  0.00     0.093 C 
ATOM      9  O   UNL     1     -18.120  38.470  17.356  1.00  0.00    -0.295 OA
ENDBRANCH   1   7
BRANCH   3  10
ATOM     10  O   UNL     1     -16.014  35.325  12.792  1.00  0.00    -0.504 OA
ATOM     11  H   UNL     1     -15.476  34.553  13.168  1.00  0.00     0.293 HD
ENDBRANCH   3  10
BRANCH   4  12
ATOM     12  O   UNL     1     -18.665  34.592  12.244  1.00  0.00    -0.493 OA
ATOM     13  C   UNL     1     -18.918  34.892  10.875  1.00  0.00     0.278 C 
ENDBRANCH   4  12
TORSDOF 3
ENDMDL
MODEL 2
REMARK VINA RESULT:    -5.772     16.110     17.842
REMARK INTER + INTRA:          -6.721
REMARK INTER:                  -6.626
REMARK INTRA:                  -0.095
REMARK UNBOUND:                -0.105
REMARK SMILES COc1ccc(C(C)=O)cc1O
REMARK SMILES IDX 6 1 10 2 11 3 3 4 4 5 5 6 7 7 8 8 9 9 12 10 2 12 1 13
REMARK H PARENT 12 11
REMARK Flexibility Score: inf
ROOT
ATOM      1  C   UNL     1     -28.669  22.194  15.233  1.00  0.00     0.021 A 
ATOM      2  C   UNL     1     -29.685  22.905  14.566  1.00  0.00     0.062 A 
ATOM      3  C   UNL     1     -29.378  23.804  13.539  1.00  0.00     0.158 A 
ATOM      4  C   UNL     1     -28.042  24.009  13.156  1.00  0.00     0.160 A 
ATOM      5  C   UNL     1     -27.023  23.301  13.818  1.00  0.00     0.051 A 
ATOM      6  C   UNL     1     -27.334  22.405  14.843  1.00  0.00     0.016 A 
ENDROOT
BRANCH   1   7
ATOM      7  C   UNL     1     -28.983  21.236  16.327  1.00  0.00     0.159 C 
ATOM      8  C   UNL     1     -30.053  20.195  16.187  1.00  0.00     0.093 C 
ATOM      9  O   UNL     1     -28.338  21.290  17.410  1.00  0.00    -0.295 OA
ENDBRANCH   1   7
BRANCH   3  10
ATOM     10  O   UNL     1     -30.420  24.485  12.909  1.00  0.00    -0.504 OA
ATOM     11  H   UNL     1     -30.660  24.325  11.938  1.00  0.00     0.293 HD
ENDBRANCH   3  10
BRANCH   4  12
ATOM     12  O   UNL     1     -27.764  24.917  12.121  1.00  0.00    -0.493 OA
ATOM     13  C   UNL     1     -27.726  24.577  10.738  1.00  0.00     0.278 C 
ENDBRANCH   4  12
TORSDOF 3
ENDMDL
MODEL 3
REMARK VINA RESULT:    -5.635     16.145     17.806
REMARK INTER + INTRA:          -6.564
REMARK INTER:                  -6.466
REMARK INTRA:                  -0.098
REMARK UNBOUND:                -0.105
REMARK SMILES COc1ccc(C(C)=O)cc1O
REMARK SMILES IDX 6 1 10 2 11 3 3 4 4 5 5 6 7 7 8 8 9 9 12 10 2 12 1 13
REMARK H PARENT 12 11
REMARK Flexibility Score: inf
ROOT
ATOM      1  C   UNL     1     -28.216  23.230  12.451  1.00  0.00     0.021 A 
ATOM      2  C   UNL     1     -27.344  23.609  13.488  1.00  0.00     0.062 A 
ATOM      3  C   UNL     1     -27.310  22.899  14.694  1.00  0.00     0.158 A 
ATOM      4  C   UNL     1     -28.153  21.791  14.886  1.00  0.00     0.160 A 
ATOM      5  C   UNL     1     -29.026  21.408  13.851  1.00  0.00     0.051 A 
ATOM      6  C   UNL     1     -29.056  22.119  12.650  1.00  0.00     0.016 A 
ENDROOT
BRANCH   1   7
ATOM      7  C   UNL     1     -28.261  23.977  11.164  1.00  0.00     0.159 C 
ATOM      8  C   UNL     1     -28.689  25.413  11.095  1.00  0.00     0.093 C 
ATOM      9  O   UNL     1     -27.933  23.398  10.093  1.00  0.00    -0.295 OA
ENDBRANCH   1   7
BRANCH   3  10
ATOM     10  O   UNL     1     -26.429  23.314  15.693  1.00  0.00    -0.504 OA
ATOM     11  H   UNL     1     -25.606  23.869  15.491  1.00  0.00     0.293 HD
ENDBRANCH   3  10
BRANCH   4  12
ATOM     12  O   UNL     1     -28.097  21.098  16.106  1.00  0.00    -0.493 OA
ATOM     13  C   UNL     1     -29.236  20.637  16.825  1.00  0.00     0.278 C 
ENDBRANCH   4  12
TORSDOF 3
ENDMDL
MODEL 4
REMARK VINA RESULT:    -5.606      1.470      4.692
REMARK INTER + INTRA:          -6.531
REMARK INTER:                  -6.616
REMARK INTRA:                   0.086
REMARK UNBOUND:                -0.105
REMARK SMILES COc1ccc(C(C)=O)cc1O
REMARK SMILES IDX 6 1 10 2 11 3 3 4 4 5 5 6 7 7 8 8 9 9 12 10 2 12 1 13
REMARK H PARENT 12 11
REMARK Flexibility Score: inf
ROOT
ATOM      1  C   UNL     1     -18.746  36.086  13.094  1.00  0.00     0.021 A 
ATOM      2  C   UNL     1     -17.502  36.587  13.521  1.00  0.00     0.062 A 
ATOM      3  C   UNL     1     -17.349  37.141  14.797  1.00  0.00     0.158 A 
ATOM      4  C   UNL     1     -18.444  37.205  15.675  1.00  0.00     0.160 A 
ATOM      5  C   UNL     1     -19.689  36.705  15.254  1.00  0.00     0.051 A 
ATOM      6  C   UNL     1     -19.837  36.153  13.980  1.00  0.00     0.016 A 
ENDROOT
BRANCH   1   7
ATOM      7  C   UNL     1     -18.921  35.495  11.740  1.00  0.00     0.159 C 
ATOM      8  C   UNL     1     -18.525  34.082  11.434  1.00  0.00     0.093 C 
ATOM      9  O   UNL     1     -19.416  36.192  10.812  1.00  0.00    -0.295 OA
ENDBRANCH   1   7
BRANCH   3  10
ATOM     10  O   UNL     1     -16.096  37.625  15.173  1.00  0.00    -0.504 OA
ATOM     11  H   UNL     1     -15.302  37.013  15.318  1.00  0.00     0.293 HD
ENDBRANCH   3  10
BRANCH   4  12
ATOM     12  O   UNL     1     -18.260  37.766  16.950  1.00  0.00    -0.493 OA
ATOM     13  C   UNL     1     -17.955  39.136  17.192  1.00  0.00     0.278 C 
ENDBRANCH   4  12
TORSDOF 3
ENDMDL
MODEL 5
REMARK VINA RESULT:    -5.576      1.708      1.749
REMARK INTER + INTRA:          -6.497
REMARK INTER:                  -6.359
REMARK INTRA:                  -0.138
REMARK UNBOUND:                -0.105
REMARK SMILES COc1ccc(C(C)=O)cc1O
REMARK SMILES IDX 6 1 10 2 11 3 3 4 4 5 5 6 7 7 8 8 9 9 12 10 2 12 1 13
REMARK H PARENT 12 11
REMARK Flexibility Score: inf
ROOT
ATOM      1  C   UNL     1     -17.569  38.095  14.359  1.00  0.00     0.021 A 
ATOM      2  C   UNL     1     -17.081  38.139  13.039  1.00  0.00     0.062 A 
ATOM      3  C   UNL     1     -17.564  37.259  12.064  1.00  0.00     0.158 A 
ATOM      4  C   UNL     1     -18.550  36.313  12.393  1.00  0.00     0.160 A 
ATOM      5  C   UNL     1     -19.041  36.266  13.709  1.00  0.00     0.051 A 
ATOM      6  C   UNL     1     -18.556  37.146  14.679  1.00  0.00     0.016 A 
ENDROOT
BRANCH   1   7
ATOM      7  C   UNL     1     -17.063  39.025  15.404  1.00  0.00     0.159 C 
ATOM      8  C   UNL     1     -17.564  38.979  16.817  1.00  0.00     0.093 C 
ATOM      9  O   UNL     1     -16.186  39.882  15.108  1.00  0.00    -0.295 OA
ENDBRANCH   1   7
BRANCH   3  10
ATOM     10  O   UNL     1     -17.049  37.341  10.770  1.00  0.00    -0.504 OA
ATOM     11  H   UNL     1     -16.101  37.062  10.548  1.00  0.00     0.293 HD
ENDBRANCH   3  10
BRANCH   4  12
ATOM     12  O   UNL     1     -19.016  35.443  11.393  1.00  0.00    -0.493 OA
ATOM     13  C   UNL     1     -18.514  34.130  11.168  1.00  0.00     0.278 C 
ENDBRANCH   4  12
TORSDOF 3
ENDMDL
MODEL 6
REMARK VINA RESULT:    -5.503      1.780      5.003
REMARK INTER + INTRA:          -6.413
REMARK INTER:                  -6.300
REMARK INTRA:                  -0.113
REMARK UNBOUND:                -0.105
REMARK SMILES COc1ccc(C(C)=O)cc1O
REMARK SMILES IDX 6 1 10 2 11 3 3 4 4 5 5 6 7 7 8 8 9 9 12 10 2 12 1 13
REMARK H PARENT 12 11
REMARK Flexibility Score: inf
ROOT
ATOM      1  C   UNL     1     -18.051  36.574  12.694  1.00  0.00     0.021 A 
ATOM      2  C   UNL     1     -18.553  36.345  13.989  1.00  0.00     0.062 A 
ATOM      3  C   UNL     1     -17.985  36.974  15.102  1.00  0.00     0.158 A 
ATOM      4  C   UNL     1     -16.898  37.851  14.940  1.00  0.00     0.160 A 
ATOM      5  C   UNL     1     -16.394  38.084  13.648  1.00  0.00     0.051 A 
ATOM      6  C   UNL     1     -16.964  37.454  12.540  1.00  0.00     0.016 A 
ENDROOT
BRANCH   1   7
ATOM      7  C   UNL     1     -18.647  35.911  11.502  1.00  0.00     0.159 C 
ATOM      8  C   UNL     1     -18.595  34.424  11.314  1.00  0.00     0.093 C 
ATOM      9  O   UNL     1     -19.214  36.607  10.617  1.00  0.00    -0.295 OA
ENDBRANCH   1   7
BRANCH   3  10
ATOM     10  O   UNL     1     -18.517  36.714  16.365  1.00  0.00    -0.504 OA
ATOM     11  H   UNL     1     -18.934  35.822  16.602  1.00  0.00     0.293 HD
ENDBRANCH   3  10
BRANCH   4  12
ATOM     12  O   UNL     1     -16.349  38.468  16.076  1.00  0.00    -0.493 OA
ATOM     13  C   UNL     1     -16.665  39.787  16.509  1.00  0.00     0.278 C 
ENDBRANCH   4  12
TORSDOF 3
ENDMDL
MODEL 7
REMARK VINA RESULT:    -5.456     16.394     18.467
REMARK INTER + INTRA:          -6.359
REMARK INTER:                  -6.219
REMARK INTRA:                  -0.140
REMARK UNBOUND:                -0.105
REMARK SMILES COc1ccc(C(C)=O)cc1O
REMARK SMILES IDX 6 1 10 2 11 3 3 4 4 5 5 6 7 7 8 8 9 9 12 10 2 12 1 13
REMARK H PARENT 12 11
REMARK Flexibility Score: inf
ROOT
ATOM      1  C   UNL     1     -29.071  21.576  14.398  1.00  0.00     0.021 A 
ATOM      2  C   UNL     1     -29.589  21.494  13.092  1.00  0.00     0.062 A 
ATOM      3  C   UNL     1     -29.140  22.357  12.085  1.00  0.00     0.158 A 
ATOM      4  C   UNL     1     -28.159  23.323  12.369  1.00  0.00     0.160 A 
ATOM      5  C   UNL     1     -27.638  23.407  13.672  1.00  0.00     0.051 A 
ATOM      6  C   UNL     1     -28.089  22.545  14.673  1.00  0.00     0.016 A 
ENDROOT
BRANCH   1   7
ATOM      7  C   UNL     1     -29.541  20.664  15.476  1.00  0.00     0.159 C 
ATOM      8  C   UNL     1     -28.907  20.651  16.836  1.00  0.00     0.093 C 
ATOM      9  O   UNL     1     -30.500  19.875  15.255  1.00  0.00    -0.295 OA
ENDBRANCH   1   7
BRANCH   3  10
ATOM     10  O   UNL     1     -29.683  22.238  10.806  1.00  0.00    -0.504 OA
ATOM     11  H   UNL     1     -30.572  22.654  10.556  1.00  0.00     0.293 HD
ENDBRANCH   3  10
BRANCH   4  12
ATOM     12  O   UNL     1     -27.727  24.174  11.339  1.00  0.00    -0.493 OA
ATOM     13  C   UNL     1     -28.217  25.494  11.125  1.00  0.00     0.278 C 
ENDBRANCH   4  12
TORSDOF 3
ENDMDL
MODEL 8
REMARK VINA RESULT:    -5.426      1.620      2.072
REMARK INTER + INTRA:          -6.325
REMARK INTER:                  -6.203
REMARK INTRA:                  -0.121
REMARK UNBOUND:                -0.105
REMARK SMILES COc1ccc(C(C)=O)cc1O
REMARK SMILES IDX 6 1 10 2 11 3 3 4 4 5 5 6 7 7 8 8 9 9 12 10 2 12 1 13
REMARK H PARENT 12 11
REMARK Flexibility Score: inf
ROOT
ATOM      1  C   UNL     1     -17.443  38.098  14.914  1.00  0.00     0.021 A 
ATOM      2  C   UNL     1     -18.042  36.866  14.587  1.00  0.00     0.062 A 
ATOM      3  C   UNL     1     -18.134  36.443  13.256  1.00  0.00     0.158 A 
ATOM      4  C   UNL     1     -17.626  37.247  12.222  1.00  0.00     0.160 A 
ATOM      5  C   UNL     1     -17.026  38.478  12.544  1.00  0.00     0.051 A 
ATOM      6  C   UNL     1     -16.937  38.897  13.873  1.00  0.00     0.016 A 
ENDROOT
BRANCH   1   7
ATOM      7  C   UNL     1     -17.340  38.559  16.325  1.00  0.00     0.159 C 
ATOM      8  C   UNL     1     -16.319  39.570  16.756  1.00  0.00     0.093 C 
ATOM      9  O   UNL     1     -18.128  38.096  17.194  1.00  0.00    -0.295 OA
ENDBRANCH   1   7
BRANCH   3  10
ATOM     10  O   UNL     1     -18.736  35.214  12.983  1.00  0.00    -0.504 OA
ATOM     11  H   UNL     1     -18.412  34.608  12.239  1.00  0.00     0.293 HD
ENDBRANCH   3  10
BRANCH   4  12
ATOM     12  O   UNL     1     -17.732  36.795  10.896  1.00  0.00    -0.493 OA
ATOM     13  C   UNL     1     -18.842  37.053  10.042  1.00  0.00     0.278 C 
ENDBRANCH   4  12
TORSDOF 3
ENDMDL
MODEL 9
REMARK VINA RESULT:    -5.397     17.150     18.693
REMARK INTER + INTRA:          -6.292
REMARK INTER:                  -6.156
REMARK INTRA:                  -0.136
REMARK UNBOUND:                -0.105
REMARK SMILES COc1ccc(C(C)=O)cc1O
REMARK SMILES IDX 6 1 10 2 11 3 3 4 4 5 5 6 7 7 8 8 9 9 12 10 2 12 1 13
REMARK H PARENT 12 11
REMARK Flexibility Score: inf
ROOT
ATOM      1  C   UNL     1     -29.232  21.466  14.888  1.00  0.00     0.021 A 
ATOM      2  C   UNL     1     -28.607  22.690  14.585  1.00  0.00     0.062 A 
ATOM      3  C   UNL     1     -28.496  23.132  13.262  1.00  0.00     0.158 A 
ATOM      4  C   UNL     1     -29.011  22.354  12.211  1.00  0.00     0.160 A 
ATOM      5  C   UNL     1     -29.636  21.130  12.509  1.00  0.00     0.051 A 
ATOM      6  C   UNL     1     -29.745  20.693  13.831  1.00  0.00     0.016 A 
ENDROOT
BRANCH   1   7
ATOM      7  C   UNL     1     -29.357  20.985  16.291  1.00  0.00     0.159 C 
ATOM      8  C   UNL     1     -30.446  20.045  16.713  1.00  0.00     0.093 C 
ATOM      9  O   UNL     1     -28.528  21.372  17.160  1.00  0.00    -0.295 OA
ENDBRANCH   1   7
BRANCH   3  10
ATOM     10  O   UNL     1     -27.868  24.353  13.012  1.00  0.00    -0.504 OA
ATOM     11  H   UNL     1     -27.713  25.040  13.741  1.00  0.00     0.293 HD
ENDBRANCH   3  10
BRANCH   4  12
ATOM     12  O   UNL     1     -28.885  22.823  10.894  1.00  0.00    -0.493 OA
ATOM     13  C   UNL     1     -27.850  22.436   9.995  1.00  0.00     0.278 C 
ENDBRANCH   4  12
TORSDOF 3
ENDMDL
