MODEL 1
REMARK VINA RESULT:    -6.161      0.000      0.000
REMARK INTER + INTRA:          -7.015
REMARK INTER:                  -6.521
REMARK INTRA:                  -0.494
REMARK UNBOUND:                -0.494
REMARK SMILES CC1=CC[C@@]23[C@H]([C@H](C(C)C)CC[C@@H]2C)[C@H]13
REMARK SMILES IDX 14 1 13 2 12 3 11 4 7 5 6 6 5 7 15 8 2 9 3 10 4 11 1 12 8 13
REMARK SMILES IDX 9 14 10 15
REMARK H PARENT
REMARK Flexibility Score: inf
ROOT
ATOM      1  C   UNL     1     150.521 142.485 165.178  1.00  0.00     0.008 C 
ATOM      2  C   UNL     1     149.844 143.858 165.015  1.00  0.00    -0.007 C 
ATOM      3  C   UNL     1     150.775 144.922 164.352  1.00  0.00     0.004 C 
ATOM      4  C   UNL     1     150.831 144.870 162.795  1.00  0.00     0.004 C 
ATOM      5  C   UNL     1     149.445 144.627 162.126  1.00  0.00    -0.004 C 
ATOM      6  C   UNL     1     148.871 143.379 162.811  1.00  0.00     0.007 C 
ATOM      7  C   UNL     1     148.491 143.845 164.266  1.00  0.00    -0.013 C 
ATOM      8  C   UNL     1     147.607 142.904 163.459  1.00  0.00     0.025 C 
ATOM      9  C   UNL     1     146.381 143.683 163.135  1.00  0.00    -0.073 C 
ATOM     10  C   UNL     1     146.374 144.874 163.709  1.00  0.00    -0.027 C 
ATOM     11  C   UNL     1     147.601 145.095 164.516  1.00  0.00     0.035 C 
ATOM     12  C   UNL     1     145.271 143.171 162.271  1.00  0.00     0.039 C 
ENDROOT
BRANCH   5  13
ATOM     13  C   UNL     1     149.536 144.473 160.580  1.00  0.00    -0.014 C 
ATOM     14  C   UNL     1     149.803 143.038 160.090  1.00  0.00     0.007 C 
ATOM     15  C   UNL     1     148.267 145.020 159.906  1.00  0.00     0.007 C 
ENDBRANCH   5  13
TORSDOF 1
ENDMDL
MODEL 2
REMARK VINA RESULT:    -6.150      4.353      5.721
REMARK INTER + INTRA:          -7.004
REMARK INTER:                  -6.512
REMARK INTRA:                  -0.492
REMARK UNBOUND:                -0.494
REMARK SMILES CC1=CC[C@@]23[C@H]([C@H](C(C)C)CC[C@@H]2C)[C@H]13
REMARK SMILES IDX 14 1 13 2 12 3 11 4 7 5 6 6 5 7 15 8 2 9 3 10 4 11 1 12 8 13
REMARK SMILES IDX 9 14 10 15
REMARK H PARENT
REMARK Flexibility Score: inf
ROOT
ATOM      1  C   UNL     1     142.415 140.202 165.206  1.00  0.00     0.008 C 
ATOM      2  C   UNL     1     143.768 140.919 165.050  1.00  0.00    -0.007 C 
ATOM      3  C   UNL     1     144.869 140.012 164.415  1.00  0.00     0.004 C 
ATOM      4  C   UNL     1     144.839 139.930 162.858  1.00  0.00     0.004 C 
ATOM      5  C   UNL     1     144.561 141.298 162.165  1.00  0.00    -0.004 C 
ATOM      6  C   UNL     1     143.287 141.842 162.825  1.00  0.00     0.007 C 
ATOM      7  C   UNL     1     143.723 142.259 164.279  1.00  0.00    -0.013 C 
ATOM      8  C   UNL     1     142.764 143.101 163.447  1.00  0.00     0.025 C 
ATOM      9  C   UNL     1     143.509 144.345 163.113  1.00  0.00    -0.073 C 
ATOM     10  C   UNL     1     144.693 144.399 163.702  1.00  0.00    -0.027 C 
ATOM     11  C   UNL     1     144.940 143.193 164.531  1.00  0.00     0.035 C 
ATOM     12  C   UNL     1     142.974 145.426 162.226  1.00  0.00     0.039 C 
ENDROOT
BRANCH   5  13
ATOM     13  C   UNL     1     144.431 141.178 160.618  1.00  0.00    -0.014 C 
ATOM     14  C   UNL     1     143.004 140.896 160.112  1.00  0.00     0.007 C 
ATOM     15  C   UNL     1     144.981 142.437 159.930  1.00  0.00     0.007 C 
ENDBRANCH   5  13
TORSDOF 1
ENDMDL
MODEL 3
REMARK VINA RESULT:    -6.149      4.270      5.689
REMARK INTER + INTRA:          -7.002
REMARK INTER:                  -6.510
REMARK INTRA:                  -0.492
REMARK UNBOUND:                -0.494
REMARK SMILES CC1=CC[C@@]23[C@H]([C@H](C(C)C)CC[C@@H]2C)[C@H]13
REMARK SMILES IDX 14 1 13 2 12 3 11 4 7 5 6 6 5 7 15 8 2 9 3 10 4 11 1 12 8 13
REMARK SMILES IDX 9 14 10 15
REMARK H PARENT
REMARK Flexibility Score: inf
ROOT
ATOM      1  C   UNL     1     148.326 150.589 165.212  1.00  0.00     0.008 C 
ATOM      2  C   UNL     1     146.965 149.882 165.078  1.00  0.00    -0.007 C 
ATOM      3  C   UNL     1     145.864 150.794 164.448  1.00  0.00     0.004 C 
ATOM      4  C   UNL     1     145.876 150.861 162.891  1.00  0.00     0.004 C 
ATOM      5  C   UNL     1     146.133 149.485 162.207  1.00  0.00    -0.004 C 
ATOM      6  C   UNL     1     147.411 148.936 162.855  1.00  0.00     0.007 C 
ATOM      7  C   UNL     1     146.990 148.535 164.318  1.00  0.00    -0.013 C 
ATOM      8  C   UNL     1     147.930 147.679 163.482  1.00  0.00     0.025 C 
ATOM      9  C   UNL     1     147.171 146.437 163.168  1.00  0.00    -0.073 C 
ATOM     10  C   UNL     1     145.995 146.399 163.771  1.00  0.00    -0.027 C 
ATOM     11  C   UNL     1     145.767 147.614 164.593  1.00  0.00     0.035 C 
ATOM     12  C   UNL     1     147.686 145.345 162.284  1.00  0.00     0.039 C 
ENDROOT
BRANCH   5  13
ATOM     13  C   UNL     1     146.245 149.591 160.657  1.00  0.00    -0.014 C 
ATOM     14  C   UNL     1     147.671 149.837 160.130  1.00  0.00     0.007 C 
ATOM     15  C   UNL     1     145.657 148.340 159.986  1.00  0.00     0.007 C 
ENDBRANCH   5  13
TORSDOF 1
ENDMDL
MODEL 4
REMARK VINA RESULT:    -6.131      5.166      8.000
REMARK INTER + INTRA:          -6.983
REMARK INTER:                  -6.489
REMARK INTRA:                  -0.494
REMARK UNBOUND:                -0.494
REMARK SMILES CC1=CC[C@@]23[C@H]([C@H](C(C)C)CC[C@@H]2C)[C@H]13
REMARK SMILES IDX 14 1 13 2 12 3 11 4 7 5 6 6 5 7 15 8 2 9 3 10 4 11 1 12 8 13
REMARK SMILES IDX 9 14 10 15
REMARK H PARENT
REMARK Flexibility Score: inf
ROOT
ATOM      1  C   UNL     1     140.227 148.234 165.218  1.00  0.00     0.008 C 
ATOM      2  C   UNL     1     140.976 146.903 165.024  1.00  0.00    -0.007 C 
ATOM      3  C   UNL     1     140.092 145.798 164.363  1.00  0.00     0.004 C 
ATOM      4  C   UNL     1     140.004 145.867 162.808  1.00  0.00     0.004 C 
ATOM      5  C   UNL     1     141.361 146.195 162.117  1.00  0.00    -0.004 C 
ATOM      6  C   UNL     1     141.877 147.465 162.808  1.00  0.00     0.007 C 
ATOM      7  C   UNL     1     142.311 147.002 164.249  1.00  0.00    -0.013 C 
ATOM      8  C   UNL     1     143.125 148.002 163.439  1.00  0.00     0.025 C 
ATOM      9  C   UNL     1     144.386 147.296 163.081  1.00  0.00    -0.073 C 
ATOM     10  C   UNL     1     144.471 146.100 163.638  1.00  0.00    -0.027 C 
ATOM     11  C   UNL     1     143.275 145.801 164.465  1.00  0.00     0.035 C 
ATOM     12  C   UNL     1     145.449 147.881 162.204  1.00  0.00     0.039 C 
ENDROOT
BRANCH   5  13
ATOM     13  C   UNL     1     141.231 146.364 160.575  1.00  0.00    -0.014 C 
ATOM     14  C   UNL     1     140.875 147.788 160.110  1.00  0.00     0.007 C 
ATOM     15  C   UNL     1     142.515 145.898 159.870  1.00  0.00     0.007 C 
ENDBRANCH   5  13
TORSDOF 1
ENDMDL
MODEL 5
REMARK VINA RESULT:    -5.818      3.848      5.812
REMARK INTER + INTRA:          -6.652
REMARK INTER:                  -6.278
REMARK INTRA:                  -0.374
REMARK UNBOUND:                -0.494
REMARK SMILES CC1=CC[C@@]23[C@H]([C@H](C(C)C)CC[C@@H]2C)[C@H]13
REMARK SMILES IDX 14 1 13 2 12 3 11 4 7 5 6 6 5 7 15 8 2 9 3 10 4 11 1 12 8 13
REMARK SMILES IDX 9 14 10 15
REMARK H PARENT
REMARK Flexibility Score: inf
ROOT
ATOM      1  C   UNL     1     146.149 150.748 164.906  1.00  0.00     0.008 C 
ATOM      2  C   UNL     1     145.838 150.066 163.562  1.00  0.00    -0.007 C 
ATOM      3  C   UNL     1     147.120 149.572 162.818  1.00  0.00     0.004 C 
ATOM      4  C   UNL     1     147.662 148.189 163.288  1.00  0.00     0.004 C 
ATOM      5  C   UNL     1     146.546 147.134 163.550  1.00  0.00    -0.004 C 
ATOM      6  C   UNL     1     145.554 147.815 164.503  1.00  0.00     0.007 C 
ATOM      7  C   UNL     1     144.823 148.901 163.629  1.00  0.00    -0.013 C 
ATOM      8  C   UNL     1     144.082 148.050 164.651  1.00  0.00     0.025 C 
ATOM      9  C   UNL     1     143.200 147.149 163.860  1.00  0.00    -0.073 C 
ATOM     10  C   UNL     1     143.237 147.415 162.565  1.00  0.00    -0.027 C 
ATOM     11  C   UNL     1     144.157 148.543 162.270  1.00  0.00     0.035 C 
ATOM     12  C   UNL     1     142.350 146.074 164.462  1.00  0.00     0.039 C 
ENDROOT
BRANCH   5  13
ATOM     13  C   UNL     1     147.099 145.794 164.118  1.00  0.00    -0.014 C 
ATOM     14  C   UNL     1     148.561 145.852 164.597  1.00  0.00     0.007 C 
ATOM     15  C   UNL     1     146.205 145.280 165.258  1.00  0.00     0.007 C 
ENDBRANCH   5  13
TORSDOF 1
ENDMDL
MODEL 6
REMARK VINA RESULT:    -5.817      2.743      4.901
REMARK INTER + INTRA:          -6.651
REMARK INTER:                  -6.292
REMARK INTRA:                  -0.359
REMARK UNBOUND:                -0.494
REMARK SMILES CC1=CC[C@@]23[C@H]([C@H](C(C)C)CC[C@@H]2C)[C@H]13
REMARK SMILES IDX 14 1 13 2 12 3 11 4 7 5 6 6 5 7 15 8 2 9 3 10 4 11 1 12 8 13
REMARK SMILES IDX 9 14 10 15
REMARK H PARENT
REMARK Flexibility Score: inf
ROOT
ATOM      1  C   UNL     1     144.982 139.425 164.115  1.00  0.00     0.008 C 
ATOM      2  C   UNL     1     144.383 140.824 163.882  1.00  0.00    -0.007 C 
ATOM      3  C   UNL     1     145.275 141.970 164.456  1.00  0.00     0.004 C 
ATOM      4  C   UNL     1     146.447 142.420 163.531  1.00  0.00     0.004 C 
ATOM      5  C   UNL     1     146.056 142.513 162.026  1.00  0.00    -0.004 C 
ATOM      6  C   UNL     1     145.423 141.158 161.681  1.00  0.00     0.007 C 
ATOM      7  C   UNL     1     144.029 141.157 162.414  1.00  0.00    -0.013 C 
ATOM      8  C   UNL     1     144.207 140.597 161.009  1.00  0.00     0.025 C 
ATOM      9  C   UNL     1     143.477 141.530 160.109  1.00  0.00    -0.073 C 
ATOM     10  C   UNL     1     142.826 142.469 160.775  1.00  0.00    -0.027 C 
ATOM     11  C   UNL     1     143.015 142.323 162.241  1.00  0.00     0.035 C 
ATOM     12  C   UNL     1     143.462 141.411 158.617  1.00  0.00     0.039 C 
ENDROOT
BRANCH   5  13
ATOM     13  C   UNL     1     147.264 142.861 161.106  1.00  0.00    -0.014 C 
ATOM     14  C   UNL     1     148.592 143.096 161.849  1.00  0.00     0.007 C 
ATOM     15  C   UNL     1     147.458 141.776 160.035  1.00  0.00     0.007 C 
ENDBRANCH   5  13
TORSDOF 1
ENDMDL
MODEL 7
REMARK VINA RESULT:    -5.816      4.802      7.153
REMARK INTER + INTRA:          -6.650
REMARK INTER:                  -6.278
REMARK INTRA:                  -0.372
REMARK UNBOUND:                -0.494
REMARK SMILES CC1=CC[C@@]23[C@H]([C@H](C(C)C)CC[C@@H]2C)[C@H]13
REMARK SMILES IDX 14 1 13 2 12 3 11 4 7 5 6 6 5 7 15 8 2 9 3 10 4 11 1 12 8 13
REMARK SMILES IDX 9 14 10 15
REMARK H PARENT
REMARK Flexibility Score: inf
ROOT
ATOM      1  C   UNL     1     139.982 146.152 165.022  1.00  0.00     0.008 C 
ATOM      2  C   UNL     1     140.626 145.840 163.660  1.00  0.00    -0.007 C 
ATOM      3  C   UNL     1     141.109 147.120 162.907  1.00  0.00     0.004 C 
ATOM      4  C   UNL     1     142.508 147.652 163.341  1.00  0.00     0.004 C 
ATOM      5  C   UNL     1     143.561 146.527 163.572  1.00  0.00    -0.004 C 
ATOM      6  C   UNL     1     142.899 145.537 164.540  1.00  0.00     0.007 C 
ATOM      7  C   UNL     1     141.785 144.816 163.693  1.00  0.00    -0.013 C 
ATOM      8  C   UNL     1     142.657 144.066 164.691  1.00  0.00     0.025 C 
ATOM      9  C   UNL     1     143.530 143.180 163.874  1.00  0.00    -0.073 C 
ATOM     10  C   UNL     1     143.230 143.223 162.586  1.00  0.00    -0.027 C 
ATOM     11  C   UNL     1     142.101 144.152 162.324  1.00  0.00     0.035 C 
ATOM     12  C   UNL     1     144.615 142.321 164.444  1.00  0.00     0.039 C 
ENDROOT
BRANCH   5  13
ATOM     13  C   UNL     1     144.920 147.069 164.105  1.00  0.00    -0.014 C 
ATOM     14  C   UNL     1     144.891 148.538 164.567  1.00  0.00     0.007 C 
ATOM     15  C   UNL     1     145.446 146.182 165.245  1.00  0.00     0.007 C 
ENDBRANCH   5  13
TORSDOF 1
ENDMDL
MODEL 8
REMARK VINA RESULT:    -5.813      1.889      3.930
REMARK INTER + INTRA:          -6.647
REMARK INTER:                  -6.271
REMARK INTRA:                  -0.375
REMARK UNBOUND:                -0.494
REMARK SMILES CC1=CC[C@@]23[C@H]([C@H](C(C)C)CC[C@@H]2C)[C@H]13
REMARK SMILES IDX 14 1 13 2 12 3 11 4 7 5 6 6 5 7 15 8 2 9 3 10 4 11 1 12 8 13
REMARK SMILES IDX 9 14 10 15
REMARK H PARENT
REMARK Flexibility Score: inf
ROOT
ATOM      1  C   UNL     1     150.696 144.557 164.915  1.00  0.00     0.008 C 
ATOM      2  C   UNL     1     150.009 144.889 163.578  1.00  0.00    -0.007 C 
ATOM      3  C   UNL     1     149.488 143.620 162.831  1.00  0.00     0.004 C 
ATOM      4  C   UNL     1     148.099 143.098 163.307  1.00  0.00     0.004 C 
ATOM      5  C   UNL     1     147.065 144.230 163.585  1.00  0.00    -0.004 C 
ATOM      6  C   UNL     1     147.770 145.205 164.539  1.00  0.00     0.007 C 
ATOM      7  C   UNL     1     148.861 145.923 163.661  1.00  0.00    -0.013 C 
ATOM      8  C   UNL     1     148.031 146.671 164.695  1.00  0.00     0.025 C 
ATOM      9  C   UNL     1     147.139 147.574 163.916  1.00  0.00    -0.073 C 
ATOM     10  C   UNL     1     147.395 147.540 162.619  1.00  0.00    -0.027 C 
ATOM     11  C   UNL     1     148.505 146.603 162.310  1.00  0.00     0.035 C 
ATOM     12  C   UNL     1     146.083 148.437 164.531  1.00  0.00     0.039 C 
ENDROOT
BRANCH   5  13
ATOM     13  C   UNL     1     145.720 143.696 164.160  1.00  0.00    -0.014 C 
ATOM     14  C   UNL     1     145.764 142.237 164.650  1.00  0.00     0.007 C 
ATOM     15  C   UNL     1     145.218 144.605 165.293  1.00  0.00     0.007 C 
ENDBRANCH   5  13
TORSDOF 1
ENDMDL
MODEL 9
REMARK VINA RESULT:    -5.804      2.402      5.648
REMARK INTER + INTRA:          -6.637
REMARK INTER:                  -6.259
REMARK INTRA:                  -0.378
REMARK UNBOUND:                -0.494
REMARK SMILES CC1=CC[C@@]23[C@H]([C@H](C(C)C)CC[C@@H]2C)[C@H]13
REMARK SMILES IDX 14 1 13 2 12 3 11 4 7 5 6 6 5 7 15 8 2 9 3 10 4 11 1 12 8 13
REMARK SMILES IDX 9 14 10 15
REMARK H PARENT
REMARK Flexibility Score: inf
ROOT
ATOM      1  C   UNL     1     144.562 140.072 164.884  1.00  0.00     0.008 C 
ATOM      2  C   UNL     1     144.905 140.746 163.543  1.00  0.00    -0.007 C 
ATOM      3  C   UNL     1     143.641 141.235 162.767  1.00  0.00     0.004 C 
ATOM      4  C   UNL     1     143.086 142.621 163.215  1.00  0.00     0.004 C 
ATOM      5  C   UNL     1     144.196 143.677 163.497  1.00  0.00    -0.004 C 
ATOM      6  C   UNL     1     145.166 143.003 164.478  1.00  0.00     0.007 C 
ATOM      7  C   UNL     1     145.917 141.912 163.628  1.00  0.00    -0.013 C 
ATOM      8  C   UNL     1     146.634 142.770 164.662  1.00  0.00     0.025 C 
ATOM      9  C   UNL     1     147.534 143.666 163.886  1.00  0.00    -0.073 C 
ATOM     10  C   UNL     1     147.527 143.392 162.592  1.00  0.00    -0.027 C 
ATOM     11  C   UNL     1     146.615 142.262 162.283  1.00  0.00     0.035 C 
ATOM     12  C   UNL     1     148.369 144.746 164.501  1.00  0.00     0.039 C 
ENDROOT
BRANCH   5  13
ATOM     13  C   UNL     1     143.629 145.021 164.044  1.00  0.00    -0.014 C 
ATOM     14  C   UNL     1     142.176 144.949 164.548  1.00  0.00     0.007 C 
ATOM     15  C   UNL     1     144.533 145.576 165.156  1.00  0.00     0.007 C 
ENDBRANCH   5  13
TORSDOF 1
ENDMDL
