MODEL 1
REMARK VINA RESULT:    -4.903      0.000      0.000
REMARK INTER + INTRA:          -6.219
REMARK INTER:                  -5.906
REMARK INTRA:                  -0.314
REMARK UNBOUND:                -0.314
REMARK SMILES O=c1c(O)c(-c2ccc(O)c(O)c2)oc2cc(O)cc(O)c12
REMARK SMILES IDX 5 1 3 2 2 3 1 4 22 5 20 6 19 7 17 8 16 9 15 10 14 11 6 12
REMARK SMILES IDX 7 13 8 14 9 15 13 16 11 17 10 18 12 20 4 22 21 24 18 26
REMARK H PARENT 10 19 12 21 4 23 21 25 18 27
REMARK Flexibility Score: inf
ROOT
ATOM      1  C   UNL     1     -31.012 -21.621 -33.978  1.00  0.00     0.180 A 
ATOM      2  C   UNL     1     -32.196 -20.977 -34.386  1.00  0.00     0.208 A 
ATOM      3  C   UNL     1     -32.861 -21.442 -35.531  1.00  0.00     0.238 A 
ATOM      4  O   UNL     1     -33.928 -20.879 -35.900  1.00  0.00    -0.285 OA
ATOM      5  C   UNL     1     -32.324 -22.525 -36.258  1.00  0.00     0.111 A 
ATOM      6  C   UNL     1     -32.930 -23.051 -37.424  1.00  0.00     0.134 A 
ATOM      7  C   UNL     1     -32.329 -24.125 -38.097  1.00  0.00     0.093 A 
ATOM      8  C   UNL     1     -31.135 -24.681 -37.626  1.00  0.00     0.123 A 
ATOM      9  C   UNL     1     -30.534 -24.166 -36.476  1.00  0.00     0.094 A 
ATOM     10  C   UNL     1     -31.118 -23.097 -35.790  1.00  0.00     0.146 A 
ATOM     11  O   UNL     1     -30.527 -22.630 -34.696  1.00  0.00    -0.452 OA
ENDROOT
BRANCH   1  12
ATOM     12  C   UNL     1     -30.263 -21.202 -32.771  1.00  0.00     0.025 A 
ATOM     13  C   UNL     1     -29.189 -20.299 -32.852  1.00  0.00     0.016 A 
ATOM     14  C   UNL     1     -28.513 -19.900 -31.696  1.00  0.00     0.051 A 
ATOM     15  C   UNL     1     -28.906 -20.382 -30.445  1.00  0.00     0.157 A 
ATOM     16  C   UNL     1     -30.669 -21.668 -31.510  1.00  0.00     0.062 A 
ATOM     17  C   UNL     1     -29.991 -21.269 -30.349  1.00  0.00     0.158 A 
BRANCH  15  18
ATOM     18  O   UNL     1     -28.211 -19.967 -29.310  1.00  0.00    -0.504 OA
ATOM     19  H   UNL     1     -28.636 -19.960 -28.390  1.00  0.00     0.293 HD
ENDBRANCH  15  18
BRANCH  17  20
ATOM     20  O   UNL     1     -30.393 -21.748 -29.103  1.00  0.00    -0.504 OA
ATOM     21  H   UNL     1     -30.826 -21.142 -28.416  1.00  0.00     0.293 HD
ENDBRANCH  17  20
ENDBRANCH   1  12
BRANCH   2  22
ATOM     22  O   UNL     1     -32.680 -19.875 -33.676  1.00  0.00    -0.502 OA
ATOM     23  H   UNL     1     -32.596 -18.927 -34.025  1.00  0.00     0.293 HD
ENDBRANCH   2  22
BRANCH   6  24
ATOM     24  O   UNL     1     -34.121 -22.516 -37.918  1.00  0.00    -0.507 OA
ATOM     25  H   UNL     1     -34.523 -21.668 -37.537  1.00  0.00     0.293 HD
ENDBRANCH   6  24
BRANCH   8  26
ATOM     26  O   UNL     1     -30.536 -25.748 -38.294  1.00  0.00    -0.508 OA
ATOM     27  H   UNL     1     -30.353 -25.714 -39.289  1.00  0.00     0.293 HD
ENDBRANCH   8  26
TORSDOF 6
ENDMDL
MODEL 2
REMARK VINA RESULT:    -3.719      1.075      1.708
REMARK INTER + INTRA:          -4.793
REMARK INTER:                  -4.924
REMARK INTRA:                   0.131
REMARK UNBOUND:                -0.314
REMARK SMILES O=c1c(O)c(-c2ccc(O)c(O)c2)oc2cc(O)cc(O)c12
REMARK SMILES IDX 5 1 3 2 2 3 1 4 22 5 20 6 19 7 17 8 16 9 15 10 14 11 6 12
REMARK SMILES IDX 7 13 8 14 9 15 13 16 11 17 10 18 12 20 4 22 21 24 18 26
REMARK H PARENT 10 19 12 21 4 23 21 25 18 27
REMARK Flexibility Score: inf
ROOT
ATOM      1  C   UNL     1     -31.688 -22.036 -33.951  1.00  0.00     0.180 A 
ATOM      2  C   UNL     1     -32.496 -20.961 -34.372  1.00  0.00     0.208 A 
ATOM      3  C   UNL     1     -33.006 -20.968 -35.679  1.00  0.00     0.238 A 
ATOM      4  O   UNL     1     -33.739 -20.016 -36.063  1.00  0.00    -0.285 OA
ATOM      5  C   UNL     1     -32.686 -22.033 -36.547  1.00  0.00     0.111 A 
ATOM      6  C   UNL     1     -33.155 -22.113 -37.880  1.00  0.00     0.134 A 
ATOM      7  C   UNL     1     -32.785 -23.201 -38.685  1.00  0.00     0.093 A 
ATOM      8  C   UNL     1     -31.955 -24.208 -38.182  1.00  0.00     0.123 A 
ATOM      9  C   UNL     1     -31.490 -24.134 -36.867  1.00  0.00     0.094 A 
ATOM     10  C   UNL     1     -31.849 -23.058 -36.049  1.00  0.00     0.146 A 
ATOM     11  O   UNL     1     -31.396 -23.016 -34.802  1.00  0.00    -0.452 OA
ENDROOT
BRANCH   1  12
ATOM     12  C   UNL     1     -31.129 -22.112 -32.582  1.00  0.00     0.025 A 
ATOM     13  C   UNL     1     -31.113 -23.319 -31.862  1.00  0.00     0.016 A 
ATOM     14  C   UNL     1     -30.559 -23.371 -30.581  1.00  0.00     0.051 A 
ATOM     15  C   UNL     1     -30.000 -22.227 -30.006  1.00  0.00     0.157 A 
ATOM     16  C   UNL     1     -30.548 -20.969 -32.009  1.00  0.00     0.062 A 
ATOM     17  C   UNL     1     -29.991 -21.018 -30.723  1.00  0.00     0.158 A 
BRANCH  15  18
ATOM     18  O   UNL     1     -29.455 -22.308 -28.725  1.00  0.00    -0.504 OA
ATOM     19  H   UNL     1     -28.476 -22.125 -28.542  1.00  0.00     0.293 HD
ENDBRANCH  15  18
BRANCH  17  20
ATOM     20  O   UNL     1     -29.429 -19.875 -30.158  1.00  0.00    -0.504 OA
ATOM     21  H   UNL     1     -29.847 -19.420 -29.355  1.00  0.00     0.293 HD
ENDBRANCH  17  20
ENDBRANCH   1  12
BRANCH   2  22
ATOM     22  O   UNL     1     -32.757 -19.895 -33.508  1.00  0.00    -0.502 OA
ATOM     23  H   UNL     1     -32.470 -18.946 -33.717  1.00  0.00     0.293 HD
ENDBRANCH   2  22
BRANCH   6  24
ATOM     24  O   UNL     1     -33.985 -21.122 -38.410  1.00  0.00    -0.507 OA
ATOM     25  H   UNL     1     -33.736 -20.141 -38.368  1.00  0.00     0.293 HD
ENDBRANCH   6  24
BRANCH   8  26
ATOM     26  O   UNL     1     -31.586 -25.289 -38.980  1.00  0.00    -0.508 OA
ATOM     27  H   UNL     1     -30.719 -25.790 -38.826  1.00  0.00     0.293 HD
ENDBRANCH   8  26
TORSDOF 6
ENDMDL
