MODEL 1
REMARK VINA RESULT:    -2.766      0.000      0.000
REMARK INTER + INTRA:          -3.975
REMARK INTER:                  -3.574
REMARK INTRA:                  -0.401
REMARK UNBOUND:                -0.401
REMARK SMILES CCCCCCC(C)=O
REMARK SMILES IDX 4 1 3 2 2 3 1 4 5 5 6 6 7 7 9 8 8 9
REMARK H PARENT
REMARK Flexibility Score: inf
ROOT
ATOM      1  C   UNL     1     140.140 148.613 140.419  1.00  0.00     0.000 C 
ENDROOT
BRANCH   1   2
ATOM      2  C   UNL     1     140.421 149.738 141.423  1.00  0.00    -0.000 C 
BRANCH   2   3
ATOM      3  C   UNL     1     141.691 150.510 141.044  1.00  0.00    -0.003 C 
ATOM      4  C   UNL     1     142.797 150.288 142.072  1.00  0.00     0.004 C 
ENDBRANCH   2   3
ENDBRANCH   1   2
BRANCH   1   5
ATOM      5  C   UNL     1     140.885 148.855 139.098  1.00  0.00     0.008 C 
BRANCH   5   6
ATOM      6  C   UNL     1     141.337 147.544 138.438  1.00  0.00     0.075 C 
BRANCH   6   7
ATOM      7  C   UNL     1     142.282 146.768 139.318  1.00  0.00     0.129 C 
ATOM      8  O   UNL     1     143.290 147.307 139.746  1.00  0.00    -0.300 OA
ATOM      9  C   UNL     1     141.988 145.349 139.703  1.00  0.00     0.087 C 
ENDBRANCH   6   7
ENDBRANCH   5   6
ENDBRANCH   1   5
TORSDOF 5
ENDMDL
MODEL 2
REMARK VINA RESULT:    -2.750      9.912     11.097
REMARK INTER + INTRA:          -3.955
REMARK INTER:                  -3.528
REMARK INTRA:                  -0.427
REMARK UNBOUND:                -0.401
REMARK SMILES CCCCCCC(C)=O
REMARK SMILES IDX 4 1 3 2 2 3 1 4 5 5 6 6 7 7 9 8 8 9
REMARK H PARENT
REMARK Flexibility Score: inf
ROOT
ATOM      1  C   UNL     1     148.609 141.427 140.284  1.00  0.00     0.000 C 
ENDROOT
BRANCH   1   2
ATOM      2  C   UNL     1     149.730 141.158 141.295  1.00  0.00    -0.000 C 
BRANCH   2   3
ATOM      3  C   UNL     1     150.483 139.867 140.953  1.00  0.00    -0.003 C 
ATOM      4  C   UNL     1     150.277 138.806 142.030  1.00  0.00     0.004 C 
ENDBRANCH   2   3
ENDBRANCH   1   2
BRANCH   1   5
ATOM      5  C   UNL     1     148.854 140.664 138.975  1.00  0.00     0.008 C 
BRANCH   5   6
ATOM      6  C   UNL     1     147.555 140.098 138.382  1.00  0.00     0.075 C 
BRANCH   6   7
ATOM      7  C   UNL     1     146.819 139.227 139.366  1.00  0.00     0.129 C 
ATOM      8  O   UNL     1     147.379 138.256 139.850  1.00  0.00    -0.300 OA
ATOM      9  C   UNL     1     145.417 139.551 139.786  1.00  0.00     0.087 C 
ENDBRANCH   6   7
ENDBRANCH   5   6
ENDBRANCH   1   5
TORSDOF 5
ENDMDL
MODEL 3
REMARK VINA RESULT:    -2.738      9.392     10.632
REMARK INTER + INTRA:          -3.940
REMARK INTER:                  -3.658
REMARK INTRA:                  -0.282
REMARK UNBOUND:                -0.401
REMARK SMILES CCCCCCC(C)=O
REMARK SMILES IDX 4 1 3 2 2 3 1 4 5 5 6 6 7 7 9 8 8 9
REMARK H PARENT
REMARK Flexibility Score: inf
ROOT
ATOM      1  C   UNL     1     147.191 140.131 138.249  1.00  0.00     0.000 C 
ENDROOT
BRANCH   1   2
ATOM      2  C   UNL     1     146.400 139.299 139.266  1.00  0.00    -0.000 C 
BRANCH   2   3
ATOM      3  C   UNL     1     144.934 139.743 139.320  1.00  0.00    -0.003 C 
ATOM      4  C   UNL     1     144.426 139.797 140.758  1.00  0.00     0.004 C 
ENDBRANCH   2   3
ENDBRANCH   1   2
BRANCH   1   5
ATOM      5  C   UNL     1     148.567 140.519 138.807  1.00  0.00     0.008 C 
BRANCH   5   6
ATOM      6  C   UNL     1     148.461 141.276 140.140  1.00  0.00     0.075 C 
BRANCH   6   7
ATOM      7  C   UNL     1     149.610 140.959 141.060  1.00  0.00     0.129 C 
ATOM      8  O   UNL     1     149.648 141.457 142.174  1.00  0.00    -0.300 OA
ATOM      9  C   UNL     1     150.697 140.015 140.641  1.00  0.00     0.087 C 
ENDBRANCH   6   7
ENDBRANCH   5   6
ENDBRANCH   1   5
TORSDOF 5
ENDMDL
MODEL 4
REMARK VINA RESULT:    -2.637      1.445      2.414
REMARK INTER + INTRA:          -3.809
REMARK INTER:                  -3.219
REMARK INTRA:                  -0.590
REMARK UNBOUND:                -0.401
REMARK SMILES CCCCCCC(C)=O
REMARK SMILES IDX 4 1 3 2 2 3 1 4 5 5 6 6 7 7 9 8 8 9
REMARK H PARENT
REMARK Flexibility Score: inf
ROOT
ATOM      1  C   UNL     1     143.219 150.667 139.632  1.00  0.00     0.000 C 
ENDROOT
BRANCH   1   2
ATOM      2  C   UNL     1     142.009 151.103 140.468  1.00  0.00    -0.000 C 
BRANCH   2   3
ATOM      3  C   UNL     1     141.756 150.126 141.621  1.00  0.00    -0.003 C 
ATOM      4  C   UNL     1     140.304 149.656 141.637  1.00  0.00     0.004 C 
ENDBRANCH   2   3
ENDBRANCH   1   2
BRANCH   1   5
ATOM      5  C   UNL     1     142.774 149.912 138.372  1.00  0.00     0.008 C 
BRANCH   5   6
ATOM      6  C   UNL     1     142.976 148.395 138.502  1.00  0.00     0.075 C 
BRANCH   6   7
ATOM      7  C   UNL     1     141.684 147.679 138.792  1.00  0.00     0.129 C 
ATOM      8  O   UNL     1     141.666 146.770 139.607  1.00  0.00    -0.300 OA
ATOM      9  C   UNL     1     140.408 148.084 138.117  1.00  0.00     0.087 C 
ENDBRANCH   6   7
ENDBRANCH   5   6
ENDBRANCH   1   5
TORSDOF 5
ENDMDL
MODEL 5
REMARK VINA RESULT:    -2.623      6.516      8.827
REMARK INTER + INTRA:          -3.791
REMARK INTER:                  -3.254
REMARK INTRA:                  -0.537
REMARK UNBOUND:                -0.401
REMARK SMILES CCCCCCC(C)=O
REMARK SMILES IDX 4 1 3 2 2 3 1 4 5 5 6 6 7 7 9 8 8 9
REMARK H PARENT
REMARK Flexibility Score: inf
ROOT
ATOM      1  C   UNL     1     142.100 139.459 141.562  1.00  0.00     0.000 C 
ENDROOT
BRANCH   1   2
ATOM      2  C   UNL     1     141.312 138.925 142.763  1.00  0.00    -0.000 C 
BRANCH   2   3
ATOM      3  C   UNL     1     139.863 138.609 142.375  1.00  0.00    -0.003 C 
ATOM      4  C   UNL     1     139.492 139.264 141.048  1.00  0.00     0.004 C 
ENDBRANCH   2   3
ENDBRANCH   1   2
BRANCH   1   5
ATOM      5  C   UNL     1     143.091 140.550 141.993  1.00  0.00     0.008 C 
BRANCH   5   6
ATOM      6  C   UNL     1     142.533 141.426 143.125  1.00  0.00     0.075 C 
BRANCH   6   7
ATOM      7  C   UNL     1     141.705 142.568 142.597  1.00  0.00     0.129 C 
ATOM      8  O   UNL     1     142.253 143.503 142.035  1.00  0.00    -0.300 OA
ATOM      9  C   UNL     1     140.211 142.561 142.722  1.00  0.00     0.087 C 
ENDBRANCH   6   7
ENDBRANCH   5   6
ENDBRANCH   1   5
TORSDOF 5
ENDMDL
MODEL 6
REMARK VINA RESULT:    -2.591      6.678      8.008
REMARK INTER + INTRA:          -3.749
REMARK INTER:                  -3.137
REMARK INTRA:                  -0.612
REMARK UNBOUND:                -0.401
REMARK SMILES CCCCCCC(C)=O
REMARK SMILES IDX 4 1 3 2 2 3 1 4 5 5 6 6 7 7 9 8 8 9
REMARK H PARENT
REMARK Flexibility Score: inf
ROOT
ATOM      1  C   UNL     1     140.821 142.850 142.261  1.00  0.00     0.000 C 
ENDROOT
BRANCH   1   2
ATOM      2  C   UNL     1     142.141 142.599 143.000  1.00  0.00    -0.000 C 
BRANCH   2   3
ATOM      3  C   UNL     1     142.659 141.181 142.737  1.00  0.00    -0.003 C 
ATOM      4  C   UNL     1     142.719 140.884 141.241  1.00  0.00     0.004 C 
ENDBRANCH   2   3
ENDBRANCH   1   2
BRANCH   1   5
ATOM      5  C   UNL     1     139.620 142.440 143.125  1.00  0.00     0.008 C 
BRANCH   5   6
ATOM      6  C   UNL     1     138.582 141.635 142.330  1.00  0.00     0.075 C 
BRANCH   6   7
ATOM      7  C   UNL     1     139.076 140.251 142.000  1.00  0.00     0.129 C 
ATOM      8  O   UNL     1     139.196 139.914 140.833  1.00  0.00    -0.300 OA
ATOM      9  C   UNL     1     139.452 139.286 143.084  1.00  0.00     0.087 C 
ENDBRANCH   6   7
ENDBRANCH   5   6
ENDBRANCH   1   5
TORSDOF 5
ENDMDL
MODEL 7
REMARK VINA RESULT:    -2.574      6.724      8.162
REMARK INTER + INTRA:          -3.728
REMARK INTER:                  -3.206
REMARK INTRA:                  -0.522
REMARK UNBOUND:                -0.401
REMARK SMILES CCCCCCC(C)=O
REMARK SMILES IDX 4 1 3 2 2 3 1 4 5 5 6 6 7 7 9 8 8 9
REMARK H PARENT
REMARK Flexibility Score: inf
ROOT
ATOM      1  C   UNL     1     142.142 142.262 142.062  1.00  0.00     0.000 C 
ENDROOT
BRANCH   1   2
ATOM      2  C   UNL     1     140.761 142.845 142.385  1.00  0.00    -0.000 C 
BRANCH   2   3
ATOM      3  C   UNL     1     139.691 142.282 141.442  1.00  0.00    -0.003 C 
ATOM      4  C   UNL     1     138.390 142.003 142.189  1.00  0.00     0.004 C 
ENDBRANCH   2   3
ENDBRANCH   1   2
BRANCH   1   5
ATOM      5  C   UNL     1     142.493 141.114 143.019  1.00  0.00     0.008 C 
BRANCH   5   6
ATOM      6  C   UNL     1     142.913 139.841 142.270  1.00  0.00     0.075 C 
BRANCH   6   7
ATOM      7  C   UNL     1     141.739 139.161 141.616  1.00  0.00     0.129 C 
ATOM      8  O   UNL     1     141.761 138.939 140.415  1.00  0.00    -0.300 OA
ATOM      9  C   UNL     1     140.553 138.722 142.421  1.00  0.00     0.087 C 
ENDBRANCH   6   7
ENDBRANCH   5   6
ENDBRANCH   1   5
TORSDOF 5
ENDMDL
MODEL 8
REMARK VINA RESULT:    -2.568      6.346      8.716
REMARK INTER + INTRA:          -3.719
REMARK INTER:                  -3.179
REMARK INTRA:                  -0.540
REMARK UNBOUND:                -0.401
REMARK SMILES CCCCCCC(C)=O
REMARK SMILES IDX 4 1 3 2 2 3 1 4 5 5 6 6 7 7 9 8 8 9
REMARK H PARENT
REMARK Flexibility Score: inf
ROOT
ATOM      1  C   UNL     1     142.350 139.492 142.034  1.00  0.00     0.000 C 
ENDROOT
BRANCH   1   2
ATOM      2  C   UNL     1     142.850 140.912 142.325  1.00  0.00    -0.000 C 
BRANCH   2   3
ATOM      3  C   UNL     1     142.280 141.915 141.315  1.00  0.00    -0.003 C 
ATOM      4  C   UNL     1     141.846 143.205 142.005  1.00  0.00     0.004 C 
ENDBRANCH   2   3
ENDBRANCH   1   2
BRANCH   1   5
ATOM      5  C   UNL     1     141.275 139.069 143.046  1.00  0.00     0.008 C 
BRANCH   5   6
ATOM      6  C   UNL     1     139.967 138.645 142.361  1.00  0.00     0.075 C 
BRANCH   6   7
ATOM      7  C   UNL     1     139.274 139.809 141.702  1.00  0.00     0.129 C 
ATOM      8  O   UNL     1     139.111 139.809 140.492  1.00  0.00    -0.300 OA
ATOM      9  C   UNL     1     138.752 140.957 142.513  1.00  0.00     0.087 C 
ENDBRANCH   6   7
ENDBRANCH   5   6
ENDBRANCH   1   5
TORSDOF 5
ENDMDL
MODEL 9
REMARK VINA RESULT:    -2.564      6.922      8.709
REMARK INTER + INTRA:          -3.715
REMARK INTER:                  -3.216
REMARK INTRA:                  -0.499
REMARK UNBOUND:                -0.401
REMARK SMILES CCCCCCC(C)=O
REMARK SMILES IDX 4 1 3 2 2 3 1 4 5 5 6 6 7 7 9 8 8 9
REMARK H PARENT
REMARK Flexibility Score: inf
ROOT
ATOM      1  C   UNL     1     139.556 139.601 141.715  1.00  0.00     0.000 C 
ENDROOT
BRANCH   1   2
ATOM      2  C   UNL     1     139.160 140.336 143.002  1.00  0.00    -0.000 C 
BRANCH   2   3
ATOM      3  C   UNL     1     139.084 141.849 142.770  1.00  0.00    -0.003 C 
ATOM      4  C   UNL     1     139.857 142.255 141.519  1.00  0.00     0.004 C 
ENDBRANCH   2   3
ENDBRANCH   1   2
BRANCH   1   5
ATOM      5  C   UNL     1     140.734 138.648 141.966  1.00  0.00     0.008 C 
BRANCH   5   6
ATOM      6  C   UNL     1     141.645 139.138 143.102  1.00  0.00     0.075 C 
BRANCH   6   7
ATOM      7  C   UNL     1     142.721 140.064 142.600  1.00  0.00     0.129 C 
ATOM      8  O   UNL     1     142.871 141.157 143.124  1.00  0.00    -0.300 OA
ATOM      9  C   UNL     1     143.636 139.653 141.485  1.00  0.00     0.087 C 
ENDBRANCH   6   7
ENDBRANCH   5   6
ENDBRANCH   1   5
TORSDOF 5
ENDMDL
