MODEL 1
REMARK VINA RESULT:    -3.444      0.000      0.000
REMARK INTER + INTRA:          -7.541
REMARK INTER:                  -5.859
REMARK INTRA:                  -1.682
REMARK UNBOUND:                -1.682
REMARK SMILES CCCCCCCCCCCCCC(=O)[O-]
REMARK SMILES IDX 8 1 9 2 10 3 11 4 12 5 13 6 14 7 15 8 16 9 7 10 6 11 5 12
REMARK SMILES IDX 4 13 3 14 2 15 1 16
REMARK H PARENT
REMARK Flexibility Score: inf
ROOT
ATOM      1  C   UNL     1      29.942  46.687   8.513  1.00  0.00     0.000 C 
ENDROOT
BRANCH   1   2
ATOM      2  C   UNL     1      31.474  46.668   8.442  1.00  0.00     0.000 C 
BRANCH   2   3
ATOM      3  C   UNL     1      32.016  47.996   7.899  1.00  0.00     0.000 C 
BRANCH   3   4
ATOM      4  C   UNL     1      31.529  48.245   6.466  1.00  0.00     0.000 C 
BRANCH   4   5
ATOM      5  C   UNL     1      30.963  49.665   6.317  1.00  0.00     0.006 C 
BRANCH   5   6
ATOM      6  C   UNL     1      31.363  50.576   7.486  1.00  0.00     0.053 C 
BRANCH   6   7
ATOM      7  C   UNL     1      31.780  51.935   7.015  1.00  0.00     0.041 C 
ATOM      8  O   UNL     1      32.997  52.254   7.002  1.00  0.00    -0.550 OA
ATOM      9  O   UNL     1      30.821  52.860   6.622  1.00  0.00    -0.550 OA
ENDBRANCH   6   7
ENDBRANCH   5   6
ENDBRANCH   4   5
ENDBRANCH   3   4
ENDBRANCH   2   3
ENDBRANCH   1   2
BRANCH   1  10
ATOM     10  C   UNL     1      29.452  47.683   9.571  1.00  0.00     0.000 C 
BRANCH  10  11
ATOM     11  C   UNL     1      28.332  48.573   9.009  1.00  0.00    -0.000 C 
BRANCH  11  12
ATOM     12  C   UNL     1      27.699  47.988   7.733  1.00  0.00    -0.000 C 
BRANCH  12  13
ATOM     13  C   UNL     1      26.291  47.403   7.956  1.00  0.00    -0.000 C 
BRANCH  13  14
ATOM     14  C   UNL     1      25.894  47.324   9.446  1.00  0.00    -0.000 C 
BRANCH  14  15
ATOM     15  C   UNL     1      25.892  45.891  10.005  1.00  0.00    -0.003 C 
ATOM     16  C   UNL     1      26.281  44.847   8.960  1.00  0.00     0.004 C 
ENDBRANCH  14  15
ENDBRANCH  13  14
ENDBRANCH  12  13
ENDBRANCH  11  12
ENDBRANCH  10  11
ENDBRANCH   1  10
TORSDOF 12
ENDMDL
MODEL 2
REMARK VINA RESULT:    -3.359      3.730      6.310
REMARK INTER + INTRA:          -7.398
REMARK INTER:                  -5.656
REMARK INTRA:                  -1.742
REMARK UNBOUND:                -1.682
REMARK SMILES CCCCCCCCCCCCCC(=O)[O-]
REMARK SMILES IDX 8 1 9 2 10 3 11 4 12 5 13 6 14 7 15 8 16 9 7 10 6 11 5 12
REMARK SMILES IDX 4 13 3 14 2 15 1 16
REMARK H PARENT
REMARK Flexibility Score: inf
ROOT
ATOM      1  C   UNL     1      30.283  46.917   8.794  1.00  0.00     0.000 C 
ENDROOT
BRANCH   1   2
ATOM      2  C   UNL     1      29.464  46.621   7.531  1.00  0.00     0.000 C 
BRANCH   2   3
ATOM      3  C   UNL     1      28.122  47.360   7.560  1.00  0.00     0.000 C 
BRANCH   3   4
ATOM      4  C   UNL     1      27.804  47.870   8.971  1.00  0.00     0.000 C 
BRANCH   4   5
ATOM      5  C   UNL     1      26.288  48.006   9.179  1.00  0.00     0.006 C 
BRANCH   5   6
ATOM      6  C   UNL     1      25.524  46.759   8.714  1.00  0.00     0.053 C 
BRANCH   6   7
ATOM      7  C   UNL     1      25.663  45.627   9.684  1.00  0.00     0.041 C 
ATOM      8  O   UNL     1      25.274  45.761  10.873  1.00  0.00    -0.550 OA
ATOM      9  O   UNL     1      26.253  44.435   9.282  1.00  0.00    -0.550 OA
ENDBRANCH   6   7
ENDBRANCH   5   6
ENDBRANCH   4   5
ENDBRANCH   3   4
ENDBRANCH   2   3
ENDBRANCH   1   2
BRANCH   1  10
ATOM     10  C   UNL     1      31.739  47.248   8.442  1.00  0.00     0.000 C 
BRANCH  10  11
ATOM     11  C   UNL     1      31.806  48.300   7.323  1.00  0.00    -0.000 C 
BRANCH  11  12
ATOM     12  C   UNL     1      32.324  49.662   7.826  1.00  0.00    -0.000 C 
BRANCH  12  13
ATOM     13  C   UNL     1      31.477  50.857   7.348  1.00  0.00    -0.000 C 
BRANCH  13  14
ATOM     14  C   UNL     1      30.213  50.434   6.567  1.00  0.00    -0.000 C 
BRANCH  14  15
ATOM     15  C   UNL     1      28.904  50.926   7.207  1.00  0.00    -0.003 C 
ATOM     16  C   UNL     1      29.061  51.271   8.687  1.00  0.00     0.004 C 
ENDBRANCH  14  15
ENDBRANCH  13  14
ENDBRANCH  12  13
ENDBRANCH  11  12
ENDBRANCH  10  11
ENDBRANCH   1  10
TORSDOF 12
ENDMDL
MODEL 3
REMARK VINA RESULT:    -3.355      1.024      2.207
REMARK INTER + INTRA:          -7.390
REMARK INTER:                  -5.671
REMARK INTRA:                  -1.720
REMARK UNBOUND:                -1.682
REMARK SMILES CCCCCCCCCCCCCC(=O)[O-]
REMARK SMILES IDX 8 1 9 2 10 3 11 4 12 5 13 6 14 7 15 8 16 9 7 10 6 11 5 12
REMARK SMILES IDX 4 13 3 14 2 15 1 16
REMARK H PARENT
REMARK Flexibility Score: inf
ROOT
ATOM      1  C   UNL     1      28.466  48.476   9.131  1.00  0.00     0.000 C 
ENDROOT
BRANCH   1   2
ATOM      2  C   UNL     1      29.577  47.526   9.593  1.00  0.00     0.000 C 
BRANCH   2   3
ATOM      3  C   UNL     1      30.285  46.883   8.395  1.00  0.00     0.000 C 
BRANCH   3   4
ATOM      4  C   UNL     1      31.627  47.570   8.115  1.00  0.00     0.000 C 
BRANCH   4   5
ATOM      5  C   UNL     1      31.692  48.079   6.667  1.00  0.00     0.006 C 
BRANCH   5   6
ATOM      6  C   UNL     1      31.059  49.468   6.510  1.00  0.00     0.053 C 
BRANCH   6   7
ATOM      7  C   UNL     1      31.636  50.454   7.479  1.00  0.00     0.041 C 
ATOM      8  O   UNL     1      32.850  50.776   7.408  1.00  0.00    -0.550 OA
ATOM      9  O   UNL     1      30.838  50.993   8.481  1.00  0.00    -0.550 OA
ENDBRANCH   6   7
ENDBRANCH   5   6
ENDBRANCH   4   5
ENDBRANCH   3   4
ENDBRANCH   2   3
ENDBRANCH   1   2
BRANCH   1  10
ATOM     10  C   UNL     1      27.790  47.955   7.856  1.00  0.00     0.000 C 
BRANCH  10  11
ATOM     11  C   UNL     1      26.294  47.696   8.094  1.00  0.00    -0.000 C 
BRANCH  11  12
ATOM     12  C   UNL     1      25.970  47.441   9.578  1.00  0.00    -0.000 C 
BRANCH  12  13
ATOM     13  C   UNL     1      25.909  45.946   9.947  1.00  0.00    -0.000 C 
BRANCH  13  14
ATOM     14  C   UNL     1      25.667  45.028   8.728  1.00  0.00    -0.000 C 
BRANCH  14  15
ATOM     15  C   UNL     1      26.738  43.936   8.563  1.00  0.00    -0.003 C 
ATOM     16  C   UNL     1      27.754  44.263   7.470  1.00  0.00     0.004 C 
ENDBRANCH  14  15
ENDBRANCH  13  14
ENDBRANCH  12  13
ENDBRANCH  11  12
ENDBRANCH  10  11
ENDBRANCH   1  10
TORSDOF 12
ENDMDL
MODEL 4
REMARK VINA RESULT:    -3.300      2.142      5.733
REMARK INTER + INTRA:          -7.297
REMARK INTER:                  -5.857
REMARK INTRA:                  -1.439
REMARK UNBOUND:                -1.682
REMARK SMILES CCCCCCCCCCCCCC(=O)[O-]
REMARK SMILES IDX 8 1 9 2 10 3 11 4 12 5 13 6 14 7 15 8 16 9 7 10 6 11 5 12
REMARK SMILES IDX 4 13 3 14 2 15 1 16
REMARK H PARENT
REMARK Flexibility Score: inf
ROOT
ATOM      1  C   UNL     1      31.507  46.773   8.640  1.00  0.00     0.000 C 
ENDROOT
BRANCH   1   2
ATOM      2  C   UNL     1      30.482  46.186   7.662  1.00  0.00     0.000 C 
BRANCH   2   3
ATOM      3  C   UNL     1      29.059  46.305   8.219  1.00  0.00     0.000 C 
BRANCH   3   4
ATOM      4  C   UNL     1      28.311  47.478   7.575  1.00  0.00     0.000 C 
BRANCH   4   5
ATOM      5  C   UNL     1      27.862  48.494   8.636  1.00  0.00     0.006 C 
BRANCH   5   6
ATOM      6  C   UNL     1      28.908  49.592   8.871  1.00  0.00     0.053 C 
BRANCH   6   7
ATOM      7  C   UNL     1      28.544  50.866   8.173  1.00  0.00     0.041 C 
ATOM      8  O   UNL     1      28.420  50.889   6.921  1.00  0.00    -0.550 OA
ATOM      9  O   UNL     1      28.375  52.035   8.904  1.00  0.00    -0.550 OA
ENDBRANCH   6   7
ENDBRANCH   5   6
ENDBRANCH   4   5
ENDBRANCH   3   4
ENDBRANCH   2   3
ENDBRANCH   1   2
BRANCH   1  10
ATOM     10  C   UNL     1      32.053  48.113   8.128  1.00  0.00     0.000 C 
BRANCH  10  11
ATOM     11  C   UNL     1      31.717  48.310   6.641  1.00  0.00    -0.000 C 
BRANCH  11  12
ATOM     12  C   UNL     1      31.725  49.793   6.227  1.00  0.00    -0.000 C 
BRANCH  12  13
ATOM     13  C   UNL     1      32.351  50.725   7.283  1.00  0.00    -0.000 C 
BRANCH  13  14
ATOM     14  C   UNL     1      32.044  52.218   7.036  1.00  0.00    -0.000 C 
BRANCH  14  15
ATOM     15  C   UNL     1      33.269  53.028   6.579  1.00  0.00    -0.003 C 
ATOM     16  C   UNL     1      33.397  54.368   7.300  1.00  0.00     0.004 C 
ENDBRANCH  14  15
ENDBRANCH  13  14
ENDBRANCH  12  13
ENDBRANCH  11  12
ENDBRANCH  10  11
ENDBRANCH   1  10
TORSDOF 12
ENDMDL
MODEL 5
REMARK VINA RESULT:    -3.298      3.637      5.813
REMARK INTER + INTRA:          -7.293
REMARK INTER:                  -5.563
REMARK INTRA:                  -1.730
REMARK UNBOUND:                -1.682
REMARK SMILES CCCCCCCCCCCCCC(=O)[O-]
REMARK SMILES IDX 8 1 9 2 10 3 11 4 12 5 13 6 14 7 15 8 16 9 7 10 6 11 5 12
REMARK SMILES IDX 4 13 3 14 2 15 1 16
REMARK H PARENT
REMARK Flexibility Score: inf
ROOT
ATOM      1  C   UNL     1      31.764  48.361   7.334  1.00  0.00     0.000 C 
ENDROOT
BRANCH   1   2
ATOM      2  C   UNL     1      31.654  47.252   8.387  1.00  0.00     0.000 C 
BRANCH   2   3
ATOM      3  C   UNL     1      30.394  46.407   8.166  1.00  0.00     0.000 C 
BRANCH   3   4
ATOM      4  C   UNL     1      29.168  47.298   7.930  1.00  0.00     0.000 C 
BRANCH   4   5
ATOM      5  C   UNL     1      28.338  47.444   9.214  1.00  0.00     0.006 C 
BRANCH   5   6
ATOM      6  C   UNL     1      26.832  47.309   8.951  1.00  0.00     0.053 C 
BRANCH   6   7
ATOM      7  C   UNL     1      26.271  46.057   9.552  1.00  0.00     0.041 C 
ATOM      8  O   UNL     1      26.508  44.940   9.023  1.00  0.00    -0.550 OA
ATOM      9  O   UNL     1      25.460  46.128  10.677  1.00  0.00    -0.550 OA
ENDBRANCH   6   7
ENDBRANCH   5   6
ENDBRANCH   4   5
ENDBRANCH   3   4
ENDBRANCH   2   3
ENDBRANCH   1   2
BRANCH   1  10
ATOM     10  C   UNL     1      32.405  49.622   7.927  1.00  0.00     0.000 C 
BRANCH  10  11
ATOM     11  C   UNL     1      32.262  50.814   6.967  1.00  0.00    -0.000 C 
BRANCH  11  12
ATOM     12  C   UNL     1      31.184  50.577   5.891  1.00  0.00    -0.000 C 
BRANCH  12  13
ATOM     13  C   UNL     1      29.917  51.430   6.090  1.00  0.00    -0.000 C 
BRANCH  13  14
ATOM     14  C   UNL     1      28.657  50.587   6.391  1.00  0.00    -0.000 C 
BRANCH  14  15
ATOM     15  C   UNL     1      28.035  50.885   7.766  1.00  0.00    -0.003 C 
ATOM     16  C   UNL     1      29.082  51.081   8.861  1.00  0.00     0.004 C 
ENDBRANCH  14  15
ENDBRANCH  13  14
ENDBRANCH  12  13
ENDBRANCH  11  12
ENDBRANCH  10  11
ENDBRANCH   1  10
TORSDOF 12
ENDMDL
MODEL 6
REMARK VINA RESULT:    -3.275      1.533      2.827
REMARK INTER + INTRA:          -7.255
REMARK INTER:                  -5.707
REMARK INTRA:                  -1.548
REMARK UNBOUND:                -1.682
REMARK SMILES CCCCCCCCCCCCCC(=O)[O-]
REMARK SMILES IDX 8 1 9 2 10 3 11 4 12 5 13 6 14 7 15 8 16 9 7 10 6 11 5 12
REMARK SMILES IDX 4 13 3 14 2 15 1 16
REMARK H PARENT
REMARK Flexibility Score: inf
ROOT
ATOM      1  C   UNL     1      31.760  47.726   8.214  1.00  0.00     0.000 C 
ENDROOT
BRANCH   1   2
ATOM      2  C   UNL     1      31.639  48.101   6.732  1.00  0.00     0.000 C 
BRANCH   2   3
ATOM      3  C   UNL     1      30.796  49.369   6.553  1.00  0.00     0.000 C 
BRANCH   3   4
ATOM      4  C   UNL     1      31.196  50.445   7.570  1.00  0.00     0.000 C 
BRANCH   4   5
ATOM      5  C   UNL     1      31.538  51.767   6.866  1.00  0.00     0.006 C 
BRANCH   5   6
ATOM      6  C   UNL     1      33.022  52.133   7.006  1.00  0.00     0.053 C 
BRANCH   6   7
ATOM      7  C   UNL     1      33.275  53.569   6.663  1.00  0.00     0.041 C 
ATOM      8  O   UNL     1      32.343  54.412   6.735  1.00  0.00    -0.550 OA
ATOM      9  O   UNL     1      34.534  53.969   6.230  1.00  0.00    -0.550 OA
ENDBRANCH   6   7
ENDBRANCH   5   6
ENDBRANCH   4   5
ENDBRANCH   3   4
ENDBRANCH   2   3
ENDBRANCH   1   2
BRANCH   1  10
ATOM     10  C   UNL     1      31.407  46.250   8.440  1.00  0.00     0.000 C 
BRANCH  10  11
ATOM     11  C   UNL     1      30.550  45.709   7.284  1.00  0.00    -0.000 C 
BRANCH  11  12
ATOM     12  C   UNL     1      29.065  45.568   7.668  1.00  0.00    -0.000 C 
BRANCH  12  13
ATOM     13  C   UNL     1      28.115  46.375   6.762  1.00  0.00    -0.000 C 
BRANCH  13  14
ATOM     14  C   UNL     1      27.411  47.536   7.499  1.00  0.00    -0.000 C 
BRANCH  14  15
ATOM     15  C   UNL     1      27.729  47.589   9.003  1.00  0.00    -0.003 C 
ATOM     16  C   UNL     1      28.608  48.779   9.381  1.00  0.00     0.004 C 
ENDBRANCH  14  15
ENDBRANCH  13  14
ENDBRANCH  12  13
ENDBRANCH  11  12
ENDBRANCH  10  11
ENDBRANCH   1  10
TORSDOF 12
ENDMDL
MODEL 7
REMARK VINA RESULT:    -3.273      3.830      5.732
REMARK INTER + INTRA:          -7.252
REMARK INTER:                  -5.576
REMARK INTRA:                  -1.676
REMARK UNBOUND:                -1.682
REMARK SMILES CCCCCCCCCCCCCC(=O)[O-]
REMARK SMILES IDX 8 1 9 2 10 3 11 4 12 5 13 6 14 7 15 8 16 9 7 10 6 11 5 12
REMARK SMILES IDX 4 13 3 14 2 15 1 16
REMARK H PARENT
REMARK Flexibility Score: inf
ROOT
ATOM      1  C   UNL     1      31.996  47.925   8.132  1.00  0.00     0.000 C 
ENDROOT
BRANCH   1   2
ATOM      2  C   UNL     1      31.522  46.511   8.486  1.00  0.00     0.000 C 
BRANCH   2   3
ATOM      3  C   UNL     1      30.086  46.274   8.003  1.00  0.00     0.000 C 
BRANCH   3   4
ATOM      4  C   UNL     1      30.003  45.029   7.112  1.00  0.00     0.000 C 
BRANCH   4   5
ATOM      5  C   UNL     1      28.542  44.609   6.889  1.00  0.00     0.006 C 
BRANCH   5   6
ATOM      6  C   UNL     1      27.570  45.389   7.785  1.00  0.00     0.053 C 
BRANCH   6   7
ATOM      7  C   UNL     1      26.793  44.479   8.687  1.00  0.00     0.041 C 
ATOM      8  O   UNL     1      26.823  43.234   8.508  1.00  0.00    -0.550 OA
ATOM      9  O   UNL     1      26.010  45.011   9.704  1.00  0.00    -0.550 OA
ENDBRANCH   6   7
ENDBRANCH   5   6
ENDBRANCH   4   5
ENDBRANCH   3   4
ENDBRANCH   2   3
ENDBRANCH   1   2
BRANCH   1  10
ATOM     10  C   UNL     1      31.629  48.284   6.687  1.00  0.00     0.000 C 
BRANCH  10  11
ATOM     11  C   UNL     1      31.269  49.774   6.566  1.00  0.00    -0.000 C 
BRANCH  11  12
ATOM     12  C   UNL     1      31.141  50.462   7.939  1.00  0.00    -0.000 C 
BRANCH  12  13
ATOM     13  C   UNL     1      29.691  50.827   8.311  1.00  0.00    -0.000 C 
BRANCH  13  14
ATOM     14  C   UNL     1      28.885  49.632   8.866  1.00  0.00    -0.000 C 
BRANCH  14  15
ATOM     15  C   UNL     1      27.547  49.406   8.142  1.00  0.00    -0.003 C 
ATOM     16  C   UNL     1      27.725  48.910   6.709  1.00  0.00     0.004 C 
ENDBRANCH  14  15
ENDBRANCH  13  14
ENDBRANCH  12  13
ENDBRANCH  11  12
ENDBRANCH  10  11
ENDBRANCH   1  10
TORSDOF 12
ENDMDL
MODEL 8
REMARK VINA RESULT:    -3.253      1.839      2.296
REMARK INTER + INTRA:          -7.217
REMARK INTER:                  -5.696
REMARK INTRA:                  -1.521
REMARK UNBOUND:                -1.682
REMARK SMILES CCCCCCCCCCCCCC(=O)[O-]
REMARK SMILES IDX 8 1 9 2 10 3 11 4 12 5 13 6 14 7 15 8 16 9 7 10 6 11 5 12
REMARK SMILES IDX 4 13 3 14 2 15 1 16
REMARK H PARENT
REMARK Flexibility Score: inf
ROOT
ATOM      1  C   UNL     1      30.729  46.289   8.167  1.00  0.00     0.000 C 
ENDROOT
BRANCH   1   2
ATOM      2  C   UNL     1      31.838  47.326   8.380  1.00  0.00     0.000 C 
BRANCH   2   3
ATOM      3  C   UNL     1      31.868  48.343   7.232  1.00  0.00     0.000 C 
BRANCH   3   4
ATOM      4  C   UNL     1      32.227  49.743   7.747  1.00  0.00     0.000 C 
BRANCH   4   5
ATOM      5  C   UNL     1      31.138  50.761   7.377  1.00  0.00     0.006 C 
BRANCH   5   6
ATOM      6  C   UNL     1      30.096  50.927   8.491  1.00  0.00     0.053 C 
BRANCH   6   7
ATOM      7  C   UNL     1      28.710  51.066   7.941  1.00  0.00     0.041 C 
ATOM      8  O   UNL     1      27.889  51.851   8.483  1.00  0.00    -0.550 OA
ATOM      9  O   UNL     1      28.316  50.302   6.849  1.00  0.00    -0.550 OA
ENDBRANCH   6   7
ENDBRANCH   5   6
ENDBRANCH   4   5
ENDBRANCH   3   4
ENDBRANCH   2   3
ENDBRANCH   1   2
BRANCH   1  10
ATOM     10  C   UNL     1      29.377  46.969   7.921  1.00  0.00     0.000 C 
BRANCH  10  11
ATOM     11  C   UNL     1      28.818  47.565   9.223  1.00  0.00    -0.000 C 
BRANCH  11  12
ATOM     12  C   UNL     1      27.284  47.703   9.197  1.00  0.00    -0.000 C 
BRANCH  12  13
ATOM     13  C   UNL     1      26.578  46.587   8.403  1.00  0.00    -0.000 C 
BRANCH  13  14
ATOM     14  C   UNL     1      26.071  45.433   9.297  1.00  0.00    -0.000 C 
BRANCH  14  15
ATOM     15  C   UNL     1      26.550  44.046   8.836  1.00  0.00    -0.003 C 
ATOM     16  C   UNL     1      27.240  44.079   7.474  1.00  0.00     0.004 C 
ENDBRANCH  14  15
ENDBRANCH  13  14
ENDBRANCH  12  13
ENDBRANCH  11  12
ENDBRANCH  10  11
ENDBRANCH   1  10
TORSDOF 12
ENDMDL
MODEL 9
REMARK VINA RESULT:    -3.217      2.142      3.175
REMARK INTER + INTRA:          -7.156
REMARK INTER:                  -5.452
REMARK INTRA:                  -1.704
REMARK UNBOUND:                -1.682
REMARK SMILES CCCCCCCCCCCCCC(=O)[O-]
REMARK SMILES IDX 8 1 9 2 10 3 11 4 12 5 13 6 14 7 15 8 16 9 7 10 6 11 5 12
REMARK SMILES IDX 4 13 3 14 2 15 1 16
REMARK H PARENT
REMARK Flexibility Score: inf
ROOT
ATOM      1  C   UNL     1      31.941  48.178   7.264  1.00  0.00     0.000 C 
ENDROOT
BRANCH   1   2
ATOM      2  C   UNL     1      32.345  49.578   7.742  1.00  0.00     0.000 C 
BRANCH   2   3
ATOM      3  C   UNL     1      31.830  50.657   6.783  1.00  0.00     0.000 C 
BRANCH   3   4
ATOM      4  C   UNL     1      30.635  50.146   5.970  1.00  0.00     0.000 C 
BRANCH   4   5
ATOM      5  C   UNL     1      29.321  50.757   6.480  1.00  0.00     0.006 C 
BRANCH   5   6
ATOM      6  C   UNL     1      28.502  49.762   7.314  1.00  0.00     0.053 C 
BRANCH   6   7
ATOM      7  C   UNL     1      28.866  49.821   8.766  1.00  0.00     0.041 C 
ATOM      8  O   UNL     1      29.286  50.894   9.270  1.00  0.00    -0.550 OA
ATOM      9  O   UNL     1      28.772  48.680   9.553  1.00  0.00    -0.550 OA
ENDBRANCH   6   7
ENDBRANCH   5   6
ENDBRANCH   4   5
ENDBRANCH   3   4
ENDBRANCH   2   3
ENDBRANCH   1   2
BRANCH   1  10
ATOM     10  C   UNL     1      31.721  47.232   8.451  1.00  0.00     0.000 C 
BRANCH  10  11
ATOM     11  C   UNL     1      30.752  46.099   8.077  1.00  0.00    -0.000 C 
BRANCH  11  12
ATOM     12  C   UNL     1      30.097  46.314   6.700  1.00  0.00    -0.000 C 
BRANCH  12  13
ATOM     13  C   UNL     1      28.566  46.136   6.711  1.00  0.00    -0.000 C 
BRANCH  13  14
ATOM     14  C   UNL     1      28.017  45.681   8.082  1.00  0.00    -0.000 C 
BRANCH  14  15
ATOM     15  C   UNL     1      26.480  45.671   8.152  1.00  0.00    -0.003 C 
ATOM     16  C   UNL     1      25.953  45.245   9.521  1.00  0.00     0.004 C 
ENDBRANCH  14  15
ENDBRANCH  13  14
ENDBRANCH  12  13
ENDBRANCH  11  12
ENDBRANCH  10  11
ENDBRANCH   1  10
TORSDOF 12
ENDMDL
