MODEL 1
REMARK VINA RESULT:    -6.405      0.000      0.000
REMARK INTER + INTRA:          -6.967
REMARK INTER:                  -6.967
REMARK INTRA:                   0.000
REMARK UNBOUND:                 0.000
REMARK SMILES Cc1cc(O)c2c(c1)C(=O)c1cc(O)cc(O)c1C2=O
REMARK SMILES IDX 1 1 2 2 8 3 7 4 6 5 4 6 3 7 19 8 20 9 18 10 11 11 9 12 10 13
REMARK SMILES IDX 12 14 13 15 15 16 16 17 5 18 17 20 14 22
REMARK H PARENT 5 19 17 21 14 23
REMARK Flexibility Score: inf
ROOT
ATOM      1  C   UNL     1      13.481  24.160   0.604  1.00  0.00     0.044 C 
ATOM      2  C   UNL     1      14.054  24.029  -0.777  1.00  0.00    -0.047 A 
ATOM      3  C   UNL     1      13.403  24.614  -1.869  1.00  0.00     0.016 A 
ATOM      4  C   UNL     1      13.911  24.466  -3.170  1.00  0.00     0.038 A 
ATOM      5  C   UNL     1      15.086  23.715  -3.384  1.00  0.00     0.076 A 
ATOM      6  C   UNL     1      15.725  23.101  -2.282  1.00  0.00     0.127 A 
ATOM      7  C   UNL     1      15.203  23.260  -0.991  1.00  0.00     0.050 A 
ATOM      8  C   UNL     1      15.633  23.601  -4.761  1.00  0.00     0.201 C 
ATOM      9  O   UNL     1      16.836  23.263  -4.924  1.00  0.00    -0.288 OA
ATOM     10  C   UNL     1      14.801  23.997  -5.932  1.00  0.00     0.076 A 
ATOM     11  C   UNL     1      13.659  24.800  -5.704  1.00  0.00     0.041 A 
ATOM     12  C   UNL     1      13.219  25.094  -4.319  1.00  0.00     0.194 C 
ATOM     13  O   UNL     1      12.242  25.867  -4.119  1.00  0.00    -0.289 OA
ATOM     14  C   UNL     1      12.936  25.313  -6.794  1.00  0.00     0.059 A 
ATOM     15  C   UNL     1      13.323  25.023  -8.104  1.00  0.00     0.120 A 
ATOM     16  C   UNL     1      14.419  24.194  -8.334  1.00  0.00     0.093 A 
ATOM     17  C   UNL     1      15.142  23.648  -7.268  1.00  0.00     0.131 A 
ENDROOT
BRANCH   6  18
ATOM     18  O   UNL     1      16.871  22.327  -2.464  1.00  0.00    -0.507 OA
ATOM     19  H   UNL     1      17.160  21.633  -1.785  1.00  0.00     0.293 HD
ENDBRANCH   6  18
BRANCH  17  20
ATOM     20  O   UNL     1      16.157  22.742  -7.584  1.00  0.00    -0.507 OA
ATOM     21  H   UNL     1      16.762  22.316  -6.897  1.00  0.00     0.293 HD
ENDBRANCH  17  20
BRANCH  15  22
ATOM     22  O   UNL     1      12.618  25.544  -9.186  1.00  0.00    -0.508 OA
ATOM     23  H   UNL     1      12.866  26.435  -9.602  1.00  0.00     0.293 HD
ENDBRANCH  15  22
TORSDOF 3
ENDMDL
MODEL 2
REMARK VINA RESULT:    -6.088      1.596      5.417
REMARK INTER + INTRA:          -6.622
REMARK INTER:                  -6.622
REMARK INTRA:                   0.000
REMARK UNBOUND:                 0.000
REMARK SMILES Cc1cc(O)c2c(c1)C(=O)c1cc(O)cc(O)c1C2=O
REMARK SMILES IDX 1 1 2 2 8 3 7 4 6 5 4 6 3 7 19 8 20 9 18 10 11 11 9 12 10 13
REMARK SMILES IDX 12 14 13 15 15 16 16 17 5 18 17 20 14 22
REMARK H PARENT 5 19 17 21 14 23
REMARK Flexibility Score: inf
ROOT
ATOM      1  C   UNL     1      15.269  26.125  -8.667  1.00  0.00     0.044 C 
ATOM      2  C   UNL     1      15.311  25.394  -7.357  1.00  0.00    -0.047 A 
ATOM      3  C   UNL     1      14.270  25.541  -6.434  1.00  0.00     0.016 A 
ATOM      4  C   UNL     1      14.319  24.891  -5.189  1.00  0.00     0.038 A 
ATOM      5  C   UNL     1      15.430  24.086  -4.860  1.00  0.00     0.076 A 
ATOM      6  C   UNL     1      16.494  23.963  -5.784  1.00  0.00     0.127 A 
ATOM      7  C   UNL     1      16.427  24.620  -7.020  1.00  0.00     0.050 A 
ATOM      8  C   UNL     1      15.448  23.373  -3.557  1.00  0.00     0.201 C 
ATOM      9  O   UNL     1      16.222  22.391  -3.398  1.00  0.00    -0.288 OA
ATOM     10  C   UNL     1      14.476  23.740  -2.488  1.00  0.00     0.076 A 
ATOM     11  C   UNL     1      13.336  24.497  -2.849  1.00  0.00     0.041 A 
ATOM     12  C   UNL     1      13.209  25.045  -4.221  1.00  0.00     0.194 C 
ATOM     13  O   UNL     1      12.161  25.660  -4.559  1.00  0.00    -0.289 OA
ATOM     14  C   UNL     1      12.328  24.737  -1.901  1.00  0.00     0.059 A 
ATOM     15  C   UNL     1      12.446  24.248  -0.598  1.00  0.00     0.120 A 
ATOM     16  C   UNL     1      13.588  23.543  -0.225  1.00  0.00     0.093 A 
ATOM     17  C   UNL     1      14.620  23.312  -1.140  1.00  0.00     0.131 A 
ENDROOT
BRANCH   6  18
ATOM     18  O   UNL     1      17.620  23.200  -5.476  1.00  0.00    -0.507 OA
ATOM     19  H   UNL     1      18.328  22.989  -6.170  1.00  0.00     0.293 HD
ENDBRANCH   6  18
BRANCH  17  20
ATOM     20  O   UNL     1      15.774  22.692  -0.656  1.00  0.00    -0.507 OA
ATOM     21  H   UNL     1      16.265  21.960  -1.148  1.00  0.00     0.293 HD
ENDBRANCH  17  20
BRANCH  15  22
ATOM     22  O   UNL     1      11.440  24.470   0.339  1.00  0.00    -0.508 OA
ATOM     23  H   UNL     1      11.555  25.137   1.094  1.00  0.00     0.293 HD
ENDBRANCH  15  22
TORSDOF 3
ENDMDL
MODEL 3
REMARK VINA RESULT:    -6.052      1.396      6.227
REMARK INTER + INTRA:          -6.582
REMARK INTER:                  -6.582
REMARK INTRA:                   0.000
REMARK UNBOUND:                 0.000
REMARK SMILES Cc1cc(O)c2c(c1)C(=O)c1cc(O)cc(O)c1C2=O
REMARK SMILES IDX 1 1 2 2 8 3 7 4 6 5 4 6 3 7 19 8 20 9 18 10 11 11 9 12 10 13
REMARK SMILES IDX 12 14 13 15 15 16 16 17 5 18 17 20 14 22
REMARK H PARENT 5 19 17 21 14 23
REMARK Flexibility Score: inf
ROOT
ATOM      1  C   UNL     1      13.161  24.864 -10.318  1.00  0.00     0.044 C 
ATOM      2  C   UNL     1      13.196  24.912  -8.818  1.00  0.00    -0.047 A 
ATOM      3  C   UNL     1      14.301  24.406  -8.123  1.00  0.00     0.016 A 
ATOM      4  C   UNL     1      14.327  24.412  -6.718  1.00  0.00     0.038 A 
ATOM      5  C   UNL     1      13.228  24.925  -5.997  1.00  0.00     0.076 A 
ATOM      6  C   UNL     1      12.102  25.408  -6.703  1.00  0.00     0.127 A 
ATOM      7  C   UNL     1      12.094  25.393  -8.104  1.00  0.00     0.050 A 
ATOM      8  C   UNL     1      13.288  24.961  -4.513  1.00  0.00     0.201 C 
ATOM      9  O   UNL     1      12.511  25.725  -3.879  1.00  0.00    -0.288 OA
ATOM     10  C   UNL     1      14.336  24.190  -3.786  1.00  0.00     0.076 A 
ATOM     11  C   UNL     1      15.461  23.735  -4.515  1.00  0.00     0.041 A 
ATOM     12  C   UNL     1      15.502  23.881  -5.990  1.00  0.00     0.194 C 
ATOM     13  O   UNL     1      16.535  23.538  -6.628  1.00  0.00    -0.289 OA
ATOM     14  C   UNL     1      16.536  23.134  -3.838  1.00  0.00     0.059 A 
ATOM     15  C   UNL     1      16.499  22.966  -2.453  1.00  0.00     0.120 A 
ATOM     16  C   UNL     1      15.374  23.370  -1.737  1.00  0.00     0.093 A 
ATOM     17  C   UNL     1      14.278  23.946  -2.387  1.00  0.00     0.131 A 
ENDROOT
BRANCH   6  18
ATOM     18  O   UNL     1      10.988  25.894  -6.019  1.00  0.00    -0.507 OA
ATOM     19  H   UNL     1      11.076  26.541  -5.244  1.00  0.00     0.293 HD
ENDBRANCH   6  18
BRANCH  17  20
ATOM     20  O   UNL     1      13.150  24.223  -1.611  1.00  0.00    -0.507 OA
ATOM     21  H   UNL     1      13.152  24.855  -0.824  1.00  0.00     0.293 HD
ENDBRANCH  17  20
BRANCH  15  22
ATOM     22  O   UNL     1      17.570  22.386  -1.778  1.00  0.00    -0.508 OA
ATOM     23  H   UNL     1      18.218  22.943  -1.233  1.00  0.00     0.293 HD
ENDBRANCH  15  22
TORSDOF 3
ENDMDL
MODEL 4
REMARK VINA RESULT:    -5.831     15.142     16.684
REMARK INTER + INTRA:          -6.343
REMARK INTER:                  -6.343
REMARK INTRA:                   0.000
REMARK UNBOUND:                 0.000
REMARK SMILES Cc1cc(O)c2c(c1)C(=O)c1cc(O)cc(O)c1C2=O
REMARK SMILES IDX 1 1 2 2 8 3 7 4 6 5 4 6 3 7 19 8 20 9 18 10 11 11 9 12 10 13
REMARK SMILES IDX 12 14 13 15 15 16 16 17 5 18 17 20 14 22
REMARK H PARENT 5 19 17 21 14 23
REMARK Flexibility Score: inf
ROOT
ATOM      1  C   UNL     1      28.247  13.433  -1.492  1.00  0.00     0.044 C 
ATOM      2  C   UNL     1      27.313  13.699  -0.348  1.00  0.00    -0.047 A 
ATOM      3  C   UNL     1      27.177  14.994   0.165  1.00  0.00     0.016 A 
ATOM      4  C   UNL     1      26.334  15.247   1.260  1.00  0.00     0.038 A 
ATOM      5  C   UNL     1      25.620  14.186   1.857  1.00  0.00     0.076 A 
ATOM      6  C   UNL     1      25.782  12.874   1.354  1.00  0.00     0.127 A 
ATOM      7  C   UNL     1      26.629  12.642   0.262  1.00  0.00     0.050 A 
ATOM      8  C   UNL     1      24.702  14.476   2.988  1.00  0.00     0.201 C 
ATOM      9  O   UNL     1      23.805  13.643   3.288  1.00  0.00    -0.288 OA
ATOM     10  C   UNL     1      24.765  15.791   3.686  1.00  0.00     0.076 A 
ATOM     11  C   UNL     1      25.434  16.860   3.045  1.00  0.00     0.041 A 
ATOM     12  C   UNL     1      26.190  16.622   1.792  1.00  0.00     0.194 C 
ATOM     13  O   UNL     1      26.726  17.589   1.185  1.00  0.00    -0.289 OA
ATOM     14  C   UNL     1      25.388  18.149   3.603  1.00  0.00     0.059 A 
ATOM     15  C   UNL     1      24.702  18.383   4.796  1.00  0.00     0.120 A 
ATOM     16  C   UNL     1      24.082  17.324   5.456  1.00  0.00     0.093 A 
ATOM     17  C   UNL     1      24.133  16.026   4.938  1.00  0.00     0.131 A 
ENDROOT
BRANCH   6  18
ATOM     18  O   UNL     1      25.115  11.799   1.941  1.00  0.00    -0.507 OA
ATOM     19  H   UNL     1      24.182  11.895   2.326  1.00  0.00     0.293 HD
ENDBRANCH   6  18
BRANCH  17  20
ATOM     20  O   UNL     1      23.579  15.007   5.716  1.00  0.00    -0.507 OA
ATOM     21  H   UNL     1      22.752  14.489   5.455  1.00  0.00     0.293 HD
ENDBRANCH  17  20
BRANCH  15  22
ATOM     22  O   UNL     1      24.641  19.662   5.343  1.00  0.00    -0.508 OA
ATOM     23  H   UNL     1      24.801  20.489   4.777  1.00  0.00     0.293 HD
ENDBRANCH  15  22
TORSDOF 3
ENDMDL
MODEL 5
REMARK VINA RESULT:    -5.723      1.493      6.332
REMARK INTER + INTRA:          -6.225
REMARK INTER:                  -6.225
REMARK INTRA:                   0.000
REMARK UNBOUND:                 0.000
REMARK SMILES Cc1cc(O)c2c(c1)C(=O)c1cc(O)cc(O)c1C2=O
REMARK SMILES IDX 1 1 2 2 8 3 7 4 6 5 4 6 3 7 19 8 20 9 18 10 11 11 9 12 10 13
REMARK SMILES IDX 12 14 13 15 15 16 16 17 5 18 17 20 14 22
REMARK H PARENT 5 19 17 21 14 23
REMARK Flexibility Score: inf
ROOT
ATOM      1  C   UNL     1      16.124  22.961 -10.365  1.00  0.00     0.044 C 
ATOM      2  C   UNL     1      15.257  23.408  -9.224  1.00  0.00    -0.047 A 
ATOM      3  C   UNL     1      15.759  23.412  -7.918  1.00  0.00     0.016 A 
ATOM      4  C   UNL     1      14.943  23.792  -6.838  1.00  0.00     0.038 A 
ATOM      5  C   UNL     1      13.603  24.168  -7.069  1.00  0.00     0.076 A 
ATOM      6  C   UNL     1      13.092  24.135  -8.387  1.00  0.00     0.127 A 
ATOM      7  C   UNL     1      13.921  23.751  -9.450  1.00  0.00     0.050 A 
ATOM      8  C   UNL     1      12.766  24.606  -5.923  1.00  0.00     0.201 C 
ATOM      9  O   UNL     1      11.720  25.276  -6.139  1.00  0.00    -0.288 OA
ATOM     10  C   UNL     1      13.219  24.358  -4.525  1.00  0.00     0.076 A 
ATOM     11  C   UNL     1      14.582  24.041  -4.308  1.00  0.00     0.041 A 
ATOM     12  C   UNL     1      15.484  23.801  -5.460  1.00  0.00     0.194 C 
ATOM     13  O   UNL     1      16.712  23.588  -5.265  1.00  0.00    -0.289 OA
ATOM     14  C   UNL     1      15.076  23.944  -2.996  1.00  0.00     0.059 A 
ATOM     15  C   UNL     1      14.232  24.142  -1.902  1.00  0.00     0.120 A 
ATOM     16  C   UNL     1      12.880  24.407  -2.110  1.00  0.00     0.093 A 
ATOM     17  C   UNL     1      12.355  24.483  -3.404  1.00  0.00     0.131 A 
ENDROOT
BRANCH   6  18
ATOM     18  O   UNL     1      11.763  24.471  -8.644  1.00  0.00    -0.507 OA
ATOM     19  H   UNL     1      11.453  24.755  -9.566  1.00  0.00     0.293 HD
ENDBRANCH   6  18
BRANCH  17  20
ATOM     20  O   UNL     1      10.972  24.646  -3.522  1.00  0.00    -0.507 OA
ATOM     21  H   UNL     1      10.385  25.002  -2.782  1.00  0.00     0.293 HD
ENDBRANCH  17  20
BRANCH  15  22
ATOM     22  O   UNL     1      14.723  24.063  -0.601  1.00  0.00    -0.508 OA
ATOM     23  H   UNL     1      14.647  24.841   0.043  1.00  0.00     0.293 HD
ENDBRANCH  15  22
TORSDOF 3
ENDMDL
MODEL 6
REMARK VINA RESULT:    -5.696     15.787     16.500
REMARK INTER + INTRA:          -6.196
REMARK INTER:                  -6.196
REMARK INTRA:                   0.000
REMARK UNBOUND:                 0.000
REMARK SMILES Cc1cc(O)c2c(c1)C(=O)c1cc(O)cc(O)c1C2=O
REMARK SMILES IDX 1 1 2 2 8 3 7 4 6 5 4 6 3 7 19 8 20 9 18 10 11 11 9 12 10 13
REMARK SMILES IDX 12 14 13 15 15 16 16 17 5 18 17 20 14 22
REMARK H PARENT 5 19 17 21 14 23
REMARK Flexibility Score: inf
ROOT
ATOM      1  C   UNL     1      20.569  13.092   4.211  1.00  0.00     0.044 C 
ATOM      2  C   UNL     1      21.773  12.956   3.325  1.00  0.00    -0.047 A 
ATOM      3  C   UNL     1      22.838  13.856   3.439  1.00  0.00     0.016 A 
ATOM      4  C   UNL     1      23.952  13.761   2.588  1.00  0.00     0.038 A 
ATOM      5  C   UNL     1      23.998  12.753   1.603  1.00  0.00     0.076 A 
ATOM      6  C   UNL     1      22.907  11.863   1.470  1.00  0.00     0.127 A 
ATOM      7  C   UNL     1      21.804  11.975   2.328  1.00  0.00     0.050 A 
ATOM      8  C   UNL     1      25.201  12.640   0.737  1.00  0.00     0.201 C 
ATOM      9  O   UNL     1      25.423  11.562   0.122  1.00  0.00    -0.288 OA
ATOM     10  C   UNL     1      26.196  13.747   0.690  1.00  0.00     0.076 A 
ATOM     11  C   UNL     1      26.173  14.716   1.721  1.00  0.00     0.041 A 
ATOM     12  C   UNL     1      25.079  14.713   2.722  1.00  0.00     0.194 C 
ATOM     13  O   UNL     1      25.098  15.533   3.680  1.00  0.00    -0.289 OA
ATOM     14  C   UNL     1      27.184  15.689   1.790  1.00  0.00     0.059 A 
ATOM     15  C   UNL     1      28.206  15.720   0.839  1.00  0.00     0.120 A 
ATOM     16  C   UNL     1      28.208  14.798  -0.206  1.00  0.00     0.093 A 
ATOM     17  C   UNL     1      27.199  13.835  -0.314  1.00  0.00     0.131 A 
ENDROOT
BRANCH   6  18
ATOM     18  O   UNL     1      22.908  10.875   0.486  1.00  0.00    -0.507 OA
ATOM     19  H   UNL     1      22.049  10.534   0.070  1.00  0.00     0.293 HD
ENDBRANCH   6  18
BRANCH  17  20
ATOM     20  O   UNL     1      27.216  13.020  -1.448  1.00  0.00    -0.507 OA
ATOM     21  H   UNL     1      26.435  12.451  -1.741  1.00  0.00     0.293 HD
ENDBRANCH  17  20
BRANCH  15  22
ATOM     22  O   UNL     1      29.219  16.673   0.915  1.00  0.00    -0.508 OA
ATOM     23  H   UNL     1      29.271  17.446   0.260  1.00  0.00     0.293 HD
ENDBRANCH  15  22
TORSDOF 3
ENDMDL
MODEL 7
REMARK VINA RESULT:    -5.675     15.451     16.177
REMARK INTER + INTRA:          -6.173
REMARK INTER:                  -6.173
REMARK INTRA:                   0.000
REMARK UNBOUND:                 0.000
REMARK SMILES Cc1cc(O)c2c(c1)C(=O)c1cc(O)cc(O)c1C2=O
REMARK SMILES IDX 1 1 2 2 8 3 7 4 6 5 4 6 3 7 19 8 20 9 18 10 11 11 9 12 10 13
REMARK SMILES IDX 12 14 13 15 15 16 16 17 5 18 17 20 14 22
REMARK H PARENT 5 19 17 21 14 23
REMARK Flexibility Score: inf
ROOT
ATOM      1  C   UNL     1      24.753  19.122   5.125  1.00  0.00     0.044 C 
ATOM      2  C   UNL     1      24.786  17.783   4.448  1.00  0.00    -0.047 A 
ATOM      3  C   UNL     1      25.691  17.540   3.409  1.00  0.00     0.016 A 
ATOM      4  C   UNL     1      25.704  16.303   2.743  1.00  0.00     0.038 A 
ATOM      5  C   UNL     1      24.793  15.294   3.120  1.00  0.00     0.076 A 
ATOM      6  C   UNL     1      23.861  15.552   4.151  1.00  0.00     0.127 A 
ATOM      7  C   UNL     1      23.863  16.794   4.802  1.00  0.00     0.050 A 
ATOM      8  C   UNL     1      24.846  13.977   2.434  1.00  0.00     0.201 C 
ATOM      9  O   UNL     1      24.316  12.972   2.979  1.00  0.00    -0.288 OA
ATOM     10  C   UNL     1      25.621  13.821   1.171  1.00  0.00     0.076 A 
ATOM     11  C   UNL     1      26.574  14.814   0.840  1.00  0.00     0.041 A 
ATOM     12  C   UNL     1      26.670  16.052   1.649  1.00  0.00     0.194 C 
ATOM     13  O   UNL     1      27.566  16.903   1.395  1.00  0.00    -0.289 OA
ATOM     14  C   UNL     1      27.424  14.628  -0.263  1.00  0.00     0.059 A 
ATOM     15  C   UNL     1      27.326  13.478  -1.049  1.00  0.00     0.120 A 
ATOM     16  C   UNL     1      26.358  12.519  -0.757  1.00  0.00     0.093 A 
ATOM     17  C   UNL     1      25.482  12.691   0.320  1.00  0.00     0.131 A 
ENDROOT
BRANCH   6  18
ATOM     18  O   UNL     1      22.926  14.587   4.525  1.00  0.00    -0.507 OA
ATOM     19  H   UNL     1      23.204  13.718   4.968  1.00  0.00     0.293 HD
ENDBRANCH   6  18
BRANCH  17  20
ATOM     20  O   UNL     1      24.473  11.737   0.478  1.00  0.00    -0.507 OA
ATOM     21  H   UNL     1      24.542  10.788   0.140  1.00  0.00     0.293 HD
ENDBRANCH  17  20
BRANCH  15  22
ATOM     22  O   UNL     1      28.179  13.283  -2.134  1.00  0.00    -0.508 OA
ATOM     23  H   UNL     1      28.254  13.967  -2.879  1.00  0.00     0.293 HD
ENDBRANCH  15  22
TORSDOF 3
ENDMDL
MODEL 8
REMARK VINA RESULT:    -5.657     13.594     15.367
REMARK INTER + INTRA:          -6.153
REMARK INTER:                  -6.153
REMARK INTRA:                   0.000
REMARK UNBOUND:                 0.000
REMARK SMILES Cc1cc(O)c2c(c1)C(=O)c1cc(O)cc(O)c1C2=O
REMARK SMILES IDX 1 1 2 2 8 3 7 4 6 5 4 6 3 7 19 8 20 9 18 10 11 11 9 12 10 13
REMARK SMILES IDX 12 14 13 15 15 16 16 17 5 18 17 20 14 22
REMARK H PARENT 5 19 17 21 14 23
REMARK Flexibility Score: inf
ROOT
ATOM      1  C   UNL     1      27.492  30.754 -10.653  1.00  0.00     0.044 C 
ATOM      2  C   UNL     1      27.838  30.504  -9.214  1.00  0.00    -0.047 A 
ATOM      3  C   UNL     1      26.833  30.183  -8.293  1.00  0.00     0.016 A 
ATOM      4  C   UNL     1      27.141  29.984  -6.937  1.00  0.00     0.038 A 
ATOM      5  C   UNL     1      28.473  30.115  -6.493  1.00  0.00     0.076 A 
ATOM      6  C   UNL     1      29.481  30.468  -7.420  1.00  0.00     0.127 A 
ATOM      7  C   UNL     1      29.154  30.663  -8.769  1.00  0.00     0.050 A 
ATOM      8  C   UNL     1      28.788  29.862  -5.063  1.00  0.00     0.201 C 
ATOM      9  O   UNL     1      29.977  29.616  -4.724  1.00  0.00    -0.288 OA
ATOM     10  C   UNL     1      27.692  29.783  -4.056  1.00  0.00     0.076 A 
ATOM     11  C   UNL     1      26.368  29.591  -4.519  1.00  0.00     0.041 A 
ATOM     12  C   UNL     1      26.073  29.637  -5.971  1.00  0.00     0.194 C 
ATOM     13  O   UNL     1      24.905  29.397  -6.385  1.00  0.00    -0.289 OA
ATOM     14  C   UNL     1      25.331  29.366  -3.598  1.00  0.00     0.059 A 
ATOM     15  C   UNL     1      25.591  29.346  -2.226  1.00  0.00     0.120 A 
ATOM     16  C   UNL     1      26.884  29.581  -1.763  1.00  0.00     0.093 A 
ATOM     17  C   UNL     1      27.931  29.834  -2.656  1.00  0.00     0.131 A 
ENDROOT
BRANCH   6  18
ATOM     18  O   UNL     1      30.802  30.635  -7.006  1.00  0.00    -0.507 OA
ATOM     19  H   UNL     1      31.154  31.533  -6.693  1.00  0.00     0.293 HD
ENDBRANCH   6  18
BRANCH  17  20
ATOM     20  O   UNL     1      29.171  30.166  -2.106  1.00  0.00    -0.507 OA
ATOM     21  H   UNL     1      29.599  31.076  -2.196  1.00  0.00     0.293 HD
ENDBRANCH  17  20
BRANCH  15  22
ATOM     22  O   UNL     1      24.568  29.107  -1.312  1.00  0.00    -0.508 OA
ATOM     23  H   UNL     1      23.668  29.567  -1.391  1.00  0.00     0.293 HD
ENDBRANCH  15  22
TORSDOF 3
ENDMDL
MODEL 9
REMARK VINA RESULT:    -5.488     15.821     16.910
REMARK INTER + INTRA:          -5.969
REMARK INTER:                  -5.969
REMARK INTRA:                   0.000
REMARK UNBOUND:                 0.000
REMARK SMILES Cc1cc(O)c2c(c1)C(=O)c1cc(O)cc(O)c1C2=O
REMARK SMILES IDX 1 1 2 2 8 3 7 4 6 5 4 6 3 7 19 8 20 9 18 10 11 11 9 12 10 13
REMARK SMILES IDX 12 14 13 15 15 16 16 17 5 18 17 20 14 22
REMARK H PARENT 5 19 17 21 14 23
REMARK Flexibility Score: inf
ROOT
ATOM      1  C   UNL     1      26.679  13.001  -1.382  1.00  0.00     0.044 C 
ATOM      2  C   UNL     1      26.406  13.768  -0.122  1.00  0.00    -0.047 A 
ATOM      3  C   UNL     1      25.524  13.257   0.837  1.00  0.00     0.016 A 
ATOM      4  C   UNL     1      25.233  13.985   2.003  1.00  0.00     0.038 A 
ATOM      5  C   UNL     1      25.829  15.247   2.210  1.00  0.00     0.076 A 
ATOM      6  C   UNL     1      26.698  15.772   1.226  1.00  0.00     0.127 A 
ATOM      7  C   UNL     1      26.975  15.031   0.069  1.00  0.00     0.050 A 
ATOM      8  C   UNL     1      25.542  15.986   3.467  1.00  0.00     0.201 C 
ATOM      9  O   UNL     1      26.319  16.908   3.835  1.00  0.00    -0.288 OA
ATOM     10  C   UNL     1      24.415  15.564   4.345  1.00  0.00     0.076 A 
ATOM     11  C   UNL     1      23.869  14.271   4.161  1.00  0.00     0.041 A 
ATOM     12  C   UNL     1      24.303  13.435   3.016  1.00  0.00     0.194 C 
ATOM     13  O   UNL     1      23.867  12.257   2.895  1.00  0.00    -0.289 OA
ATOM     14  C   UNL     1      22.906  13.784   5.061  1.00  0.00     0.059 A 
ATOM     15  C   UNL     1      22.469  14.570   6.129  1.00  0.00     0.120 A 
ATOM     16  C   UNL     1      22.969  15.861   6.287  1.00  0.00     0.093 A 
ATOM     17  C   UNL     1      23.908  16.382   5.390  1.00  0.00     0.131 A 
ENDROOT
BRANCH   6  18
ATOM     18  O   UNL     1      27.279  17.030   1.387  1.00  0.00    -0.507 OA
ATOM     19  H   UNL     1      28.284  17.155   1.408  1.00  0.00     0.293 HD
ENDBRANCH   6  18
BRANCH  17  20
ATOM     20  O   UNL     1      24.274  17.720   5.557  1.00  0.00    -0.507 OA
ATOM     21  H   UNL     1      23.707  18.400   6.043  1.00  0.00     0.293 HD
ENDBRANCH  17  20
BRANCH  15  22
ATOM     22  O   UNL     1      21.528  14.083   7.032  1.00  0.00    -0.508 OA
ATOM     23  H   UNL     1      20.609  14.503   7.119  1.00  0.00     0.293 HD
ENDBRANCH  15  22
TORSDOF 3
ENDMDL
