MODEL 1
REMARK VINA RESULT:    -5.650      0.000      0.000
REMARK INTER + INTRA:          -6.146
REMARK INTER:                  -6.146
REMARK INTRA:                   0.000
REMARK UNBOUND:                 0.000
REMARK SMILES Cc1cc(O)c2c(c1)C(=O)c1cc(O)cc(O)c1C2=O
REMARK SMILES IDX 1 1 2 2 8 3 7 4 6 5 4 6 3 7 19 8 20 9 18 10 11 11 9 12 10 13
REMARK SMILES IDX 12 14 13 15 15 16 16 17 5 18 17 20 14 22
REMARK H PARENT 5 19 17 21 14 23
REMARK Flexibility Score: inf
ROOT
ATOM      1  C   UNL     1     179.551 172.488 172.500  1.00  0.00     0.044 C 
ATOM      2  C   UNL     1     178.141 171.975 172.524  1.00  0.00    -0.047 A 
ATOM      3  C   UNL     1     177.730 171.001 171.606  1.00  0.00     0.016 A 
ATOM      4  C   UNL     1     176.425 170.483 171.648  1.00  0.00     0.038 A 
ATOM      5  C   UNL     1     175.523 170.926 172.643  1.00  0.00     0.076 A 
ATOM      6  C   UNL     1     175.931 171.946 173.541  1.00  0.00     0.127 A 
ATOM      7  C   UNL     1     177.240 172.433 173.492  1.00  0.00     0.050 A 
ATOM      8  C   UNL     1     174.205 170.249 172.746  1.00  0.00     0.201 C 
ATOM      9  O   UNL     1     173.630 170.164 173.864  1.00  0.00    -0.288 OA
ATOM     10  C   UNL     1     173.660 169.511 171.577  1.00  0.00     0.076 A 
ATOM     11  C   UNL     1     174.566 169.069 170.586  1.00  0.00     0.041 A 
ATOM     12  C   UNL     1     175.989 169.474 170.653  1.00  0.00     0.194 C 
ATOM     13  O   UNL     1     176.825 168.980 169.847  1.00  0.00    -0.289 OA
ATOM     14  C   UNL     1     174.110 168.252 169.538  1.00  0.00     0.059 A 
ATOM     15  C   UNL     1     172.764 167.884 169.459  1.00  0.00     0.120 A 
ATOM     16  C   UNL     1     171.860 168.351 170.413  1.00  0.00     0.093 A 
ATOM     17  C   UNL     1     172.285 169.182 171.454  1.00  0.00     0.131 A 
ENDROOT
BRANCH   6  18
ATOM     18  O   UNL     1     175.064 172.525 174.469  1.00  0.00    -0.507 OA
ATOM     19  H   UNL     1     175.284 173.359 174.995  1.00  0.00     0.293 HD
ENDBRANCH   6  18
BRANCH  17  20
ATOM     20  O   UNL     1     171.307 169.684 172.317  1.00  0.00    -0.507 OA
ATOM     21  H   UNL     1     170.320 169.689 172.101  1.00  0.00     0.293 HD
ENDBRANCH  17  20
BRANCH  15  22
ATOM     22  O   UNL     1     172.310 167.064 168.428  1.00  0.00    -0.508 OA
ATOM     23  H   UNL     1     171.339 167.065 168.138  1.00  0.00     0.293 HD
ENDBRANCH  15  22
TORSDOF 3
ENDMDL
MODEL 2
REMARK VINA RESULT:    -5.563      1.362      3.337
REMARK INTER + INTRA:          -6.051
REMARK INTER:                  -6.051
REMARK INTRA:                   0.000
REMARK UNBOUND:                 0.000
REMARK SMILES Cc1cc(O)c2c(c1)C(=O)c1cc(O)cc(O)c1C2=O
REMARK SMILES IDX 1 1 2 2 8 3 7 4 6 5 4 6 3 7 19 8 20 9 18 10 11 11 9 12 10 13
REMARK SMILES IDX 12 14 13 15 15 16 16 17 5 18 17 20 14 22
REMARK H PARENT 5 19 17 21 14 23
REMARK Flexibility Score: inf
ROOT
ATOM      1  C   UNL     1     178.356 173.250 173.888  1.00  0.00     0.044 C 
ATOM      2  C   UNL     1     177.563 172.197 173.170  1.00  0.00    -0.047 A 
ATOM      3  C   UNL     1     176.255 171.904 173.572  1.00  0.00     0.016 A 
ATOM      4  C   UNL     1     175.489 170.951 172.878  1.00  0.00     0.038 A 
ATOM      5  C   UNL     1     176.033 170.299 171.749  1.00  0.00     0.076 A 
ATOM      6  C   UNL     1     177.375 170.566 171.374  1.00  0.00     0.127 A 
ATOM      7  C   UNL     1     178.110 171.532 172.067  1.00  0.00     0.050 A 
ATOM      8  C   UNL     1     175.143 169.410 170.957  1.00  0.00     0.201 C 
ATOM      9  O   UNL     1     175.335 169.273 169.719  1.00  0.00    -0.288 OA
ATOM     10  C   UNL     1     173.923 168.838 171.584  1.00  0.00     0.076 A 
ATOM     11  C   UNL     1     173.383 169.494 172.713  1.00  0.00     0.041 A 
ATOM     12  C   UNL     1     174.115 170.626 173.329  1.00  0.00     0.194 C 
ATOM     13  O   UNL     1     173.579 171.295 174.255  1.00  0.00    -0.289 OA
ATOM     14  C   UNL     1     172.157 169.067 173.250  1.00  0.00     0.059 A 
ATOM     15  C   UNL     1     171.473 167.986 172.685  1.00  0.00     0.120 A 
ATOM     16  C   UNL     1     172.023 167.311 171.595  1.00  0.00     0.093 A 
ATOM     17  C   UNL     1     173.252 167.705 171.055  1.00  0.00     0.131 A 
ENDROOT
BRANCH   6  18
ATOM     18  O   UNL     1     178.025 169.875 170.350  1.00  0.00    -0.507 OA
ATOM     19  H   UNL     1     178.570 170.327 169.629  1.00  0.00     0.293 HD
ENDBRANCH   6  18
BRANCH  17  20
ATOM     20  O   UNL     1     173.782 166.925 170.024  1.00  0.00    -0.507 OA
ATOM     21  H   UNL     1     174.714 167.048 169.654  1.00  0.00     0.293 HD
ENDBRANCH  17  20
BRANCH  15  22
ATOM     22  O   UNL     1     170.252 167.567 173.206  1.00  0.00    -0.508 OA
ATOM     23  H   UNL     1     170.108 167.470 174.205  1.00  0.00     0.293 HD
ENDBRANCH  15  22
TORSDOF 3
ENDMDL
MODEL 3
REMARK VINA RESULT:    -5.471      1.272      1.491
REMARK INTER + INTRA:          -5.951
REMARK INTER:                  -5.951
REMARK INTRA:                   0.000
REMARK UNBOUND:                 0.000
REMARK SMILES Cc1cc(O)c2c(c1)C(=O)c1cc(O)cc(O)c1C2=O
REMARK SMILES IDX 1 1 2 2 8 3 7 4 6 5 4 6 3 7 19 8 20 9 18 10 11 11 9 12 10 13
REMARK SMILES IDX 12 14 13 15 15 16 16 17 5 18 17 20 14 22
REMARK H PARENT 5 19 17 21 14 23
REMARK Flexibility Score: inf
ROOT
ATOM      1  C   UNL     1     178.948 172.658 172.646  1.00  0.00     0.044 C 
ATOM      2  C   UNL     1     177.737 171.798 172.425  1.00  0.00    -0.047 A 
ATOM      3  C   UNL     1     177.736 170.829 171.416  1.00  0.00     0.016 A 
ATOM      4  C   UNL     1     176.624 169.990 171.230  1.00  0.00     0.038 A 
ATOM      5  C   UNL     1     175.505 170.105 172.086  1.00  0.00     0.076 A 
ATOM      6  C   UNL     1     175.494 171.119 173.078  1.00  0.00     0.127 A 
ATOM      7  C   UNL     1     176.619 171.929 173.256  1.00  0.00     0.050 A 
ATOM      8  C   UNL     1     174.415 169.104 171.952  1.00  0.00     0.201 C 
ATOM      9  O   UNL     1     173.730 168.785 172.962  1.00  0.00    -0.288 OA
ATOM     10  C   UNL     1     174.258 168.348 170.683  1.00  0.00     0.076 A 
ATOM     11  C   UNL     1     175.380 168.235 169.831  1.00  0.00     0.041 A 
ATOM     12  C   UNL     1     176.619 168.987 170.139  1.00  0.00     0.194 C 
ATOM     13  O   UNL     1     177.662 168.792 169.456  1.00  0.00    -0.289 OA
ATOM     14  C   UNL     1     175.313 167.415 168.692  1.00  0.00     0.059 A 
ATOM     15  C   UNL     1     174.139 166.721 168.386  1.00  0.00     0.120 A 
ATOM     16  C   UNL     1     173.017 166.861 169.203  1.00  0.00     0.093 A 
ATOM     17  C   UNL     1     173.053 167.687 170.331  1.00  0.00     0.131 A 
ENDROOT
BRANCH   6  18
ATOM     18  O   UNL     1     174.381 171.379 173.880  1.00  0.00    -0.507 OA
ATOM     19  H   UNL     1     173.656 172.038 173.634  1.00  0.00     0.293 HD
ENDBRANCH   6  18
BRANCH  17  20
ATOM     20  O   UNL     1     171.864 167.849 171.049  1.00  0.00    -0.507 OA
ATOM     21  H   UNL     1     171.470 168.750 171.280  1.00  0.00     0.293 HD
ENDBRANCH  17  20
BRANCH  15  22
ATOM     22  O   UNL     1     174.072 165.898 167.265  1.00  0.00    -0.508 OA
ATOM     23  H   UNL     1     173.826 164.918 167.341  1.00  0.00     0.293 HD
ENDBRANCH  15  22
TORSDOF 3
ENDMDL
MODEL 4
REMARK VINA RESULT:    -5.461      1.557      6.231
REMARK INTER + INTRA:          -5.940
REMARK INTER:                  -5.940
REMARK INTRA:                   0.000
REMARK UNBOUND:                 0.000
REMARK SMILES Cc1cc(O)c2c(c1)C(=O)c1cc(O)cc(O)c1C2=O
REMARK SMILES IDX 1 1 2 2 8 3 7 4 6 5 4 6 3 7 19 8 20 9 18 10 11 11 9 12 10 13
REMARK SMILES IDX 12 14 13 15 15 16 16 17 5 18 17 20 14 22
REMARK H PARENT 5 19 17 21 14 23
REMARK Flexibility Score: inf
ROOT
ATOM      1  C   UNL     1     169.945 169.048 172.886  1.00  0.00     0.044 C 
ATOM      2  C   UNL     1     171.388 169.175 172.493  1.00  0.00    -0.047 A 
ATOM      3  C   UNL     1     172.233 170.049 173.187  1.00  0.00     0.016 A 
ATOM      4  C   UNL     1     173.595 170.143 172.855  1.00  0.00     0.038 A 
ATOM      5  C   UNL     1     174.127 169.329 171.829  1.00  0.00     0.076 A 
ATOM      6  C   UNL     1     173.256 168.480 171.098  1.00  0.00     0.127 A 
ATOM      7  C   UNL     1     171.909 168.389 171.459  1.00  0.00     0.050 A 
ATOM      8  C   UNL     1     175.596 169.350 171.608  1.00  0.00     0.201 C 
ATOM      9  O   UNL     1     176.179 168.321 171.174  1.00  0.00    -0.288 OA
ATOM     10  C   UNL     1     176.397 170.512 172.075  1.00  0.00     0.076 A 
ATOM     11  C   UNL     1     175.861 171.321 173.102  1.00  0.00     0.041 A 
ATOM     12  C   UNL     1     174.476 171.092 173.576  1.00  0.00     0.194 C 
ATOM     13  O   UNL     1     174.038 171.725 174.576  1.00  0.00    -0.289 OA
ATOM     14  C   UNL     1     176.643 172.344 173.666  1.00  0.00     0.059 A 
ATOM     15  C   UNL     1     177.943 172.577 173.207  1.00  0.00     0.120 A 
ATOM     16  C   UNL     1     178.460 171.806 172.167  1.00  0.00     0.093 A 
ATOM     17  C   UNL     1     177.694 170.796 171.576  1.00  0.00     0.131 A 
ENDROOT
BRANCH   6  18
ATOM     18  O   UNL     1     173.677 167.739 169.992  1.00  0.00    -0.507 OA
ATOM     19  H   UNL     1     173.445 166.766 169.850  1.00  0.00     0.293 HD
ENDBRANCH   6  18
BRANCH  17  20
ATOM     20  O   UNL     1     178.246 170.128 170.479  1.00  0.00    -0.507 OA
ATOM     21  H   UNL     1     178.840 169.315 170.562  1.00  0.00     0.293 HD
ENDBRANCH  17  20
BRANCH  15  22
ATOM     22  O   UNL     1     178.726 173.582 173.771  1.00  0.00    -0.508 OA
ATOM     23  H   UNL     1     179.040 173.531 174.733  1.00  0.00     0.293 HD
ENDBRANCH  15  22
TORSDOF 3
ENDMDL
MODEL 5
REMARK VINA RESULT:    -5.370      2.228      2.437
REMARK INTER + INTRA:          -5.841
REMARK INTER:                  -5.841
REMARK INTRA:                   0.000
REMARK UNBOUND:                 0.000
REMARK SMILES Cc1cc(O)c2c(c1)C(=O)c1cc(O)cc(O)c1C2=O
REMARK SMILES IDX 1 1 2 2 8 3 7 4 6 5 4 6 3 7 19 8 20 9 18 10 11 11 9 12 10 13
REMARK SMILES IDX 12 14 13 15 15 16 16 17 5 18 17 20 14 22
REMARK H PARENT 5 19 17 21 14 23
REMARK Flexibility Score: inf
ROOT
ATOM      1  C   UNL     1     178.780 172.157 174.388  1.00  0.00     0.044 C 
ATOM      2  C   UNL     1     177.777 171.783 173.336  1.00  0.00    -0.047 A 
ATOM      3  C   UNL     1     177.304 170.469 173.250  1.00  0.00     0.016 A 
ATOM      4  C   UNL     1     176.332 170.118 172.297  1.00  0.00     0.038 A 
ATOM      5  C   UNL     1     175.805 171.106 171.433  1.00  0.00     0.076 A 
ATOM      6  C   UNL     1     176.322 172.426 171.495  1.00  0.00     0.127 A 
ATOM      7  C   UNL     1     177.274 172.754 172.464  1.00  0.00     0.050 A 
ATOM      8  C   UNL     1     174.677 170.728 170.543  1.00  0.00     0.201 C 
ATOM      9  O   UNL     1     173.825 171.596 170.210  1.00  0.00    -0.288 OA
ATOM     10  C   UNL     1     174.449 169.300 170.205  1.00  0.00     0.076 A 
ATOM     11  C   UNL     1     174.977 168.316 171.072  1.00  0.00     0.041 A 
ATOM     12  C   UNL     1     175.859 168.717 172.193  1.00  0.00     0.194 C 
ATOM     13  O   UNL     1     176.228 167.861 173.043  1.00  0.00    -0.289 OA
ATOM     14  C   UNL     1     174.667 166.962 170.863  1.00  0.00     0.059 A 
ATOM     15  C   UNL     1     173.852 166.577 169.794  1.00  0.00     0.120 A 
ATOM     16  C   UNL     1     173.362 167.541 168.913  1.00  0.00     0.093 A 
ATOM     17  C   UNL     1     173.672 168.894 169.088  1.00  0.00     0.131 A 
ENDROOT
BRANCH   6  18
ATOM     18  O   UNL     1     175.945 173.427 170.597  1.00  0.00    -0.507 OA
ATOM     19  H   UNL     1     176.138 173.390 169.606  1.00  0.00     0.293 HD
ENDBRANCH   6  18
BRANCH  17  20
ATOM     20  O   UNL     1     173.222 169.789 168.115  1.00  0.00    -0.507 OA
ATOM     21  H   UNL     1     172.298 169.751 167.706  1.00  0.00     0.293 HD
ENDBRANCH  17  20
BRANCH  15  22
ATOM     22  O   UNL     1     173.533 165.236 169.591  1.00  0.00    -0.508 OA
ATOM     23  H   UNL     1     173.856 164.513 170.223  1.00  0.00     0.293 HD
ENDBRANCH  15  22
TORSDOF 3
ENDMDL
MODEL 6
REMARK VINA RESULT:    -5.334      1.984      5.490
REMARK INTER + INTRA:          -5.802
REMARK INTER:                  -5.802
REMARK INTRA:                   0.000
REMARK UNBOUND:                 0.000
REMARK SMILES Cc1cc(O)c2c(c1)C(=O)c1cc(O)cc(O)c1C2=O
REMARK SMILES IDX 1 1 2 2 8 3 7 4 6 5 4 6 3 7 19 8 20 9 18 10 11 11 9 12 10 13
REMARK SMILES IDX 12 14 13 15 15 16 16 17 5 18 17 20 14 22
REMARK H PARENT 5 19 17 21 14 23
REMARK Flexibility Score: inf
ROOT
ATOM      1  C   UNL     1     176.499 165.419 168.331  1.00  0.00     0.044 C 
ATOM      2  C   UNL     1     176.117 166.508 169.290  1.00  0.00    -0.047 A 
ATOM      3  C   UNL     1     176.986 167.580 169.520  1.00  0.00     0.016 A 
ATOM      4  C   UNL     1     176.619 168.627 170.383  1.00  0.00     0.038 A 
ATOM      5  C   UNL     1     175.350 168.614 171.006  1.00  0.00     0.076 A 
ATOM      6  C   UNL     1     174.493 167.502 170.805  1.00  0.00     0.127 A 
ATOM      7  C   UNL     1     174.872 166.482 169.927  1.00  0.00     0.050 A 
ATOM      8  C   UNL     1     174.943 169.807 171.791  1.00  0.00     0.201 C 
ATOM      9  O   UNL     1     173.724 170.118 171.872  1.00  0.00    -0.288 OA
ATOM     10  C   UNL     1     175.978 170.734 172.318  1.00  0.00     0.076 A 
ATOM     11  C   UNL     1     177.245 170.744 171.691  1.00  0.00     0.041 A 
ATOM     12  C   UNL     1     177.559 169.744 170.644  1.00  0.00     0.194 C 
ATOM     13  O   UNL     1     178.636 169.828 169.994  1.00  0.00    -0.289 OA
ATOM     14  C   UNL     1     178.203 171.700 172.069  1.00  0.00     0.059 A 
ATOM     15  C   UNL     1     177.919 172.632 173.071  1.00  0.00     0.120 A 
ATOM     16  C   UNL     1     176.685 172.600 173.719  1.00  0.00     0.093 A 
ATOM     17  C   UNL     1     175.721 171.645 173.375  1.00  0.00     0.131 A 
ENDROOT
BRANCH   6  18
ATOM     18  O   UNL     1     173.279 167.353 171.478  1.00  0.00    -0.507 OA
ATOM     19  H   UNL     1     172.466 166.909 171.074  1.00  0.00     0.293 HD
ENDBRANCH   6  18
BRANCH  17  20
ATOM     20  O   UNL     1     174.545 171.616 174.130  1.00  0.00    -0.507 OA
ATOM     21  H   UNL     1     173.654 171.945 173.786  1.00  0.00     0.293 HD
ENDBRANCH  17  20
BRANCH  15  22
ATOM     22  O   UNL     1     178.862 173.589 173.439  1.00  0.00    -0.508 OA
ATOM     23  H   UNL     1     179.315 174.179 172.751  1.00  0.00     0.293 HD
ENDBRANCH  15  22
TORSDOF 3
ENDMDL
MODEL 7
REMARK VINA RESULT:    -5.254      2.100      3.683
REMARK INTER + INTRA:          -5.714
REMARK INTER:                  -5.714
REMARK INTRA:                   0.000
REMARK UNBOUND:                 0.000
REMARK SMILES Cc1cc(O)c2c(c1)C(=O)c1cc(O)cc(O)c1C2=O
REMARK SMILES IDX 1 1 2 2 8 3 7 4 6 5 4 6 3 7 19 8 20 9 18 10 11 11 9 12 10 13
REMARK SMILES IDX 12 14 13 15 15 16 16 17 5 18 17 20 14 22
REMARK H PARENT 5 19 17 21 14 23
REMARK Flexibility Score: inf
ROOT
ATOM      1  C   UNL     1     177.249 168.737 169.496  1.00  0.00     0.044 C 
ATOM      2  C   UNL     1     176.152 169.272 170.369  1.00  0.00    -0.047 A 
ATOM      3  C   UNL     1     174.814 168.994 170.068  1.00  0.00     0.016 A 
ATOM      4  C   UNL     1     173.781 169.453 170.904  1.00  0.00     0.038 A 
ATOM      5  C   UNL     1     174.094 170.180 172.075  1.00  0.00     0.076 A 
ATOM      6  C   UNL     1     175.449 170.498 172.350  1.00  0.00     0.127 A 
ATOM      7  C   UNL     1     176.460 170.014 171.515  1.00  0.00     0.050 A 
ATOM      8  C   UNL     1     172.987 170.519 173.006  1.00  0.00     0.201 C 
ATOM      9  O   UNL     1     173.216 170.622 174.241  1.00  0.00    -0.288 OA
ATOM     10  C   UNL     1     171.587 170.549 172.510  1.00  0.00     0.076 A 
ATOM     11  C   UNL     1     171.279 169.820 171.338  1.00  0.00     0.041 A 
ATOM     12  C   UNL     1     172.365 169.180 170.560  1.00  0.00     0.194 C 
ATOM     13  O   UNL     1     172.085 168.424 169.590  1.00  0.00    -0.289 OA
ATOM     14  C   UNL     1     169.944 169.711 170.915  1.00  0.00     0.059 A 
ATOM     15  C   UNL     1     168.918 170.330 171.634  1.00  0.00     0.120 A 
ATOM     16  C   UNL     1     169.223 171.083 172.768  1.00  0.00     0.093 A 
ATOM     17  C   UNL     1     170.546 171.224 173.199  1.00  0.00     0.131 A 
ENDROOT
BRANCH   6  18
ATOM     18  O   UNL     1     175.831 171.315 173.417  1.00  0.00    -0.507 OA
ATOM     19  H   UNL     1     175.293 172.109 173.733  1.00  0.00     0.293 HD
ENDBRANCH   6  18
BRANCH  17  20
ATOM     20  O   UNL     1     170.783 172.068 174.287  1.00  0.00    -0.507 OA
ATOM     21  H   UNL     1     170.433 171.889 175.218  1.00  0.00     0.293 HD
ENDBRANCH  17  20
BRANCH  15  22
ATOM     22  O   UNL     1     167.592 170.214 171.224  1.00  0.00    -0.508 OA
ATOM     23  H   UNL     1     167.346 169.786 170.339  1.00  0.00     0.293 HD
ENDBRANCH  15  22
TORSDOF 3
ENDMDL
MODEL 8
REMARK VINA RESULT:    -5.226      3.306      5.313
REMARK INTER + INTRA:          -5.685
REMARK INTER:                  -5.685
REMARK INTRA:                   0.000
REMARK UNBOUND:                 0.000
REMARK SMILES Cc1cc(O)c2c(c1)C(=O)c1cc(O)cc(O)c1C2=O
REMARK SMILES IDX 1 1 2 2 8 3 7 4 6 5 4 6 3 7 19 8 20 9 18 10 11 11 9 12 10 13
REMARK SMILES IDX 12 14 13 15 15 16 16 17 5 18 17 20 14 22
REMARK H PARENT 5 19 17 21 14 23
REMARK Flexibility Score: inf
ROOT
ATOM      1  C   UNL     1     172.943 170.255 173.830  1.00  0.00     0.044 C 
ATOM      2  C   UNL     1     174.018 169.677 172.957  1.00  0.00    -0.047 A 
ATOM      3  C   UNL     1     173.978 168.326 172.593  1.00  0.00     0.016 A 
ATOM      4  C   UNL     1     174.956 167.785 171.740  1.00  0.00     0.038 A 
ATOM      5  C   UNL     1     175.975 168.616 171.221  1.00  0.00     0.076 A 
ATOM      6  C   UNL     1     176.036 169.973 171.630  1.00  0.00     0.127 A 
ATOM      7  C   UNL     1     175.042 170.493 172.464  1.00  0.00     0.050 A 
ATOM      8  C   UNL     1     176.899 168.042 170.209  1.00  0.00     0.201 C 
ATOM      9  O   UNL     1     177.405 168.789 169.328  1.00  0.00    -0.288 OA
ATOM     10  C   UNL     1     177.075 166.570 170.120  1.00  0.00     0.076 A 
ATOM     11  C   UNL     1     176.053 165.743 170.639  1.00  0.00     0.041 A 
ATOM     12  C   UNL     1     174.923 166.346 171.384  1.00  0.00     0.194 C 
ATOM     13  O   UNL     1     173.946 165.630 171.738  1.00  0.00    -0.289 OA
ATOM     14  C   UNL     1     176.116 164.352 170.452  1.00  0.00     0.059 A 
ATOM     15  C   UNL     1     177.191 163.776 169.768  1.00  0.00     0.120 A 
ATOM     16  C   UNL     1     178.221 164.585 169.288  1.00  0.00     0.093 A 
ATOM     17  C   UNL     1     178.191 165.971 169.480  1.00  0.00     0.131 A 
ENDROOT
BRANCH   6  18
ATOM     18  O   UNL     1     177.078 170.826 171.262  1.00  0.00    -0.507 OA
ATOM     19  H   UNL     1     176.953 171.809 171.064  1.00  0.00     0.293 HD
ENDBRANCH   6  18
BRANCH  17  20
ATOM     20  O   UNL     1     179.301 166.704 169.053  1.00  0.00    -0.507 OA
ATOM     21  H   UNL     1     179.541 166.839 168.080  1.00  0.00     0.293 HD
ENDBRANCH  17  20
BRANCH  15  22
ATOM     22  O   UNL     1     177.252 162.399 169.569  1.00  0.00    -0.508 OA
ATOM     23  H   UNL     1     177.008 161.747 170.305  1.00  0.00     0.293 HD
ENDBRANCH  15  22
TORSDOF 3
ENDMDL
MODEL 9
REMARK VINA RESULT:    -5.205     11.800     14.014
REMARK INTER + INTRA:          -5.661
REMARK INTER:                  -5.661
REMARK INTRA:                   0.000
REMARK UNBOUND:                 0.000
REMARK SMILES Cc1cc(O)c2c(c1)C(=O)c1cc(O)cc(O)c1C2=O
REMARK SMILES IDX 1 1 2 2 8 3 7 4 6 5 4 6 3 7 19 8 20 9 18 10 11 11 9 12 10 13
REMARK SMILES IDX 12 14 13 15 15 16 16 17 5 18 17 20 14 22
REMARK H PARENT 5 19 17 21 14 23
REMARK Flexibility Score: inf
ROOT
ATOM      1  C   UNL     1     164.091 163.109 180.314  1.00  0.00     0.044 C 
ATOM      2  C   UNL     1     165.288 162.258 180.002  1.00  0.00    -0.047 A 
ATOM      3  C   UNL     1     166.396 162.814 179.353  1.00  0.00     0.016 A 
ATOM      4  C   UNL     1     167.539 162.037 179.096  1.00  0.00     0.038 A 
ATOM      5  C   UNL     1     167.583 160.689 179.518  1.00  0.00     0.076 A 
ATOM      6  C   UNL     1     166.439 160.119 180.134  1.00  0.00     0.127 A 
ATOM      7  C   UNL     1     165.322 160.916 180.397  1.00  0.00     0.050 A 
ATOM      8  C   UNL     1     168.860 159.946 179.360  1.00  0.00     0.201 C 
ATOM      9  O   UNL     1     169.157 159.029 180.172  1.00  0.00    -0.288 OA
ATOM     10  C   UNL     1     169.866 160.409 178.369  1.00  0.00     0.076 A 
ATOM     11  C   UNL     1     169.818 161.758 177.950  1.00  0.00     0.041 A 
ATOM     12  C   UNL     1     168.697 162.625 178.382  1.00  0.00     0.194 C 
ATOM     13  O   UNL     1     168.716 163.859 178.118  1.00  0.00    -0.289 OA
ATOM     14  C   UNL     1     170.832 162.269 177.122  1.00  0.00     0.059 A 
ATOM     15  C   UNL     1     171.880 161.449 176.696  1.00  0.00     0.120 A 
ATOM     16  C   UNL     1     171.909 160.107 177.074  1.00  0.00     0.093 A 
ATOM     17  C   UNL     1     170.901 159.569 177.882  1.00  0.00     0.131 A 
ENDROOT
BRANCH   6  18
ATOM     18  O   UNL     1     166.356 158.765 180.468  1.00  0.00    -0.507 OA
ATOM     19  H   UNL     1     167.076 158.270 180.975  1.00  0.00     0.293 HD
ENDBRANCH   6  18
BRANCH  17  20
ATOM     20  O   UNL     1     170.948 158.197 178.144  1.00  0.00    -0.507 OA
ATOM     21  H   UNL     1     171.304 157.516 177.488  1.00  0.00     0.293 HD
ENDBRANCH  17  20
BRANCH  15  22
ATOM     22  O   UNL     1     172.893 161.954 175.885  1.00  0.00    -0.508 OA
ATOM     23  H   UNL     1     172.871 162.907 175.541  1.00  0.00     0.293 HD
ENDBRANCH  15  22
TORSDOF 3
ENDMDL
