MODEL 1
REMARK VINA RESULT:    -6.980      0.000      0.000
REMARK INTER + INTRA:          -8.489
REMARK INTER:                  -8.205
REMARK INTRA:                  -0.284
REMARK UNBOUND:                -0.284
REMARK SMILES O=c1c(O)c(-c2ccc(O)cc2)oc2cc(O)cc(O)c12
REMARK SMILES IDX 5 1 3 2 2 3 1 4 21 5 19 6 18 7 16 8 15 9 14 10 13 11 6 12
REMARK SMILES IDX 7 13 8 14 9 15 12 16 11 17 10 18 4 20 20 22 17 24
REMARK H PARENT 10 19 4 21 20 23 17 25
REMARK Flexibility Score: inf
ROOT
ATOM      1  C   UNL     1      -4.877  36.036  59.971  1.00  0.00     0.180 A 
ATOM      2  C   UNL     1      -6.129  35.956  59.331  1.00  0.00     0.208 A 
ATOM      3  C   UNL     1      -6.938  37.102  59.277  1.00  0.00     0.238 A 
ATOM      4  O   UNL     1      -8.056  37.045  58.697  1.00  0.00    -0.285 OA
ATOM      5  C   UNL     1      -6.493  38.298  59.877  1.00  0.00     0.111 A 
ATOM      6  C   UNL     1      -7.248  39.496  59.869  1.00  0.00     0.134 A 
ATOM      7  C   UNL     1      -6.740  40.643  60.496  1.00  0.00     0.093 A 
ATOM      8  C   UNL     1      -5.495  40.616  61.130  1.00  0.00     0.123 A 
ATOM      9  C   UNL     1      -4.744  39.436  61.140  1.00  0.00     0.094 A 
ATOM     10  C   UNL     1      -5.233  38.282  60.520  1.00  0.00     0.146 A 
ATOM     11  O   UNL     1      -4.497  37.177  60.539  1.00  0.00    -0.452 OA
ENDROOT
BRANCH   1  12
ATOM     12  C   UNL     1      -3.960  34.876  60.054  1.00  0.00     0.021 A 
ATOM     13  C   UNL     1      -3.881  34.142  61.249  1.00  0.00     0.016 A 
ATOM     14  C   UNL     1      -3.006  33.057  61.357  1.00  0.00     0.047 A 
ATOM     15  C   UNL     1      -2.187  32.703  60.276  1.00  0.00     0.115 A 
ATOM     16  C   UNL     1      -3.120  34.527  58.981  1.00  0.00     0.016 A 
ATOM     17  C   UNL     1      -2.245  33.443  59.092  1.00  0.00     0.047 A 
BRANCH  15  18
ATOM     18  O   UNL     1      -1.311  31.625  60.372  1.00  0.00    -0.508 OA
ATOM     19  H   UNL     1      -1.575  30.768  60.845  1.00  0.00     0.293 HD
ENDBRANCH  15  18
ENDBRANCH   1  12
BRANCH   2  20
ATOM     20  O   UNL     1      -6.569  34.746  58.788  1.00  0.00    -0.502 OA
ATOM     21  H   UNL     1      -7.550  34.537  58.651  1.00  0.00     0.293 HD
ENDBRANCH   2  20
BRANCH   6  22
ATOM     22  O   UNL     1      -8.496  39.555  59.245  1.00  0.00    -0.507 OA
ATOM     23  H   UNL     1      -8.713  40.262  58.554  1.00  0.00     0.293 HD
ENDBRANCH   6  22
BRANCH   8  24
ATOM     24  O   UNL     1      -5.013  41.769  61.747  1.00  0.00    -0.508 OA
ATOM     25  H   UNL     1      -4.044  42.051  61.659  1.00  0.00     0.293 HD
ENDBRANCH   8  24
TORSDOF 5
ENDMDL
MODEL 2
REMARK VINA RESULT:    -6.601      1.563      6.335
REMARK INTER + INTRA:          -8.043
REMARK INTER:                  -7.978
REMARK INTRA:                  -0.064
REMARK UNBOUND:                -0.284
REMARK SMILES O=c1c(O)c(-c2ccc(O)cc2)oc2cc(O)cc(O)c12
REMARK SMILES IDX 5 1 3 2 2 3 1 4 21 5 19 6 18 7 16 8 15 9 14 10 13 11 6 12
REMARK SMILES IDX 7 13 8 14 9 15 12 16 11 17 10 18 4 20 20 22 17 24
REMARK H PARENT 10 19 4 21 20 23 17 25
REMARK Flexibility Score: inf
ROOT
ATOM      1  C   UNL     1      -5.039  38.874  60.230  1.00  0.00     0.180 A 
ATOM      2  C   UNL     1      -6.321  38.720  59.667  1.00  0.00     0.208 A 
ATOM      3  C   UNL     1      -6.729  37.444  59.249  1.00  0.00     0.238 A 
ATOM      4  O   UNL     1      -7.878  37.291  58.754  1.00  0.00    -0.285 OA
ATOM      5  C   UNL     1      -5.846  36.352  59.381  1.00  0.00     0.111 A 
ATOM      6  C   UNL     1      -6.179  35.034  58.982  1.00  0.00     0.134 A 
ATOM      7  C   UNL     1      -5.242  34.002  59.138  1.00  0.00     0.093 A 
ATOM      8  C   UNL     1      -3.982  34.260  59.684  1.00  0.00     0.123 A 
ATOM      9  C   UNL     1      -3.649  35.559  60.081  1.00  0.00     0.094 A 
ATOM     10  C   UNL     1      -4.569  36.602  59.935  1.00  0.00     0.146 A 
ATOM     11  O   UNL     1      -4.228  37.824  60.326  1.00  0.00    -0.452 OA
ENDROOT
BRANCH   1  12
ATOM     12  C   UNL     1      -4.543  40.184  60.711  1.00  0.00     0.021 A 
ATOM     13  C   UNL     1      -3.307  40.667  60.249  1.00  0.00     0.016 A 
ATOM     14  C   UNL     1      -2.810  41.891  60.708  1.00  0.00     0.047 A 
ATOM     15  C   UNL     1      -3.534  42.638  61.645  1.00  0.00     0.115 A 
ATOM     16  C   UNL     1      -5.254  40.931  61.668  1.00  0.00     0.016 A 
ATOM     17  C   UNL     1      -4.754  42.153  62.125  1.00  0.00     0.047 A 
BRANCH  15  18
ATOM     18  O   UNL     1      -3.048  43.858  62.109  1.00  0.00    -0.508 OA
ATOM     19  H   UNL     1      -2.534  43.928  62.979  1.00  0.00     0.293 HD
ENDBRANCH  15  18
ENDBRANCH   1  12
BRANCH   2  20
ATOM     20  O   UNL     1      -7.157  39.827  59.501  1.00  0.00    -0.502 OA
ATOM     21  H   UNL     1      -6.987  40.710  59.967  1.00  0.00     0.293 HD
ENDBRANCH   2  20
BRANCH   6  22
ATOM     22  O   UNL     1      -7.429  34.744  58.432  1.00  0.00    -0.507 OA
ATOM     23  H   UNL     1      -7.847  33.825  58.515  1.00  0.00     0.293 HD
ENDBRANCH   6  22
BRANCH   8  24
ATOM     24  O   UNL     1      -3.069  33.218  59.828  1.00  0.00    -0.508 OA
ATOM     25  H   UNL     1      -2.311  33.266  60.497  1.00  0.00     0.293 HD
ENDBRANCH   8  24
TORSDOF 5
ENDMDL
MODEL 3
REMARK VINA RESULT:    -6.451     15.686     17.059
REMARK INTER + INTRA:          -7.867
REMARK INTER:                  -7.653
REMARK INTRA:                  -0.214
REMARK UNBOUND:                -0.284
REMARK SMILES O=c1c(O)c(-c2ccc(O)cc2)oc2cc(O)cc(O)c12
REMARK SMILES IDX 5 1 3 2 2 3 1 4 21 5 19 6 18 7 16 8 15 9 14 10 13 11 6 12
REMARK SMILES IDX 7 13 8 14 9 15 12 16 11 17 10 18 4 20 20 22 17 24
REMARK H PARENT 10 19 4 21 20 23 17 25
REMARK Flexibility Score: inf
ROOT
ATOM      1  C   UNL     1     -16.864  27.740  52.097  1.00  0.00     0.180 A 
ATOM      2  C   UNL     1     -17.540  27.116  51.031  1.00  0.00     0.208 A 
ATOM      3  C   UNL     1     -17.864  27.875  49.896  1.00  0.00     0.238 A 
ATOM      4  O   UNL     1     -18.459  27.324  48.930  1.00  0.00    -0.285 OA
ATOM      5  C   UNL     1     -17.527  29.244  49.853  1.00  0.00     0.111 A 
ATOM      6  C   UNL     1     -17.821  30.080  48.749  1.00  0.00     0.134 A 
ATOM      7  C   UNL     1     -17.460  31.435  48.786  1.00  0.00     0.093 A 
ATOM      8  C   UNL     1     -16.815  31.969  49.904  1.00  0.00     0.123 A 
ATOM      9  C   UNL     1     -16.521  31.149  50.997  1.00  0.00     0.094 A 
ATOM     10  C   UNL     1     -16.871  29.795  50.979  1.00  0.00     0.146 A 
ATOM     11  O   UNL     1     -16.575  29.036  52.028  1.00  0.00    -0.452 OA
ENDROOT
BRANCH   1  12
ATOM     12  C   UNL     1     -16.471  27.002  53.319  1.00  0.00     0.021 A 
ATOM     13  C   UNL     1     -15.416  26.077  53.259  1.00  0.00     0.016 A 
ATOM     14  C   UNL     1     -15.044  25.353  54.395  1.00  0.00     0.047 A 
ATOM     15  C   UNL     1     -15.732  25.533  55.602  1.00  0.00     0.115 A 
ATOM     16  C   UNL     1     -17.171  27.162  54.529  1.00  0.00     0.016 A 
ATOM     17  C   UNL     1     -16.797  26.436  55.663  1.00  0.00     0.047 A 
BRANCH  15  18
ATOM     18  O   UNL     1     -15.370  24.817  56.740  1.00  0.00    -0.508 OA
ATOM     19  H   UNL     1     -16.044  24.263  57.255  1.00  0.00     0.293 HD
ENDBRANCH  15  18
ENDBRANCH   1  12
BRANCH   2  20
ATOM     20  O   UNL     1     -17.906  25.770  51.118  1.00  0.00    -0.502 OA
ATOM     21  H   UNL     1     -18.694  25.389  50.608  1.00  0.00     0.293 HD
ENDBRANCH   2  20
BRANCH   6  22
ATOM     22  O   UNL     1     -18.466  29.576  47.618  1.00  0.00    -0.507 OA
ATOM     23  H   UNL     1     -19.109  30.141  47.075  1.00  0.00     0.293 HD
ENDBRANCH   6  22
BRANCH   8  24
ATOM     24  O   UNL     1     -16.468  33.319  49.917  1.00  0.00    -0.508 OA
ATOM     25  H   UNL     1     -16.983  33.993  50.471  1.00  0.00     0.293 HD
ENDBRANCH   8  24
TORSDOF 5
ENDMDL
MODEL 4
REMARK VINA RESULT:    -6.401     15.573     16.907
REMARK INTER + INTRA:          -7.808
REMARK INTER:                  -7.550
REMARK INTRA:                  -0.258
REMARK UNBOUND:                -0.284
REMARK SMILES O=c1c(O)c(-c2ccc(O)cc2)oc2cc(O)cc(O)c12
REMARK SMILES IDX 5 1 3 2 2 3 1 4 21 5 19 6 18 7 16 8 15 9 14 10 13 11 6 12
REMARK SMILES IDX 7 13 8 14 9 15 12 16 11 17 10 18 4 20 20 22 17 24
REMARK H PARENT 10 19 4 21 20 23 17 25
REMARK Flexibility Score: inf
ROOT
ATOM      1  C   UNL     1     -16.213  27.946  51.935  1.00  0.00     0.180 A 
ATOM      2  C   UNL     1     -15.387  27.870  50.796  1.00  0.00     0.208 A 
ATOM      3  C   UNL     1     -15.665  28.701  49.700  1.00  0.00     0.238 A 
ATOM      4  O   UNL     1     -14.926  28.649  48.680  1.00  0.00    -0.285 OA
ATOM      5  C   UNL     1     -16.770  29.576  49.750  1.00  0.00     0.111 A 
ATOM      6  C   UNL     1     -17.120  30.443  48.687  1.00  0.00     0.134 A 
ATOM      7  C   UNL     1     -18.240  31.278  48.811  1.00  0.00     0.093 A 
ATOM      8  C   UNL     1     -19.016  31.262  49.973  1.00  0.00     0.123 A 
ATOM      9  C   UNL     1     -18.674  30.409  51.027  1.00  0.00     0.094 A 
ATOM     10  C   UNL     1     -17.560  29.569  50.924  1.00  0.00     0.146 A 
ATOM     11  O   UNL     1     -17.255  28.773  51.941  1.00  0.00    -0.452 OA
ENDROOT
BRANCH   1  12
ATOM     12  C   UNL     1     -15.974  27.116  53.137  1.00  0.00     0.021 A 
ATOM     13  C   UNL     1     -16.412  25.781  53.154  1.00  0.00     0.016 A 
ATOM     14  C   UNL     1     -16.216  24.986  54.287  1.00  0.00     0.047 A 
ATOM     15  C   UNL     1     -15.595  25.521  55.424  1.00  0.00     0.115 A 
ATOM     16  C   UNL     1     -15.370  27.651  54.290  1.00  0.00     0.016 A 
ATOM     17  C   UNL     1     -15.177  26.854  55.422  1.00  0.00     0.047 A 
BRANCH  15  18
ATOM     18  O   UNL     1     -15.396  24.738  56.558  1.00  0.00    -0.508 OA
ATOM     19  H   UNL     1     -14.511  24.737  57.053  1.00  0.00     0.293 HD
ENDBRANCH  15  18
ENDBRANCH   1  12
BRANCH   2  20
ATOM     20  O   UNL     1     -14.328  26.959  50.752  1.00  0.00    -0.502 OA
ATOM     21  H   UNL     1     -13.826  26.753  49.897  1.00  0.00     0.293 HD
ENDBRANCH   2  20
BRANCH   6  22
ATOM     22  O   UNL     1     -16.366  30.481  47.513  1.00  0.00    -0.507 OA
ATOM     23  H   UNL     1     -16.722  30.111  46.639  1.00  0.00     0.293 HD
ENDBRANCH   6  22
BRANCH   8  24
ATOM     24  O   UNL     1     -20.124  32.101  50.070  1.00  0.00    -0.508 OA
ATOM     25  H   UNL     1     -20.041  33.105  49.963  1.00  0.00     0.293 HD
ENDBRANCH   8  24
TORSDOF 5
ENDMDL
MODEL 5
REMARK VINA RESULT:    -6.308      1.500      3.276
REMARK INTER + INTRA:          -7.699
REMARK INTER:                  -7.409
REMARK INTRA:                  -0.290
REMARK UNBOUND:                -0.284
REMARK SMILES O=c1c(O)c(-c2ccc(O)cc2)oc2cc(O)cc(O)c12
REMARK SMILES IDX 5 1 3 2 2 3 1 4 21 5 19 6 18 7 16 8 15 9 14 10 13 11 6 12
REMARK SMILES IDX 7 13 8 14 9 15 12 16 11 17 10 18 4 20 20 22 17 24
REMARK H PARENT 10 19 4 21 20 23 17 25
REMARK Flexibility Score: inf
ROOT
ATOM      1  C   UNL     1      -3.635  35.229  60.831  1.00  0.00     0.180 A 
ATOM      2  C   UNL     1      -3.049  36.357  61.437  1.00  0.00     0.208 A 
ATOM      3  C   UNL     1      -3.690  37.601  61.320  1.00  0.00     0.238 A 
ATOM      4  O   UNL     1      -3.180  38.615  61.867  1.00  0.00    -0.285 OA
ATOM      5  C   UNL     1      -4.891  37.699  60.587  1.00  0.00     0.111 A 
ATOM      6  C   UNL     1      -5.598  38.914  60.418  1.00  0.00     0.134 A 
ATOM      7  C   UNL     1      -6.782  38.932  59.667  1.00  0.00     0.093 A 
ATOM      8  C   UNL     1      -7.271  37.762  59.081  1.00  0.00     0.123 A 
ATOM      9  C   UNL     1      -6.578  36.559  59.244  1.00  0.00     0.094 A 
ATOM     10  C   UNL     1      -5.397  36.520  59.991  1.00  0.00     0.146 A 
ATOM     11  O   UNL     1      -4.761  35.363  60.135  1.00  0.00    -0.452 OA
ENDROOT
BRANCH   1  12
ATOM     12  C   UNL     1      -3.029  33.882  60.925  1.00  0.00     0.021 A 
ATOM     13  C   UNL     1      -3.383  33.038  61.991  1.00  0.00     0.016 A 
ATOM     14  C   UNL     1      -2.806  31.770  62.112  1.00  0.00     0.047 A 
ATOM     15  C   UNL     1      -1.856  31.337  61.178  1.00  0.00     0.115 A 
ATOM     16  C   UNL     1      -2.060  33.447  60.003  1.00  0.00     0.016 A 
ATOM     17  C   UNL     1      -1.483  32.180  60.127  1.00  0.00     0.047 A 
BRANCH  15  18
ATOM     18  O   UNL     1      -1.275  30.076  61.288  1.00  0.00    -0.508 OA
ATOM     19  H   UNL     1      -1.597  29.402  61.973  1.00  0.00     0.293 HD
ENDBRANCH  15  18
ENDBRANCH   1  12
BRANCH   2  20
ATOM     20  O   UNL     1      -1.833  36.243  62.115  1.00  0.00    -0.502 OA
ATOM     21  H   UNL     1      -1.156  36.995  62.146  1.00  0.00     0.293 HD
ENDBRANCH   2  20
BRANCH   6  22
ATOM     22  O   UNL     1      -5.135  40.100  60.990  1.00  0.00    -0.507 OA
ATOM     23  H   UNL     1      -4.160  40.372  60.937  1.00  0.00     0.293 HD
ENDBRANCH   6  22
BRANCH   8  24
ATOM     24  O   UNL     1      -8.450  37.807  58.338  1.00  0.00    -0.508 OA
ATOM     25  H   UNL     1      -8.598  38.507  57.620  1.00  0.00     0.293 HD
ENDBRANCH   8  24
TORSDOF 5
ENDMDL
MODEL 6
REMARK VINA RESULT:    -6.197     15.803     17.108
REMARK INTER + INTRA:          -7.568
REMARK INTER:                  -7.290
REMARK INTRA:                  -0.277
REMARK UNBOUND:                -0.284
REMARK SMILES O=c1c(O)c(-c2ccc(O)cc2)oc2cc(O)cc(O)c12
REMARK SMILES IDX 5 1 3 2 2 3 1 4 21 5 19 6 18 7 16 8 15 9 14 10 13 11 6 12
REMARK SMILES IDX 7 13 8 14 9 15 12 16 11 17 10 18 4 20 20 22 17 24
REMARK H PARENT 10 19 4 21 20 23 17 25
REMARK Flexibility Score: inf
ROOT
ATOM      1  C   UNL     1     -16.612  29.280  50.382  1.00  0.00     0.180 A 
ATOM      2  C   UNL     1     -16.593  28.690  49.103  1.00  0.00     0.208 A 
ATOM      3  C   UNL     1     -16.659  29.520  47.973  1.00  0.00     0.238 A 
ATOM      4  O   UNL     1     -16.631  29.005  46.823  1.00  0.00    -0.285 OA
ATOM      5  C   UNL     1     -16.761  30.917  48.138  1.00  0.00     0.111 A 
ATOM      6  C   UNL     1     -16.836  31.822  47.052  1.00  0.00     0.134 A 
ATOM      7  C   UNL     1     -16.945  33.199  47.300  1.00  0.00     0.093 A 
ATOM      8  C   UNL     1     -16.983  33.686  48.608  1.00  0.00     0.123 A 
ATOM      9  C   UNL     1     -16.909  32.797  49.685  1.00  0.00     0.094 A 
ATOM     10  C   UNL     1     -16.798  31.422  49.460  1.00  0.00     0.146 A 
ATOM     11  O   UNL     1     -16.724  30.600  50.500  1.00  0.00    -0.452 OA
ENDROOT
BRANCH   1  12
ATOM     12  C   UNL     1     -16.527  28.474  51.621  1.00  0.00     0.021 A 
ATOM     13  C   UNL     1     -17.691  28.239  52.373  1.00  0.00     0.016 A 
ATOM     14  C   UNL     1     -17.630  27.500  53.558  1.00  0.00     0.047 A 
ATOM     15  C   UNL     1     -16.404  27.000  54.014  1.00  0.00     0.115 A 
ATOM     16  C   UNL     1     -15.297  27.986  52.097  1.00  0.00     0.016 A 
ATOM     17  C   UNL     1     -15.239  27.248  53.282  1.00  0.00     0.047 A 
BRANCH  15  18
ATOM     18  O   UNL     1     -16.332  26.262  55.194  1.00  0.00    -0.508 OA
ATOM     19  H   UNL     1     -16.817  25.378  55.296  1.00  0.00     0.293 HD
ENDBRANCH  15  18
ENDBRANCH   1  12
BRANCH   2  20
ATOM     20  O   UNL     1     -16.541  27.301  48.967  1.00  0.00    -0.502 OA
ATOM     21  H   UNL     1     -15.713  26.764  49.197  1.00  0.00     0.293 HD
ENDBRANCH   2  20
BRANCH   6  22
ATOM     22  O   UNL     1     -16.801  31.366  45.733  1.00  0.00    -0.507 OA
ATOM     23  H   UNL     1     -17.279  30.519  45.450  1.00  0.00     0.293 HD
ENDBRANCH   6  22
BRANCH   8  24
ATOM     24  O   UNL     1     -17.093  35.058  48.827  1.00  0.00    -0.508 OA
ATOM     25  H   UNL     1     -17.956  35.556  48.643  1.00  0.00     0.293 HD
ENDBRANCH   8  24
TORSDOF 5
ENDMDL
MODEL 7
REMARK VINA RESULT:    -6.154      1.810      7.076
REMARK INTER + INTRA:          -7.518
REMARK INTER:                  -7.451
REMARK INTRA:                  -0.066
REMARK UNBOUND:                -0.284
REMARK SMILES O=c1c(O)c(-c2ccc(O)cc2)oc2cc(O)cc(O)c12
REMARK SMILES IDX 5 1 3 2 2 3 1 4 21 5 19 6 18 7 16 8 15 9 14 10 13 11 6 12
REMARK SMILES IDX 7 13 8 14 9 15 12 16 11 17 10 18 4 20 20 22 17 24
REMARK H PARENT 10 19 4 21 20 23 17 25
REMARK Flexibility Score: inf
ROOT
ATOM      1  C   UNL     1      -4.266  35.974  59.694  1.00  0.00     0.180 A 
ATOM      2  C   UNL     1      -3.052  36.246  59.034  1.00  0.00     0.208 A 
ATOM      3  C   UNL     1      -2.017  35.300  59.101  1.00  0.00     0.238 A 
ATOM      4  O   UNL     1      -0.929  35.528  58.505  1.00  0.00    -0.285 OA
ATOM      5  C   UNL     1      -2.204  34.113  59.838  1.00  0.00     0.111 A 
ATOM      6  C   UNL     1      -1.211  33.111  59.958  1.00  0.00     0.134 A 
ATOM      7  C   UNL     1      -1.471  31.960  60.717  1.00  0.00     0.093 A 
ATOM      8  C   UNL     1      -2.701  31.793  61.358  1.00  0.00     0.123 A 
ATOM      9  C   UNL     1      -3.686  32.779  61.243  1.00  0.00     0.094 A 
ATOM     10  C   UNL     1      -3.447  33.933  60.490  1.00  0.00     0.146 A 
ATOM     11  O   UNL     1      -4.402  34.850  60.392  1.00  0.00    -0.452 OA
ENDROOT
BRANCH   1  12
ATOM     12  C   UNL     1      -5.410  36.914  59.655  1.00  0.00     0.021 A 
ATOM     13  C   UNL     1      -6.626  36.498  59.088  1.00  0.00     0.016 A 
ATOM     14  C   UNL     1      -7.712  37.376  59.020  1.00  0.00     0.047 A 
ATOM     15  C   UNL     1      -7.590  38.685  59.504  1.00  0.00     0.115 A 
ATOM     16  C   UNL     1      -5.289  38.236  60.120  1.00  0.00     0.016 A 
ATOM     17  C   UNL     1      -6.377  39.112  60.050  1.00  0.00     0.047 A 
BRANCH  15  18
ATOM     18  O   UNL     1      -8.666  39.568  59.442  1.00  0.00    -0.508 OA
ATOM     19  H   UNL     1      -9.101  39.933  60.281  1.00  0.00     0.293 HD
ENDBRANCH  15  18
ENDBRANCH   1  12
BRANCH   2  20
ATOM     20  O   UNL     1      -2.873  37.453  58.352  1.00  0.00    -0.502 OA
ATOM     21  H   UNL     1      -3.625  38.120  58.225  1.00  0.00     0.293 HD
ENDBRANCH   2  20
BRANCH   6  22
ATOM     22  O   UNL     1       0.028  33.249  59.330  1.00  0.00    -0.507 OA
ATOM     23  H   UNL     1       0.898  33.126  59.835  1.00  0.00     0.293 HD
ENDBRANCH   6  22
BRANCH   8  24
ATOM     24  O   UNL     1      -2.934  30.642  62.108  1.00  0.00    -0.508 OA
ATOM     25  H   UNL     1      -3.422  30.677  62.995  1.00  0.00     0.293 HD
ENDBRANCH   8  24
TORSDOF 5
ENDMDL
MODEL 8
REMARK VINA RESULT:    -6.084     16.052     17.712
REMARK INTER + INTRA:          -7.436
REMARK INTER:                  -7.141
REMARK INTRA:                  -0.294
REMARK UNBOUND:                -0.284
REMARK SMILES O=c1c(O)c(-c2ccc(O)cc2)oc2cc(O)cc(O)c12
REMARK SMILES IDX 5 1 3 2 2 3 1 4 21 5 19 6 18 7 16 8 15 9 14 10 13 11 6 12
REMARK SMILES IDX 7 13 8 14 9 15 12 16 11 17 10 18 4 20 20 22 17 24
REMARK H PARENT 10 19 4 21 20 23 17 25
REMARK Flexibility Score: inf
ROOT
ATOM      1  C   UNL     1     -16.933  26.708  52.529  1.00  0.00     0.180 A 
ATOM      2  C   UNL     1     -17.711  25.839  51.739  1.00  0.00     0.208 A 
ATOM      3  C   UNL     1     -17.938  26.167  50.393  1.00  0.00     0.238 A 
ATOM      4  O   UNL     1     -18.623  25.392  49.674  1.00  0.00    -0.285 OA
ATOM      5  C   UNL     1     -17.404  27.362  49.867  1.00  0.00     0.111 A 
ATOM      6  C   UNL     1     -17.590  27.767  48.523  1.00  0.00     0.134 A 
ATOM      7  C   UNL     1     -17.034  28.974  48.077  1.00  0.00     0.093 A 
ATOM      8  C   UNL     1     -16.298  29.784  48.946  1.00  0.00     0.123 A 
ATOM      9  C   UNL     1     -16.110  29.389  50.274  1.00  0.00     0.094 A 
ATOM     10  C   UNL     1     -16.656  28.188  50.738  1.00  0.00     0.146 A 
ATOM     11  O   UNL     1     -16.457  27.833  52.003  1.00  0.00    -0.452 OA
ENDROOT
BRANCH   1  12
ATOM     12  C   UNL     1     -16.633  26.423  53.951  1.00  0.00     0.021 A 
ATOM     13  C   UNL     1     -17.402  27.035  54.955  1.00  0.00     0.016 A 
ATOM     14  C   UNL     1     -17.122  26.797  56.304  1.00  0.00     0.047 A 
ATOM     15  C   UNL     1     -16.060  25.958  56.666  1.00  0.00     0.115 A 
ATOM     16  C   UNL     1     -15.556  25.598  54.322  1.00  0.00     0.016 A 
ATOM     17  C   UNL     1     -15.278  25.364  55.672  1.00  0.00     0.047 A 
BRANCH  15  18
ATOM     18  O   UNL     1     -15.772  25.714  58.007  1.00  0.00    -0.508 OA
ATOM     19  H   UNL     1     -15.363  24.838  58.310  1.00  0.00     0.293 HD
ENDBRANCH  15  18
ENDBRANCH   1  12
BRANCH   2  20
ATOM     20  O   UNL     1     -18.270  24.688  52.298  1.00  0.00    -0.502 OA
ATOM     21  H   UNL     1     -18.572  23.903  51.734  1.00  0.00     0.293 HD
ENDBRANCH   2  20
BRANCH   6  22
ATOM     22  O   UNL     1     -18.321  26.980  47.630  1.00  0.00    -0.507 OA
ATOM     23  H   UNL     1     -17.979  26.083  47.307  1.00  0.00     0.293 HD
ENDBRANCH   6  22
BRANCH   8  24
ATOM     24  O   UNL     1     -15.757  30.979  48.478  1.00  0.00    -0.508 OA
ATOM     25  H   UNL     1     -15.861  31.846  48.994  1.00  0.00     0.293 HD
ENDBRANCH   8  24
TORSDOF 5
ENDMDL
MODEL 9
REMARK VINA RESULT:    -6.013     15.801     17.669
REMARK INTER + INTRA:          -7.351
REMARK INTER:                  -7.158
REMARK INTRA:                  -0.193
REMARK UNBOUND:                -0.284
REMARK SMILES O=c1c(O)c(-c2ccc(O)cc2)oc2cc(O)cc(O)c12
REMARK SMILES IDX 5 1 3 2 2 3 1 4 21 5 19 6 18 7 16 8 15 9 14 10 13 11 6 12
REMARK SMILES IDX 7 13 8 14 9 15 12 16 11 17 10 18 4 20 20 22 17 24
REMARK H PARENT 10 19 4 21 20 23 17 25
REMARK Flexibility Score: inf
ROOT
ATOM      1  C   UNL     1     -16.207  26.534  52.295  1.00  0.00     0.180 A 
ATOM      2  C   UNL     1     -17.444  26.363  51.643  1.00  0.00     0.208 A 
ATOM      3  C   UNL     1     -17.501  26.514  50.248  1.00  0.00     0.238 A 
ATOM      4  O   UNL     1     -18.600  26.352  49.652  1.00  0.00    -0.285 OA
ATOM      5  C   UNL     1     -16.333  26.850  49.535  1.00  0.00     0.111 A 
ATOM      6  C   UNL     1     -16.306  27.024  48.130  1.00  0.00     0.134 A 
ATOM      7  C   UNL     1     -15.104  27.367  47.493  1.00  0.00     0.093 A 
ATOM      8  C   UNL     1     -13.932  27.542  48.232  1.00  0.00     0.123 A 
ATOM      9  C   UNL     1     -13.951  27.370  49.620  1.00  0.00     0.094 A 
ATOM     10  C   UNL     1     -15.139  27.027  50.273  1.00  0.00     0.146 A 
ATOM     11  O   UNL     1     -15.128  26.865  51.591  1.00  0.00    -0.452 OA
ENDROOT
BRANCH   1  12
ATOM     12  C   UNL     1     -16.062  26.374  53.760  1.00  0.00     0.021 A 
ATOM     13  C   UNL     1     -15.421  25.232  54.270  1.00  0.00     0.016 A 
ATOM     14  C   UNL     1     -15.293  25.050  55.650  1.00  0.00     0.047 A 
ATOM     15  C   UNL     1     -15.818  25.998  56.538  1.00  0.00     0.115 A 
ATOM     16  C   UNL     1     -16.605  27.310  54.658  1.00  0.00     0.016 A 
ATOM     17  C   UNL     1     -16.477  27.124  56.037  1.00  0.00     0.047 A 
BRANCH  15  18
ATOM     18  O   UNL     1     -15.696  25.826  57.915  1.00  0.00    -0.508 OA
ATOM     19  H   UNL     1     -15.487  26.604  58.529  1.00  0.00     0.293 HD
ENDBRANCH  15  18
ENDBRANCH   1  12
BRANCH   2  20
ATOM     20  O   UNL     1     -18.597  26.079  52.379  1.00  0.00    -0.502 OA
ATOM     21  H   UNL     1     -18.618  26.119  53.390  1.00  0.00     0.293 HD
ENDBRANCH   2  20
BRANCH   6  22
ATOM     22  O   UNL     1     -17.461  26.858  47.363  1.00  0.00    -0.507 OA
ATOM     23  H   UNL     1     -17.456  26.328  46.500  1.00  0.00     0.293 HD
ENDBRANCH   6  22
BRANCH   8  24
ATOM     24  O   UNL     1     -12.751  27.884  47.577  1.00  0.00    -0.508 OA
ATOM     25  H   UNL     1     -12.046  28.461  48.020  1.00  0.00     0.293 HD
ENDBRANCH   8  24
TORSDOF 5
ENDMDL
