MODEL 1
REMARK VINA RESULT:    -2.369      0.000      0.000
REMARK INTER + INTRA:          -2.369
REMARK INTER:                  -2.369
REMARK INTRA:                   0.000
REMARK UNBOUND:                 0.000
REMARK SMILES CC(=O)[O-]
REMARK SMILES IDX 1 1 2 2 3 3 4 4
REMARK H PARENT
REMARK Flexibility Score: inf
ROOT
ATOM      1  C   UNL     1       9.855  53.713  21.364  1.00  0.00     0.063 C 
ATOM      2  C   UNL     1      10.527  53.038  22.511  1.00  0.00     0.038 C 
ATOM      3  O   UNL     1      10.718  51.795  22.487  1.00  0.00    -0.550 OA
ATOM      4  O   UNL     1      10.991  53.787  23.585  1.00  0.00    -0.550 OA
ENDROOT
TORSDOF 0
ENDMDL
MODEL 2
REMARK VINA RESULT:    -2.367      0.200      1.632
REMARK INTER + INTRA:          -2.367
REMARK INTER:                  -2.367
REMARK INTRA:                   0.000
REMARK UNBOUND:                 0.000
REMARK SMILES CC(=O)[O-]
REMARK SMILES IDX 1 1 2 2 3 3 4 4
REMARK H PARENT
REMARK Flexibility Score: inf
ROOT
ATOM      1  C   UNL     1       9.913  53.998  21.437  1.00  0.00     0.063 C 
ATOM      2  C   UNL     1      10.589  53.256  22.539  1.00  0.00     0.038 C 
ATOM      3  O   UNL     1      11.028  53.877  23.541  1.00  0.00    -0.550 OA
ATOM      4  O   UNL     1      10.688  51.872  22.488  1.00  0.00    -0.550 OA
ENDROOT
TORSDOF 0
ENDMDL
MODEL 3
REMARK VINA RESULT:    -2.338      1.538      1.717
REMARK INTER + INTRA:          -2.338
REMARK INTER:                  -2.338
REMARK INTRA:                   0.000
REMARK UNBOUND:                 0.000
REMARK SMILES CC(=O)[O-]
REMARK SMILES IDX 1 1 2 2 3 3 4 4
REMARK H PARENT
REMARK Flexibility Score: inf
ROOT
ATOM      1  C   UNL     1      10.510  52.046  22.414  1.00  0.00     0.063 C 
ATOM      2  C   UNL     1      10.661  53.519  22.591  1.00  0.00     0.038 C 
ATOM      3  O   UNL     1      10.359  54.302  21.654  1.00  0.00    -0.550 OA
ATOM      4  O   UNL     1      11.083  54.033  23.811  1.00  0.00    -0.550 OA
ENDROOT
TORSDOF 0
ENDMDL
MODEL 4
REMARK VINA RESULT:    -2.263      4.689      5.001
REMARK INTER + INTRA:          -2.263
REMARK INTER:                  -2.263
REMARK INTRA:                   0.000
REMARK UNBOUND:                 0.000
REMARK SMILES CC(=O)[O-]
REMARK SMILES IDX 1 1 2 2 3 3 4 4
REMARK H PARENT
REMARK Flexibility Score: inf
ROOT
ATOM      1  C   UNL     1       7.306  54.363  18.000  1.00  0.00     0.063 C 
ATOM      2  C   UNL     1       7.809  55.197  19.128  1.00  0.00     0.038 C 
ATOM      3  O   UNL     1       8.430  54.661  20.082  1.00  0.00    -0.550 OA
ATOM      4  O   UNL     1       7.641  56.576  19.103  1.00  0.00    -0.550 OA
ENDROOT
TORSDOF 0
ENDMDL
MODEL 5
REMARK VINA RESULT:    -2.257      1.758      2.109
REMARK INTER + INTRA:          -2.257
REMARK INTER:                  -2.257
REMARK INTRA:                   0.000
REMARK UNBOUND:                 0.000
REMARK SMILES CC(=O)[O-]
REMARK SMILES IDX 1 1 2 2 3 3 4 4
REMARK H PARENT
REMARK Flexibility Score: inf
ROOT
ATOM      1  C   UNL     1      10.913  54.488  24.265  1.00  0.00     0.063 C 
ATOM      2  C   UNL     1      10.417  53.680  23.114  1.00  0.00     0.038 C 
ATOM      3  O   UNL     1       9.323  53.066  23.200  1.00  0.00    -0.550 OA
ATOM      4  O   UNL     1      11.135  53.648  21.925  1.00  0.00    -0.550 OA
ENDROOT
TORSDOF 0
ENDMDL
MODEL 6
REMARK VINA RESULT:    -2.225      5.732      6.220
REMARK INTER + INTRA:          -2.225
REMARK INTER:                  -2.225
REMARK INTRA:                   0.000
REMARK UNBOUND:                 0.000
REMARK SMILES CC(=O)[O-]
REMARK SMILES IDX 1 1 2 2 3 3 4 4
REMARK H PARENT
REMARK Flexibility Score: inf
ROOT
ATOM      1  C   UNL     1       7.695  56.185  19.260  1.00  0.00     0.063 C 
ATOM      2  C   UNL     1       7.352  55.382  18.052  1.00  0.00     0.038 C 
ATOM      3  O   UNL     1       7.146  55.955  16.950  1.00  0.00    -0.550 OA
ATOM      4  O   UNL     1       7.311  53.996  18.126  1.00  0.00    -0.550 OA
ENDROOT
TORSDOF 0
ENDMDL
MODEL 7
REMARK VINA RESULT:    -2.206      2.387      2.907
REMARK INTER + INTRA:          -2.206
REMARK INTER:                  -2.206
REMARK INTRA:                   0.000
REMARK UNBOUND:                 0.000
REMARK SMILES CC(=O)[O-]
REMARK SMILES IDX 1 1 2 2 3 3 4 4
REMARK H PARENT
REMARK Flexibility Score: inf
ROOT
ATOM      1  C   UNL     1      10.690  53.581  21.661  1.00  0.00     0.063 C 
ATOM      2  C   UNL     1       9.436  54.385  21.610  1.00  0.00     0.038 C 
ATOM      3  O   UNL     1       9.116  55.119  22.580  1.00  0.00    -0.550 OA
ATOM      4  O   UNL     1       8.644  54.367  20.468  1.00  0.00    -0.550 OA
ENDROOT
TORSDOF 0
ENDMDL
MODEL 8
REMARK VINA RESULT:    -2.203      4.483      4.926
REMARK INTER + INTRA:          -2.203
REMARK INTER:                  -2.203
REMARK INTRA:                   0.000
REMARK UNBOUND:                 0.000
REMARK SMILES CC(=O)[O-]
REMARK SMILES IDX 1 1 2 2 3 3 4 4
REMARK H PARENT
REMARK Flexibility Score: inf
ROOT
ATOM      1  C   UNL     1       7.799  56.654  19.520  1.00  0.00     0.063 C 
ATOM      2  C   UNL     1       7.972  55.187  19.317  1.00  0.00     0.038 C 
ATOM      3  O   UNL     1       8.176  54.432  20.303  1.00  0.00    -0.550 OA
ATOM      4  O   UNL     1       7.854  54.642  18.045  1.00  0.00    -0.550 OA
ENDROOT
TORSDOF 0
ENDMDL
MODEL 9
REMARK VINA RESULT:    -2.178      2.354      2.671
REMARK INTER + INTRA:          -2.178
REMARK INTER:                  -2.178
REMARK INTRA:                   0.000
REMARK UNBOUND:                 0.000
REMARK SMILES CC(=O)[O-]
REMARK SMILES IDX 1 1 2 2 3 3 4 4
REMARK H PARENT
REMARK Flexibility Score: inf
ROOT
ATOM      1  C   UNL     1       9.898  54.684  22.786  1.00  0.00     0.063 C 
ATOM      2  C   UNL     1      10.169  54.698  24.252  1.00  0.00     0.038 C 
ATOM      3  O   UNL     1       9.215  54.699  25.071  1.00  0.00    -0.550 OA
ATOM      4  O   UNL     1      11.478  54.656  24.718  1.00  0.00    -0.550 OA
ENDROOT
TORSDOF 0
ENDMDL
