MODEL 1
REMARK VINA RESULT:    -4.260      0.000      0.000
REMARK INTER + INTRA:          -5.447
REMARK INTER:                  -6.004
REMARK INTRA:                   0.556
REMARK UNBOUND:                 0.556
REMARK SMILES CC1=CCC(=C(C)C)C(=O)CC(C)=CCC1
REMARK SMILES IDX 12 1 14 2 13 3 15 4 16 5 2 6 1 7 3 8 11 10 9 11 10 12 5 13
REMARK SMILES IDX 6 14 7 15 8 16 4 17
REMARK H PARENT
REMARK Flexibility Score: 60.00
ROOT
ATOM      1  C   UNL     1      10.695 -15.509  24.380  1.00  0.00    -0.070 C 
ATOM      2  C   UNL     1       9.735 -14.622  24.027  1.00  0.00    -0.027 C 
ATOM      3  C   UNL     1      12.006 -15.449  23.635  1.00  0.00     0.039 C 
ENDROOT
BRANCH   2   4
ATOM      4  C   UNL     1       8.399 -14.434  24.703  1.00  0.00     0.032 C 
BRANCH   4   5
ATOM      5  C   UNL     1       7.212 -14.698  23.756  1.00  0.00     0.034 C 
BRANCH   5   6
ATOM      6  C   UNL     1       7.358 -16.009  23.007  1.00  0.00    -0.077 C 
ATOM      7  C   UNL     1       7.387 -15.972  21.501  1.00  0.00     0.039 C 
ATOM      8  C   UNL     1       7.438 -17.215  23.614  1.00  0.00    -0.023 CG0
ATOM      9  G   UNL     1       7.390 -17.458  25.103  1.00  0.00     0.000 G0
ENDBRANCH   5   6
ENDBRANCH   4   5
ENDBRANCH   2   4
BRANCH   1  10
ATOM     10  C   UNL     1      10.548 -16.504  25.520  1.00  0.00     0.111 C 
BRANCH  10  11
ATOM     11  C   UNL     1       9.944 -17.804  25.047  1.00  0.00     0.163 C 
ATOM     12  O   UNL     1      10.576 -18.472  24.184  1.00  0.00    -0.294 OA
BRANCH  11  13
ATOM     13  C   UNL     1       8.612 -18.281  25.533  1.00  0.00    -0.002 C 
ATOM     14  C   UNL     1       8.495 -19.350  26.377  1.00  0.00    -0.069 C 
ATOM     15  C   UNL     1       9.711 -20.065  26.924  1.00  0.00     0.039 C 
ATOM     16  C   UNL     1       7.142 -19.851  26.833  1.00  0.00     0.039 C 
BRANCH  13  17
ATOM     17  C   UNL     1       7.395 -17.479  25.108  1.00  0.00     0.066 CG0
ATOM     18  G   UNL     1       7.442 -17.227  23.620  1.00  0.00     0.000 G0
ENDBRANCH  13  17
ENDBRANCH  11  13
ENDBRANCH  10  11
ENDBRANCH   1  10
TORSDOF 0
ENDMDL
MODEL 2
REMARK VINA RESULT:    -4.201      1.854      4.397
REMARK INTER + INTRA:          -5.364
REMARK INTER:                  -5.823
REMARK INTRA:                   0.459
REMARK UNBOUND:                 0.556
REMARK SMILES CC1=CCC(=C(C)C)C(=O)CC(C)=CCC1
REMARK SMILES IDX 12 1 14 2 13 3 15 4 16 5 2 6 1 7 3 8 11 10 9 11 10 12 5 13
REMARK SMILES IDX 6 14 7 15 8 16 4 17
REMARK H PARENT
REMARK Flexibility Score: 60.00
ROOT
ATOM      1  C   UNL     1       7.231 -15.842  23.208  1.00  0.00    -0.070 C 
ATOM      2  C   UNL     1       6.505 -16.809  23.817  1.00  0.00    -0.027 C 
ATOM      3  C   UNL     1       6.503 -14.590  22.783  1.00  0.00     0.039 C 
ENDROOT
BRANCH   2   4
ATOM      4  C   UNL     1       7.042 -18.087  24.414  1.00  0.00     0.032 C 
BRANCH   4   5
ATOM      5  C   UNL     1       7.421 -17.932  25.900  1.00  0.00     0.034 C 
BRANCH   5   6
ATOM      6  C   UNL     1       8.692 -18.683  26.248  1.00  0.00    -0.077 C 
ATOM      7  C   UNL     1       8.617 -20.179  26.410  1.00  0.00     0.039 C 
ATOM      8  C   UNL     1       9.887 -18.083  26.448  1.00  0.00    -0.023 CG0
ATOM      9  G   UNL     1      10.154 -16.599  26.367  1.00  0.00     0.000 G0
ENDBRANCH   5   6
ENDBRANCH   4   5
ENDBRANCH   2   4
BRANCH   1  10
ATOM     10  C   UNL     1       8.734 -15.920  22.994  1.00  0.00     0.111 C 
BRANCH  10  11
ATOM     11  C   UNL     1       9.491 -15.387  24.185  1.00  0.00     0.163 C 
ATOM     12  O   UNL     1       9.280 -14.194  24.537  1.00  0.00    -0.294 OA
BRANCH  11  13
ATOM     13  C   UNL     1      10.508 -16.210  24.911  1.00  0.00    -0.002 C 
ATOM     14  C   UNL     1      11.700 -16.552  24.337  1.00  0.00    -0.069 C 
ATOM     15  C   UNL     1      12.089 -16.056  22.962  1.00  0.00     0.039 C 
ATOM     16  C   UNL     1      12.707 -17.417  25.064  1.00  0.00     0.039 C 
BRANCH  13  17
ATOM     17  C   UNL     1      10.190 -16.588  26.347  1.00  0.00     0.066 CG0
ATOM     18  G   UNL     1       9.894 -18.066  26.433  1.00  0.00     0.000 G0
ENDBRANCH  13  17
ENDBRANCH  11  13
ENDBRANCH  10  11
ENDBRANCH   1  10
TORSDOF 0
ENDMDL
MODEL 3
REMARK VINA RESULT:    -4.083      2.236      3.811
REMARK INTER + INTRA:          -5.198
REMARK INTER:                  -5.552
REMARK INTRA:                   0.354
REMARK UNBOUND:                 0.556
REMARK SMILES CC1=CCC(=C(C)C)C(=O)CC(C)=CCC1
REMARK SMILES IDX 12 1 14 2 13 3 15 4 16 5 2 6 1 7 3 8 11 10 9 11 10 12 5 13
REMARK SMILES IDX 6 14 7 15 8 16 4 17
REMARK H PARENT
REMARK Flexibility Score: 60.00
ROOT
ATOM      1  C   UNL     1       7.968 -15.390  23.176  1.00  0.00    -0.070 C 
ATOM      2  C   UNL     1       8.943 -14.766  23.879  1.00  0.00    -0.027 C 
ATOM      3  C   UNL     1       6.713 -14.606  22.880  1.00  0.00     0.039 C 
ENDROOT
BRANCH   2   4
ATOM      4  C   UNL     1      10.312 -15.318  24.193  1.00  0.00     0.032 C 
BRANCH   4   5
ATOM      5  C   UNL     1      10.269 -16.448  25.240  1.00  0.00     0.034 C 
BRANCH   5   6
ATOM      6  C   UNL     1      10.997 -17.693  24.768  1.00  0.00    -0.077 C 
ATOM      7  C   UNL     1      12.440 -17.561  24.352  1.00  0.00     0.039 C 
ATOM      8  C   UNL     1      10.419 -18.911  24.675  1.00  0.00    -0.023 CG0
ATOM      9  G   UNL     1       8.982 -19.233  25.010  1.00  0.00     0.000 G0
ENDBRANCH   5   6
ENDBRANCH   4   5
ENDBRANCH   2   4
BRANCH   1  10
ATOM     10  C   UNL     1       8.099 -16.797  22.616  1.00  0.00     0.111 C 
BRANCH  10  11
ATOM     11  C   UNL     1       7.467 -17.818  23.530  1.00  0.00     0.163 C 
ATOM     12  O   UNL     1       6.397 -17.504  24.120  1.00  0.00    -0.294 OA
BRANCH  11  13
ATOM     13  C   UNL     1       8.098 -19.150  23.787  1.00  0.00    -0.002 C 
ATOM     14  C   UNL     1       7.945 -20.197  22.922  1.00  0.00    -0.069 C 
ATOM     15  C   UNL     1       7.189 -20.046  21.621  1.00  0.00     0.039 C 
ATOM     16  C   UNL     1       8.554 -21.552  23.209  1.00  0.00     0.039 C 
BRANCH  13  17
ATOM     17  C   UNL     1       8.982 -19.268  25.016  1.00  0.00     0.066 CG0
ATOM     18  G   UNL     1      10.402 -18.898  24.663  1.00  0.00     0.000 G0
ENDBRANCH  13  17
ENDBRANCH  11  13
ENDBRANCH  10  11
ENDBRANCH   1  10
TORSDOF 0
ENDMDL
MODEL 4
REMARK VINA RESULT:    -4.073      2.536      4.228
REMARK INTER + INTRA:          -5.184
REMARK INTER:                  -5.601
REMARK INTRA:                   0.417
REMARK UNBOUND:                 0.556
REMARK SMILES CC1=CCC(=C(C)C)C(=O)CC(C)=CCC1
REMARK SMILES IDX 12 1 14 2 13 3 15 4 16 5 2 6 1 7 3 8 11 10 9 11 10 12 5 13
REMARK SMILES IDX 6 14 7 15 8 16 4 17
REMARK H PARENT
REMARK Flexibility Score: 60.00
ROOT
ATOM      1  C   UNL     1       6.903 -14.994  23.017  1.00  0.00    -0.070 C 
ATOM      2  C   UNL     1       7.500 -14.216  23.951  1.00  0.00    -0.027 C 
ATOM      3  C   UNL     1       6.030 -14.309  21.994  1.00  0.00     0.039 C 
ENDROOT
BRANCH   2   4
ATOM      4  C   UNL     1       8.490 -14.671  24.995  1.00  0.00     0.032 C 
BRANCH   4   5
ATOM      5  C   UNL     1       9.846 -15.078  24.387  1.00  0.00     0.034 C 
BRANCH   5   6
ATOM      6  C   UNL     1      10.333 -16.413  24.917  1.00  0.00    -0.077 C 
ATOM      7  C   UNL     1      10.501 -16.573  26.406  1.00  0.00     0.039 C 
ATOM      8  C   UNL     1      10.651 -17.463  24.127  1.00  0.00    -0.023 CG0
ATOM      9  G   UNL     1      10.583 -17.485  22.619  1.00  0.00     0.000 G0
ENDBRANCH   5   6
ENDBRANCH   4   5
ENDBRANCH   2   4
BRANCH   1  10
ATOM     10  C   UNL     1       7.119 -16.495  22.906  1.00  0.00     0.111 C 
BRANCH  10  11
ATOM     11  C   UNL     1       8.202 -16.827  21.909  1.00  0.00     0.163 C 
ATOM     12  O   UNL     1       8.231 -16.178  20.827  1.00  0.00    -0.294 OA
BRANCH  11  13
ATOM     13  C   UNL     1       9.191 -17.923  22.149  1.00  0.00    -0.002 C 
ATOM     14  C   UNL     1       8.885 -19.234  21.909  1.00  0.00    -0.069 C 
ATOM     15  C   UNL     1       7.554 -19.641  21.317  1.00  0.00     0.039 C 
ATOM     16  C   UNL     1       9.878 -20.340  22.191  1.00  0.00     0.039 C 
BRANCH  13  17
ATOM     17  C   UNL     1      10.580 -17.511  22.602  1.00  0.00     0.066 CG0
ATOM     18  G   UNL     1      10.632 -17.459  24.111  1.00  0.00     0.000 G0
ENDBRANCH  13  17
ENDBRANCH  11  13
ENDBRANCH  10  11
ENDBRANCH   1  10
TORSDOF 0
ENDMDL
MODEL 5
REMARK VINA RESULT:    -4.041      2.711      3.884
REMARK INTER + INTRA:          -5.139
REMARK INTER:                  -5.523
REMARK INTRA:                   0.384
REMARK UNBOUND:                 0.556
REMARK SMILES CC1=CCC(=C(C)C)C(=O)CC(C)=CCC1
REMARK SMILES IDX 12 1 14 2 13 3 15 4 16 5 2 6 1 7 3 8 11 10 9 11 10 12 5 13
REMARK SMILES IDX 6 14 7 15 8 16 4 17
REMARK H PARENT
REMARK Flexibility Score: 60.00
ROOT
ATOM      1  C   UNL     1       7.574 -15.991  22.051  1.00  0.00    -0.070 C 
ATOM      2  C   UNL     1       7.735 -16.366  20.760  1.00  0.00    -0.027 C 
ATOM      3  C   UNL     1       6.726 -14.772  22.321  1.00  0.00     0.039 C 
ENDROOT
BRANCH   2   4
ATOM      4  C   UNL     1       8.448 -17.603  20.270  1.00  0.00     0.032 C 
BRANCH   4   5
ATOM      5  C   UNL     1       7.602 -18.880  20.441  1.00  0.00     0.034 C 
BRANCH   5   6
ATOM      6  C   UNL     1       8.362 -19.977  21.162  1.00  0.00    -0.077 C 
ATOM      7  C   UNL     1       9.555 -20.590  20.476  1.00  0.00     0.039 C 
ATOM      8  C   UNL     1       8.014 -20.456  22.378  1.00  0.00    -0.023 CG0
ATOM      9  G   UNL     1       6.835 -19.997  23.203  1.00  0.00     0.000 G0
ENDBRANCH   5   6
ENDBRANCH   4   5
ENDBRANCH   2   4
BRANCH   1  10
ATOM     10  C   UNL     1       8.141 -16.763  23.231  1.00  0.00     0.111 C 
BRANCH  10  11
ATOM     11  C   UNL     1       7.071 -17.557  23.939  1.00  0.00     0.163 C 
ATOM     12  O   UNL     1       6.023 -16.953  24.297  1.00  0.00    -0.294 OA
BRANCH  11  13
ATOM     13  C   UNL     1       7.246 -19.006  24.266  1.00  0.00    -0.002 C 
ATOM     14  C   UNL     1       7.702 -19.419  25.487  1.00  0.00    -0.069 C 
ATOM     15  C   UNL     1       7.986 -18.435  26.600  1.00  0.00     0.039 C 
ATOM     16  C   UNL     1       7.913 -20.885  25.796  1.00  0.00     0.039 C 
BRANCH  13  17
ATOM     17  C   UNL     1       6.822 -20.008  23.206  1.00  0.00     0.066 CG0
ATOM     18  G   UNL     1       8.025 -20.443  22.403  1.00  0.00     0.000 G0
ENDBRANCH  13  17
ENDBRANCH  11  13
ENDBRANCH  10  11
ENDBRANCH   1  10
TORSDOF 0
ENDMDL
MODEL 6
REMARK VINA RESULT:    -4.026      1.997      3.719
REMARK INTER + INTRA:          -5.118
REMARK INTER:                  -5.821
REMARK INTRA:                   0.703
REMARK UNBOUND:                 0.556
REMARK SMILES CC1=CCC(=C(C)C)C(=O)CC(C)=CCC1
REMARK SMILES IDX 12 1 14 2 13 3 15 4 16 5 2 6 1 7 3 8 11 10 9 11 10 12 5 13
REMARK SMILES IDX 6 14 7 15 8 16 4 17
REMARK H PARENT
REMARK Flexibility Score: 60.00
ROOT
ATOM      1  C   UNL     1       8.685 -17.888  25.680  1.00  0.00    -0.070 C 
ATOM      2  C   UNL     1       9.276 -16.690  25.899  1.00  0.00    -0.027 C 
ATOM      3  C   UNL     1       9.559 -19.117  25.739  1.00  0.00     0.039 C 
ENDROOT
BRANCH   2   4
ATOM      4  C   UNL     1       8.581 -15.354  25.992  1.00  0.00     0.032 C 
BRANCH   4   5
ATOM      5  C   UNL     1       8.704 -14.530  24.695  1.00  0.00     0.034 C 
BRANCH   5   6
ATOM      6  C   UNL     1       9.678 -15.151  23.713  1.00  0.00    -0.077 C 
ATOM      7  C   UNL     1      11.152 -14.921  23.926  1.00  0.00     0.039 C 
ATOM      8  C   UNL     1       9.299 -15.879  22.639  1.00  0.00    -0.023 CG0
ATOM      9  G   UNL     1       7.875 -16.187  22.239  1.00  0.00     0.000 G0
ENDBRANCH   5   6
ENDBRANCH   4   5
ENDBRANCH   2   4
BRANCH   1  10
ATOM     10  C   UNL     1       7.192 -18.065  25.450  1.00  0.00     0.111 C 
BRANCH  10  11
ATOM     11  C   UNL     1       6.729 -17.316  24.225  1.00  0.00     0.163 C 
ATOM     12  O   UNL     1       5.709 -16.581  24.329  1.00  0.00    -0.294 OA
BRANCH  11  13
ATOM     13  C   UNL     1       7.408 -17.466  22.901  1.00  0.00    -0.002 C 
ATOM     14  C   UNL     1       7.550 -18.685  22.298  1.00  0.00    -0.069 C 
ATOM     15  C   UNL     1       6.963 -19.940  22.903  1.00  0.00     0.039 C 
ATOM     16  C   UNL     1       8.273 -18.832  20.977  1.00  0.00     0.039 C 
BRANCH  13  17
ATOM     17  C   UNL     1       7.870 -16.192  22.215  1.00  0.00     0.066 CG0
ATOM     18  G   UNL     1       9.287 -15.873  22.627  1.00  0.00     0.000 G0
ENDBRANCH  13  17
ENDBRANCH  11  13
ENDBRANCH  10  11
ENDBRANCH   1  10
TORSDOF 0
ENDMDL
MODEL 7
REMARK VINA RESULT:    -3.946      2.411      5.045
REMARK INTER + INTRA:          -5.005
REMARK INTER:                  -5.568
REMARK INTRA:                   0.563
REMARK UNBOUND:                 0.556
REMARK SMILES CC1=CCC(=C(C)C)C(=O)CC(C)=CCC1
REMARK SMILES IDX 12 1 14 2 13 3 15 4 16 5 2 6 1 7 3 8 11 10 9 11 10 12 5 13
REMARK SMILES IDX 6 14 7 15 8 16 4 17
REMARK H PARENT
REMARK Flexibility Score: 60.00
ROOT
ATOM      1  C   UNL     1       7.525 -20.368  22.634  1.00  0.00    -0.070 C 
ATOM      2  C   UNL     1       8.147 -21.283  23.416  1.00  0.00    -0.027 C 
ATOM      3  C   UNL     1       7.448 -20.655  21.155  1.00  0.00     0.039 C 
ENDROOT
BRANCH   2   4
ATOM      4  C   UNL     1       8.246 -21.252  24.922  1.00  0.00     0.032 C 
BRANCH   4   5
ATOM      5  C   UNL     1       9.704 -21.211  25.418  1.00  0.00     0.034 C 
BRANCH   5   6
ATOM      6  C   UNL     1      10.513 -20.128  24.729  1.00  0.00    -0.077 C 
ATOM      7  C   UNL     1      11.747 -20.535  23.965  1.00  0.00     0.039 C 
ATOM      8  C   UNL     1      10.205 -18.813  24.783  1.00  0.00    -0.023 CG0
ATOM      9  G   UNL     1       9.036 -18.209  25.524  1.00  0.00     0.000 G0
ENDBRANCH   5   6
ENDBRANCH   4   5
ENDBRANCH   2   4
BRANCH   1  10
ATOM     10  C   UNL     1       6.850 -19.117  23.172  1.00  0.00     0.111 C 
BRANCH  10  11
ATOM     11  C   UNL     1       7.823 -17.969  23.288  1.00  0.00     0.163 C 
ATOM     12  O   UNL     1       8.375 -17.550  22.234  1.00  0.00    -0.294 OA
BRANCH  11  13
ATOM     13  C   UNL     1       8.179 -17.363  24.608  1.00  0.00    -0.002 C 
ATOM     14  C   UNL     1       7.699 -16.142  24.993  1.00  0.00    -0.069 C 
ATOM     15  C   UNL     1       6.722 -15.369  24.135  1.00  0.00     0.039 C 
ATOM     16  C   UNL     1       8.095 -15.519  26.314  1.00  0.00     0.039 C 
BRANCH  13  17
ATOM     17  C   UNL     1       9.040 -18.197  25.540  1.00  0.00     0.066 CG0
ATOM     18  G   UNL     1      10.193 -18.796  24.772  1.00  0.00     0.000 G0
ENDBRANCH  13  17
ENDBRANCH  11  13
ENDBRANCH  10  11
ENDBRANCH   1  10
TORSDOF 0
ENDMDL
MODEL 8
REMARK VINA RESULT:    -3.895      1.596      4.177
REMARK INTER + INTRA:          -4.933
REMARK INTER:                  -5.713
REMARK INTRA:                   0.780
REMARK UNBOUND:                 0.556
REMARK SMILES CC1=CCC(=C(C)C)C(=O)CC(C)=CCC1
REMARK SMILES IDX 12 1 14 2 13 3 15 4 16 5 2 6 1 7 3 8 11 10 9 11 10 12 5 13
REMARK SMILES IDX 6 14 7 15 8 16 4 17
REMARK H PARENT
REMARK Flexibility Score: 60.00
ROOT
ATOM      1  C   UNL     1      10.084 -15.475  24.777  1.00  0.00    -0.070 C 
ATOM      2  C   UNL     1      10.672 -16.548  25.358  1.00  0.00    -0.027 C 
ATOM      3  C   UNL     1      10.864 -14.748  23.708  1.00  0.00     0.039 C 
ENDROOT
BRANCH   2   4
ATOM      4  C   UNL     1      10.040 -17.478  26.364  1.00  0.00     0.032 C 
BRANCH   4   5
ATOM      5  C   UNL     1       9.976 -18.935  25.866  1.00  0.00     0.034 C 
BRANCH   5   6
ATOM      6  C   UNL     1       8.573 -19.339  25.455  1.00  0.00    -0.077 C 
ATOM      7  C   UNL     1       7.812 -20.284  26.349  1.00  0.00     0.039 C 
ATOM      8  C   UNL     1       7.973 -18.920  24.319  1.00  0.00    -0.023 CG0
ATOM      9  G   UNL     1       8.584 -18.005  23.284  1.00  0.00     0.000 G0
ENDBRANCH   5   6
ENDBRANCH   4   5
ENDBRANCH   2   4
BRANCH   1  10
ATOM     10  C   UNL     1       8.671 -15.012  25.093  1.00  0.00     0.111 C 
BRANCH  10  11
ATOM     11  C   UNL     1       7.640 -15.972  24.553  1.00  0.00     0.163 C 
ATOM     12  O   UNL     1       6.623 -16.209  25.261  1.00  0.00    -0.294 OA
BRANCH  11  13
ATOM     13  C   UNL     1       7.819 -16.674  23.245  1.00  0.00    -0.002 C 
ATOM     14  C   UNL     1       7.390 -16.125  22.069  1.00  0.00    -0.069 C 
ATOM     15  C   UNL     1       6.776 -14.743  22.017  1.00  0.00     0.039 C 
ATOM     16  C   UNL     1       7.541 -16.859  20.754  1.00  0.00     0.039 C 
BRANCH  13  17
ATOM     17  C   UNL     1       8.567 -17.995  23.268  1.00  0.00     0.066 CG0
ATOM     18  G   UNL     1       7.978 -18.899  24.324  1.00  0.00     0.000 G0
ENDBRANCH  13  17
ENDBRANCH  11  13
ENDBRANCH  10  11
ENDBRANCH   1  10
TORSDOF 0
ENDMDL
MODEL 9
REMARK VINA RESULT:    -3.766      1.993      3.112
REMARK INTER + INTRA:          -4.751
REMARK INTER:                  -5.145
REMARK INTRA:                   0.394
REMARK UNBOUND:                 0.556
REMARK SMILES CC1=CCC(=C(C)C)C(=O)CC(C)=CCC1
REMARK SMILES IDX 12 1 14 2 13 3 15 4 16 5 2 6 1 7 3 8 11 10 9 11 10 12 5 13
REMARK SMILES IDX 6 14 7 15 8 16 4 17
REMARK H PARENT
REMARK Flexibility Score: 60.00
ROOT
ATOM      1  C   UNL     1       9.155 -16.869  25.886  1.00  0.00    -0.070 C 
ATOM      2  C   UNL     1       8.988 -15.526  25.841  1.00  0.00    -0.027 C 
ATOM      3  C   UNL     1      10.097 -17.419  26.929  1.00  0.00     0.039 C 
ENDROOT
BRANCH   2   4
ATOM      4  C   UNL     1       8.022 -14.774  24.958  1.00  0.00     0.032 C 
BRANCH   4   5
ATOM      5  C   UNL     1       8.492 -14.703  23.492  1.00  0.00     0.034 C 
BRANCH   5   6
ATOM      6  C   UNL     1       7.453 -15.248  22.531  1.00  0.00    -0.077 C 
ATOM      7  C   UNL     1       6.102 -14.581  22.485  1.00  0.00     0.039 C 
ATOM      8  C   UNL     1       7.660 -16.317  21.729  1.00  0.00    -0.023 CG0
ATOM      9  G   UNL     1       8.927 -17.135  21.659  1.00  0.00     0.000 G0
ENDBRANCH   5   6
ENDBRANCH   4   5
ENDBRANCH   2   4
BRANCH   1  10
ATOM     10  C   UNL     1       8.399 -17.844  24.997  1.00  0.00     0.111 C 
BRANCH  10  11
ATOM     11  C   UNL     1       9.269 -18.361  23.878  1.00  0.00     0.163 C 
ATOM     12  O   UNL     1      10.444 -18.723  24.158  1.00  0.00    -0.294 OA
BRANCH  11  13
ATOM     13  C   UNL     1       8.793 -18.405  22.460  1.00  0.00    -0.002 C 
ATOM     14  C   UNL     1       8.192 -19.515  21.937  1.00  0.00    -0.069 C 
ATOM     15  C   UNL     1       7.910 -20.737  22.783  1.00  0.00     0.039 C 
ATOM     16  C   UNL     1       7.749 -19.565  20.490  1.00  0.00     0.039 C 
BRANCH  13  17
ATOM     17  C   UNL     1       8.938 -17.132  21.645  1.00  0.00     0.066 CG0
ATOM     18  G   UNL     1       7.668 -16.320  21.734  1.00  0.00     0.000 G0
ENDBRANCH  13  17
ENDBRANCH  11  13
ENDBRANCH  10  11
ENDBRANCH   1  10
TORSDOF 0
ENDMDL
