MODEL 1
REMARK VINA RESULT:    -3.851      0.000      0.000
REMARK INTER + INTRA:          -7.148
REMARK INTER:                  -6.553
REMARK INTRA:                  -0.595
REMARK UNBOUND:                -0.595
REMARK SMILES CCCCCCCCCCCCCC(=O)[O-]
REMARK SMILES IDX 8 1 9 2 10 3 11 4 12 5 13 6 14 7 15 8 16 9 7 10 6 11 5 12
REMARK SMILES IDX 4 13 3 14 2 15 1 16
REMARK H PARENT
REMARK Flexibility Score: inf
ROOT
ATOM      1  C   UNL     1       0.402  -2.208  -5.099  1.00  0.00     0.000 C 
ENDROOT
BRANCH   1   2
ATOM      2  C   UNL     1       1.408  -1.814  -6.195  1.00  0.00     0.000 C 
BRANCH   2   3
ATOM      3  C   UNL     1       2.893  -1.968  -5.807  1.00  0.00     0.000 C 
BRANCH   3   4
ATOM      4  C   UNL     1       3.849  -2.243  -6.981  1.00  0.00     0.000 C 
BRANCH   4   5
ATOM      5  C   UNL     1       5.232  -1.603  -6.787  1.00  0.00     0.006 C 
BRANCH   5   6
ATOM      6  C   UNL     1       5.122  -0.285  -6.015  1.00  0.00     0.053 C 
BRANCH   6   7
ATOM      7  C   UNL     1       4.953   0.863  -6.959  1.00  0.00     0.041 C 
ATOM      8  O   UNL     1       5.934   1.600  -7.242  1.00  0.00    -0.550 OA
ATOM      9  O   UNL     1       3.702   1.148  -7.491  1.00  0.00    -0.550 OA
ENDBRANCH   6   7
ENDBRANCH   5   6
ENDBRANCH   4   5
ENDBRANCH   3   4
ENDBRANCH   2   3
ENDBRANCH   1   2
BRANCH   1  10
ATOM     10  C   UNL     1      -1.057  -2.129  -5.571  1.00  0.00     0.000 C 
BRANCH  10  11
ATOM     11  C   UNL     1      -1.917  -3.195  -4.875  1.00  0.00    -0.000 C 
BRANCH  11  12
ATOM     12  C   UNL     1      -3.417  -2.869  -4.924  1.00  0.00    -0.000 C 
BRANCH  12  13
ATOM     13  C   UNL     1      -3.735  -1.464  -4.381  1.00  0.00    -0.000 C 
BRANCH  13  14
ATOM     14  C   UNL     1      -4.494  -0.596  -5.397  1.00  0.00    -0.000 C 
BRANCH  14  15
ATOM     15  C   UNL     1      -5.393  -1.427  -6.326  1.00  0.00    -0.003 C 
ATOM     16  C   UNL     1      -5.859  -0.600  -7.522  1.00  0.00     0.004 C 
ENDBRANCH  14  15
ENDBRANCH  13  14
ENDBRANCH  12  13
ENDBRANCH  11  12
ENDBRANCH  10  11
ENDBRANCH   1  10
TORSDOF 12
ENDMDL
MODEL 2
REMARK VINA RESULT:    -3.843     14.001     15.059
REMARK INTER + INTRA:          -7.133
REMARK INTER:                  -6.480
REMARK INTRA:                  -0.653
REMARK UNBOUND:                -0.595
REMARK SMILES CCCCCCCCCCCCCC(=O)[O-]
REMARK SMILES IDX 8 1 9 2 10 3 11 4 12 5 13 6 14 7 15 8 16 9 7 10 6 11 5 12
REMARK SMILES IDX 4 13 3 14 2 15 1 16
REMARK H PARENT
REMARK Flexibility Score: inf
ROOT
ATOM      1  C   UNL     1      -2.809   8.516   4.258  1.00  0.00     0.000 C 
ENDROOT
BRANCH   1   2
ATOM      2  C   UNL     1      -2.507   9.844   4.974  1.00  0.00     0.000 C 
BRANCH   2   3
ATOM      3  C   UNL     1      -1.037  10.039   5.398  1.00  0.00     0.000 C 
BRANCH   3   4
ATOM      4  C   UNL     1      -0.052   8.997   4.837  1.00  0.00     0.000 C 
BRANCH   4   5
ATOM      5  C   UNL     1       1.114   8.702   5.792  1.00  0.00     0.006 C 
BRANCH   5   6
ATOM      6  C   UNL     1       1.689   9.998   6.372  1.00  0.00     0.053 C 
BRANCH   6   7
ATOM      7  C   UNL     1       3.167  10.060   6.150  1.00  0.00     0.041 C 
ATOM      8  O   UNL     1       3.631  10.124   4.981  1.00  0.00    -0.550 OA
ATOM      9  O   UNL     1       4.036   9.998   7.232  1.00  0.00    -0.550 OA
ENDBRANCH   6   7
ENDBRANCH   5   6
ENDBRANCH   4   5
ENDBRANCH   3   4
ENDBRANCH   2   3
ENDBRANCH   1   2
BRANCH   1  10
ATOM     10  C   UNL     1      -4.277   8.392   3.825  1.00  0.00     0.000 C 
BRANCH  10  11
ATOM     11  C   UNL     1      -4.891   9.776   3.566  1.00  0.00    -0.000 C 
BRANCH  11  12
ATOM     12  C   UNL     1      -6.058   9.728   2.568  1.00  0.00    -0.000 C 
BRANCH  12  13
ATOM     13  C   UNL     1      -6.495   8.290   2.238  1.00  0.00    -0.000 C 
BRANCH  13  14
ATOM     14  C   UNL     1      -8.023   8.122   2.235  1.00  0.00    -0.000 C 
BRANCH  14  15
ATOM     15  C   UNL     1      -8.467   6.786   1.621  1.00  0.00    -0.003 C 
ATOM     16  C   UNL     1      -7.308   5.794   1.569  1.00  0.00     0.004 C 
ENDBRANCH  14  15
ENDBRANCH  13  14
ENDBRANCH  12  13
ENDBRANCH  11  12
ENDBRANCH  10  11
ENDBRANCH   1  10
TORSDOF 12
ENDMDL
MODEL 3
REMARK VINA RESULT:    -3.690     13.818     14.563
REMARK INTER + INTRA:          -6.873
REMARK INTER:                  -5.755
REMARK INTRA:                  -1.118
REMARK UNBOUND:                -0.595
REMARK SMILES CCCCCCCCCCCCCC(=O)[O-]
REMARK SMILES IDX 8 1 9 2 10 3 11 4 12 5 13 6 14 7 15 8 16 9 7 10 6 11 5 12
REMARK SMILES IDX 4 13 3 14 2 15 1 16
REMARK H PARENT
REMARK Flexibility Score: inf
ROOT
ATOM      1  C   UNL     1      -1.052   7.257   2.427  1.00  0.00     0.000 C 
ENDROOT
BRANCH   1   2
ATOM      2  C   UNL     1       0.486   7.255   2.485  1.00  0.00     0.000 C 
BRANCH   2   3
ATOM      3  C   UNL     1       1.087   6.967   3.877  1.00  0.00     0.000 C 
BRANCH   3   4
ATOM      4  C   UNL     1       2.622   6.870   3.917  1.00  0.00     0.000 C 
BRANCH   4   5
ATOM      5  C   UNL     1       3.234   7.579   5.135  1.00  0.00     0.006 C 
BRANCH   5   6
ATOM      6  C   UNL     1       2.282   7.528   6.333  1.00  0.00     0.053 C 
BRANCH   6   7
ATOM      7  C   UNL     1       2.251   8.849   7.034  1.00  0.00     0.041 C 
ATOM      8  O   UNL     1       1.239   9.592   6.942  1.00  0.00    -0.550 OA
ATOM      9  O   UNL     1       3.360   9.283   7.749  1.00  0.00    -0.550 OA
ENDBRANCH   6   7
ENDBRANCH   5   6
ENDBRANCH   4   5
ENDBRANCH   3   4
ENDBRANCH   2   3
ENDBRANCH   1   2
BRANCH   1  10
ATOM     10  C   UNL     1      -1.630   8.602   1.963  1.00  0.00     0.000 C 
BRANCH  10  11
ATOM     11  C   UNL     1      -1.497   9.665   3.065  1.00  0.00    -0.000 C 
BRANCH  11  12
ATOM     12  C   UNL     1      -1.919   9.140   4.446  1.00  0.00    -0.000 C 
BRANCH  12  13
ATOM     13  C   UNL     1      -3.433   9.272   4.691  1.00  0.00    -0.000 C 
BRANCH  13  14
ATOM     14  C   UNL     1      -4.204   7.994   4.325  1.00  0.00    -0.000 C 
BRANCH  14  15
ATOM     15  C   UNL     1      -5.227   8.224   3.203  1.00  0.00    -0.003 C 
ATOM     16  C   UNL     1      -5.455   9.715   2.966  1.00  0.00     0.004 C 
ENDBRANCH  14  15
ENDBRANCH  13  14
ENDBRANCH  12  13
ENDBRANCH  11  12
ENDBRANCH  10  11
ENDBRANCH   1  10
TORSDOF 12
ENDMDL
MODEL 4
REMARK VINA RESULT:    -3.617     13.403     15.394
REMARK INTER + INTRA:          -6.750
REMARK INTER:                  -5.683
REMARK INTRA:                  -1.066
REMARK UNBOUND:                -0.595
REMARK SMILES CCCCCCCCCCCCCC(=O)[O-]
REMARK SMILES IDX 8 1 9 2 10 3 11 4 12 5 13 6 14 7 15 8 16 9 7 10 6 11 5 12
REMARK SMILES IDX 4 13 3 14 2 15 1 16
REMARK H PARENT
REMARK Flexibility Score: inf
ROOT
ATOM      1  C   UNL     1      -0.307   9.049   4.686  1.00  0.00     0.000 C 
ENDROOT
BRANCH   1   2
ATOM      2  C   UNL     1      -1.642   9.748   4.998  1.00  0.00     0.000 C 
BRANCH   2   3
ATOM      3  C   UNL     1      -2.682   9.708   3.859  1.00  0.00     0.000 C 
BRANCH   3   4
ATOM      4  C   UNL     1      -4.061   9.150   4.254  1.00  0.00     0.000 C 
BRANCH   4   5
ATOM      5  C   UNL     1      -4.113   7.616   4.235  1.00  0.00     0.006 C 
BRANCH   5   6
ATOM      6  C   UNL     1      -3.428   7.060   2.983  1.00  0.00     0.053 C 
BRANCH   6   7
ATOM      7  C   UNL     1      -3.578   5.573   2.921  1.00  0.00     0.041 C 
ATOM      8  O   UNL     1      -4.539   5.008   3.505  1.00  0.00    -0.550 OA
ATOM      9  O   UNL     1      -2.629   4.806   2.257  1.00  0.00    -0.550 OA
ENDBRANCH   6   7
ENDBRANCH   5   6
ENDBRANCH   4   5
ENDBRANCH   3   4
ENDBRANCH   2   3
ENDBRANCH   1   2
BRANCH   1  10
ATOM     10  C   UNL     1       0.778   9.342   5.733  1.00  0.00     0.000 C 
BRANCH  10  11
ATOM     11  C   UNL     1       2.132   8.763   5.296  1.00  0.00    -0.000 C 
BRANCH  11  12
ATOM     12  C   UNL     1       2.738   7.818   6.344  1.00  0.00    -0.000 C 
BRANCH  12  13
ATOM     13  C   UNL     1       3.160   6.464   5.746  1.00  0.00    -0.000 C 
BRANCH  13  14
ATOM     14  C   UNL     1       2.082   5.382   5.916  1.00  0.00    -0.000 C 
BRANCH  14  15
ATOM     15  C   UNL     1       1.683   4.734   4.581  1.00  0.00    -0.003 C 
ATOM     16  C   UNL     1       0.630   5.571   3.859  1.00  0.00     0.004 C 
ENDBRANCH  14  15
ENDBRANCH  13  14
ENDBRANCH  12  13
ENDBRANCH  11  12
ENDBRANCH  10  11
ENDBRANCH   1  10
TORSDOF 12
ENDMDL
MODEL 5
REMARK VINA RESULT:    -3.602     14.216     15.112
REMARK INTER + INTRA:          -6.723
REMARK INTER:                  -5.821
REMARK INTRA:                  -0.902
REMARK UNBOUND:                -0.595
REMARK SMILES CCCCCCCCCCCCCC(=O)[O-]
REMARK SMILES IDX 8 1 9 2 10 3 11 4 12 5 13 6 14 7 15 8 16 9 7 10 6 11 5 12
REMARK SMILES IDX 4 13 3 14 2 15 1 16
REMARK H PARENT
REMARK Flexibility Score: inf
ROOT
ATOM      1  C   UNL     1       3.111   8.016   5.760  1.00  0.00     0.000 C 
ENDROOT
BRANCH   1   2
ATOM      2  C   UNL     1       2.956   6.539   6.163  1.00  0.00     0.000 C 
BRANCH   2   3
ATOM      3  C   UNL     1       1.904   5.749   5.358  1.00  0.00     0.000 C 
BRANCH   3   4
ATOM      4  C   UNL     1       2.469   4.628   4.467  1.00  0.00     0.000 C 
BRANCH   4   5
ATOM      5  C   UNL     1       2.030   3.227   4.919  1.00  0.00     0.006 C 
BRANCH   5   6
ATOM      6  C   UNL     1       0.844   3.309   5.884  1.00  0.00     0.053 C 
BRANCH   6   7
ATOM      7  C   UNL     1       1.213   2.736   7.216  1.00  0.00     0.041 C 
ATOM      8  O   UNL     1       0.376   2.058   7.867  1.00  0.00    -0.550 OA
ATOM      9  O   UNL     1       2.465   2.992   7.760  1.00  0.00    -0.550 OA
ENDBRANCH   6   7
ENDBRANCH   5   6
ENDBRANCH   4   5
ENDBRANCH   3   4
ENDBRANCH   2   3
ENDBRANCH   1   2
BRANCH   1  10
ATOM     10  C   UNL     1       2.452   8.979   6.759  1.00  0.00     0.000 C 
BRANCH  10  11
ATOM     11  C   UNL     1       1.097   9.473   6.231  1.00  0.00    -0.000 C 
BRANCH  11  12
ATOM     12  C   UNL     1       0.952   9.291   4.712  1.00  0.00    -0.000 C 
BRANCH  12  13
ATOM     13  C   UNL     1      -0.514   9.352   4.247  1.00  0.00    -0.000 C 
BRANCH  13  14
ATOM     14  C   UNL     1      -1.458   9.881   5.338  1.00  0.00    -0.000 C 
BRANCH  14  15
ATOM     15  C   UNL     1      -2.898  10.062   4.833  1.00  0.00    -0.003 C 
ATOM     16  C   UNL     1      -3.523   8.719   4.465  1.00  0.00     0.004 C 
ENDBRANCH  14  15
ENDBRANCH  13  14
ENDBRANCH  12  13
ENDBRANCH  11  12
ENDBRANCH  10  11
ENDBRANCH   1  10
TORSDOF 12
ENDMDL
MODEL 6
REMARK VINA RESULT:    -3.590      9.723     12.373
REMARK INTER + INTRA:          -6.703
REMARK INTER:                  -5.287
REMARK INTRA:                  -1.416
REMARK UNBOUND:                -0.595
REMARK SMILES CCCCCCCCCCCCCC(=O)[O-]
REMARK SMILES IDX 8 1 9 2 10 3 11 4 12 5 13 6 14 7 15 8 16 9 7 10 6 11 5 12
REMARK SMILES IDX 4 13 3 14 2 15 1 16
REMARK H PARENT
REMARK Flexibility Score: inf
ROOT
ATOM      1  C   UNL     1      -8.876  -6.706  -1.414  1.00  0.00     0.000 C 
ENDROOT
BRANCH   1   2
ATOM      2  C   UNL     1      -9.727  -6.899  -2.681  1.00  0.00     0.000 C 
BRANCH   2   3
ATOM      3  C   UNL     1      -8.927  -7.029  -3.993  1.00  0.00     0.000 C 
BRANCH   3   4
ATOM      4  C   UNL     1      -8.557  -8.469  -4.392  1.00  0.00     0.000 C 
BRANCH   4   5
ATOM      5  C   UNL     1      -7.063  -8.775  -4.206  1.00  0.00     0.006 C 
BRANCH   5   6
ATOM      6  C   UNL     1      -6.271  -7.493  -3.935  1.00  0.00     0.053 C 
BRANCH   6   7
ATOM      7  C   UNL     1      -4.920  -7.820  -3.382  1.00  0.00     0.041 C 
ATOM      8  O   UNL     1      -3.918  -7.133  -3.710  1.00  0.00    -0.550 OA
ATOM      9  O   UNL     1      -4.759  -8.914  -2.541  1.00  0.00    -0.550 OA
ENDBRANCH   6   7
ENDBRANCH   5   6
ENDBRANCH   4   5
ENDBRANCH   3   4
ENDBRANCH   2   3
ENDBRANCH   1   2
BRANCH   1  10
ATOM     10  C   UNL     1      -8.516  -8.033  -0.730  1.00  0.00     0.000 C 
BRANCH  10  11
ATOM     11  C   UNL     1      -7.154  -7.935  -0.027  1.00  0.00    -0.000 C 
BRANCH  11  12
ATOM     12  C   UNL     1      -7.239  -8.247   1.475  1.00  0.00    -0.000 C 
BRANCH  12  13
ATOM     13  C   UNL     1      -8.510  -9.032   1.845  1.00  0.00    -0.000 C 
BRANCH  13  14
ATOM     14  C   UNL     1      -9.178  -8.505   3.125  1.00  0.00    -0.000 C 
BRANCH  14  15
ATOM     15  C   UNL     1      -9.026  -6.985   3.285  1.00  0.00    -0.003 C 
ATOM     16  C   UNL     1     -10.125  -6.242   2.529  1.00  0.00     0.004 C 
ENDBRANCH  14  15
ENDBRANCH  13  14
ENDBRANCH  12  13
ENDBRANCH  11  12
ENDBRANCH  10  11
ENDBRANCH   1  10
TORSDOF 12
ENDMDL
MODEL 7
REMARK VINA RESULT:    -3.571     14.441     15.198
REMARK INTER + INTRA:          -6.670
REMARK INTER:                  -5.802
REMARK INTRA:                  -0.869
REMARK UNBOUND:                -0.595
REMARK SMILES CCCCCCCCCCCCCC(=O)[O-]
REMARK SMILES IDX 8 1 9 2 10 3 11 4 12 5 13 6 14 7 15 8 16 9 7 10 6 11 5 12
REMARK SMILES IDX 4 13 3 14 2 15 1 16
REMARK H PARENT
REMARK Flexibility Score: inf
ROOT
ATOM      1  C   UNL     1       0.432   9.417   4.270  1.00  0.00     0.000 C 
ENDROOT
BRANCH   1   2
ATOM      2  C   UNL     1       0.640  10.106   5.631  1.00  0.00     0.000 C 
BRANCH   2   3
ATOM      3  C   UNL     1       1.514   9.324   6.632  1.00  0.00     0.000 C 
BRANCH   3   4
ATOM      4  C   UNL     1       1.854   7.881   6.216  1.00  0.00     0.000 C 
BRANCH   4   5
ATOM      5  C   UNL     1       3.365   7.618   6.152  1.00  0.00     0.006 C 
BRANCH   5   6
ATOM      6  C   UNL     1       3.969   8.199   4.870  1.00  0.00     0.053 C 
BRANCH   6   7
ATOM      7  C   UNL     1       4.751   9.438   5.174  1.00  0.00     0.041 C 
ATOM      8  O   UNL     1       5.239  10.124   4.240  1.00  0.00    -0.550 OA
ATOM      9  O   UNL     1       4.980   9.808   6.493  1.00  0.00    -0.550 OA
ENDBRANCH   6   7
ENDBRANCH   5   6
ENDBRANCH   4   5
ENDBRANCH   3   4
ENDBRANCH   2   3
ENDBRANCH   1   2
BRANCH   1  10
ATOM     10  C   UNL     1      -1.048   9.315   3.873  1.00  0.00     0.000 C 
BRANCH  10  11
ATOM     11  C   UNL     1      -1.957   9.765   5.026  1.00  0.00    -0.000 C 
BRANCH  11  12
ATOM     12  C   UNL     1      -3.432   9.872   4.610  1.00  0.00    -0.000 C 
BRANCH  12  13
ATOM     13  C   UNL     1      -4.068   8.499   4.329  1.00  0.00    -0.000 C 
BRANCH  13  14
ATOM     14  C   UNL     1      -4.850   8.470   3.006  1.00  0.00    -0.000 C 
BRANCH  14  15
ATOM     15  C   UNL     1      -5.658   9.755   2.771  1.00  0.00    -0.003 C 
ATOM     16  C   UNL     1      -7.139   9.444   2.575  1.00  0.00     0.004 C 
ENDBRANCH  14  15
ENDBRANCH  13  14
ENDBRANCH  12  13
ENDBRANCH  11  12
ENDBRANCH  10  11
ENDBRANCH   1  10
TORSDOF 12
ENDMDL
MODEL 8
REMARK VINA RESULT:    -3.565     14.054     15.853
REMARK INTER + INTRA:          -6.660
REMARK INTER:                  -5.864
REMARK INTRA:                  -0.796
REMARK UNBOUND:                -0.595
REMARK SMILES CCCCCCCCCCCCCC(=O)[O-]
REMARK SMILES IDX 8 1 9 2 10 3 11 4 12 5 13 6 14 7 15 8 16 9 7 10 6 11 5 12
REMARK SMILES IDX 4 13 3 14 2 15 1 16
REMARK H PARENT
REMARK Flexibility Score: inf
ROOT
ATOM      1  C   UNL     1       1.123   9.839   5.959  1.00  0.00     0.000 C 
ENDROOT
BRANCH   1   2
ATOM      2  C   UNL     1      -0.378  10.125   5.771  1.00  0.00     0.000 C 
BRANCH   2   3
ATOM      3  C   UNL     1      -1.087   9.238   4.727  1.00  0.00     0.000 C 
BRANCH   3   4
ATOM      4  C   UNL     1      -2.305   9.883   4.041  1.00  0.00     0.000 C 
BRANCH   4   5
ATOM      5  C   UNL     1      -3.640   9.451   4.666  1.00  0.00     0.006 C 
BRANCH   5   6
ATOM      6  C   UNL     1      -4.135   8.140   4.049  1.00  0.00     0.053 C 
BRANCH   6   7
ATOM      7  C   UNL     1      -5.338   8.384   3.195  1.00  0.00     0.041 C 
ATOM      8  O   UNL     1      -5.770   7.479   2.435  1.00  0.00    -0.550 OA
ATOM      9  O   UNL     1      -5.955   9.629   3.203  1.00  0.00    -0.550 OA
ENDBRANCH   6   7
ENDBRANCH   5   6
ENDBRANCH   4   5
ENDBRANCH   3   4
ENDBRANCH   2   3
ENDBRANCH   1   2
BRANCH   1  10
ATOM     10  C   UNL     1       1.580   8.560   5.241  1.00  0.00     0.000 C 
BRANCH  10  11
ATOM     11  C   UNL     1       2.272   7.600   6.220  1.00  0.00    -0.000 C 
BRANCH  11  12
ATOM     12  C   UNL     1       3.130   6.544   5.506  1.00  0.00    -0.000 C 
BRANCH  12  13
ATOM     13  C   UNL     1       2.925   5.130   6.080  1.00  0.00    -0.000 C 
BRANCH  13  14
ATOM     14  C   UNL     1       1.553   4.539   5.719  1.00  0.00    -0.000 C 
BRANCH  14  15
ATOM     15  C   UNL     1       1.410   4.259   4.216  1.00  0.00    -0.003 C 
ATOM     16  C   UNL     1       0.410   5.216   3.573  1.00  0.00     0.004 C 
ENDBRANCH  14  15
ENDBRANCH  13  14
ENDBRANCH  12  13
ENDBRANCH  11  12
ENDBRANCH  10  11
ENDBRANCH   1  10
TORSDOF 12
ENDMDL
MODEL 9
REMARK VINA RESULT:    -3.564      4.945      8.865
REMARK INTER + INTRA:          -6.659
REMARK INTER:                  -4.587
REMARK INTRA:                  -2.073
REMARK UNBOUND:                -0.595
REMARK SMILES CCCCCCCCCCCCCC(=O)[O-]
REMARK SMILES IDX 8 1 9 2 10 3 11 4 12 5 13 6 14 7 15 8 16 9 7 10 6 11 5 12
REMARK SMILES IDX 4 13 3 14 2 15 1 16
REMARK H PARENT
REMARK Flexibility Score: inf
ROOT
ATOM      1  C   UNL     1       6.464   0.650  -4.175  1.00  0.00     0.000 C 
ENDROOT
BRANCH   1   2
ATOM      2  C   UNL     1       5.635   1.369  -5.254  1.00  0.00     0.000 C 
BRANCH   2   3
ATOM      3  C   UNL     1       6.263   1.377  -6.663  1.00  0.00     0.000 C 
BRANCH   3   4
ATOM      4  C   UNL     1       5.628   0.398  -7.666  1.00  0.00     0.000 C 
BRANCH   4   5
ATOM      5  C   UNL     1       4.138   0.146  -7.393  1.00  0.00     0.006 C 
BRANCH   5   6
ATOM      6  C   UNL     1       3.890  -1.317  -7.013  1.00  0.00     0.053 C 
BRANCH   6   7
ATOM      7  C   UNL     1       2.909  -1.407  -5.887  1.00  0.00     0.041 C 
ATOM      8  O   UNL     1       1.674  -1.455  -6.125  1.00  0.00    -0.550 OA
ATOM      9  O   UNL     1       3.357  -1.388  -4.573  1.00  0.00    -0.550 OA
ENDBRANCH   6   7
ENDBRANCH   5   6
ENDBRANCH   4   5
ENDBRANCH   3   4
ENDBRANCH   2   3
ENDBRANCH   1   2
BRANCH   1  10
ATOM     10  C   UNL     1       7.913   1.156  -4.100  1.00  0.00     0.000 C 
BRANCH  10  11
ATOM     11  C   UNL     1       8.906  -0.013  -4.183  1.00  0.00    -0.000 C 
BRANCH  11  12
ATOM     12  C   UNL     1       9.762   0.028  -5.458  1.00  0.00    -0.000 C 
BRANCH  12  13
ATOM     13  C   UNL     1       9.138  -0.773  -6.615  1.00  0.00    -0.000 C 
BRANCH  13  14
ATOM     14  C   UNL     1       8.813  -2.223  -6.222  1.00  0.00    -0.000 C 
BRANCH  14  15
ATOM     15  C   UNL     1       7.328  -2.566  -6.415  1.00  0.00    -0.003 C 
ATOM     16  C   UNL     1       6.667  -2.912  -5.083  1.00  0.00     0.004 C 
ENDBRANCH  14  15
ENDBRANCH  13  14
ENDBRANCH  12  13
ENDBRANCH  11  12
ENDBRANCH  10  11
ENDBRANCH   1  10
TORSDOF 12
ENDMDL
