MODEL 1
REMARK VINA RESULT:    -4.367      0.000      0.000
REMARK INTER + INTRA:          -4.999
REMARK INTER:                  -4.749
REMARK INTRA:                  -0.249
REMARK UNBOUND:                -0.249
REMARK SMILES O=C([O-])c1ccccc1O
REMARK SMILES IDX 4 1 9 2 5 3 8 4 6 5 7 6 2 7 1 8 3 9 10 10
REMARK H PARENT 10 11
REMARK Flexibility Score: inf
ROOT
ATOM      1  C   UNL     1      49.964 -20.165  13.864  1.00  0.00     0.039 A 
ATOM      2  C   UNL     1      50.506 -18.899  14.190  1.00  0.00     0.124 A 
ATOM      3  C   UNL     1      50.475 -20.855  12.747  1.00  0.00     0.014 A 
ATOM      4  C   UNL     1      51.535 -18.356  13.403  1.00  0.00     0.047 A 
ATOM      5  C   UNL     1      51.499 -20.303  11.973  1.00  0.00     0.001 A 
ATOM      6  C   UNL     1      52.028 -19.055  12.301  1.00  0.00     0.004 A 
ENDROOT
BRANCH   1   7
ATOM      7  C   UNL     1      48.875 -20.778  14.668  1.00  0.00     0.075 C 
ATOM      8  O   UNL     1      47.814 -20.137  14.895  1.00  0.00    -0.545 OA
ATOM      9  O   UNL     1      48.999 -22.062  15.185  1.00  0.00    -0.545 OA
ENDBRANCH   1   7
BRANCH   2  10
ATOM     10  O   UNL     1      50.033 -18.178  15.285  1.00  0.00    -0.507 OA
ATOM     11  H   UNL     1      50.288 -18.421  16.235  1.00  0.00     0.293 HD
ENDBRANCH   2  10
TORSDOF 2
ENDMDL
MODEL 2
REMARK VINA RESULT:    -4.302      2.018      3.510
REMARK INTER + INTRA:          -4.929
REMARK INTER:                  -4.680
REMARK INTRA:                  -0.248
REMARK UNBOUND:                -0.249
REMARK SMILES O=C([O-])c1ccccc1O
REMARK SMILES IDX 4 1 9 2 5 3 8 4 6 5 7 6 2 7 1 8 3 9 10 10
REMARK H PARENT 10 11
REMARK Flexibility Score: inf
ROOT
ATOM      1  C   UNL     1      50.832 -19.765  13.215  1.00  0.00     0.039 A 
ATOM      2  C   UNL     1      50.142 -19.202  14.315  1.00  0.00     0.124 A 
ATOM      3  C   UNL     1      50.234 -20.830  12.512  1.00  0.00     0.014 A 
ATOM      4  C   UNL     1      48.885 -19.707  14.685  1.00  0.00     0.047 A 
ATOM      5  C   UNL     1      48.983 -21.322  12.891  1.00  0.00     0.001 A 
ATOM      6  C   UNL     1      48.310 -20.762  13.975  1.00  0.00     0.004 A 
ENDROOT
BRANCH   1   7
ATOM      7  C   UNL     1      52.164 -19.262  12.789  1.00  0.00     0.075 C 
ATOM      8  O   UNL     1      53.114 -19.200  13.614  1.00  0.00    -0.545 OA
ATOM      9  O   UNL     1      52.392 -18.852  11.481  1.00  0.00    -0.545 OA
ENDBRANCH   1   7
BRANCH   2  10
ATOM     10  O   UNL     1      50.693 -18.147  15.042  1.00  0.00    -0.507 OA
ATOM     11  H   UNL     1      50.898 -18.229  16.030  1.00  0.00     0.293 HD
ENDBRANCH   2  10
TORSDOF 2
ENDMDL
MODEL 3
REMARK VINA RESULT:    -4.263      1.326      2.179
REMARK INTER + INTRA:          -4.886
REMARK INTER:                  -4.633
REMARK INTRA:                  -0.254
REMARK UNBOUND:                -0.249
REMARK SMILES O=C([O-])c1ccccc1O
REMARK SMILES IDX 4 1 9 2 5 3 8 4 6 5 7 6 2 7 1 8 3 9 10 10
REMARK H PARENT 10 11
REMARK Flexibility Score: inf
ROOT
ATOM      1  C   UNL     1      50.730 -19.250  13.200  1.00  0.00     0.039 A 
ATOM      2  C   UNL     1      52.094 -18.871  13.204  1.00  0.00     0.124 A 
ATOM      3  C   UNL     1      50.206 -19.882  12.056  1.00  0.00     0.014 A 
ATOM      4  C   UNL     1      52.894 -19.128  12.080  1.00  0.00     0.047 A 
ATOM      5  C   UNL     1      51.014 -20.133  10.944  1.00  0.00     0.001 A 
ATOM      6  C   UNL     1      52.356 -19.756  10.956  1.00  0.00     0.004 A 
ENDROOT
BRANCH   1   7
ATOM      7  C   UNL     1      49.846 -18.997  14.368  1.00  0.00     0.075 C 
ATOM      8  O   UNL     1      49.036 -19.880  14.756  1.00  0.00    -0.545 OA
ATOM      9  O   UNL     1      49.891 -17.789  15.053  1.00  0.00    -0.545 OA
ENDBRANCH   1   7
BRANCH   2  10
ATOM     10  O   UNL     1      52.658 -18.242  14.313  1.00  0.00    -0.507 OA
ATOM     11  H   UNL     1      52.986 -18.767  15.115  1.00  0.00     0.293 HD
ENDBRANCH   2  10
TORSDOF 2
ENDMDL
MODEL 4
REMARK VINA RESULT:    -4.172      2.503      3.244
REMARK INTER + INTRA:          -4.788
REMARK INTER:                  -4.533
REMARK INTRA:                  -0.255
REMARK UNBOUND:                -0.249
REMARK SMILES O=C([O-])c1ccccc1O
REMARK SMILES IDX 4 1 9 2 5 3 8 4 6 5 7 6 2 7 1 8 3 9 10 10
REMARK H PARENT 10 11
REMARK Flexibility Score: inf
ROOT
ATOM      1  C   UNL     1      50.904 -20.219  12.972  1.00  0.00     0.039 A 
ATOM      2  C   UNL     1      51.664 -19.025  13.027  1.00  0.00     0.124 A 
ATOM      3  C   UNL     1      49.763 -20.334  13.790  1.00  0.00     0.014 A 
ATOM      4  C   UNL     1      51.271 -17.986  13.884  1.00  0.00     0.047 A 
ATOM      5  C   UNL     1      49.383 -19.291  14.638  1.00  0.00     0.001 A 
ATOM      6  C   UNL     1      50.136 -18.119  14.686  1.00  0.00     0.004 A 
ENDROOT
BRANCH   1   7
ATOM      7  C   UNL     1      51.283 -21.345  12.080  1.00  0.00     0.075 C 
ATOM      8  O   UNL     1      50.407 -21.936  11.394  1.00  0.00    -0.545 OA
ATOM      9  O   UNL     1      52.603 -21.770  11.981  1.00  0.00    -0.545 OA
ENDBRANCH   1   7
BRANCH   2  10
ATOM     10  O   UNL     1      52.802 -18.865  12.237  1.00  0.00    -0.507 OA
ATOM     11  H   UNL     1      53.032 -19.513  11.494  1.00  0.00     0.293 HD
ENDBRANCH   2  10
TORSDOF 2
ENDMDL
MODEL 5
REMARK VINA RESULT:    -4.128      2.357      3.813
REMARK INTER + INTRA:          -4.739
REMARK INTER:                  -4.490
REMARK INTRA:                  -0.249
REMARK UNBOUND:                -0.249
REMARK SMILES O=C([O-])c1ccccc1O
REMARK SMILES IDX 4 1 9 2 5 3 8 4 6 5 7 6 2 7 1 8 3 9 10 10
REMARK H PARENT 10 11
REMARK Flexibility Score: inf
ROOT
ATOM      1  C   UNL     1      50.377 -19.231  13.806  1.00  0.00     0.039 A 
ATOM      2  C   UNL     1      50.486 -19.980  12.610  1.00  0.00     0.124 A 
ATOM      3  C   UNL     1      49.308 -19.505  14.682  1.00  0.00     0.014 A 
ATOM      4  C   UNL     1      49.537 -20.973  12.318  1.00  0.00     0.047 A 
ATOM      5  C   UNL     1      48.372 -20.496  14.380  1.00  0.00     0.001 A 
ATOM      6  C   UNL     1      48.486 -21.229  13.200  1.00  0.00     0.004 A 
ENDROOT
BRANCH   1   7
ATOM      7  C   UNL     1      51.357 -18.171  14.155  1.00  0.00     0.075 C 
ATOM      8  O   UNL     1      52.591 -18.426  14.176  1.00  0.00    -0.545 OA
ATOM      9  O   UNL     1      50.940 -16.881  14.465  1.00  0.00    -0.545 OA
ENDBRANCH   1   7
BRANCH   2  10
ATOM     10  O   UNL     1      51.526 -19.746  11.712  1.00  0.00    -0.507 OA
ATOM     11  H   UNL     1      51.409 -19.145  10.905  1.00  0.00     0.293 HD
ENDBRANCH   2  10
TORSDOF 2
ENDMDL
MODEL 6
REMARK VINA RESULT:    -4.115      1.424      3.197
REMARK INTER + INTRA:          -4.725
REMARK INTER:                  -4.476
REMARK INTRA:                  -0.250
REMARK UNBOUND:                -0.249
REMARK SMILES O=C([O-])c1ccccc1O
REMARK SMILES IDX 4 1 9 2 5 3 8 4 6 5 7 6 2 7 1 8 3 9 10 10
REMARK H PARENT 10 11
REMARK Flexibility Score: inf
ROOT
ATOM      1  C   UNL     1      50.209 -19.521  13.332  1.00  0.00     0.039 A 
ATOM      2  C   UNL     1      49.271 -20.425  13.885  1.00  0.00     0.124 A 
ATOM      3  C   UNL     1      50.513 -19.615  11.959  1.00  0.00     0.014 A 
ATOM      4  C   UNL     1      48.663 -21.390  13.066  1.00  0.00     0.047 A 
ATOM      5  C   UNL     1      49.900 -20.579  11.156  1.00  0.00     0.001 A 
ATOM      6  C   UNL     1      48.977 -21.465  11.708  1.00  0.00     0.004 A 
ENDROOT
BRANCH   1   7
ATOM      7  C   UNL     1      50.877 -18.485  14.161  1.00  0.00     0.075 C 
ATOM      8  O   UNL     1      52.133 -18.385  14.164  1.00  0.00    -0.545 OA
ATOM      9  O   UNL     1      50.139 -17.609  14.947  1.00  0.00    -0.545 OA
ENDBRANCH   1   7
BRANCH   2  10
ATOM     10  O   UNL     1      48.938 -20.372  15.238  1.00  0.00    -0.507 OA
ATOM     11  H   UNL     1      48.839 -21.211  15.796  1.00  0.00     0.293 HD
ENDBRANCH   2  10
TORSDOF 2
ENDMDL
MODEL 7
REMARK VINA RESULT:    -4.057      1.383      2.251
REMARK INTER + INTRA:          -4.662
REMARK INTER:                  -4.420
REMARK INTRA:                  -0.242
REMARK UNBOUND:                -0.249
REMARK SMILES O=C([O-])c1ccccc1O
REMARK SMILES IDX 4 1 9 2 5 3 8 4 6 5 7 6 2 7 1 8 3 9 10 10
REMARK H PARENT 10 11
REMARK Flexibility Score: inf
ROOT
ATOM      1  C   UNL     1      50.113 -20.462  13.631  1.00  0.00     0.039 A 
ATOM      2  C   UNL     1      49.375 -19.730  14.592  1.00  0.00     0.124 A 
ATOM      3  C   UNL     1      51.183 -19.826  12.971  1.00  0.00     0.014 A 
ATOM      4  C   UNL     1      49.717 -18.398  14.870  1.00  0.00     0.047 A 
ATOM      5  C   UNL     1      51.513 -18.500  13.258  1.00  0.00     0.001 A 
ATOM      6  C   UNL     1      50.782 -17.787  14.206  1.00  0.00     0.004 A 
ENDROOT
BRANCH   1   7
ATOM      7  C   UNL     1      49.785 -21.874  13.304  1.00  0.00     0.075 C 
ATOM      8  O   UNL     1      49.922 -22.303  12.128  1.00  0.00    -0.545 OA
ATOM      9  O   UNL     1      49.323 -22.748  14.281  1.00  0.00    -0.545 OA
ENDBRANCH   1   7
BRANCH   2  10
ATOM     10  O   UNL     1      48.307 -20.316  15.271  1.00  0.00    -0.507 OA
ATOM     11  H   UNL     1      48.427 -20.760  16.173  1.00  0.00     0.293 HD
ENDBRANCH   2  10
TORSDOF 2
ENDMDL
MODEL 8
REMARK VINA RESULT:    -4.041      2.613      4.008
REMARK INTER + INTRA:          -4.645
REMARK INTER:                  -4.390
REMARK INTRA:                  -0.255
REMARK UNBOUND:                -0.249
REMARK SMILES O=C([O-])c1ccccc1O
REMARK SMILES IDX 4 1 9 2 5 3 8 4 6 5 7 6 2 7 1 8 3 9 10 10
REMARK H PARENT 10 11
REMARK Flexibility Score: inf
ROOT
ATOM      1  C   UNL     1      51.285 -19.648  12.963  1.00  0.00     0.039 A 
ATOM      2  C   UNL     1      50.264 -20.615  13.123  1.00  0.00     0.124 A 
ATOM      3  C   UNL     1      51.212 -18.455  13.710  1.00  0.00     0.014 A 
ATOM      4  C   UNL     1      49.206 -20.374  14.013  1.00  0.00     0.047 A 
ATOM      5  C   UNL     1      50.154 -18.229  14.593  1.00  0.00     0.001 A 
ATOM      6  C   UNL     1      49.153 -19.186  14.745  1.00  0.00     0.004 A 
ENDROOT
BRANCH   1   7
ATOM      7  C   UNL     1      52.423 -19.860  12.031  1.00  0.00     0.075 C 
ATOM      8  O   UNL     1      52.772 -18.949  11.235  1.00  0.00    -0.545 OA
ATOM      9  O   UNL     1      53.123 -21.061  12.015  1.00  0.00    -0.545 OA
ENDBRANCH   1   7
BRANCH   2  10
ATOM     10  O   UNL     1      50.292 -21.810  12.405  1.00  0.00    -0.507 OA
ATOM     11  H   UNL     1      49.490 -22.428  12.365  1.00  0.00     0.293 HD
ENDBRANCH   2  10
TORSDOF 2
ENDMDL
MODEL 9
REMARK VINA RESULT:    -4.022      1.706      2.513
REMARK INTER + INTRA:          -4.624
REMARK INTER:                  -4.375
REMARK INTRA:                  -0.248
REMARK UNBOUND:                -0.249
REMARK SMILES O=C([O-])c1ccccc1O
REMARK SMILES IDX 4 1 9 2 5 3 8 4 6 5 7 6 2 7 1 8 3 9 10 10
REMARK H PARENT 10 11
REMARK Flexibility Score: inf
ROOT
ATOM      1  C   UNL     1      49.773 -20.183  13.980  1.00  0.00     0.039 A 
ATOM      2  C   UNL     1      50.958 -19.982  13.233  1.00  0.00     0.124 A 
ATOM      3  C   UNL     1      49.288 -19.128  14.779  1.00  0.00     0.014 A 
ATOM      4  C   UNL     1      51.625 -18.748  13.298  1.00  0.00     0.047 A 
ATOM      5  C   UNL     1      49.961 -17.905  14.833  1.00  0.00     0.001 A 
ATOM      6  C   UNL     1      51.128 -17.716  14.094  1.00  0.00     0.004 A 
ENDROOT
BRANCH   1   7
ATOM      7  C   UNL     1      49.035 -21.472  13.943  1.00  0.00     0.075 C 
ATOM      8  O   UNL     1      48.757 -22.078  15.012  1.00  0.00    -0.545 OA
ATOM      9  O   UNL     1      48.638 -22.036  12.737  1.00  0.00    -0.545 OA
ENDBRANCH   1   7
BRANCH   2  10
ATOM     10  O   UNL     1      51.478 -20.996  12.429  1.00  0.00    -0.507 OA
ATOM     11  H   UNL     1      51.755 -20.828  11.470  1.00  0.00     0.293 HD
ENDBRANCH   2  10
TORSDOF 2
ENDMDL
