MODEL 1
REMARK VINA RESULT:    -4.308      0.000      0.000
REMARK INTER + INTRA:          -6.248
REMARK INTER:                  -6.070
REMARK INTRA:                  -0.178
REMARK UNBOUND:                -0.178
REMARK SMILES CCCCCCCCC(=O)[O-]
REMARK SMILES IDX 6 1 7 2 8 3 9 4 10 5 11 6 5 7 4 8 3 9 2 10 1 11
REMARK H PARENT
REMARK Flexibility Score: inf
ROOT
ATOM      1  C   UNL     1      -9.172   4.496  -9.228  1.00  0.00     0.000 C 
ENDROOT
BRANCH   1   2
ATOM      2  C   UNL     1      -9.102   5.597  -8.154  1.00  0.00     0.006 C 
BRANCH   2   3
ATOM      3  C   UNL     1      -7.813   5.516  -7.326  1.00  0.00     0.053 C 
BRANCH   3   4
ATOM      4  C   UNL     1      -8.101   5.456  -5.857  1.00  0.00     0.041 C 
ATOM      5  O   UNL     1      -7.578   4.561  -5.143  1.00  0.00    -0.550 OA
ATOM      6  O   UNL     1      -8.976   6.371  -5.284  1.00  0.00    -0.550 OA
ENDBRANCH   3   4
ENDBRANCH   2   3
ENDBRANCH   1   2
BRANCH   1   7
ATOM      7  C   UNL     1      -9.521   5.048 -10.619  1.00  0.00     0.000 C 
BRANCH   7   8
ATOM      8  C   UNL     1      -8.291   5.165 -11.536  1.00  0.00    -0.000 C 
BRANCH   8   9
ATOM      9  C   UNL     1      -8.504   4.451 -12.888  1.00  0.00    -0.000 C 
BRANCH   9  10
ATOM     10  C   UNL     1      -7.486   4.861 -13.966  1.00  0.00    -0.003 C 
ATOM     11  C   UNL     1      -8.064   5.827 -14.998  1.00  0.00     0.004 C 
ENDBRANCH   9  10
ENDBRANCH   8   9
ENDBRANCH   7   8
ENDBRANCH   1   7
TORSDOF 7
ENDMDL
MODEL 2
REMARK VINA RESULT:    -4.260      4.084      6.606
REMARK INTER + INTRA:          -6.182
REMARK INTER:                  -5.929
REMARK INTRA:                  -0.252
REMARK UNBOUND:                -0.178
REMARK SMILES CCCCCCCCC(=O)[O-]
REMARK SMILES IDX 6 1 7 2 8 3 9 4 10 5 11 6 5 7 4 8 3 9 2 10 1 11
REMARK H PARENT
REMARK Flexibility Score: inf
ROOT
ATOM      1  C   UNL     1      -8.307   5.116 -11.565  1.00  0.00     0.000 C 
ENDROOT
BRANCH   1   2
ATOM      2  C   UNL     1      -8.568   4.452 -12.929  1.00  0.00     0.006 C 
BRANCH   2   3
ATOM      3  C   UNL     1      -7.897   5.212 -14.080  1.00  0.00     0.053 C 
BRANCH   3   4
ATOM      4  C   UNL     1      -6.479   4.771 -14.282  1.00  0.00     0.041 C 
ATOM      5  O   UNL     1      -5.534   5.593 -14.152  1.00  0.00    -0.550 OA
ATOM      6  O   UNL     1      -6.205   3.459 -14.646  1.00  0.00    -0.550 OA
ENDBRANCH   3   4
ENDBRANCH   2   3
ENDBRANCH   1   2
BRANCH   1   7
ATOM      7  C   UNL     1      -9.550   5.119 -10.661  1.00  0.00     0.000 C 
BRANCH   7   8
ATOM      8  C   UNL     1      -9.294   4.451  -9.299  1.00  0.00    -0.000 C 
BRANCH   8   9
ATOM      9  C   UNL     1      -9.012   5.484  -8.188  1.00  0.00    -0.000 C 
BRANCH   9  10
ATOM     10  C   UNL     1      -7.525   5.587  -7.809  1.00  0.00    -0.003 C 
ATOM     11  C   UNL     1      -7.266   6.566  -6.665  1.00  0.00     0.004 C 
ENDBRANCH   9  10
ENDBRANCH   8   9
ENDBRANCH   7   8
ENDBRANCH   1   7
TORSDOF 7
ENDMDL
MODEL 3
REMARK VINA RESULT:    -4.127      1.790      2.657
REMARK INTER + INTRA:          -5.994
REMARK INTER:                  -5.636
REMARK INTRA:                  -0.358
REMARK UNBOUND:                -0.178
REMARK SMILES CCCCCCCCC(=O)[O-]
REMARK SMILES IDX 6 1 7 2 8 3 9 4 10 5 11 6 5 7 4 8 3 9 2 10 1 11
REMARK H PARENT
REMARK Flexibility Score: inf
ROOT
ATOM      1  C   UNL     1      -8.747   4.505 -11.835  1.00  0.00     0.000 C 
ENDROOT
BRANCH   1   2
ATOM      2  C   UNL     1      -9.401   5.230 -10.645  1.00  0.00     0.006 C 
BRANCH   2   3
ATOM      3  C   UNL     1      -9.235   4.455  -9.332  1.00  0.00     0.053 C 
BRANCH   3   4
ATOM      4  C   UNL     1      -8.624   5.305  -8.260  1.00  0.00     0.041 C 
ATOM      5  O   UNL     1      -7.401   5.601  -8.305  1.00  0.00    -0.550 OA
ATOM      6  O   UNL     1      -9.399   5.742  -7.194  1.00  0.00    -0.550 OA
ENDBRANCH   3   4
ENDBRANCH   2   3
ENDBRANCH   1   2
BRANCH   1   7
ATOM      7  C   UNL     1      -7.929   5.451 -12.727  1.00  0.00     0.000 C 
BRANCH   7   8
ATOM      8  C   UNL     1      -6.453   5.537 -12.304  1.00  0.00    -0.000 C 
BRANCH   8   9
ATOM      9  C   UNL     1      -5.499   5.536 -13.517  1.00  0.00    -0.000 C 
BRANCH   9  10
ATOM     10  C   UNL     1      -6.108   4.897 -14.777  1.00  0.00    -0.003 C 
ATOM     11  C   UNL     1      -5.709   3.434 -14.959  1.00  0.00     0.004 C 
ENDBRANCH   9  10
ENDBRANCH   8   9
ENDBRANCH   7   8
ENDBRANCH   1   7
TORSDOF 7
ENDMDL
MODEL 4
REMARK VINA RESULT:    -4.124      3.520      6.378
REMARK INTER + INTRA:          -5.990
REMARK INTER:                  -5.754
REMARK INTRA:                  -0.236
REMARK UNBOUND:                -0.178
REMARK SMILES CCCCCCCCC(=O)[O-]
REMARK SMILES IDX 6 1 7 2 8 3 9 4 10 5 11 6 5 7 4 8 3 9 2 10 1 11
REMARK H PARENT
REMARK Flexibility Score: inf
ROOT
ATOM      1  C   UNL     1      -9.301   4.469  -9.400  1.00  0.00     0.000 C 
ENDROOT
BRANCH   1   2
ATOM      2  C   UNL     1      -9.339   5.206 -10.751  1.00  0.00     0.006 C 
BRANCH   2   3
ATOM      3  C   UNL     1      -8.617   4.426 -11.857  1.00  0.00     0.053 C 
BRANCH   3   4
ATOM      4  C   UNL     1      -7.691   5.304 -12.641  1.00  0.00     0.041 C 
ATOM      5  O   UNL     1      -6.629   5.734 -12.118  1.00  0.00    -0.550 OA
ATOM      6  O   UNL     1      -8.018   5.675 -13.939  1.00  0.00    -0.550 OA
ENDBRANCH   3   4
ENDBRANCH   2   3
ENDBRANCH   1   2
BRANCH   1   7
ATOM      7  C   UNL     1      -9.092   5.421  -8.212  1.00  0.00     0.000 C 
BRANCH   7   8
ATOM      8  C   UNL     1      -7.607   5.605  -7.855  1.00  0.00    -0.000 C 
BRANCH   8   9
ATOM      9  C   UNL     1      -7.415   6.494  -6.608  1.00  0.00    -0.000 C 
BRANCH   9  10
ATOM     10  C   UNL     1      -8.145   5.968  -5.360  1.00  0.00    -0.003 C 
ATOM     11  C   UNL     1      -9.320   6.848  -4.940  1.00  0.00     0.004 C 
ENDBRANCH   9  10
ENDBRANCH   8   9
ENDBRANCH   7   8
ENDBRANCH   1   7
TORSDOF 7
ENDMDL
MODEL 5
REMARK VINA RESULT:    -3.937      1.999      2.604
REMARK INTER + INTRA:          -5.725
REMARK INTER:                  -5.444
REMARK INTRA:                  -0.281
REMARK UNBOUND:                -0.178
REMARK SMILES CCCCCCCCC(=O)[O-]
REMARK SMILES IDX 6 1 7 2 8 3 9 4 10 5 11 6 5 7 4 8 3 9 2 10 1 11
REMARK H PARENT
REMARK Flexibility Score: inf
ROOT
ATOM      1  C   UNL     1      -9.103   5.685  -7.583  1.00  0.00     0.000 C 
ENDROOT
BRANCH   1   2
ATOM      2  C   UNL     1      -8.026   5.588  -6.489  1.00  0.00     0.006 C 
BRANCH   2   3
ATOM      3  C   UNL     1      -7.395   6.951  -6.174  1.00  0.00     0.053 C 
BRANCH   3   4
ATOM      4  C   UNL     1      -5.998   7.050  -6.704  1.00  0.00     0.041 C 
ATOM      5  O   UNL     1      -5.784   7.005  -7.944  1.00  0.00    -0.550 OA
ATOM      6  O   UNL     1      -4.927   7.158  -5.825  1.00  0.00    -0.550 OA
ENDBRANCH   3   4
ENDBRANCH   2   3
ENDBRANCH   1   2
BRANCH   1   7
ATOM      7  C   UNL     1      -8.634   5.109  -8.928  1.00  0.00     0.000 C 
BRANCH   7   8
ATOM      8  C   UNL     1      -9.705   5.219 -10.027  1.00  0.00    -0.000 C 
BRANCH   8   9
ATOM      9  C   UNL     1      -9.235   4.606 -11.362  1.00  0.00    -0.000 C 
BRANCH   9  10
ATOM     10  C   UNL     1      -7.947   5.243 -11.911  1.00  0.00    -0.003 C 
ATOM     11  C   UNL     1      -7.405   4.528 -13.147  1.00  0.00     0.004 C 
ENDBRANCH   9  10
ENDBRANCH   8   9
ENDBRANCH   7   8
ENDBRANCH   1   7
TORSDOF 7
ENDMDL
MODEL 6
REMARK VINA RESULT:    -3.896      1.994      3.535
REMARK INTER + INTRA:          -5.668
REMARK INTER:                  -5.322
REMARK INTRA:                  -0.346
REMARK UNBOUND:                -0.178
REMARK SMILES CCCCCCCCC(=O)[O-]
REMARK SMILES IDX 6 1 7 2 8 3 9 4 10 5 11 6 5 7 4 8 3 9 2 10 1 11
REMARK H PARENT
REMARK Flexibility Score: inf
ROOT
ATOM      1  C   UNL     1      -8.015   5.268  -5.709  1.00  0.00     0.000 C 
ENDROOT
BRANCH   1   2
ATOM      2  C   UNL     1      -9.440   5.809  -5.493  1.00  0.00     0.006 C 
BRANCH   2   3
ATOM      3  C   UNL     1      -9.445   7.128  -4.708  1.00  0.00     0.053 C 
BRANCH   3   4
ATOM      4  C   UNL     1      -8.673   7.014  -3.429  1.00  0.00     0.041 C 
ATOM      5  O   UNL     1      -9.076   6.254  -2.510  1.00  0.00    -0.550 OA
ATOM      6  O   UNL     1      -7.526   7.775  -3.240  1.00  0.00    -0.550 OA
ENDBRANCH   3   4
ENDBRANCH   2   3
ENDBRANCH   1   2
BRANCH   1   7
ATOM      7  C   UNL     1      -7.578   5.325  -7.181  1.00  0.00     0.000 C 
BRANCH   7   8
ATOM      8  C   UNL     1      -8.708   5.789  -8.118  1.00  0.00    -0.000 C 
BRANCH   8   9
ATOM      9  C   UNL     1      -9.223   4.646  -9.018  1.00  0.00    -0.000 C 
BRANCH   9  10
ATOM     10  C   UNL     1      -9.747   5.127 -10.382  1.00  0.00    -0.003 C 
ATOM     11  C   UNL     1      -8.733   4.948 -11.509  1.00  0.00     0.004 C 
ENDBRANCH   9  10
ENDBRANCH   8   9
ENDBRANCH   7   8
ENDBRANCH   1   7
TORSDOF 7
ENDMDL
MODEL 7
REMARK VINA RESULT:    -3.848      1.855      3.341
REMARK INTER + INTRA:          -5.601
REMARK INTER:                  -5.346
REMARK INTRA:                  -0.255
REMARK UNBOUND:                -0.178
REMARK SMILES CCCCCCCCC(=O)[O-]
REMARK SMILES IDX 6 1 7 2 8 3 9 4 10 5 11 6 5 7 4 8 3 9 2 10 1 11
REMARK H PARENT
REMARK Flexibility Score: inf
ROOT
ATOM      1  C   UNL     1      -7.310   6.784  -6.681  1.00  0.00     0.000 C 
ENDROOT
BRANCH   1   2
ATOM      2  C   UNL     1      -8.002   6.783  -5.306  1.00  0.00     0.006 C 
BRANCH   2   3
ATOM      3  C   UNL     1      -8.109   5.371  -4.714  1.00  0.00     0.053 C 
BRANCH   3   4
ATOM      4  C   UNL     1      -6.913   5.029  -3.880  1.00  0.00     0.041 C 
ATOM      5  O   UNL     1      -6.494   3.842  -3.826  1.00  0.00    -0.550 OA
ATOM      6  O   UNL     1      -6.280   6.016  -3.134  1.00  0.00    -0.550 OA
ENDBRANCH   3   4
ENDBRANCH   2   3
ENDBRANCH   1   2
BRANCH   1   7
ATOM      7  C   UNL     1      -7.654   5.542  -7.518  1.00  0.00     0.000 C 
BRANCH   7   8
ATOM      8  C   UNL     1      -9.080   5.590  -8.092  1.00  0.00    -0.000 C 
BRANCH   8   9
ATOM      9  C   UNL     1      -9.291   4.549  -9.212  1.00  0.00    -0.000 C 
BRANCH   9  10
ATOM     10  C   UNL     1      -9.669   5.172 -10.566  1.00  0.00    -0.003 C 
ATOM     11  C   UNL     1      -8.677   4.836 -11.677  1.00  0.00     0.004 C 
ENDBRANCH   9  10
ENDBRANCH   8   9
ENDBRANCH   7   8
ENDBRANCH   1   7
TORSDOF 7
ENDMDL
MODEL 8
REMARK VINA RESULT:    -3.774      3.025      4.924
REMARK INTER + INTRA:          -5.497
REMARK INTER:                  -5.308
REMARK INTRA:                  -0.188
REMARK UNBOUND:                -0.178
REMARK SMILES CCCCCCCCC(=O)[O-]
REMARK SMILES IDX 6 1 7 2 8 3 9 4 10 5 11 6 5 7 4 8 3 9 2 10 1 11
REMARK H PARENT
REMARK Flexibility Score: inf
ROOT
ATOM      1  C   UNL     1      -7.604   4.898  -4.984  1.00  0.00     0.000 C 
ENDROOT
BRANCH   1   2
ATOM      2  C   UNL     1      -6.609   4.907  -3.810  1.00  0.00     0.006 C 
BRANCH   2   3
ATOM      3  C   UNL     1      -6.335   3.495  -3.274  1.00  0.00     0.053 C 
BRANCH   3   4
ATOM      4  C   UNL     1      -6.984   3.273  -1.943  1.00  0.00     0.041 C 
ATOM      5  O   UNL     1      -7.397   4.252  -1.266  1.00  0.00    -0.550 OA
ATOM      6  O   UNL     1      -7.104   1.986  -1.434  1.00  0.00    -0.550 OA
ENDBRANCH   3   4
ENDBRANCH   2   3
ENDBRANCH   1   2
BRANCH   1   7
ATOM      7  C   UNL     1      -7.383   6.068  -5.955  1.00  0.00     0.000 C 
BRANCH   7   8
ATOM      8  C   UNL     1      -7.477   5.641  -7.430  1.00  0.00    -0.000 C 
BRANCH   8   9
ATOM      9  C   UNL     1      -8.932   5.637  -7.943  1.00  0.00    -0.000 C 
BRANCH   9  10
ATOM     10  C   UNL     1      -9.165   4.680  -9.125  1.00  0.00    -0.003 C 
ATOM     11  C   UNL     1      -9.971   5.313 -10.257  1.00  0.00     0.004 C 
ENDBRANCH   9  10
ENDBRANCH   8   9
ENDBRANCH   7   8
ENDBRANCH   1   7
TORSDOF 7
ENDMDL
MODEL 9
REMARK VINA RESULT:    -3.609      4.073      5.947
REMARK INTER + INTRA:          -5.264
REMARK INTER:                  -4.869
REMARK INTRA:                  -0.394
REMARK UNBOUND:                -0.178
REMARK SMILES CCCCCCCCC(=O)[O-]
REMARK SMILES IDX 6 1 7 2 8 3 9 4 10 5 11 6 5 7 4 8 3 9 2 10 1 11
REMARK H PARENT
REMARK Flexibility Score: inf
ROOT
ATOM      1  C   UNL     1      -5.758   5.620 -14.727  1.00  0.00     0.000 C 
ENDROOT
BRANCH   1   2
ATOM      2  C   UNL     1      -6.329   4.582 -13.745  1.00  0.00     0.006 C 
BRANCH   2   3
ATOM      3  C   UNL     1      -6.989   5.240 -12.526  1.00  0.00     0.053 C 
BRANCH   3   4
ATOM      4  C   UNL     1      -8.399   4.770 -12.340  1.00  0.00     0.041 C 
ATOM      5  O   UNL     1      -8.969   4.899 -11.224  1.00  0.00    -0.550 OA
ATOM      6  O   UNL     1      -9.073   4.160 -13.391  1.00  0.00    -0.550 OA
ENDBRANCH   3   4
ENDBRANCH   2   3
ENDBRANCH   1   2
BRANCH   1   7
ATOM      7  C   UNL     1      -6.421   5.552 -16.112  1.00  0.00     0.000 C 
BRANCH   7   8
ATOM      8  C   UNL     1      -7.868   6.074 -16.102  1.00  0.00    -0.000 C 
BRANCH   8   9
ATOM      9  C   UNL     1      -7.991   7.460 -16.769  1.00  0.00    -0.000 C 
BRANCH   9  10
ATOM     10  C   UNL     1      -8.494   7.401 -18.221  1.00  0.00    -0.003 C 
ATOM     11  C   UNL     1      -9.118   6.055 -18.584  1.00  0.00     0.004 C 
ENDBRANCH   9  10
ENDBRANCH   8   9
ENDBRANCH   7   8
ENDBRANCH   1   7
TORSDOF 7
ENDMDL
