MODEL 1
REMARK VINA RESULT:    11.017      0.000      0.000
REMARK INTER + INTRA:          29.879
REMARK INTER:                  29.051
REMARK INTRA:                   0.828
REMARK UNBOUND:                 0.828
REMARK SMILES CCCCCCCCCCCCCCCCCCCCCCCCCCCCCC(=O)[O-]
REMARK SMILES IDX 16 1 17 2 18 3 19 4 20 5 21 6 22 7 23 8 24 9 25 10 26 11
REMARK SMILES IDX 27 12 28 13 29 14 30 15 31 16 32 17 15 18 14 19 13 20 12 21
REMARK SMILES IDX 11 22 10 23 9 24 8 25 7 26 6 27 5 28 4 29 3 30 2 31 1 32
REMARK H PARENT
REMARK Flexibility Score: inf
ROOT
ATOM      1  C   UNL     1      -2.960  34.851  22.261  1.00  0.00     0.000 C 
ENDROOT
BRANCH   1   2
ATOM      2  C   UNL     1      -3.138  35.647  20.956  1.00  0.00     0.000 C 
BRANCH   2   3
ATOM      3  C   UNL     1      -4.601  36.035  20.689  1.00  0.00     0.000 C 
BRANCH   3   4
ATOM      4  C   UNL     1      -4.957  36.049  19.191  1.00  0.00     0.000 C 
BRANCH   4   5
ATOM      5  C   UNL     1      -3.989  36.920  18.374  1.00  0.00     0.000 C 
BRANCH   5   6
ATOM      6  C   UNL     1      -4.211  36.792  16.856  1.00  0.00     0.000 C 
BRANCH   6   7
ATOM      7  C   UNL     1      -3.735  38.035  16.085  1.00  0.00     0.000 C 
BRANCH   7   8
ATOM      8  C   UNL     1      -3.967  37.904  14.569  1.00  0.00     0.000 C 
BRANCH   8   9
ATOM      9  C   UNL     1      -3.394  36.584  14.030  1.00  0.00     0.000 C 
BRANCH   9  10
ATOM     10  C   UNL     1      -1.859  36.608  13.941  1.00  0.00     0.000 C 
BRANCH  10  11
ATOM     11  C   UNL     1      -1.186  35.781  15.048  1.00  0.00     0.000 C 
BRANCH  11  12
ATOM     12  C   UNL     1      -1.577  36.296  16.439  1.00  0.00     0.000 C 
BRANCH  12  13
ATOM     13  C   UNL     1      -0.338  36.745  17.231  1.00  0.00     0.006 C 
BRANCH  13  14
ATOM     14  C   UNL     1      -0.563  38.076  17.959  1.00  0.00     0.053 C 
BRANCH  14  15
ATOM     15  C   UNL     1      -0.936  37.871  19.395  1.00  0.00     0.041 C 
ATOM     16  O   UNL     1      -2.026  38.319  19.840  1.00  0.00    -0.550 OA
ATOM     17  O   UNL     1      -0.088  37.166  20.240  1.00  0.00    -0.550 OA
ENDBRANCH  14  15
ENDBRANCH  13  14
ENDBRANCH  12  13
ENDBRANCH  11  12
ENDBRANCH  10  11
ENDBRANCH   9  10
ENDBRANCH   8   9
ENDBRANCH   7   8
ENDBRANCH   6   7
ENDBRANCH   5   6
ENDBRANCH   4   5
ENDBRANCH   3   4
ENDBRANCH   2   3
ENDBRANCH   1   2
BRANCH   1  18
ATOM     18  C   UNL     1      -4.102  33.835  22.485  1.00  0.00     0.000 C 
BRANCH  18  19
ATOM     19  C   UNL     1      -5.097  34.246  23.587  1.00  0.00     0.000 C 
BRANCH  19  20
ATOM     20  C   UNL     1      -5.123  35.765  23.829  1.00  0.00     0.000 C 
BRANCH  20  21
ATOM     21  C   UNL     1      -4.770  36.144  25.280  1.00  0.00     0.000 C 
BRANCH  21  22
ATOM     22  C   UNL     1      -4.757  37.658  25.564  1.00  0.00     0.000 C 
BRANCH  22  23
ATOM     23  C   UNL     1      -3.824  38.043  26.727  1.00  0.00     0.000 C 
BRANCH  23  24
ATOM     24  C   UNL     1      -2.372  37.598  26.493  1.00  0.00    -0.000 C 
BRANCH  24  25
ATOM     25  C   UNL     1      -1.631  37.271  27.802  1.00  0.00    -0.000 C 
BRANCH  25  26
ATOM     26  C   UNL     1      -2.288  36.127  28.589  1.00  0.00    -0.000 C 
BRANCH  26  27
ATOM     27  C   UNL     1      -1.533  34.794  28.440  1.00  0.00    -0.000 C 
BRANCH  27  28
ATOM     28  C   UNL     1      -0.797  34.389  29.727  1.00  0.00    -0.000 C 
BRANCH  28  29
ATOM     29  C   UNL     1       0.371  33.424  29.456  1.00  0.00    -0.000 C 
BRANCH  29  30
ATOM     30  C   UNL     1       1.588  34.128  28.828  1.00  0.00    -0.000 C 
BRANCH  30  31
ATOM     31  C   UNL     1       2.799  34.244  29.770  1.00  0.00    -0.003 C 
ATOM     32  C   UNL     1       3.167  32.912  30.430  1.00  0.00     0.004 C 
ENDBRANCH  30  31
ENDBRANCH  29  30
ENDBRANCH  28  29
ENDBRANCH  27  28
ENDBRANCH  26  27
ENDBRANCH  25  26
ENDBRANCH  24  25
ENDBRANCH  23  24
ENDBRANCH  22  23
ENDBRANCH  21  22
ENDBRANCH  20  21
ENDBRANCH  19  20
ENDBRANCH  18  19
ENDBRANCH   1  18
TORSDOF 28
ENDMDL
MODEL 2
REMARK VINA RESULT:    11.503      1.530      2.386
REMARK INTER + INTRA:          31.161
REMARK INTER:                  30.946
REMARK INTRA:                   0.215
REMARK UNBOUND:                 0.828
REMARK SMILES CCCCCCCCCCCCCCCCCCCCCCCCCCCCCC(=O)[O-]
REMARK SMILES IDX 16 1 17 2 18 3 19 4 20 5 21 6 22 7 23 8 24 9 25 10 26 11
REMARK SMILES IDX 27 12 28 13 29 14 30 15 31 16 32 17 15 18 14 19 13 20 12 21
REMARK SMILES IDX 11 22 10 23 9 24 8 25 7 26 6 27 5 28 4 29 3 30 2 31 1 32
REMARK H PARENT
REMARK Flexibility Score: inf
ROOT
ATOM      1  C   UNL     1      -3.232  35.281  21.959  1.00  0.00     0.000 C 
ENDROOT
BRANCH   1   2
ATOM      2  C   UNL     1      -3.979  35.682  20.674  1.00  0.00     0.000 C 
BRANCH   2   3
ATOM      3  C   UNL     1      -4.995  34.622  20.220  1.00  0.00     0.000 C 
BRANCH   3   4
ATOM      4  C   UNL     1      -4.988  34.393  18.699  1.00  0.00     0.000 C 
BRANCH   4   5
ATOM      5  C   UNL     1      -4.606  35.666  17.924  1.00  0.00     0.000 C 
BRANCH   5   6
ATOM      6  C   UNL     1      -3.802  35.364  16.646  1.00  0.00     0.000 C 
BRANCH   6   7
ATOM      7  C   UNL     1      -3.796  36.547  15.661  1.00  0.00     0.000 C 
BRANCH   7   8
ATOM      8  C   UNL     1      -2.409  36.776  15.036  1.00  0.00     0.000 C 
BRANCH   8   9
ATOM      9  C   UNL     1      -1.321  35.999  15.793  1.00  0.00     0.000 C 
BRANCH   9  10
ATOM     10  C   UNL     1      -0.821  36.755  17.035  1.00  0.00     0.000 C 
BRANCH  10  11
ATOM     11  C   UNL     1      -1.800  37.843  17.504  1.00  0.00     0.000 C 
BRANCH  11  12
ATOM     12  C   UNL     1      -1.969  37.816  19.029  1.00  0.00     0.000 C 
BRANCH  12  13
ATOM     13  C   UNL     1      -2.979  38.879  19.491  1.00  0.00     0.006 C 
BRANCH  13  14
ATOM     14  C   UNL     1      -4.220  38.257  20.144  1.00  0.00     0.053 C 
BRANCH  14  15
ATOM     15  C   UNL     1      -4.387  38.706  21.564  1.00  0.00     0.041 C 
ATOM     16  O   UNL     1      -3.882  39.792  21.952  1.00  0.00    -0.550 OA
ATOM     17  O   UNL     1      -5.121  37.933  22.456  1.00  0.00    -0.550 OA
ENDBRANCH  14  15
ENDBRANCH  13  14
ENDBRANCH  12  13
ENDBRANCH  11  12
ENDBRANCH  10  11
ENDBRANCH   9  10
ENDBRANCH   8   9
ENDBRANCH   7   8
ENDBRANCH   6   7
ENDBRANCH   5   6
ENDBRANCH   4   5
ENDBRANCH   3   4
ENDBRANCH   2   3
ENDBRANCH   1   2
BRANCH   1  18
ATOM     18  C   UNL     1      -3.733  33.935  22.530  1.00  0.00     0.000 C 
BRANCH  18  19
ATOM     19  C   UNL     1      -4.822  34.081  23.610  1.00  0.00     0.000 C 
BRANCH  19  20
ATOM     20  C   UNL     1      -5.121  35.548  23.960  1.00  0.00     0.000 C 
BRANCH  20  21
ATOM     21  C   UNL     1      -4.806  35.887  25.429  1.00  0.00     0.000 C 
BRANCH  21  22
ATOM     22  C   UNL     1      -4.982  37.373  25.798  1.00  0.00     0.000 C 
BRANCH  22  23
ATOM     23  C   UNL     1      -3.929  37.870  26.806  1.00  0.00     0.000 C 
BRANCH  23  24
ATOM     24  C   UNL     1      -2.707  38.502  26.122  1.00  0.00    -0.000 C 
BRANCH  24  25
ATOM     25  C   UNL     1      -1.373  37.985  26.690  1.00  0.00    -0.000 C 
BRANCH  25  26
ATOM     26  C   UNL     1      -1.539  37.258  28.033  1.00  0.00    -0.000 C 
BRANCH  26  27
ATOM     27  C   UNL     1      -1.381  35.732  27.905  1.00  0.00    -0.000 C 
BRANCH  27  28
ATOM     28  C   UNL     1      -2.380  34.963  28.785  1.00  0.00    -0.000 C 
BRANCH  28  29
ATOM     29  C   UNL     1      -1.705  34.302  29.999  1.00  0.00    -0.000 C 
BRANCH  29  30
ATOM     30  C   UNL     1      -0.192  34.099  29.799  1.00  0.00    -0.000 C 
BRANCH  30  31
ATOM     31  C   UNL     1       0.178  32.754  29.149  1.00  0.00    -0.003 C 
ATOM     32  C   UNL     1       1.398  32.096  29.802  1.00  0.00     0.004 C 
ENDBRANCH  30  31
ENDBRANCH  29  30
ENDBRANCH  28  29
ENDBRANCH  27  28
ENDBRANCH  26  27
ENDBRANCH  25  26
ENDBRANCH  24  25
ENDBRANCH  23  24
ENDBRANCH  22  23
ENDBRANCH  21  22
ENDBRANCH  20  21
ENDBRANCH  19  20
ENDBRANCH  18  19
ENDBRANCH   1  18
TORSDOF 28
ENDMDL
MODEL 3
REMARK VINA RESULT:    13.421      2.026      4.350
REMARK INTER + INTRA:          36.217
REMARK INTER:                  36.713
REMARK INTRA:                  -0.496
REMARK UNBOUND:                 0.828
REMARK SMILES CCCCCCCCCCCCCCCCCCCCCCCCCCCCCC(=O)[O-]
REMARK SMILES IDX 16 1 17 2 18 3 19 4 20 5 21 6 22 7 23 8 24 9 25 10 26 11
REMARK SMILES IDX 27 12 28 13 29 14 30 15 31 16 32 17 15 18 14 19 13 20 12 21
REMARK SMILES IDX 11 22 10 23 9 24 8 25 7 26 6 27 5 28 4 29 3 30 2 31 1 32
REMARK H PARENT
REMARK Flexibility Score: inf
ROOT
ATOM      1  C   UNL     1      -5.123  36.350  24.454  1.00  0.00     0.000 C 
ENDROOT
BRANCH   1   2
ATOM      2  C   UNL     1      -5.095  34.892  23.960  1.00  0.00     0.000 C 
BRANCH   2   3
ATOM      3  C   UNL     1      -5.084  34.783  22.428  1.00  0.00     0.000 C 
BRANCH   3   4
ATOM      4  C   UNL     1      -5.119  36.152  21.726  1.00  0.00     0.000 C 
BRANCH   4   5
ATOM      5  C   UNL     1      -4.696  36.057  20.250  1.00  0.00     0.000 C 
BRANCH   5   6
ATOM      6  C   UNL     1      -3.692  37.153  19.849  1.00  0.00     0.000 C 
BRANCH   6   7
ATOM      7  C   UNL     1      -2.230  36.711  20.039  1.00  0.00     0.000 C 
BRANCH   7   8
ATOM      8  C   UNL     1      -1.240  37.869  19.828  1.00  0.00     0.000 C 
BRANCH   8   9
ATOM      9  C   UNL     1      -1.177  38.285  18.350  1.00  0.00     0.000 C 
BRANCH   9  10
ATOM     10  C   UNL     1      -0.538  37.201  17.465  1.00  0.00     0.000 C 
BRANCH  10  11
ATOM     11  C   UNL     1      -1.285  37.002  16.136  1.00  0.00     0.000 C 
BRANCH  11  12
ATOM     12  C   UNL     1      -1.929  35.612  16.065  1.00  0.00     0.000 C 
BRANCH  12  13
ATOM     13  C   UNL     1      -3.180  35.628  15.171  1.00  0.00     0.006 C 
BRANCH  13  14
ATOM     14  C   UNL     1      -3.298  36.924  14.360  1.00  0.00     0.053 C 
BRANCH  14  15
ATOM     15  C   UNL     1      -3.728  38.079  15.212  1.00  0.00     0.041 C 
ATOM     16  O   UNL     1      -3.950  37.916  16.441  1.00  0.00    -0.550 OA
ATOM     17  O   UNL     1      -3.864  39.344  14.652  1.00  0.00    -0.550 OA
ENDBRANCH  14  15
ENDBRANCH  13  14
ENDBRANCH  12  13
ENDBRANCH  11  12
ENDBRANCH  10  11
ENDBRANCH   9  10
ENDBRANCH   8   9
ENDBRANCH   7   8
ENDBRANCH   6   7
ENDBRANCH   5   6
ENDBRANCH   4   5
ENDBRANCH   3   4
ENDBRANCH   2   3
ENDBRANCH   1   2
BRANCH   1  18
ATOM     18  C   UNL     1      -4.531  36.497  25.873  1.00  0.00     0.000 C 
BRANCH  18  19
ATOM     19  C   UNL     1      -4.054  37.924  26.207  1.00  0.00     0.000 C 
BRANCH  19  20
ATOM     20  C   UNL     1      -2.886  37.943  27.207  1.00  0.00     0.000 C 
BRANCH  20  21
ATOM     21  C   UNL     1      -2.119  36.608  27.253  1.00  0.00     0.000 C 
BRANCH  21  22
ATOM     22  C   UNL     1      -1.944  36.015  28.665  1.00  0.00     0.000 C 
BRANCH  22  23
ATOM     23  C   UNL     1      -1.320  34.608  28.652  1.00  0.00     0.000 C 
BRANCH  23  24
ATOM     24  C   UNL     1      -0.257  34.421  29.746  1.00  0.00    -0.000 C 
BRANCH  24  25
ATOM     25  C   UNL     1       0.623  33.180  29.515  1.00  0.00    -0.000 C 
BRANCH  25  26
ATOM     26  C   UNL     1       2.053  33.535  29.079  1.00  0.00    -0.000 C 
BRANCH  26  27
ATOM     27  C   UNL     1       2.765  34.464  30.079  1.00  0.00    -0.000 C 
BRANCH  27  28
ATOM     28  C   UNL     1       3.913  35.255  29.431  1.00  0.00    -0.000 C 
BRANCH  28  29
ATOM     29  C   UNL     1       4.263  34.735  28.026  1.00  0.00    -0.000 C 
BRANCH  29  30
ATOM     30  C   UNL     1       5.314  35.607  27.316  1.00  0.00    -0.000 C 
BRANCH  30  31
ATOM     31  C   UNL     1       5.475  37.012  27.923  1.00  0.00    -0.003 C 
ATOM     32  C   UNL     1       4.671  38.078  27.171  1.00  0.00     0.004 C 
ENDBRANCH  30  31
ENDBRANCH  29  30
ENDBRANCH  28  29
ENDBRANCH  27  28
ENDBRANCH  26  27
ENDBRANCH  25  26
ENDBRANCH  24  25
ENDBRANCH  23  24
ENDBRANCH  22  23
ENDBRANCH  21  22
ENDBRANCH  20  21
ENDBRANCH  19  20
ENDBRANCH  18  19
ENDBRANCH   1  18
TORSDOF 28
ENDMDL
MODEL 4
REMARK VINA RESULT:    13.482      1.580      3.910
REMARK INTER + INTRA:          36.379
REMARK INTER:                  36.950
REMARK INTRA:                  -0.571
REMARK UNBOUND:                 0.828
REMARK SMILES CCCCCCCCCCCCCCCCCCCCCCCCCCCCCC(=O)[O-]
REMARK SMILES IDX 16 1 17 2 18 3 19 4 20 5 21 6 22 7 23 8 24 9 25 10 26 11
REMARK SMILES IDX 27 12 28 13 29 14 30 15 31 16 32 17 15 18 14 19 13 20 12 21
REMARK SMILES IDX 11 22 10 23 9 24 8 25 7 26 6 27 5 28 4 29 3 30 2 31 1 32
REMARK H PARENT
REMARK Flexibility Score: inf
ROOT
ATOM      1  C   UNL     1      -5.124  36.355  24.157  1.00  0.00     0.000 C 
ENDROOT
BRANCH   1   2
ATOM      2  C   UNL     1      -5.024  34.843  23.888  1.00  0.00     0.000 C 
BRANCH   2   3
ATOM      3  C   UNL     1      -4.842  34.513  22.398  1.00  0.00     0.000 C 
BRANCH   3   4
ATOM      4  C   UNL     1      -5.121  35.714  21.477  1.00  0.00     0.000 C 
BRANCH   4   5
ATOM      5  C   UNL     1      -4.517  35.521  20.076  1.00  0.00     0.000 C 
BRANCH   5   6
ATOM      6  C   UNL     1      -3.837  36.795  19.541  1.00  0.00     0.000 C 
BRANCH   6   7
ATOM      7  C   UNL     1      -2.338  36.851  19.885  1.00  0.00     0.000 C 
BRANCH   7   8
ATOM      8  C   UNL     1      -1.746  38.256  19.679  1.00  0.00     0.000 C 
BRANCH   8   9
ATOM      9  C   UNL     1      -1.113  38.394  18.286  1.00  0.00     0.000 C 
BRANCH   9  10
ATOM     10  C   UNL     1      -0.680  37.038  17.703  1.00  0.00     0.000 C 
BRANCH  10  11
ATOM     11  C   UNL     1      -1.141  36.841  16.251  1.00  0.00     0.000 C 
BRANCH  11  12
ATOM     12  C   UNL     1      -2.053  35.613  16.121  1.00  0.00     0.000 C 
BRANCH  12  13
ATOM     13  C   UNL     1      -3.008  35.759  14.926  1.00  0.00     0.006 C 
BRANCH  13  14
ATOM     14  C   UNL     1      -2.954  37.161  14.305  1.00  0.00     0.053 C 
BRANCH  14  15
ATOM     15  C   UNL     1      -3.786  38.144  15.072  1.00  0.00     0.041 C 
ATOM     16  O   UNL     1      -3.975  37.989  16.308  1.00  0.00    -0.550 OA
ATOM     17  O   UNL     1      -4.336  39.244  14.425  1.00  0.00    -0.550 OA
ENDBRANCH  14  15
ENDBRANCH  13  14
ENDBRANCH  12  13
ENDBRANCH  11  12
ENDBRANCH  10  11
ENDBRANCH   9  10
ENDBRANCH   8   9
ENDBRANCH   7   8
ENDBRANCH   6   7
ENDBRANCH   5   6
ENDBRANCH   4   5
ENDBRANCH   3   4
ENDBRANCH   2   3
ENDBRANCH   1   2
BRANCH   1  18
ATOM     18  C   UNL     1      -4.602  36.734  25.560  1.00  0.00     0.000 C 
BRANCH  18  19
ATOM     19  C   UNL     1      -4.054  38.171  25.656  1.00  0.00     0.000 C 
BRANCH  19  20
ATOM     20  C   UNL     1      -2.992  38.330  26.757  1.00  0.00     0.000 C 
BRANCH  20  21
ATOM     21  C   UNL     1      -2.091  37.088  26.901  1.00  0.00     0.000 C 
BRANCH  21  22
ATOM     22  C   UNL     1      -2.322  36.273  28.188  1.00  0.00     0.000 C 
BRANCH  22  23
ATOM     23  C   UNL     1      -1.274  35.163  28.392  1.00  0.00     0.000 C 
BRANCH  23  24
ATOM     24  C   UNL     1      -1.399  34.475  29.760  1.00  0.00    -0.000 C 
BRANCH  24  25
ATOM     25  C   UNL     1      -0.092  33.795  30.206  1.00  0.00    -0.000 C 
BRANCH  25  26
ATOM     26  C   UNL     1       0.691  33.181  29.036  1.00  0.00    -0.000 C 
BRANCH  26  27
ATOM     27  C   UNL     1       1.583  34.209  28.315  1.00  0.00    -0.000 C 
BRANCH  27  28
ATOM     28  C   UNL     1       2.977  34.324  28.952  1.00  0.00    -0.000 C 
BRANCH  28  29
ATOM     29  C   UNL     1       2.914  34.756  30.428  1.00  0.00    -0.000 C 
BRANCH  29  30
ATOM     30  C   UNL     1       4.067  34.173  31.266  1.00  0.00    -0.000 C 
BRANCH  30  31
ATOM     31  C   UNL     1       4.515  32.769  30.823  1.00  0.00    -0.003 C 
ATOM     32  C   UNL     1       3.433  31.706  31.040  1.00  0.00     0.004 C 
ENDBRANCH  30  31
ENDBRANCH  29  30
ENDBRANCH  28  29
ENDBRANCH  27  28
ENDBRANCH  26  27
ENDBRANCH  25  26
ENDBRANCH  24  25
ENDBRANCH  23  24
ENDBRANCH  22  23
ENDBRANCH  21  22
ENDBRANCH  20  21
ENDBRANCH  19  20
ENDBRANCH  18  19
ENDBRANCH   1  18
TORSDOF 28
ENDMDL
MODEL 5
REMARK VINA RESULT:    13.553      1.270      2.296
REMARK INTER + INTRA:          36.566
REMARK INTER:                  35.953
REMARK INTRA:                   0.613
REMARK UNBOUND:                 0.828
REMARK SMILES CCCCCCCCCCCCCCCCCCCCCCCCCCCCCC(=O)[O-]
REMARK SMILES IDX 16 1 17 2 18 3 19 4 20 5 21 6 22 7 23 8 24 9 25 10 26 11
REMARK SMILES IDX 27 12 28 13 29 14 30 15 31 16 32 17 15 18 14 19 13 20 12 21
REMARK SMILES IDX 11 22 10 23 9 24 8 25 7 26 6 27 5 28 4 29 3 30 2 31 1 32
REMARK H PARENT
REMARK Flexibility Score: inf
ROOT
ATOM      1  C   UNL     1      -4.482  36.274  22.076  1.00  0.00     0.000 C 
ENDROOT
BRANCH   1   2
ATOM      2  C   UNL     1      -5.123  34.875  22.115  1.00  0.00     0.000 C 
BRANCH   2   3
ATOM      3  C   UNL     1      -5.028  34.139  20.770  1.00  0.00     0.000 C 
BRANCH   3   4
ATOM      4  C   UNL     1      -5.015  35.091  19.561  1.00  0.00     0.000 C 
BRANCH   4   5
ATOM      5  C   UNL     1      -5.087  34.332  18.225  1.00  0.00     0.000 C 
BRANCH   5   6
ATOM      6  C   UNL     1      -4.498  35.137  17.052  1.00  0.00     0.000 C 
BRANCH   6   7
ATOM      7  C   UNL     1      -3.003  34.848  16.832  1.00  0.00     0.000 C 
BRANCH   7   8
ATOM      8  C   UNL     1      -2.417  35.665  15.667  1.00  0.00     0.000 C 
BRANCH   8   9
ATOM      9  C   UNL     1      -3.518  36.114  14.694  1.00  0.00     0.000 C 
BRANCH   9  10
ATOM     10  C   UNL     1      -3.479  37.628  14.426  1.00  0.00     0.000 C 
BRANCH  10  11
ATOM     11  C   UNL     1      -3.546  38.462  15.716  1.00  0.00     0.000 C 
BRANCH  11  12
ATOM     12  C   UNL     1      -2.645  37.868  16.806  1.00  0.00     0.000 C 
BRANCH  12  13
ATOM     13  C   UNL     1      -3.305  37.981  18.190  1.00  0.00     0.006 C 
BRANCH  13  14
ATOM     14  C   UNL     1      -2.499  37.261  19.279  1.00  0.00     0.053 C 
BRANCH  14  15
ATOM     15  C   UNL     1      -1.086  37.754  19.346  1.00  0.00     0.041 C 
ATOM     16  O   UNL     1      -0.311  37.342  20.250  1.00  0.00    -0.550 OA
ATOM     17  O   UNL     1      -0.617  38.654  18.397  1.00  0.00    -0.550 OA
ENDBRANCH  14  15
ENDBRANCH  13  14
ENDBRANCH  12  13
ENDBRANCH  11  12
ENDBRANCH  10  11
ENDBRANCH   9  10
ENDBRANCH   8   9
ENDBRANCH   7   8
ENDBRANCH   6   7
ENDBRANCH   5   6
ENDBRANCH   4   5
ENDBRANCH   3   4
ENDBRANCH   2   3
ENDBRANCH   1   2
BRANCH   1  18
ATOM     18  C   UNL     1      -5.125  37.241  23.095  1.00  0.00     0.000 C 
BRANCH  18  19
ATOM     19  C   UNL     1      -5.057  36.747  24.553  1.00  0.00     0.000 C 
BRANCH  19  20
ATOM     20  C   UNL     1      -4.652  37.856  25.539  1.00  0.00     0.000 C 
BRANCH  20  21
ATOM     21  C   UNL     1      -3.263  37.622  26.162  1.00  0.00     0.000 C 
BRANCH  21  22
ATOM     22  C   UNL     1      -3.056  38.283  27.538  1.00  0.00     0.000 C 
BRANCH  22  23
ATOM     23  C   UNL     1      -2.173  37.445  28.480  1.00  0.00     0.000 C 
BRANCH  23  24
ATOM     24  C   UNL     1      -1.340  36.393  27.732  1.00  0.00    -0.000 C 
BRANCH  24  25
ATOM     25  C   UNL     1      -1.784  34.952  28.041  1.00  0.00    -0.000 C 
BRANCH  25  26
ATOM     26  C   UNL     1      -1.963  34.692  29.544  1.00  0.00    -0.000 C 
BRANCH  26  27
ATOM     27  C   UNL     1      -0.668  34.204  30.220  1.00  0.00    -0.000 C 
BRANCH  27  28
ATOM     28  C   UNL     1      -0.376  32.724  29.928  1.00  0.00    -0.000 C 
BRANCH  28  29
ATOM     29  C   UNL     1       1.074  32.492  29.466  1.00  0.00    -0.000 C 
BRANCH  29  30
ATOM     30  C   UNL     1       1.828  33.807  29.197  1.00  0.00    -0.000 C 
BRANCH  30  31
ATOM     31  C   UNL     1       3.150  33.941  29.974  1.00  0.00    -0.003 C 
ATOM     32  C   UNL     1       4.200  34.762  29.220  1.00  0.00     0.004 C 
ENDBRANCH  30  31
ENDBRANCH  29  30
ENDBRANCH  28  29
ENDBRANCH  27  28
ENDBRANCH  26  27
ENDBRANCH  25  26
ENDBRANCH  24  25
ENDBRANCH  23  24
ENDBRANCH  22  23
ENDBRANCH  21  22
ENDBRANCH  20  21
ENDBRANCH  19  20
ENDBRANCH  18  19
ENDBRANCH   1  18
TORSDOF 28
ENDMDL
MODEL 6
REMARK VINA RESULT:    13.595      1.060      2.301
REMARK INTER + INTRA:          36.676
REMARK INTER:                  35.676
REMARK INTRA:                   1.000
REMARK UNBOUND:                 0.828
REMARK SMILES CCCCCCCCCCCCCCCCCCCCCCCCCCCCCC(=O)[O-]
REMARK SMILES IDX 16 1 17 2 18 3 19 4 20 5 21 6 22 7 23 8 24 9 25 10 26 11
REMARK SMILES IDX 27 12 28 13 29 14 30 15 31 16 32 17 15 18 14 19 13 20 12 21
REMARK SMILES IDX 11 22 10 23 9 24 8 25 7 26 6 27 5 28 4 29 3 30 2 31 1 32
REMARK H PARENT
REMARK Flexibility Score: inf
ROOT
ATOM      1  C   UNL     1      -3.608  35.119  23.490  1.00  0.00     0.000 C 
ENDROOT
BRANCH   1   2
ATOM      2  C   UNL     1      -3.595  34.309  22.180  1.00  0.00     0.000 C 
BRANCH   2   3
ATOM      3  C   UNL     1      -4.841  34.556  21.315  1.00  0.00     0.000 C 
BRANCH   3   4
ATOM      4  C   UNL     1      -5.043  36.039  20.958  1.00  0.00     0.000 C 
BRANCH   4   5
ATOM      5  C   UNL     1      -5.030  36.275  19.439  1.00  0.00     0.000 C 
BRANCH   5   6
ATOM      6  C   UNL     1      -4.805  34.980  18.638  1.00  0.00     0.000 C 
BRANCH   6   7
ATOM      7  C   UNL     1      -4.986  35.185  17.124  1.00  0.00     0.000 C 
BRANCH   7   8
ATOM      8  C   UNL     1      -3.850  36.021  16.509  1.00  0.00     0.000 C 
BRANCH   8   9
ATOM      9  C   UNL     1      -4.096  36.280  15.014  1.00  0.00     0.000 C 
BRANCH   9  10
ATOM     10  C   UNL     1      -3.078  37.267  14.418  1.00  0.00     0.000 C 
BRANCH  10  11
ATOM     11  C   UNL     1      -1.622  36.838  14.660  1.00  0.00     0.000 C 
BRANCH  11  12
ATOM     12  C   UNL     1      -1.440  36.269  16.074  1.00  0.00     0.000 C 
BRANCH  12  13
ATOM     13  C   UNL     1      -1.647  37.359  17.138  1.00  0.00     0.006 C 
BRANCH  13  14
ATOM     14  C   UNL     1      -0.442  37.488  18.080  1.00  0.00     0.053 C 
BRANCH  14  15
ATOM     15  C   UNL     1      -0.861  37.555  19.517  1.00  0.00     0.041 C 
ATOM     16  O   UNL     1      -0.053  37.244  20.430  1.00  0.00    -0.550 OA
ATOM     17  O   UNL     1      -2.141  37.983  19.849  1.00  0.00    -0.550 OA
ENDBRANCH  14  15
ENDBRANCH  13  14
ENDBRANCH  12  13
ENDBRANCH  11  12
ENDBRANCH  10  11
ENDBRANCH   9  10
ENDBRANCH   8   9
ENDBRANCH   7   8
ENDBRANCH   6   7
ENDBRANCH   5   6
ENDBRANCH   4   5
ENDBRANCH   3   4
ENDBRANCH   2   3
ENDBRANCH   1   2
BRANCH   1  18
ATOM     18  C   UNL     1      -5.038  35.514  23.918  1.00  0.00     0.000 C 
BRANCH  18  19
ATOM     19  C   UNL     1      -5.124  36.106  25.338  1.00  0.00     0.000 C 
BRANCH  19  20
ATOM     20  C   UNL     1      -5.049  37.642  25.348  1.00  0.00     0.000 C 
BRANCH  20  21
ATOM     21  C   UNL     1      -3.911  38.177  26.238  1.00  0.00     0.000 C 
BRANCH  21  22
ATOM     22  C   UNL     1      -2.762  37.179  26.483  1.00  0.00     0.000 C 
BRANCH  22  23
ATOM     23  C   UNL     1      -2.890  36.434  27.824  1.00  0.00     0.000 C 
BRANCH  23  24
ATOM     24  C   UNL     1      -1.548  35.873  28.319  1.00  0.00    -0.000 C 
BRANCH  24  25
ATOM     25  C   UNL     1      -1.710  34.587  29.150  1.00  0.00    -0.000 C 
BRANCH  25  26
ATOM     26  C   UNL     1      -0.466  33.687  29.106  1.00  0.00    -0.000 C 
BRANCH  26  27
ATOM     27  C   UNL     1       0.799  34.400  29.617  1.00  0.00    -0.000 C 
BRANCH  27  28
ATOM     28  C   UNL     1       2.085  33.826  29.000  1.00  0.00    -0.000 C 
BRANCH  28  29
ATOM     29  C   UNL     1       3.220  33.689  30.031  1.00  0.00    -0.000 C 
BRANCH  29  30
ATOM     30  C   UNL     1       3.105  32.405  30.872  1.00  0.00    -0.000 C 
BRANCH  30  31
ATOM     31  C   UNL     1       2.506  31.209  30.110  1.00  0.00    -0.003 C 
ATOM     32  C   UNL     1       1.817  30.201  31.036  1.00  0.00     0.004 C 
ENDBRANCH  30  31
ENDBRANCH  29  30
ENDBRANCH  28  29
ENDBRANCH  27  28
ENDBRANCH  26  27
ENDBRANCH  25  26
ENDBRANCH  24  25
ENDBRANCH  23  24
ENDBRANCH  22  23
ENDBRANCH  21  22
ENDBRANCH  20  21
ENDBRANCH  19  20
ENDBRANCH  18  19
ENDBRANCH   1  18
TORSDOF 28
ENDMDL
