MODEL 1
REMARK VINA RESULT:    -6.643      0.000      0.000
REMARK INTER + INTRA:          -7.834
REMARK INTER:                  -7.808
REMARK INTRA:                  -0.026
REMARK UNBOUND:                -0.026
REMARK SMILES Oc1ccc(-c2[o+]c3cc(O)cc(O)c3cc2O)cc1
REMARK SMILES IDX 6 1 7 2 8 3 9 4 10 5 12 6 13 7 15 8 16 9 17 10 5 11 4 12
REMARK SMILES IDX 3 13 2 14 19 15 20 16 1 17 18 19 11 21 14 23
REMARK H PARENT 1 18 18 20 11 22 14 24
REMARK Flexibility Score: inf
ROOT
ATOM      1  C   UNL     1      50.164  77.650  26.203  1.00  0.00     0.401 A 
ATOM      2  O   UNL     1      48.965  77.253  26.623  1.00  0.00    -0.202 OA
ATOM      3  C   UNL     1      48.422  77.657  27.767  1.00  0.00     0.368 A 
ATOM      4  C   UNL     1      47.157  77.182  28.123  1.00  0.00     0.162 A 
ATOM      5  C   UNL     1      46.563  77.585  29.319  1.00  0.00     0.128 A 
ATOM      6  C   UNL     1      47.238  78.471  30.168  1.00  0.00     0.093 A 
ATOM      7  C   UNL     1      48.506  78.960  29.834  1.00  0.00     0.136 A 
ATOM      8  C   UNL     1      49.113  78.554  28.616  1.00  0.00     0.125 A 
ATOM      9  C   UNL     1      50.374  79.004  28.193  1.00  0.00     0.078 A 
ATOM     10  C   UNL     1      50.905  78.562  26.978  1.00  0.00     0.223 A 
ENDROOT
BRANCH   1  11
ATOM     11  C   UNL     1      50.664  77.121  24.914  1.00  0.00     0.084 A 
ATOM     12  C   UNL     1      49.814  77.106  23.796  1.00  0.00     0.022 A 
ATOM     13  C   UNL     1      50.259  76.592  22.574  1.00  0.00     0.047 A 
ATOM     14  C   UNL     1      51.555  76.071  22.460  1.00  0.00     0.115 A 
ATOM     15  C   UNL     1      51.957  76.578  24.796  1.00  0.00     0.022 A 
ATOM     16  C   UNL     1      52.399  76.063  23.573  1.00  0.00     0.047 A 
BRANCH  14  17
ATOM     17  O   UNL     1      52.009  75.556  21.248  1.00  0.00    -0.508 OA
ATOM     18  H   UNL     1      51.949  76.092  20.389  1.00  0.00     0.293 HD
ENDBRANCH  14  17
ENDBRANCH   1  11
BRANCH  10  19
ATOM     19  O   UNL     1      52.135  79.047  26.534  1.00  0.00    -0.500 OA
ATOM     20  H   UNL     1      52.881  78.424  26.248  1.00  0.00     0.294 HD
ENDBRANCH  10  19
BRANCH   5  21
ATOM     21  O   UNL     1      45.302  77.102  29.658  1.00  0.00    -0.507 OA
ATOM     22  H   UNL     1      44.574  77.715  30.008  1.00  0.00     0.293 HD
ENDBRANCH   5  21
BRANCH   7  23
ATOM     23  O   UNL     1      49.117  79.838  30.736  1.00  0.00    -0.507 OA
ATOM     24  H   UNL     1      49.718  80.604  30.469  1.00  0.00     0.293 HD
ENDBRANCH   7  23
TORSDOF 5
ENDMDL
MODEL 2
REMARK VINA RESULT:    -6.602      1.864      7.096
REMARK INTER + INTRA:          -7.786
REMARK INTER:                  -7.527
REMARK INTRA:                  -0.259
REMARK UNBOUND:                -0.026
REMARK SMILES Oc1ccc(-c2[o+]c3cc(O)cc(O)c3cc2O)cc1
REMARK SMILES IDX 6 1 7 2 8 3 9 4 10 5 12 6 13 7 15 8 16 9 17 10 5 11 4 12
REMARK SMILES IDX 3 13 2 14 19 15 20 16 1 17 18 19 11 21 14 23
REMARK H PARENT 1 18 18 20 11 22 14 24
REMARK Flexibility Score: inf
ROOT
ATOM      1  C   UNL     1      48.273  77.680  25.722  1.00  0.00     0.401 A 
ATOM      2  O   UNL     1      49.538  77.275  25.818  1.00  0.00    -0.202 OA
ATOM      3  C   UNL     1      50.262  76.892  24.772  1.00  0.00     0.368 A 
ATOM      4  C   UNL     1      51.582  76.480  24.974  1.00  0.00     0.162 A 
ATOM      5  C   UNL     1      52.366  76.070  23.896  1.00  0.00     0.128 A 
ATOM      6  C   UNL     1      51.828  76.070  22.603  1.00  0.00     0.093 A 
ATOM      7  C   UNL     1      50.508  76.477  22.374  1.00  0.00     0.136 A 
ATOM      8  C   UNL     1      49.708  76.898  23.469  1.00  0.00     0.125 A 
ATOM      9  C   UNL     1      48.381  77.336  23.333  1.00  0.00     0.078 A 
ATOM     10  C   UNL     1      47.657  77.740  24.459  1.00  0.00     0.223 A 
ENDROOT
BRANCH   1  11
ATOM     11  C   UNL     1      47.568  78.072  26.963  1.00  0.00     0.084 A 
ATOM     12  C   UNL     1      47.390  79.434  27.256  1.00  0.00     0.022 A 
ATOM     13  C   UNL     1      46.745  79.828  28.433  1.00  0.00     0.047 A 
ATOM     14  C   UNL     1      46.285  78.864  29.339  1.00  0.00     0.115 A 
ATOM     15  C   UNL     1      47.121  77.110  27.888  1.00  0.00     0.022 A 
ATOM     16  C   UNL     1      46.478  77.507  29.065  1.00  0.00     0.047 A 
BRANCH  14  17
ATOM     17  O   UNL     1      45.642  79.243  30.515  1.00  0.00    -0.508 OA
ATOM     18  H   UNL     1      45.830  78.776  31.396  1.00  0.00     0.293 HD
ENDBRANCH  14  17
ENDBRANCH   1  11
BRANCH  10  19
ATOM     19  O   UNL     1      46.356  78.222  24.317  1.00  0.00    -0.500 OA
ATOM     20  H   UNL     1      46.168  79.150  23.954  1.00  0.00     0.294 HD
ENDBRANCH  10  19
BRANCH   5  21
ATOM     21  O   UNL     1      53.680  75.663  24.116  1.00  0.00    -0.507 OA
ATOM     22  H   UNL     1      53.969  74.702  23.976  1.00  0.00     0.293 HD
ENDBRANCH   5  21
BRANCH   7  23
ATOM     23  O   UNL     1      50.043  76.446  21.056  1.00  0.00    -0.507 OA
ATOM     24  H   UNL     1      49.118  76.148  20.784  1.00  0.00     0.293 HD
ENDBRANCH   7  23
TORSDOF 5
ENDMDL
MODEL 3
REMARK VINA RESULT:    -6.592      1.733      6.742
REMARK INTER + INTRA:          -7.775
REMARK INTER:                  -7.465
REMARK INTRA:                  -0.310
REMARK UNBOUND:                -0.026
REMARK SMILES Oc1ccc(-c2[o+]c3cc(O)cc(O)c3cc2O)cc1
REMARK SMILES IDX 6 1 7 2 8 3 9 4 10 5 12 6 13 7 15 8 16 9 17 10 5 11 4 12
REMARK SMILES IDX 3 13 2 14 19 15 20 16 1 17 18 19 11 21 14 23
REMARK H PARENT 1 18 18 20 11 22 14 24
REMARK Flexibility Score: inf
ROOT
ATOM      1  C   UNL     1      49.060  77.508  26.468  1.00  0.00     0.401 A 
ATOM      2  O   UNL     1      48.762  77.446  25.172  1.00  0.00    -0.202 OA
ATOM      3  C   UNL     1      49.638  77.089  24.239  1.00  0.00     0.368 A 
ATOM      4  C   UNL     1      49.231  77.056  22.902  1.00  0.00     0.162 A 
ATOM      5  C   UNL     1      50.129  76.689  21.900  1.00  0.00     0.128 A 
ATOM      6  C   UNL     1      51.445  76.351  22.234  1.00  0.00     0.093 A 
ATOM      7  C   UNL     1      51.878  76.377  23.565  1.00  0.00     0.136 A 
ATOM      8  C   UNL     1      50.966  76.747  24.588  1.00  0.00     0.125 A 
ATOM      9  C   UNL     1      51.307  76.788  25.950  1.00  0.00     0.078 A 
ATOM     10  C   UNL     1      50.353  77.159  26.901  1.00  0.00     0.223 A 
ENDROOT
BRANCH   1  11
ATOM     11  C   UNL     1      47.999  77.930  27.410  1.00  0.00     0.084 A 
ATOM     12  C   UNL     1      47.819  79.296  27.682  1.00  0.00     0.022 A 
ATOM     13  C   UNL     1      46.836  79.716  28.584  1.00  0.00     0.047 A 
ATOM     14  C   UNL     1      46.033  78.773  29.239  1.00  0.00     0.115 A 
ATOM     15  C   UNL     1      47.202  76.988  28.087  1.00  0.00     0.022 A 
ATOM     16  C   UNL     1      46.222  77.411  28.991  1.00  0.00     0.047 A 
BRANCH  14  17
ATOM     17  O   UNL     1      45.052  79.179  30.141  1.00  0.00    -0.508 OA
ATOM     18  H   UNL     1      44.456  78.507  30.612  1.00  0.00     0.293 HD
ENDBRANCH  14  17
ENDBRANCH   1  11
BRANCH  10  19
ATOM     19  O   UNL     1      50.676  77.150  28.258  1.00  0.00    -0.500 OA
ATOM     20  H   UNL     1      51.448  76.600  28.618  1.00  0.00     0.294 HD
ENDBRANCH  10  19
BRANCH   5  21
ATOM     21  O   UNL     1      49.705  76.662  20.574  1.00  0.00    -0.507 OA
ATOM     22  H   UNL     1      49.589  77.513  20.036  1.00  0.00     0.293 HD
ENDBRANCH   5  21
BRANCH   7  23
ATOM     23  O   UNL     1      53.209  76.029  23.817  1.00  0.00    -0.507 OA
ATOM     24  H   UNL     1      53.928  76.684  24.088  1.00  0.00     0.293 HD
ENDBRANCH   7  23
TORSDOF 5
ENDMDL
MODEL 4
REMARK VINA RESULT:    -6.523      1.570      3.439
REMARK INTER + INTRA:          -7.694
REMARK INTER:                  -7.857
REMARK INTRA:                   0.163
REMARK UNBOUND:                -0.026
REMARK SMILES Oc1ccc(-c2[o+]c3cc(O)cc(O)c3cc2O)cc1
REMARK SMILES IDX 6 1 7 2 8 3 9 4 10 5 12 6 13 7 15 8 16 9 17 10 5 11 4 12
REMARK SMILES IDX 3 13 2 14 19 15 20 16 1 17 18 19 11 21 14 23
REMARK H PARENT 1 18 18 20 11 22 14 24
REMARK Flexibility Score: inf
ROOT
ATOM      1  C   UNL     1      50.627  77.509  26.195  1.00  0.00     0.401 A 
ATOM      2  O   UNL     1      51.616  78.005  26.935  1.00  0.00    -0.202 OA
ATOM      3  C   UNL     1      51.437  78.504  28.153  1.00  0.00     0.368 A 
ATOM      4  C   UNL     1      52.540  79.005  28.851  1.00  0.00     0.162 A 
ATOM      5  C   UNL     1      52.382  79.538  30.130  1.00  0.00     0.128 A 
ATOM      6  C   UNL     1      51.112  79.573  30.719  1.00  0.00     0.093 A 
ATOM      7  C   UNL     1      49.992  79.079  30.040  1.00  0.00     0.136 A 
ATOM      8  C   UNL     1      50.149  78.533  28.739  1.00  0.00     0.125 A 
ATOM      9  C   UNL     1      49.086  78.002  27.990  1.00  0.00     0.078 A 
ATOM     10  C   UNL     1      49.320  77.477  26.715  1.00  0.00     0.223 A 
ENDROOT
BRANCH   1  11
ATOM     11  C   UNL     1      50.952  76.990  24.848  1.00  0.00     0.084 A 
ATOM     12  C   UNL     1      52.210  76.409  24.616  1.00  0.00     0.022 A 
ATOM     13  C   UNL     1      52.547  75.931  23.345  1.00  0.00     0.047 A 
ATOM     14  C   UNL     1      51.636  76.043  22.287  1.00  0.00     0.115 A 
ATOM     15  C   UNL     1      50.051  77.117  23.775  1.00  0.00     0.022 A 
ATOM     16  C   UNL     1      50.391  76.640  22.505  1.00  0.00     0.047 A 
BRANCH  14  17
ATOM     17  O   UNL     1      51.960  75.572  21.017  1.00  0.00    -0.508 OA
ATOM     18  H   UNL     1      51.411  74.848  20.565  1.00  0.00     0.293 HD
ENDBRANCH  14  17
ENDBRANCH   1  11
BRANCH  10  19
ATOM     19  O   UNL     1      48.273  76.904  25.992  1.00  0.00    -0.500 OA
ATOM     20  H   UNL     1      48.198  77.014  24.988  1.00  0.00     0.294 HD
ENDBRANCH  10  19
BRANCH   5  21
ATOM     21  O   UNL     1      53.492  80.032  30.811  1.00  0.00    -0.507 OA
ATOM     22  H   UNL     1      53.655  81.028  30.909  1.00  0.00     0.293 HD
ENDBRANCH   5  21
BRANCH   7  23
ATOM     23  O   UNL     1      48.758  79.153  30.693  1.00  0.00    -0.507 OA
ATOM     24  H   UNL     1      48.238  80.006  30.838  1.00  0.00     0.293 HD
ENDBRANCH   7  23
TORSDOF 5
ENDMDL
MODEL 5
REMARK VINA RESULT:    -6.062      8.961     12.799
REMARK INTER + INTRA:          -7.152
REMARK INTER:                  -6.966
REMARK INTRA:                  -0.186
REMARK UNBOUND:                -0.026
REMARK SMILES Oc1ccc(-c2[o+]c3cc(O)cc(O)c3cc2O)cc1
REMARK SMILES IDX 6 1 7 2 8 3 9 4 10 5 12 6 13 7 15 8 16 9 17 10 5 11 4 12
REMARK SMILES IDX 3 13 2 14 19 15 20 16 1 17 18 19 11 21 14 23
REMARK H PARENT 1 18 18 20 11 22 14 24
REMARK Flexibility Score: inf
ROOT
ATOM      1  C   UNL     1      53.842  68.999  17.810  1.00  0.00     0.401 A 
ATOM      2  O   UNL     1      53.858  69.140  19.134  1.00  0.00    -0.202 OA
ATOM      3  C   UNL     1      53.780  70.318  19.744  1.00  0.00     0.368 A 
ATOM      4  C   UNL     1      53.807  70.363  21.140  1.00  0.00     0.162 A 
ATOM      5  C   UNL     1      53.731  71.585  21.808  1.00  0.00     0.128 A 
ATOM      6  C   UNL     1      53.625  72.774  21.075  1.00  0.00     0.093 A 
ATOM      7  C   UNL     1      53.597  72.755  19.676  1.00  0.00     0.136 A 
ATOM      8  C   UNL     1      53.672  71.513  18.993  1.00  0.00     0.125 A 
ATOM      9  C   UNL     1      53.636  71.397  17.594  1.00  0.00     0.078 A 
ATOM     10  C   UNL     1      53.711  70.137  16.993  1.00  0.00     0.223 A 
ENDROOT
BRANCH   1  11
ATOM     11  C   UNL     1      53.946  67.633  17.250  1.00  0.00     0.084 A 
ATOM     12  C   UNL     1      52.966  66.678  17.569  1.00  0.00     0.022 A 
ATOM     13  C   UNL     1      53.055  65.375  17.068  1.00  0.00     0.047 A 
ATOM     14  C   UNL     1      54.135  65.007  16.255  1.00  0.00     0.115 A 
ATOM     15  C   UNL     1      55.038  67.249  16.449  1.00  0.00     0.022 A 
ATOM     16  C   UNL     1      55.125  65.945  15.951  1.00  0.00     0.047 A 
BRANCH  14  17
ATOM     17  O   UNL     1      54.235  63.713  15.750  1.00  0.00    -0.508 OA
ATOM     18  H   UNL     1      54.817  63.014  16.198  1.00  0.00     0.293 HD
ENDBRANCH  14  17
ENDBRANCH   1  11
BRANCH  10  19
ATOM     19  O   UNL     1      53.625  70.017  15.606  1.00  0.00    -0.500 OA
ATOM     20  H   UNL     1      54.452  69.952  15.024  1.00  0.00     0.294 HD
ENDBRANCH  10  19
BRANCH   5  21
ATOM     21  O   UNL     1      53.759  71.611  23.200  1.00  0.00    -0.507 OA
ATOM     22  H   UNL     1      53.825  70.759  23.746  1.00  0.00     0.293 HD
ENDBRANCH   5  21
BRANCH   7  23
ATOM     23  O   UNL     1      53.494  73.984  19.017  1.00  0.00    -0.507 OA
ATOM     24  H   UNL     1      53.415  74.090  18.016  1.00  0.00     0.293 HD
ENDBRANCH   7  23
TORSDOF 5
ENDMDL
MODEL 6
REMARK VINA RESULT:    -5.749      1.640      6.780
REMARK INTER + INTRA:          -6.784
REMARK INTER:                  -6.625
REMARK INTRA:                  -0.159
REMARK UNBOUND:                -0.026
REMARK SMILES Oc1ccc(-c2[o+]c3cc(O)cc(O)c3cc2O)cc1
REMARK SMILES IDX 6 1 7 2 8 3 9 4 10 5 12 6 13 7 15 8 16 9 17 10 5 11 4 12
REMARK SMILES IDX 3 13 2 14 19 15 20 16 1 17 18 19 11 21 14 23
REMARK H PARENT 1 18 18 20 11 22 14 24
REMARK Flexibility Score: inf
ROOT
ATOM      1  C   UNL     1      48.036  77.555  27.893  1.00  0.00     0.401 A 
ATOM      2  O   UNL     1      47.842  77.316  26.598  1.00  0.00    -0.202 OA
ATOM      3  C   UNL     1      48.834  77.130  25.734  1.00  0.00     0.368 A 
ATOM      4  C   UNL     1      48.529  76.888  24.392  1.00  0.00     0.162 A 
ATOM      5  C   UNL     1      49.549  76.692  23.461  1.00  0.00     0.128 A 
ATOM      6  C   UNL     1      50.886  76.737  23.873  1.00  0.00     0.093 A 
ATOM      7  C   UNL     1      51.218  76.979  25.211  1.00  0.00     0.136 A 
ATOM      8  C   UNL     1      50.182  77.176  26.162  1.00  0.00     0.125 A 
ATOM      9  C   UNL     1      50.420  77.410  27.526  1.00  0.00     0.078 A 
ATOM     10  C   UNL     1      49.347  77.591  28.404  1.00  0.00     0.223 A 
ENDROOT
BRANCH   1  11
ATOM     11  C   UNL     1      46.849  77.756  28.754  1.00  0.00     0.084 A 
ATOM     12  C   UNL     1      45.870  76.751  28.826  1.00  0.00     0.022 A 
ATOM     13  C   UNL     1      44.729  76.928  29.617  1.00  0.00     0.047 A 
ATOM     14  C   UNL     1      44.547  78.119  30.332  1.00  0.00     0.115 A 
ATOM     15  C   UNL     1      46.648  78.957  29.459  1.00  0.00     0.022 A 
ATOM     16  C   UNL     1      45.507  79.132  30.247  1.00  0.00     0.047 A 
BRANCH  14  17
ATOM     17  O   UNL     1      43.415  78.308  31.122  1.00  0.00    -0.508 OA
ATOM     18  H   UNL     1      42.612  78.825  30.781  1.00  0.00     0.293 HD
ENDBRANCH  14  17
ENDBRANCH   1  11
BRANCH  10  19
ATOM     19  O   UNL     1      49.581  77.773  29.767  1.00  0.00    -0.500 OA
ATOM     20  H   UNL     1      50.500  78.013  30.122  1.00  0.00     0.294 HD
ENDBRANCH  10  19
BRANCH   5  21
ATOM     21  O   UNL     1      49.226  76.452  22.128  1.00  0.00    -0.507 OA
ATOM     22  H   UNL     1      49.932  76.461  21.400  1.00  0.00     0.293 HD
ENDBRANCH   5  21
BRANCH   7  23
ATOM     23  O   UNL     1      52.576  77.013  25.543  1.00  0.00    -0.507 OA
ATOM     24  H   UNL     1      53.324  76.756  24.915  1.00  0.00     0.293 HD
ENDBRANCH   7  23
TORSDOF 5
ENDMDL
MODEL 7
REMARK VINA RESULT:    -5.502     11.169     13.210
REMARK INTER + INTRA:          -6.493
REMARK INTER:                  -6.416
REMARK INTRA:                  -0.077
REMARK UNBOUND:                -0.026
REMARK SMILES Oc1ccc(-c2[o+]c3cc(O)cc(O)c3cc2O)cc1
REMARK SMILES IDX 6 1 7 2 8 3 9 4 10 5 12 6 13 7 15 8 16 9 17 10 5 11 4 12
REMARK SMILES IDX 3 13 2 14 19 15 20 16 1 17 18 19 11 21 14 23
REMARK H PARENT 1 18 18 20 11 22 14 24
REMARK Flexibility Score: inf
ROOT
ATOM      1  C   UNL     1      54.072  72.864  15.900  1.00  0.00     0.401 A 
ATOM      2  O   UNL     1      54.046  71.548  15.701  1.00  0.00    -0.202 OA
ATOM      3  C   UNL     1      54.023  70.661  16.690  1.00  0.00     0.368 A 
ATOM      4  C   UNL     1      53.999  69.299  16.380  1.00  0.00     0.162 A 
ATOM      5  C   UNL     1      53.977  68.344  17.396  1.00  0.00     0.128 A 
ATOM      6  C   UNL     1      53.979  68.753  18.736  1.00  0.00     0.093 A 
ATOM      7  C   UNL     1      54.003  70.111  19.072  1.00  0.00     0.136 A 
ATOM      8  C   UNL     1      54.023  71.086  18.040  1.00  0.00     0.125 A 
ATOM      9  C   UNL     1      54.034  72.469  18.283  1.00  0.00     0.078 A 
ATOM     10  C   UNL     1      54.049  73.369  17.214  1.00  0.00     0.223 A 
ENDROOT
BRANCH   1  11
ATOM     11  C   UNL     1      54.107  73.751  14.715  1.00  0.00     0.084 A 
ATOM     12  C   UNL     1      53.073  74.681  14.517  1.00  0.00     0.022 A 
ATOM     13  C   UNL     1      53.075  75.515  13.394  1.00  0.00     0.047 A 
ATOM     14  C   UNL     1      54.103  75.416  12.447  1.00  0.00     0.115 A 
ATOM     15  C   UNL     1      55.125  73.645  13.749  1.00  0.00     0.022 A 
ATOM     16  C   UNL     1      55.124  74.479  12.626  1.00  0.00     0.047 A 
BRANCH  14  17
ATOM     17  O   UNL     1      54.116  76.240  11.324  1.00  0.00    -0.508 OA
ATOM     18  H   UNL     1      53.261  76.632  10.945  1.00  0.00     0.293 HD
ENDBRANCH  14  17
ENDBRANCH   1  11
BRANCH  10  19
ATOM     19  O   UNL     1      54.008  74.742  17.454  1.00  0.00    -0.500 OA
ATOM     20  H   UNL     1      54.662  75.379  17.015  1.00  0.00     0.294 HD
ENDBRANCH  10  19
BRANCH   5  21
ATOM     21  O   UNL     1      53.953  66.991  17.068  1.00  0.00    -0.507 OA
ATOM     22  H   UNL     1      54.307  66.653  16.181  1.00  0.00     0.293 HD
ENDBRANCH   5  21
BRANCH   7  23
ATOM     23  O   UNL     1      54.008  70.438  20.432  1.00  0.00    -0.507 OA
ATOM     24  H   UNL     1      54.571  69.974  21.129  1.00  0.00     0.293 HD
ENDBRANCH   7  23
TORSDOF 5
ENDMDL
MODEL 8
REMARK VINA RESULT:    -5.426      8.967     14.294
REMARK INTER + INTRA:          -6.404
REMARK INTER:                  -6.368
REMARK INTRA:                  -0.036
REMARK UNBOUND:                -0.026
REMARK SMILES Oc1ccc(-c2[o+]c3cc(O)cc(O)c3cc2O)cc1
REMARK SMILES IDX 6 1 7 2 8 3 9 4 10 5 12 6 13 7 15 8 16 9 17 10 5 11 4 12
REMARK SMILES IDX 3 13 2 14 19 15 20 16 1 17 18 19 11 21 14 23
REMARK H PARENT 1 18 18 20 11 22 14 24
REMARK Flexibility Score: inf
ROOT
ATOM      1  C   UNL     1      54.432  69.788  18.670  1.00  0.00     0.401 A 
ATOM      2  O   UNL     1      54.549  68.464  18.742  1.00  0.00    -0.202 OA
ATOM      3  C   UNL     1      54.726  67.689  17.677  1.00  0.00     0.368 A 
ATOM      4  C   UNL     1      54.835  66.307  17.854  1.00  0.00     0.162 A 
ATOM      5  C   UNL     1      55.018  65.467  16.755  1.00  0.00     0.128 A 
ATOM      6  C   UNL     1      55.093  66.012  15.468  1.00  0.00     0.093 A 
ATOM      7  C   UNL     1      54.986  67.393  15.264  1.00  0.00     0.136 A 
ATOM      8  C   UNL     1      54.802  68.251  16.380  1.00  0.00     0.125 A 
ATOM      9  C   UNL     1      54.698  69.647  16.273  1.00  0.00     0.078 A 
ATOM     10  C   UNL     1      54.522  70.427  17.420  1.00  0.00     0.223 A 
ENDROOT
BRANCH   1  11
ATOM     11  C   UNL     1      54.227  70.542  19.928  1.00  0.00     0.084 A 
ATOM     12  C   UNL     1      55.125  71.565  20.274  1.00  0.00     0.022 A 
ATOM     13  C   UNL     1      54.963  72.276  21.468  1.00  0.00     0.047 A 
ATOM     14  C   UNL     1      53.910  71.961  22.337  1.00  0.00     0.115 A 
ATOM     15  C   UNL     1      53.184  70.218  20.816  1.00  0.00     0.022 A 
ATOM     16  C   UNL     1      53.026  70.930  22.009  1.00  0.00     0.047 A 
BRANCH  14  17
ATOM     17  O   UNL     1      53.738  72.662  23.529  1.00  0.00    -0.508 OA
ATOM     18  H   UNL     1      53.319  72.226  24.343  1.00  0.00     0.293 HD
ENDBRANCH  14  17
ENDBRANCH   1  11
BRANCH  10  19
ATOM     19  O   UNL     1      54.470  71.817  17.319  1.00  0.00    -0.500 OA
ATOM     20  H   UNL     1      54.987  72.319  16.606  1.00  0.00     0.294 HD
ENDBRANCH  10  19
BRANCH   5  21
ATOM     21  O   UNL     1      55.125  64.093  16.950  1.00  0.00    -0.507 OA
ATOM     22  H   UNL     1      54.633  63.432  16.359  1.00  0.00     0.293 HD
ENDBRANCH   5  21
BRANCH   7  23
ATOM     23  O   UNL     1      55.067  67.858  13.948  1.00  0.00    -0.507 OA
ATOM     24  H   UNL     1      55.254  68.817  13.692  1.00  0.00     0.293 HD
ENDBRANCH   7  23
TORSDOF 5
ENDMDL
MODEL 9
REMARK VINA RESULT:    -5.230      1.808      2.530
REMARK INTER + INTRA:          -6.173
REMARK INTER:                  -5.984
REMARK INTRA:                  -0.190
REMARK UNBOUND:                -0.026
REMARK SMILES Oc1ccc(-c2[o+]c3cc(O)cc(O)c3cc2O)cc1
REMARK SMILES IDX 6 1 7 2 8 3 9 4 10 5 12 6 13 7 15 8 16 9 17 10 5 11 4 12
REMARK SMILES IDX 3 13 2 14 19 15 20 16 1 17 18 19 11 21 14 23
REMARK H PARENT 1 18 18 20 11 22 14 24
REMARK Flexibility Score: inf
ROOT
ATOM      1  C   UNL     1      48.257  78.011  27.392  1.00  0.00     0.401 A 
ATOM      2  O   UNL     1      47.329  77.153  27.811  1.00  0.00    -0.202 OA
ATOM      3  C   UNL     1      46.439  77.444  28.754  1.00  0.00     0.368 A 
ATOM      4  C   UNL     1      45.505  76.474  29.128  1.00  0.00     0.162 A 
ATOM      5  C   UNL     1      44.561  76.749  30.117  1.00  0.00     0.128 A 
ATOM      6  C   UNL     1      44.548  78.003  30.739  1.00  0.00     0.093 A 
ATOM      7  C   UNL     1      45.474  78.991  30.382  1.00  0.00     0.136 A 
ATOM      8  C   UNL     1      46.435  78.716  29.374  1.00  0.00     0.125 A 
ATOM      9  C   UNL     1      47.391  79.649  28.943  1.00  0.00     0.078 A 
ATOM     10  C   UNL     1      48.303  79.306  27.941  1.00  0.00     0.223 A 
ENDROOT
BRANCH   1  11
ATOM     11  C   UNL     1      49.199  77.565  26.341  1.00  0.00     0.084 A 
ATOM     12  C   UNL     1      48.702  77.180  25.085  1.00  0.00     0.022 A 
ATOM     13  C   UNL     1      49.572  76.736  24.084  1.00  0.00     0.047 A 
ATOM     14  C   UNL     1      50.949  76.656  24.333  1.00  0.00     0.115 A 
ATOM     15  C   UNL     1      50.580  77.462  26.590  1.00  0.00     0.022 A 
ATOM     16  C   UNL     1      51.448  77.016  25.588  1.00  0.00     0.047 A 
BRANCH  14  17
ATOM     17  O   UNL     1      51.826  76.214  23.345  1.00  0.00    -0.508 OA
ATOM     18  H   UNL     1      51.503  75.658  22.561  1.00  0.00     0.293 HD
ENDBRANCH  14  17
ENDBRANCH   1  11
BRANCH  10  19
ATOM     19  O   UNL     1      49.220  80.249  27.476  1.00  0.00    -0.500 OA
ATOM     20  H   UNL     1      49.149  81.229  27.725  1.00  0.00     0.294 HD
ENDBRANCH  10  19
BRANCH   5  21
ATOM     21  O   UNL     1      43.637  75.771  30.477  1.00  0.00    -0.507 OA
ATOM     22  H   UNL     1      43.083  75.848  31.322  1.00  0.00     0.293 HD
ENDBRANCH   5  21
BRANCH   7  23
ATOM     23  O   UNL     1      45.399  80.216  31.052  1.00  0.00    -0.507 OA
ATOM     24  H   UNL     1      46.166  80.866  31.141  1.00  0.00     0.293 HD
ENDBRANCH   7  23
TORSDOF 5
ENDMDL
