MODEL 1
REMARK VINA RESULT:    -8.044      0.000      0.000
REMARK INTER + INTRA:          -8.779
REMARK INTER:                  -8.514
REMARK INTRA:                  -0.265
REMARK UNBOUND:                -0.265
REMARK SMILES O=c1cc(-c2ccccc2)oc2ccccc12
REMARK SMILES IDX 4 1 3 2 2 3 1 4 17 5 16 6 15 7 14 8 13 9 12 10 11 11 5 12
REMARK SMILES IDX 8 13 7 14 9 15 6 16 10 17
REMARK H PARENT
REMARK Flexibility Score: inf
ROOT
ATOM      1  C   UNL     1      49.533  52.634  24.467  1.00  0.00     0.138 A 
ATOM      2  C   UNL     1      50.461  53.622  24.861  1.00  0.00     0.100 A 
ATOM      3  C   UNL     1      51.627  53.806  24.116  1.00  0.00     0.193 A 
ATOM      4  O   UNL     1      52.456  54.689  24.467  1.00  0.00    -0.289 OA
ATOM      5  C   UNL     1      51.861  53.006  22.989  1.00  0.00     0.065 A 
ATOM      6  C   UNL     1      53.015  53.139  22.196  1.00  0.00     0.016 A 
ATOM      7  C   UNL     1      53.197  52.315  21.081  1.00  0.00     0.001 A 
ATOM      8  C   UNL     1      52.236  51.356  20.750  1.00  0.00     0.004 A 
ATOM      9  C   UNL     1      51.085  51.217  21.533  1.00  0.00     0.048 A 
ATOM     10  C   UNL     1      50.892  52.037  22.650  1.00  0.00     0.138 A 
ATOM     11  O   UNL     1      49.796  51.896  23.388  1.00  0.00    -0.456 OA
ENDROOT
BRANCH   1  12
ATOM     12  C   UNL     1      48.260  52.373  25.207  1.00  0.00     0.017 A 
ATOM     13  C   UNL     1      45.875  51.960  26.659  1.00  0.00     0.000 A 
ATOM     14  C   UNL     1      46.703  53.039  26.970  1.00  0.00     0.001 A 
ATOM     15  C   UNL     1      46.226  51.087  25.631  1.00  0.00     0.001 A 
ATOM     16  C   UNL     1      47.884  53.245  26.252  1.00  0.00     0.012 A 
ATOM     17  C   UNL     1      47.407  51.286  24.908  1.00  0.00     0.012 A 
ENDBRANCH   1  12
TORSDOF 1
ENDMDL
MODEL 2
REMARK VINA RESULT:    -7.981      1.378      2.406
REMARK INTER + INTRA:          -8.712
REMARK INTER:                  -8.452
REMARK INTRA:                  -0.261
REMARK UNBOUND:                -0.265
REMARK SMILES O=c1cc(-c2ccccc2)oc2ccccc12
REMARK SMILES IDX 4 1 3 2 2 3 1 4 17 5 16 6 15 7 14 8 13 9 12 10 11 11 5 12
REMARK SMILES IDX 8 13 7 14 9 15 6 16 10 17
REMARK H PARENT
REMARK Flexibility Score: inf
ROOT
ATOM      1  C   UNL     1      48.972  51.632  23.955  1.00  0.00     0.138 A 
ATOM      2  C   UNL     1      49.341  50.362  23.463  1.00  0.00     0.100 A 
ATOM      3  C   UNL     1      50.366  50.260  22.520  1.00  0.00     0.193 A 
ATOM      4  O   UNL     1      50.695  49.125  22.081  1.00  0.00    -0.289 OA
ATOM      5  C   UNL     1      51.013  51.421  22.076  1.00  0.00     0.065 A 
ATOM      6  C   UNL     1      52.053  51.388  21.128  1.00  0.00     0.016 A 
ATOM      7  C   UNL     1      52.665  52.578  20.721  1.00  0.00     0.001 A 
ATOM      8  C   UNL     1      52.249  53.801  21.251  1.00  0.00     0.004 A 
ATOM      9  C   UNL     1      51.216  53.843  22.193  1.00  0.00     0.048 A 
ATOM     10  C   UNL     1      50.596  52.659  22.609  1.00  0.00     0.138 A 
ATOM     11  O   UNL     1      49.615  52.710  23.504  1.00  0.00    -0.456 OA
ENDROOT
BRANCH   1  12
ATOM     12  C   UNL     1      47.886  51.830  24.965  1.00  0.00     0.017 A 
ATOM     13  C   UNL     1      45.877  52.291  26.893  1.00  0.00     0.000 A 
ATOM     14  C   UNL     1      46.873  53.244  26.680  1.00  0.00     0.001 A 
ATOM     15  C   UNL     1      45.875  51.111  26.151  1.00  0.00     0.001 A 
ATOM     16  C   UNL     1      47.869  53.018  25.726  1.00  0.00     0.012 A 
ATOM     17  C   UNL     1      46.868  50.876  25.194  1.00  0.00     0.012 A 
ENDBRANCH   1  12
TORSDOF 1
ENDMDL
MODEL 3
REMARK VINA RESULT:    -7.293      1.707      6.119
REMARK INTER + INTRA:          -7.984
REMARK INTER:                  -7.747
REMARK INTRA:                  -0.238
REMARK UNBOUND:                -0.265
REMARK SMILES O=c1cc(-c2ccccc2)oc2ccccc12
REMARK SMILES IDX 4 1 3 2 2 3 1 4 17 5 16 6 15 7 14 8 13 9 12 10 11 11 5 12
REMARK SMILES IDX 8 13 7 14 9 15 6 16 10 17
REMARK H PARENT
REMARK Flexibility Score: inf
ROOT
ATOM      1  C   UNL     1      49.844  52.604  23.715  1.00  0.00     0.138 A 
ATOM      2  C   UNL     1      49.560  51.314  23.219  1.00  0.00     0.100 A 
ATOM      3  C   UNL     1      48.491  50.592  23.753  1.00  0.00     0.193 A 
ATOM      4  O   UNL     1      48.237  49.439  23.310  1.00  0.00    -0.289 OA
ATOM      5  C   UNL     1      47.716  51.158  24.775  1.00  0.00     0.065 A 
ATOM      6  C   UNL     1      46.626  50.485  25.356  1.00  0.00     0.016 A 
ATOM      7  C   UNL     1      45.886  51.098  26.372  1.00  0.00     0.001 A 
ATOM      8  C   UNL     1      46.225  52.379  26.814  1.00  0.00     0.004 A 
ATOM      9  C   UNL     1      47.307  53.056  26.242  1.00  0.00     0.048 A 
ATOM     10  C   UNL     1      48.054  52.453  25.224  1.00  0.00     0.138 A 
ATOM     11  O   UNL     1      49.081  53.104  24.687  1.00  0.00    -0.456 OA
ENDROOT
BRANCH   1  12
ATOM     12  C   UNL     1      50.969  53.445  23.199  1.00  0.00     0.017 A 
ATOM     13  C   UNL     1      53.126  55.037  22.318  1.00  0.00     0.000 A 
ATOM     14  C   UNL     1      52.996  54.725  23.671  1.00  0.00     0.001 A 
ATOM     15  C   UNL     1      52.190  54.561  21.401  1.00  0.00     0.001 A 
ATOM     16  C   UNL     1      51.929  53.936  24.110  1.00  0.00     0.012 A 
ATOM     17  C   UNL     1      51.118  53.771  21.832  1.00  0.00     0.012 A 
ENDBRANCH   1  12
TORSDOF 1
ENDMDL
MODEL 4
REMARK VINA RESULT:    -7.005      2.640      6.037
REMARK INTER + INTRA:          -7.680
REMARK INTER:                  -7.426
REMARK INTRA:                  -0.254
REMARK UNBOUND:                -0.265
REMARK SMILES O=c1cc(-c2ccccc2)oc2ccccc12
REMARK SMILES IDX 4 1 3 2 2 3 1 4 17 5 16 6 15 7 14 8 13 9 12 10 11 11 5 12
REMARK SMILES IDX 8 13 7 14 9 15 6 16 10 17
REMARK H PARENT
REMARK Flexibility Score: inf
ROOT
ATOM      1  C   UNL     1      49.969  51.242  22.778  1.00  0.00     0.138 A 
ATOM      2  C   UNL     1      48.644  51.558  23.149  1.00  0.00     0.100 A 
ATOM      3  C   UNL     1      47.873  50.608  23.820  1.00  0.00     0.193 A 
ATOM      4  O   UNL     1      46.689  50.891  24.152  1.00  0.00    -0.289 OA
ATOM      5  C   UNL     1      48.425  49.354  24.117  1.00  0.00     0.065 A 
ATOM      6  C   UNL     1      47.702  48.353  24.791  1.00  0.00     0.016 A 
ATOM      7  C   UNL     1      48.302  47.119  25.062  1.00  0.00     0.001 A 
ATOM      8  C   UNL     1      49.619  46.875  24.665  1.00  0.00     0.004 A 
ATOM      9  C   UNL     1      50.345  47.865  23.994  1.00  0.00     0.048 A 
ATOM     10  C   UNL     1      49.755  49.103  23.719  1.00  0.00     0.138 A 
ATOM     11  O   UNL     1      50.453  50.037  23.080  1.00  0.00    -0.456 OA
ENDROOT
BRANCH   1  12
ATOM     12  C   UNL     1      50.863  52.201  22.057  1.00  0.00     0.017 A 
ATOM     13  C   UNL     1      52.591  53.932  20.650  1.00  0.00     0.000 A 
ATOM     14  C   UNL     1      52.659  52.556  20.439  1.00  0.00     0.001 A 
ATOM     15  C   UNL     1      51.668  54.452  21.556  1.00  0.00     0.001 A 
ATOM     16  C   UNL     1      51.804  51.696  21.134  1.00  0.00     0.012 A 
ATOM     17  C   UNL     1      50.809  53.599  22.257  1.00  0.00     0.012 A 
ENDBRANCH   1  12
TORSDOF 1
ENDMDL
MODEL 5
REMARK VINA RESULT:    -6.500      2.699      4.058
REMARK INTER + INTRA:          -7.146
REMARK INTER:                  -6.924
REMARK INTRA:                  -0.221
REMARK UNBOUND:                -0.265
REMARK SMILES O=c1cc(-c2ccccc2)oc2ccccc12
REMARK SMILES IDX 4 1 3 2 2 3 1 4 17 5 16 6 15 7 14 8 13 9 12 10 11 11 5 12
REMARK SMILES IDX 8 13 7 14 9 15 6 16 10 17
REMARK H PARENT
REMARK Flexibility Score: inf
ROOT
ATOM      1  C   UNL     1      50.332  50.302  22.992  1.00  0.00     0.138 A 
ATOM      2  C   UNL     1      50.487  50.359  21.590  1.00  0.00     0.100 A 
ATOM      3  C   UNL     1      51.126  51.458  21.012  1.00  0.00     0.193 A 
ATOM      4  O   UNL     1      51.265  51.507  19.759  1.00  0.00    -0.289 OA
ATOM      5  C   UNL     1      51.604  52.489  21.832  1.00  0.00     0.065 A 
ATOM      6  C   UNL     1      52.256  53.623  21.314  1.00  0.00     0.016 A 
ATOM      7  C   UNL     1      52.714  54.622  22.179  1.00  0.00     0.001 A 
ATOM      8  C   UNL     1      52.526  54.500  23.558  1.00  0.00     0.004 A 
ATOM      9  C   UNL     1      51.879  53.377  24.082  1.00  0.00     0.048 A 
ATOM     10  C   UNL     1      51.417  52.370  23.226  1.00  0.00     0.138 A 
ATOM     11  O   UNL     1      50.802  51.306  23.733  1.00  0.00    -0.456 OA
ENDROOT
BRANCH   1  12
ATOM     12  C   UNL     1      49.661  49.163  23.691  1.00  0.00     0.017 A 
ATOM     13  C   UNL     1      48.479  46.961  25.002  1.00  0.00     0.000 A 
ATOM     14  C   UNL     1      49.797  46.881  24.554  1.00  0.00     0.001 A 
ATOM     15  C   UNL     1      47.745  48.130  24.801  1.00  0.00     0.001 A 
ATOM     16  C   UNL     1      50.385  47.971  23.905  1.00  0.00     0.012 A 
ATOM     17  C   UNL     1      48.326  49.225  24.152  1.00  0.00     0.012 A 
ENDBRANCH   1  12
TORSDOF 1
ENDMDL
MODEL 6
REMARK VINA RESULT:    -6.377      1.779      5.927
REMARK INTER + INTRA:          -7.016
REMARK INTER:                  -6.795
REMARK INTRA:                  -0.221
REMARK UNBOUND:                -0.265
REMARK SMILES O=c1cc(-c2ccccc2)oc2ccccc12
REMARK SMILES IDX 4 1 3 2 2 3 1 4 17 5 16 6 15 7 14 8 13 9 12 10 11 11 5 12
REMARK SMILES IDX 8 13 7 14 9 15 6 16 10 17
REMARK H PARENT
REMARK Flexibility Score: inf
ROOT
ATOM      1  C   UNL     1      50.480  52.289  23.059  1.00  0.00     0.138 A 
ATOM      2  C   UNL     1      50.701  50.949  22.674  1.00  0.00     0.100 A 
ATOM      3  C   UNL     1      49.803  49.960  23.079  1.00  0.00     0.193 A 
ATOM      4  O   UNL     1      50.001  48.763  22.734  1.00  0.00    -0.289 OA
ATOM      5  C   UNL     1      48.695  50.310  23.862  1.00  0.00     0.065 A 
ATOM      6  C   UNL     1      47.753  49.363  24.303  1.00  0.00     0.016 A 
ATOM      7  C   UNL     1      46.665  49.769  25.082  1.00  0.00     0.001 A 
ATOM      8  C   UNL     1      46.508  51.114  25.426  1.00  0.00     0.004 A 
ATOM      9  C   UNL     1      47.439  52.063  24.992  1.00  0.00     0.048 A 
ATOM     10  C   UNL     1      48.532  51.668  24.211  1.00  0.00     0.138 A 
ATOM     11  O   UNL     1      49.412  52.577  23.804  1.00  0.00    -0.456 OA
ENDROOT
BRANCH   1  12
ATOM     12  C   UNL     1      51.391  53.409  22.669  1.00  0.00     0.017 A 
ATOM     13  C   UNL     1      53.155  55.513  22.020  1.00  0.00     0.000 A 
ATOM     14  C   UNL     1      53.255  54.876  23.256  1.00  0.00     0.001 A 
ATOM     15  C   UNL     1      52.184  55.110  21.105  1.00  0.00     0.001 A 
ATOM     16  C   UNL     1      52.382  53.833  23.580  1.00  0.00     0.012 A 
ATOM     17  C   UNL     1      51.306  54.068  21.421  1.00  0.00     0.012 A 
ENDBRANCH   1  12
TORSDOF 1
ENDMDL
MODEL 7
REMARK VINA RESULT:    -5.464      1.372      2.636
REMARK INTER + INTRA:          -6.049
REMARK INTER:                  -5.791
REMARK INTRA:                  -0.258
REMARK UNBOUND:                -0.265
REMARK SMILES O=c1cc(-c2ccccc2)oc2ccccc12
REMARK SMILES IDX 4 1 3 2 2 3 1 4 17 5 16 6 15 7 14 8 13 9 12 10 11 11 5 12
REMARK SMILES IDX 8 13 7 14 9 15 6 16 10 17
REMARK H PARENT
REMARK Flexibility Score: inf
ROOT
ATOM      1  C   UNL     1      49.010  51.708  23.975  1.00  0.00     0.138 A 
ATOM      2  C   UNL     1      49.368  50.419  23.525  1.00  0.00     0.100 A 
ATOM      3  C   UNL     1      50.380  50.279  22.573  1.00  0.00     0.193 A 
ATOM      4  O   UNL     1      50.700  49.127  22.172  1.00  0.00    -0.289 OA
ATOM      5  C   UNL     1      51.026  51.420  22.078  1.00  0.00     0.065 A 
ATOM      6  C   UNL     1      52.053  51.349  21.119  1.00  0.00     0.016 A 
ATOM      7  C   UNL     1      52.663  52.521  20.660  1.00  0.00     0.001 A 
ATOM      8  C   UNL     1      52.258  53.764  21.150  1.00  0.00     0.004 A 
ATOM      9  C   UNL     1      51.238  53.845  22.104  1.00  0.00     0.048 A 
ATOM     10  C   UNL     1      50.620  52.679  22.571  1.00  0.00     0.138 A 
ATOM     11  O   UNL     1      49.651  52.766  23.477  1.00  0.00    -0.456 OA
ENDROOT
BRANCH   1  12
ATOM     12  C   UNL     1      47.939  51.947  24.991  1.00  0.00     0.017 A 
ATOM     13  C   UNL     1      45.875  52.312  26.881  1.00  0.00     0.000 A 
ATOM     14  C   UNL     1      45.877  51.186  26.058  1.00  0.00     0.001 A 
ATOM     15  C   UNL     1      46.894  53.256  26.769  1.00  0.00     0.001 A 
ATOM     16  C   UNL     1      46.898  51.002  25.122  1.00  0.00     0.012 A 
ATOM     17  C   UNL     1      47.920  53.081  25.834  1.00  0.00     0.012 A 
ENDBRANCH   1  12
TORSDOF 1
ENDMDL
