MODEL 1
REMARK VINA RESULT:    -3.833      0.000      0.000
REMARK INTER + INTRA:          -5.663
REMARK INTER:                  -5.178
REMARK INTRA:                  -0.486
REMARK UNBOUND:                -0.486
REMARK SMILES CCCCCCC=CC(=O)[O-]
REMARK SMILES IDX 5 1 6 2 7 3 8 4 9 5 10 6 11 7 4 8 3 9 2 10 1 11
REMARK H PARENT
REMARK Flexibility Score: inf
ROOT
ATOM      1  C   UNL     1      47.018  26.374   5.546  1.00  0.00     0.004 C 
ENDROOT
BRANCH   1   2
ATOM      2  C   UNL     1      46.619  25.937   4.129  1.00  0.00     0.027 C 
BRANCH   2   3
ATOM      3  C   UNL     1      45.124  25.929   3.961  1.00  0.00    -0.025 C 
ATOM      4  C   UNL     1      44.422  26.683   3.100  1.00  0.00     0.020 C 
BRANCH   4   5
ATOM      5  C   UNL     1      44.970  27.638   2.115  1.00  0.00     0.064 C 
ATOM      6  O   UNL     1      45.289  28.794   2.499  1.00  0.00    -0.545 OA
ATOM      7  O   UNL     1      45.122  27.315   0.773  1.00  0.00    -0.545 OA
ENDBRANCH   4   5
ENDBRANCH   2   3
ENDBRANCH   1   2
BRANCH   1   8
ATOM      8  C   UNL     1      46.452  27.764   5.871  1.00  0.00     0.000 C 
BRANCH   8   9
ATOM      9  C   UNL     1      46.120  27.935   7.361  1.00  0.00    -0.000 C 
BRANCH   9  10
ATOM     10  C   UNL     1      45.981  26.592   8.094  1.00  0.00    -0.003 C 
ATOM     11  C   UNL     1      45.354  26.781   9.473  1.00  0.00     0.004 C 
ENDBRANCH   9  10
ENDBRANCH   8   9
ENDBRANCH   1   8
TORSDOF 6
ENDMDL
MODEL 2
REMARK VINA RESULT:    -3.809      3.263      5.596
REMARK INTER + INTRA:          -5.631
REMARK INTER:                  -5.563
REMARK INTRA:                  -0.068
REMARK UNBOUND:                -0.486
REMARK SMILES CCCCCCC=CC(=O)[O-]
REMARK SMILES IDX 5 1 6 2 7 3 8 4 9 5 10 6 11 7 4 8 3 9 2 10 1 11
REMARK H PARENT
REMARK Flexibility Score: inf
ROOT
ATOM      1  C   UNL     1      45.618  26.014   4.359  1.00  0.00     0.004 C 
ENDROOT
BRANCH   1   2
ATOM      2  C   UNL     1      46.721  26.405   5.353  1.00  0.00     0.027 C 
BRANCH   2   3
ATOM      3  C   UNL     1      46.315  27.593   6.181  1.00  0.00    -0.025 C 
ATOM      4  C   UNL     1      46.039  27.584   7.495  1.00  0.00     0.020 C 
BRANCH   4   5
ATOM      5  C   UNL     1      46.121  26.422   8.404  1.00  0.00     0.064 C 
ATOM      6  O   UNL     1      47.124  25.665   8.335  1.00  0.00    -0.545 OA
ATOM      7  O   UNL     1      45.117  26.120   9.315  1.00  0.00    -0.545 OA
ENDBRANCH   4   5
ENDBRANCH   2   3
ENDBRANCH   1   2
BRANCH   1   8
ATOM      8  C   UNL     1      45.305  27.175   3.403  1.00  0.00     0.000 C 
BRANCH   8   9
ATOM      9  C   UNL     1      44.015  26.949   2.599  1.00  0.00    -0.000 C 
BRANCH   9  10
ATOM     10  C   UNL     1      43.269  28.256   2.298  1.00  0.00    -0.003 C 
ATOM     11  C   UNL     1      41.761  28.078   2.458  1.00  0.00     0.004 C 
ENDBRANCH   9  10
ENDBRANCH   8   9
ENDBRANCH   1   8
TORSDOF 6
ENDMDL
MODEL 3
REMARK VINA RESULT:    -3.722      1.838      2.598
REMARK INTER + INTRA:          -5.513
REMARK INTER:                  -5.111
REMARK INTRA:                  -0.402
REMARK UNBOUND:                -0.486
REMARK SMILES CCCCCCC=CC(=O)[O-]
REMARK SMILES IDX 5 1 6 2 7 3 8 4 9 5 10 6 11 7 4 8 3 9 2 10 1 11
REMARK H PARENT
REMARK Flexibility Score: inf
ROOT
ATOM      1  C   UNL     1      46.821  26.902   7.688  1.00  0.00     0.004 C 
ENDROOT
BRANCH   1   2
ATOM      2  C   UNL     1      46.355  26.558   6.267  1.00  0.00     0.027 C 
BRANCH   2   3
ATOM      3  C   UNL     1      46.278  27.789   5.405  1.00  0.00    -0.025 C 
ATOM      4  C   UNL     1      46.090  27.812   4.076  1.00  0.00     0.020 C 
BRANCH   4   5
ATOM      5  C   UNL     1      45.874  26.644   3.195  1.00  0.00     0.064 C 
ATOM      6  O   UNL     1      46.872  26.082   2.675  1.00  0.00    -0.545 OA
ATOM      7  O   UNL     1      44.606  26.161   2.901  1.00  0.00    -0.545 OA
ENDBRANCH   4   5
ENDBRANCH   2   3
ENDBRANCH   1   2
BRANCH   1   8
ATOM      8  C   UNL     1      45.826  26.376   8.734  1.00  0.00     0.000 C 
BRANCH   8   9
ATOM      9  C   UNL     1      45.215  27.498   9.587  1.00  0.00    -0.000 C 
BRANCH   9  10
ATOM     10  C   UNL     1      45.275  28.867   8.895  1.00  0.00    -0.003 C 
ATOM     11  C   UNL     1      44.606  29.943   9.746  1.00  0.00     0.004 C 
ENDBRANCH   9  10
ENDBRANCH   8   9
ENDBRANCH   1   8
TORSDOF 6
ENDMDL
MODEL 4
REMARK VINA RESULT:    -3.707      1.418      1.761
REMARK INTER + INTRA:          -5.493
REMARK INTER:                  -5.132
REMARK INTRA:                  -0.361
REMARK UNBOUND:                -0.486
REMARK SMILES CCCCCCC=CC(=O)[O-]
REMARK SMILES IDX 5 1 6 2 7 3 8 4 9 5 10 6 11 7 4 8 3 9 2 10 1 11
REMARK H PARENT
REMARK Flexibility Score: inf
ROOT
ATOM      1  C   UNL     1      45.992  26.360   5.398  1.00  0.00     0.004 C 
ENDROOT
BRANCH   1   2
ATOM      2  C   UNL     1      45.575  26.419   3.922  1.00  0.00     0.027 C 
BRANCH   2   3
ATOM      3  C   UNL     1      45.439  27.840   3.448  1.00  0.00    -0.025 C 
ATOM      4  C   UNL     1      44.475  28.317   2.645  1.00  0.00     0.020 C 
BRANCH   4   5
ATOM      5  C   UNL     1      43.328  27.560   2.099  1.00  0.00     0.064 C 
ATOM      6  O   UNL     1      43.541  26.684   1.219  1.00  0.00    -0.545 OA
ATOM      7  O   UNL     1      42.021  27.797   2.503  1.00  0.00    -0.545 OA
ENDBRANCH   4   5
ENDBRANCH   2   3
ENDBRANCH   1   2
BRANCH   1   8
ATOM      8  C   UNL     1      46.433  27.744   5.899  1.00  0.00     0.000 C 
BRANCH   8   9
ATOM      9  C   UNL     1      46.017  28.008   7.354  1.00  0.00    -0.000 C 
BRANCH   9  10
ATOM     10  C   UNL     1      45.969  26.726   8.197  1.00  0.00    -0.003 C 
ATOM     11  C   UNL     1      45.261  26.969   9.528  1.00  0.00     0.004 C 
ENDBRANCH   9  10
ENDBRANCH   8   9
ENDBRANCH   1   8
TORSDOF 6
ENDMDL
MODEL 5
REMARK VINA RESULT:    -3.674      3.541      5.940
REMARK INTER + INTRA:          -5.448
REMARK INTER:                  -5.075
REMARK INTRA:                  -0.373
REMARK UNBOUND:                -0.486
REMARK SMILES CCCCCCC=CC(=O)[O-]
REMARK SMILES IDX 5 1 6 2 7 3 8 4 9 5 10 6 11 7 4 8 3 9 2 10 1 11
REMARK H PARENT
REMARK Flexibility Score: inf
ROOT
ATOM      1  C   UNL     1      46.284  27.851   5.611  1.00  0.00     0.004 C 
ENDROOT
BRANCH   1   2
ATOM      2  C   UNL     1      46.794  28.143   7.029  1.00  0.00     0.027 C 
BRANCH   2   3
ATOM      3  C   UNL     1      45.738  28.818   7.861  1.00  0.00    -0.025 C 
ATOM      4  C   UNL     1      45.231  28.361   9.017  1.00  0.00     0.020 C 
BRANCH   4   5
ATOM      5  C   UNL     1      45.635  27.131   9.731  1.00  0.00     0.064 C 
ATOM      6  O   UNL     1      45.198  26.022   9.327  1.00  0.00    -0.545 OA
ATOM      7  O   UNL     1      46.459  27.158  10.849  1.00  0.00    -0.545 OA
ENDBRANCH   4   5
ENDBRANCH   2   3
ENDBRANCH   1   2
BRANCH   1   8
ATOM      8  C   UNL     1      46.065  26.344   5.406  1.00  0.00     0.000 C 
BRANCH   8   9
ATOM      9  C   UNL     1      45.435  26.017   4.043  1.00  0.00    -0.000 C 
BRANCH   9  10
ATOM     10  C   UNL     1      45.133  27.273   3.214  1.00  0.00    -0.003 C 
ATOM     11  C   UNL     1      43.767  27.170   2.539  1.00  0.00     0.004 C 
ENDBRANCH   9  10
ENDBRANCH   8   9
ENDBRANCH   1   8
TORSDOF 6
ENDMDL
MODEL 6
REMARK VINA RESULT:    -3.647      1.149      1.901
REMARK INTER + INTRA:          -5.412
REMARK INTER:                  -4.970
REMARK INTRA:                  -0.442
REMARK UNBOUND:                -0.486
REMARK SMILES CCCCCCC=CC(=O)[O-]
REMARK SMILES IDX 5 1 6 2 7 3 8 4 9 5 10 6 11 7 4 8 3 9 2 10 1 11
REMARK H PARENT
REMARK Flexibility Score: inf
ROOT
ATOM      1  C   UNL     1      46.767  28.021   7.001  1.00  0.00     0.004 C 
ENDROOT
BRANCH   1   2
ATOM      2  C   UNL     1      46.354  27.863   5.531  1.00  0.00     0.027 C 
BRANCH   2   3
ATOM      3  C   UNL     1      46.119  26.419   5.181  1.00  0.00    -0.025 C 
ATOM      4  C   UNL     1      45.544  25.961   4.058  1.00  0.00     0.020 C 
BRANCH   4   5
ATOM      5  C   UNL     1      45.065  26.773   2.919  1.00  0.00     0.064 C 
ATOM      6  O   UNL     1      45.867  27.049   1.989  1.00  0.00    -0.545 OA
ATOM      7  O   UNL     1      43.768  27.264   2.850  1.00  0.00    -0.545 OA
ENDBRANCH   4   5
ENDBRANCH   2   3
ENDBRANCH   1   2
BRANCH   1   8
ATOM      8  C   UNL     1      45.672  28.738   7.805  1.00  0.00     0.000 C 
BRANCH   8   9
ATOM      9  C   UNL     1      45.358  28.037   9.135  1.00  0.00    -0.000 C 
BRANCH   9  10
ATOM     10  C   UNL     1      45.630  26.527   9.087  1.00  0.00    -0.003 C 
ATOM     11  C   UNL     1      46.425  26.072  10.308  1.00  0.00     0.004 C 
ENDBRANCH   9  10
ENDBRANCH   8   9
ENDBRANCH   1   8
TORSDOF 6
ENDMDL
MODEL 7
REMARK VINA RESULT:    -3.266      2.816      5.303
REMARK INTER + INTRA:          -4.898
REMARK INTER:                  -4.655
REMARK INTRA:                  -0.243
REMARK UNBOUND:                -0.486
REMARK SMILES CCCCCCC=CC(=O)[O-]
REMARK SMILES IDX 5 1 6 2 7 3 8 4 9 5 10 6 11 7 4 8 3 9 2 10 1 11
REMARK H PARENT
REMARK Flexibility Score: inf
ROOT
ATOM      1  C   UNL     1      45.540  27.454   2.528  1.00  0.00     0.004 C 
ENDROOT
BRANCH   1   2
ATOM      2  C   UNL     1      45.843  27.873   3.974  1.00  0.00     0.027 C 
BRANCH   2   3
ATOM      3  C   UNL     1      46.114  26.676   4.844  1.00  0.00    -0.025 C 
ATOM      4  C   UNL     1      46.333  26.696   6.168  1.00  0.00     0.020 C 
BRANCH   4   5
ATOM      5  C   UNL     1      46.309  27.883   7.049  1.00  0.00     0.064 C 
ATOM      6  O   UNL     1      47.087  28.841   6.799  1.00  0.00    -0.545 OA
ATOM      7  O   UNL     1      45.477  27.970   8.157  1.00  0.00    -0.545 OA
ENDBRANCH   4   5
ENDBRANCH   2   3
ENDBRANCH   1   2
BRANCH   1   8
ATOM      8  C   UNL     1      44.324  28.216   1.980  1.00  0.00     0.000 C 
BRANCH   8   9
ATOM      9  C   UNL     1      43.041  27.371   1.994  1.00  0.00    -0.000 C 
BRANCH   9  10
ATOM     10  C   UNL     1      41.828  28.147   2.526  1.00  0.00    -0.003 C 
ATOM     11  C   UNL     1      42.141  29.635   2.657  1.00  0.00     0.004 C 
ENDBRANCH   9  10
ENDBRANCH   8   9
ENDBRANCH   1   8
TORSDOF 6
ENDMDL
MODEL 8
REMARK VINA RESULT:    -3.244      1.055      1.905
REMARK INTER + INTRA:          -4.868
REMARK INTER:                  -4.489
REMARK INTRA:                  -0.379
REMARK UNBOUND:                -0.486
REMARK SMILES CCCCCCC=CC(=O)[O-]
REMARK SMILES IDX 5 1 6 2 7 3 8 4 9 5 10 6 11 7 4 8 3 9 2 10 1 11
REMARK H PARENT
REMARK Flexibility Score: inf
ROOT
ATOM      1  C   UNL     1      45.554  25.835   4.409  1.00  0.00     0.004 C 
ENDROOT
BRANCH   1   2
ATOM      2  C   UNL     1      45.630  26.978   3.387  1.00  0.00     0.027 C 
BRANCH   2   3
ATOM      3  C   UNL     1      44.307  27.186   2.702  1.00  0.00    -0.025 C 
ATOM      4  C   UNL     1      44.115  27.812   1.529  1.00  0.00     0.020 C 
BRANCH   4   5
ATOM      5  C   UNL     1      45.159  28.382   0.652  1.00  0.00     0.064 C 
ATOM      6  O   UNL     1      45.728  27.631  -0.183  1.00  0.00    -0.545 OA
ATOM      7  O   UNL     1      45.554  29.710   0.734  1.00  0.00    -0.545 OA
ENDBRANCH   4   5
ENDBRANCH   2   3
ENDBRANCH   1   2
BRANCH   1   8
ATOM      8  C   UNL     1      46.400  26.152   5.651  1.00  0.00     0.000 C 
BRANCH   8   9
ATOM      9  C   UNL     1      46.379  27.644   6.017  1.00  0.00    -0.000 C 
BRANCH   9  10
ATOM     10  C   UNL     1      45.977  27.890   7.478  1.00  0.00    -0.003 C 
ATOM     11  C   UNL     1      45.911  26.579   8.258  1.00  0.00     0.004 C 
ENDBRANCH   9  10
ENDBRANCH   8   9
ENDBRANCH   1   8
TORSDOF 6
ENDMDL
MODEL 9
REMARK VINA RESULT:    -3.099      5.279      9.030
REMARK INTER + INTRA:          -4.672
REMARK INTER:                  -4.414
REMARK INTRA:                  -0.258
REMARK UNBOUND:                -0.486
REMARK SMILES CCCCCCC=CC(=O)[O-]
REMARK SMILES IDX 5 1 6 2 7 3 8 4 9 5 10 6 11 7 4 8 3 9 2 10 1 11
REMARK H PARENT
REMARK Flexibility Score: inf
ROOT
ATOM      1  C   UNL     1      45.913  28.673  -3.410  1.00  0.00     0.004 C 
ENDROOT
BRANCH   1   2
ATOM      2  C   UNL     1      46.396  28.254  -2.014  1.00  0.00     0.027 C 
BRANCH   2   3
ATOM      3  C   UNL     1      46.119  29.326  -0.996  1.00  0.00    -0.025 C 
ATOM      4  C   UNL     1      45.811  29.128   0.296  1.00  0.00     0.020 C 
BRANCH   4   5
ATOM      5  C   UNL     1      45.726  27.826   0.992  1.00  0.00     0.064 C 
ATOM      6  O   UNL     1      46.728  27.412   1.631  1.00  0.00    -0.545 OA
ATOM      7  O   UNL     1      44.588  27.032   0.946  1.00  0.00    -0.545 OA
ENDBRANCH   4   5
ENDBRANCH   2   3
ENDBRANCH   1   2
BRANCH   1   8
ATOM      8  C   UNL     1      45.315  27.477  -4.166  1.00  0.00     0.000 C 
BRANCH   8   9
ATOM      9  C   UNL     1      44.696  27.877  -5.514  1.00  0.00    -0.000 C 
BRANCH   9  10
ATOM     10  C   UNL     1      43.220  27.471  -5.632  1.00  0.00    -0.003 C 
ATOM     11  C   UNL     1      42.310  28.696  -5.613  1.00  0.00     0.004 C 
ENDBRANCH   9  10
ENDBRANCH   8   9
ENDBRANCH   1   8
TORSDOF 6
ENDMDL
