MODEL 1
REMARK VINA RESULT:    -3.917      0.000      0.000
REMARK INTER + INTRA:          -5.206
REMARK INTER:                  -5.062
REMARK INTRA:                  -0.144
REMARK UNBOUND:                -0.144
REMARK SMILES C=CC(=O)CCCCC
REMARK SMILES IDX 6 1 7 2 8 3 9 4 5 5 3 6 4 7 2 8 1 9
REMARK H PARENT
REMARK Flexibility Score: inf
ROOT
ATOM      1  C   UNL     1      15.378  29.603  29.566  1.00  0.00     0.008 C 
ENDROOT
BRANCH   1   2
ATOM      2  C   UNL     1      14.239  30.624  29.403  1.00  0.00     0.000 C 
BRANCH   2   3
ATOM      3  C   UNL     1      13.225  30.564  30.556  1.00  0.00    -0.003 C 
ATOM      4  C   UNL     1      11.814  30.217  30.084  1.00  0.00     0.004 C 
ENDBRANCH   2   3
ENDBRANCH   1   2
BRANCH   1   5
ATOM      5  C   UNL     1      16.623  30.227  30.221  1.00  0.00     0.080 C 
BRANCH   5   6
ATOM      6  C   UNL     1      16.820  31.688  29.884  1.00  0.00     0.155 C 
ATOM      7  O   UNL     1      17.287  32.015  28.760  1.00  0.00    -0.295 OA
BRANCH   6   8
ATOM      8  C   UNL     1      16.537  32.763  30.857  1.00  0.00     0.039 C 
ATOM      9  C   UNL     1      17.452  33.632  31.286  1.00  0.00     0.012 C 
ENDBRANCH   6   8
ENDBRANCH   5   6
ENDBRANCH   1   5
TORSDOF 5
ENDMDL
MODEL 2
REMARK VINA RESULT:    -3.880      2.473      4.494
REMARK INTER + INTRA:          -5.158
REMARK INTER:                  -4.815
REMARK INTRA:                  -0.343
REMARK UNBOUND:                -0.144
REMARK SMILES C=CC(=O)CCCCC
REMARK SMILES IDX 6 1 7 2 8 3 9 4 5 5 3 6 4 7 2 8 1 9
REMARK H PARENT
REMARK Flexibility Score: inf
ROOT
ATOM      1  C   UNL     1      15.016  29.750  29.932  1.00  0.00     0.008 C 
ENDROOT
BRANCH   1   2
ATOM      2  C   UNL     1      16.369  30.415  30.240  1.00  0.00     0.000 C 
BRANCH   2   3
ATOM      3  C   UNL     1      16.299  31.949  30.180  1.00  0.00    -0.003 C 
ATOM      4  C   UNL     1      17.071  32.529  28.996  1.00  0.00     0.004 C 
ENDBRANCH   2   3
ENDBRANCH   1   2
BRANCH   1   5
ATOM      5  C   UNL     1      13.837  30.538  30.530  1.00  0.00     0.080 C 
BRANCH   5   6
ATOM      6  C   UNL     1      12.617  30.578  29.636  1.00  0.00     0.155 C 
ATOM      7  O   UNL     1      11.509  30.164  30.071  1.00  0.00    -0.295 OA
BRANCH   6   8
ATOM      8  C   UNL     1      12.686  31.036  28.233  1.00  0.00     0.039 C 
ATOM      9  C   UNL     1      12.300  32.247  27.832  1.00  0.00     0.012 C 
ENDBRANCH   6   8
ENDBRANCH   5   6
ENDBRANCH   1   5
TORSDOF 5
ENDMDL
MODEL 3
REMARK VINA RESULT:    -3.815      1.740      2.307
REMARK INTER + INTRA:          -5.074
REMARK INTER:                  -4.755
REMARK INTRA:                  -0.319
REMARK UNBOUND:                -0.144
REMARK SMILES C=CC(=O)CCCCC
REMARK SMILES IDX 6 1 7 2 8 3 9 4 5 5 3 6 4 7 2 8 1 9
REMARK H PARENT
REMARK Flexibility Score: inf
ROOT
ATOM      1  C   UNL     1      13.538  30.581  30.455  1.00  0.00     0.008 C 
ENDROOT
BRANCH   1   2
ATOM      2  C   UNL     1      12.385  30.686  29.441  1.00  0.00     0.000 C 
BRANCH   2   3
ATOM      3  C   UNL     1      12.793  31.433  28.162  1.00  0.00    -0.003 C 
ATOM      4  C   UNL     1      11.783  32.504  27.756  1.00  0.00     0.004 C 
ENDBRANCH   2   3
ENDBRANCH   1   2
BRANCH   1   5
ATOM      5  C   UNL     1      14.741  29.811  29.883  1.00  0.00     0.080 C 
BRANCH   5   6
ATOM      6  C   UNL     1      16.077  30.435  30.218  1.00  0.00     0.155 C 
ATOM      7  O   UNL     1      17.030  29.705  30.602  1.00  0.00    -0.295 OA
BRANCH   6   8
ATOM      8  C   UNL     1      16.298  31.895  30.166  1.00  0.00     0.039 C 
ATOM      9  C   UNL     1      16.984  32.505  29.201  1.00  0.00     0.012 C 
ENDBRANCH   6   8
ENDBRANCH   5   6
ENDBRANCH   1   5
TORSDOF 5
ENDMDL
MODEL 4
REMARK VINA RESULT:    -3.192     13.067     14.445
REMARK INTER + INTRA:          -4.269
REMARK INTER:                  -4.095
REMARK INTRA:                  -0.174
REMARK UNBOUND:                -0.144
REMARK SMILES C=CC(=O)CCCCC
REMARK SMILES IDX 6 1 7 2 8 3 9 4 5 5 3 6 4 7 2 8 1 9
REMARK H PARENT
REMARK Flexibility Score: inf
ROOT
ATOM      1  C   UNL     1      29.038  31.009  22.894  1.00  0.00     0.008 C 
ENDROOT
BRANCH   1   2
ATOM      2  C   UNL     1      28.907  29.739  23.751  1.00  0.00     0.000 C 
BRANCH   2   3
ATOM      3  C   UNL     1      27.955  29.928  24.943  1.00  0.00    -0.003 C 
ATOM      4  C   UNL     1      26.586  29.292  24.711  1.00  0.00     0.004 C 
ENDBRANCH   2   3
ENDBRANCH   1   2
BRANCH   1   5
ATOM      5  C   UNL     1      29.020  32.287  23.750  1.00  0.00     0.080 C 
BRANCH   5   6
ATOM      6  C   UNL     1      28.393  33.476  23.055  1.00  0.00     0.155 C 
ATOM      7  O   UNL     1      28.403  33.543  21.797  1.00  0.00    -0.295 OA
BRANCH   6   8
ATOM      8  C   UNL     1      27.812  34.608  23.805  1.00  0.00     0.039 C 
ATOM      9  C   UNL     1      27.117  35.593  23.236  1.00  0.00     0.012 C 
ENDBRANCH   6   8
ENDBRANCH   5   6
ENDBRANCH   1   5
TORSDOF 5
ENDMDL
MODEL 5
REMARK VINA RESULT:    -3.145     14.675     15.950
REMARK INTER + INTRA:          -4.209
REMARK INTER:                  -3.655
REMARK INTRA:                  -0.553
REMARK UNBOUND:                -0.144
REMARK SMILES C=CC(=O)CCCCC
REMARK SMILES IDX 6 1 7 2 8 3 9 4 5 5 3 6 4 7 2 8 1 9
REMARK H PARENT
REMARK Flexibility Score: inf
ROOT
ATOM      1  C   UNL     1      27.016  35.816  22.752  1.00  0.00     0.008 C 
ENDROOT
BRANCH   1   2
ATOM      2  C   UNL     1      27.561  35.458  24.145  1.00  0.00     0.000 C 
BRANCH   2   3
ATOM      3  C   UNL     1      28.737  34.471  24.082  1.00  0.00    -0.003 C 
ATOM      4  C   UNL     1      28.291  33.039  23.795  1.00  0.00     0.004 C 
ENDBRANCH   2   3
ENDBRANCH   1   2
BRANCH   1   5
ATOM      5  C   UNL     1      28.039  36.606  21.917  1.00  0.00     0.080 C 
BRANCH   5   6
ATOM      6  C   UNL     1      28.425  35.924  20.623  1.00  0.00     0.155 C 
ATOM      7  O   UNL     1      28.981  36.588  19.707  1.00  0.00    -0.295 OA
BRANCH   6   8
ATOM      8  C   UNL     1      28.120  34.502  20.363  1.00  0.00     0.039 C 
ATOM      9  C   UNL     1      29.051  33.575  20.142  1.00  0.00     0.012 C 
ENDBRANCH   6   8
ENDBRANCH   5   6
ENDBRANCH   1   5
TORSDOF 5
ENDMDL
MODEL 6
REMARK VINA RESULT:    -3.144      8.804      9.943
REMARK INTER + INTRA:          -4.207
REMARK INTER:                  -3.935
REMARK INTRA:                  -0.273
REMARK UNBOUND:                -0.144
REMARK SMILES C=CC(=O)CCCCC
REMARK SMILES IDX 6 1 7 2 8 3 9 4 5 5 3 6 4 7 2 8 1 9
REMARK H PARENT
REMARK Flexibility Score: inf
ROOT
ATOM      1  C   UNL     1      24.221  26.660  28.492  1.00  0.00     0.008 C 
ENDROOT
BRANCH   1   2
ATOM      2  C   UNL     1      23.223  27.800  28.227  1.00  0.00     0.000 C 
BRANCH   2   3
ATOM      3  C   UNL     1      21.842  27.285  27.793  1.00  0.00    -0.003 C 
ATOM      4  C   UNL     1      21.054  26.665  28.946  1.00  0.00     0.004 C 
ENDBRANCH   2   3
ENDBRANCH   1   2
BRANCH   1   5
ATOM      5  C   UNL     1      25.680  27.140  28.414  1.00  0.00     0.080 C 
BRANCH   5   6
ATOM      6  C   UNL     1      26.301  27.421  29.765  1.00  0.00     0.155 C 
ATOM      7  O   UNL     1      26.679  26.464  30.492  1.00  0.00    -0.295 OA
BRANCH   6   8
ATOM      8  C   UNL     1      26.432  28.792  30.299  1.00  0.00     0.039 C 
ATOM      9  C   UNL     1      25.418  29.483  30.820  1.00  0.00     0.012 C 
ENDBRANCH   6   8
ENDBRANCH   5   6
ENDBRANCH   1   5
TORSDOF 5
ENDMDL
MODEL 7
REMARK VINA RESULT:    -3.116     13.841     15.482
REMARK INTER + INTRA:          -4.171
REMARK INTER:                  -3.725
REMARK INTRA:                  -0.446
REMARK UNBOUND:                -0.144
REMARK SMILES C=CC(=O)CCCCC
REMARK SMILES IDX 6 1 7 2 8 3 9 4 5 5 3 6 4 7 2 8 1 9
REMARK H PARENT
REMARK Flexibility Score: inf
ROOT
ATOM      1  C   UNL     1      27.919  36.301  20.842  1.00  0.00     0.008 C 
ENDROOT
BRANCH   1   2
ATOM      2  C   UNL     1      28.677  35.854  22.104  1.00  0.00     0.000 C 
BRANCH   2   3
ATOM      3  C   UNL     1      27.901  34.806  22.917  1.00  0.00    -0.003 C 
ATOM      4  C   UNL     1      26.913  35.433  23.899  1.00  0.00     0.004 C 
ENDBRANCH   2   3
ENDBRANCH   1   2
BRANCH   1   5
ATOM      5  C   UNL     1      27.550  37.794  20.890  1.00  0.00     0.080 C 
BRANCH   5   6
ATOM      6  C   UNL     1      26.065  38.057  20.770  1.00  0.00     0.155 C 
ATOM      7  O   UNL     1      25.633  39.241  20.807  1.00  0.00    -0.295 OA
BRANCH   6   8
ATOM      8  C   UNL     1      25.079  36.962  20.666  1.00  0.00     0.039 C 
ATOM      9  C   UNL     1      23.908  36.959  21.303  1.00  0.00     0.012 C 
ENDBRANCH   6   8
ENDBRANCH   5   6
ENDBRANCH   1   5
TORSDOF 5
ENDMDL
MODEL 8
REMARK VINA RESULT:    -3.038     14.015     15.551
REMARK INTER + INTRA:          -4.070
REMARK INTER:                  -3.556
REMARK INTRA:                  -0.514
REMARK UNBOUND:                -0.144
REMARK SMILES C=CC(=O)CCCCC
REMARK SMILES IDX 6 1 7 2 8 3 9 4 5 5 3 6 4 7 2 8 1 9
REMARK H PARENT
REMARK Flexibility Score: inf
ROOT
ATOM      1  C   UNL     1      28.533  36.529  20.897  1.00  0.00     0.008 C 
ENDROOT
BRANCH   1   2
ATOM      2  C   UNL     1      27.507  37.381  20.131  1.00  0.00     0.000 C 
BRANCH   2   3
ATOM      3  C   UNL     1      26.378  37.899  21.036  1.00  0.00    -0.003 C 
ATOM      4  C   UNL     1      25.104  37.063  20.928  1.00  0.00     0.004 C 
ENDBRANCH   2   3
ENDBRANCH   1   2
BRANCH   1   5
ATOM      5  C   UNL     1      28.178  35.032  20.868  1.00  0.00     0.080 C 
BRANCH   5   6
ATOM      6  C   UNL     1      28.295  34.353  22.214  1.00  0.00     0.155 C 
ATOM      7  O   UNL     1      28.625  33.138  22.276  1.00  0.00    -0.295 OA
BRANCH   6   8
ATOM      8  C   UNL     1      27.978  35.051  23.477  1.00  0.00     0.039 C 
ATOM      9  C   UNL     1      26.737  35.303  23.891  1.00  0.00     0.012 C 
ENDBRANCH   6   8
ENDBRANCH   5   6
ENDBRANCH   1   5
TORSDOF 5
ENDMDL
MODEL 9
REMARK VINA RESULT:    -2.956     13.341     14.903
REMARK INTER + INTRA:          -3.964
REMARK INTER:                  -3.809
REMARK INTRA:                  -0.154
REMARK UNBOUND:                -0.144
REMARK SMILES C=CC(=O)CCCCC
REMARK SMILES IDX 6 1 7 2 8 3 9 4 5 5 3 6 4 7 2 8 1 9
REMARK H PARENT
REMARK Flexibility Score: inf
ROOT
ATOM      1  C   UNL     1      28.747  32.931  22.571  1.00  0.00     0.008 C 
ENDROOT
BRANCH   1   2
ATOM      2  C   UNL     1      29.066  34.425  22.749  1.00  0.00     0.000 C 
BRANCH   2   3
ATOM      3  C   UNL     1      28.333  35.045  23.949  1.00  0.00    -0.003 C 
ATOM      4  C   UNL     1      26.894  35.438  23.623  1.00  0.00     0.004 C 
ENDBRANCH   2   3
ENDBRANCH   1   2
BRANCH   1   5
ATOM      5  C   UNL     1      29.124  32.108  23.816  1.00  0.00     0.080 C 
BRANCH   5   6
ATOM      6  C   UNL     1      28.750  30.646  23.715  1.00  0.00     0.155 C 
ATOM      7  O   UNL     1      29.066  29.989  22.687  1.00  0.00    -0.295 OA
BRANCH   6   8
ATOM      8  C   UNL     1      27.968  29.961  24.764  1.00  0.00     0.039 C 
ATOM      9  C   UNL     1      26.925  29.171  24.511  1.00  0.00     0.012 C 
ENDBRANCH   6   8
ENDBRANCH   5   6
ENDBRANCH   1   5
TORSDOF 5
ENDMDL
