MODEL 1
REMARK VINA RESULT:    -4.627      0.000      0.000
REMARK INTER + INTRA:         -10.595
REMARK INTER:                  -8.414
REMARK INTRA:                  -2.181
REMARK UNBOUND:                -2.181
REMARK SMILES CCCCCCCCCCCCCC[C@@H](C)C(=O)[O-]
REMARK SMILES IDX 9 1 10 2 11 3 12 4 13 5 14 6 15 7 16 8 17 9 18 10 19 11 8 12
REMARK SMILES IDX 7 13 6 14 5 15 4 16 3 17 2 18 1 19
REMARK H PARENT
REMARK Flexibility Score: inf
ROOT
ATOM      1  C   UNL     1     -34.309  20.918 -29.472  1.00  0.00     0.000 C 
ENDROOT
BRANCH   1   2
ATOM      2  C   UNL     1     -35.051  22.246 -29.719  1.00  0.00     0.000 C 
BRANCH   2   3
ATOM      3  C   UNL     1     -35.800  22.334 -31.060  1.00  0.00     0.000 C 
BRANCH   3   4
ATOM      4  C   UNL     1     -36.062  20.957 -31.689  1.00  0.00     0.000 C 
BRANCH   4   5
ATOM      5  C   UNL     1     -37.560  20.741 -31.932  1.00  0.00     0.001 C 
BRANCH   5   6
ATOM      6  C   UNL     1     -38.122  19.659 -30.996  1.00  0.00     0.009 C 
BRANCH   6   7
ATOM      7  C   UNL     1     -38.439  20.212 -29.592  1.00  0.00     0.032 C 
ATOM      8  C   UNL     1     -39.384  21.414 -29.685  1.00  0.00     0.014 C 
BRANCH   7   9
ATOM      9  C   UNL     1     -39.042  19.154 -28.706  1.00  0.00     0.044 C 
ATOM     10  O   UNL     1     -38.307  18.317 -28.116  1.00  0.00    -0.550 OA
ATOM     11  O   UNL     1     -40.420  19.096 -28.536  1.00  0.00    -0.550 OA
ENDBRANCH   7   9
ENDBRANCH   6   7
ENDBRANCH   5   6
ENDBRANCH   4   5
ENDBRANCH   3   4
ENDBRANCH   2   3
ENDBRANCH   1   2
BRANCH   1  12
ATOM     12  C   UNL     1     -34.959  19.991 -28.426  1.00  0.00     0.000 C 
BRANCH  12  13
ATOM     13  C   UNL     1     -34.959  18.495 -28.796  1.00  0.00    -0.000 C 
BRANCH  13  14
ATOM     14  C   UNL     1     -34.305  18.157 -30.150  1.00  0.00    -0.000 C 
BRANCH  14  15
ATOM     15  C   UNL     1     -34.884  16.925 -30.871  1.00  0.00    -0.000 C 
BRANCH  15  16
ATOM     16  C   UNL     1     -36.344  16.637 -30.483  1.00  0.00    -0.000 C 
BRANCH  16  17
ATOM     17  C   UNL     1     -36.499  15.358 -29.642  1.00  0.00    -0.000 C 
BRANCH  17  18
ATOM     18  C   UNL     1     -36.125  14.051 -30.364  1.00  0.00    -0.003 C 
ATOM     19  C   UNL     1     -37.211  12.980 -30.265  1.00  0.00     0.004 C 
ENDBRANCH  17  18
ENDBRANCH  16  17
ENDBRANCH  15  16
ENDBRANCH  14  15
ENDBRANCH  13  14
ENDBRANCH  12  13
ENDBRANCH   1  12
TORSDOF 14
ENDMDL
MODEL 2
REMARK VINA RESULT:    -4.392     13.902     15.977
REMARK INTER + INTRA:         -10.167
REMARK INTER:                  -7.981
REMARK INTRA:                  -2.186
REMARK UNBOUND:                -2.181
REMARK SMILES CCCCCCCCCCCCCC[C@@H](C)C(=O)[O-]
REMARK SMILES IDX 9 1 10 2 11 3 12 4 13 5 14 6 15 7 16 8 17 9 18 10 19 11 8 12
REMARK SMILES IDX 7 13 6 14 5 15 4 16 3 17 2 18 1 19
REMARK H PARENT
REMARK Flexibility Score: inf
ROOT
ATOM      1  C   UNL     1     -49.004   9.002 -33.335  1.00  0.00     0.000 C 
ENDROOT
BRANCH   1   2
ATOM      2  C   UNL     1     -50.210   8.543 -32.492  1.00  0.00     0.000 C 
BRANCH   2   3
ATOM      3  C   UNL     1     -51.233   9.645 -32.165  1.00  0.00     0.000 C 
BRANCH   3   4
ATOM      4  C   UNL     1     -51.725   9.590 -30.711  1.00  0.00     0.000 C 
BRANCH   4   5
ATOM      5  C   UNL     1     -51.974  10.999 -30.161  1.00  0.00     0.001 C 
BRANCH   5   6
ATOM      6  C   UNL     1     -51.353  12.066 -31.077  1.00  0.00     0.009 C 
BRANCH   6   7
ATOM      7  C   UNL     1     -50.625  13.167 -30.278  1.00  0.00     0.032 C 
ATOM      8  C   UNL     1     -49.362  13.623 -31.015  1.00  0.00     0.014 C 
BRANCH   7   9
ATOM      9  C   UNL     1     -51.524  14.348 -30.021  1.00  0.00     0.044 C 
ATOM     10  O   UNL     1     -51.739  14.745 -28.845  1.00  0.00    -0.550 OA
ATOM     11  O   UNL     1     -52.123  15.007 -31.087  1.00  0.00    -0.550 OA
ENDBRANCH   7   9
ENDBRANCH   6   7
ENDBRANCH   5   6
ENDBRANCH   4   5
ENDBRANCH   3   4
ENDBRANCH   2   3
ENDBRANCH   1   2
BRANCH   1  12
ATOM     12  C   UNL     1     -47.895   7.949 -33.517  1.00  0.00     0.000 C 
BRANCH  12  13
ATOM     13  C   UNL     1     -48.144   6.613 -32.789  1.00  0.00    -0.000 C 
BRANCH  13  14
ATOM     14  C   UNL     1     -47.076   6.227 -31.747  1.00  0.00    -0.000 C 
BRANCH  14  15
ATOM     15  C   UNL     1     -47.338   6.737 -30.318  1.00  0.00    -0.000 C 
BRANCH  15  16
ATOM     16  C   UNL     1     -46.308   7.784 -29.859  1.00  0.00    -0.000 C 
BRANCH  16  17
ATOM     17  C   UNL     1     -46.678   9.215 -30.287  1.00  0.00    -0.000 C 
BRANCH  17  18
ATOM     18  C   UNL     1     -48.080   9.685 -29.854  1.00  0.00    -0.003 C 
ATOM     19  C   UNL     1     -48.042  10.841 -28.856  1.00  0.00     0.004 C 
ENDBRANCH  17  18
ENDBRANCH  16  17
ENDBRANCH  15  16
ENDBRANCH  14  15
ENDBRANCH  13  14
ENDBRANCH  12  13
ENDBRANCH   1  12
TORSDOF 14
ENDMDL
MODEL 3
REMARK VINA RESULT:    -4.364      2.137      4.692
REMARK INTER + INTRA:         -10.117
REMARK INTER:                  -7.615
REMARK INTRA:                  -2.502
REMARK UNBOUND:                -2.181
REMARK SMILES CCCCCCCCCCCCCC[C@@H](C)C(=O)[O-]
REMARK SMILES IDX 9 1 10 2 11 3 12 4 13 5 14 6 15 7 16 8 17 9 18 10 19 11 8 12
REMARK SMILES IDX 7 13 6 14 5 15 4 16 3 17 2 18 1 19
REMARK H PARENT
REMARK Flexibility Score: inf
ROOT
ATOM      1  C   UNL     1     -34.836  22.441 -29.229  1.00  0.00     0.000 C 
ENDROOT
BRANCH   1   2
ATOM      2  C   UNL     1     -35.108  21.344 -28.180  1.00  0.00     0.000 C 
BRANCH   2   3
ATOM      3  C   UNL     1     -33.966  20.331 -27.987  1.00  0.00     0.000 C 
BRANCH   3   4
ATOM      4  C   UNL     1     -34.459  18.877 -27.940  1.00  0.00     0.000 C 
BRANCH   4   5
ATOM      5  C   UNL     1     -35.859  18.752 -28.552  1.00  0.00     0.001 C 
BRANCH   5   6
ATOM      6  C   UNL     1     -35.801  18.082 -29.934  1.00  0.00     0.009 C 
BRANCH   6   7
ATOM      7  C   UNL     1     -36.836  16.948 -30.075  1.00  0.00     0.032 C 
ATOM      8  C   UNL     1     -37.925  17.332 -31.083  1.00  0.00     0.014 C 
BRANCH   7   9
ATOM      9  C   UNL     1     -36.184  15.655 -30.492  1.00  0.00     0.044 C 
ATOM     10  O   UNL     1     -36.614  14.552 -30.059  1.00  0.00    -0.550 OA
ATOM     11  O   UNL     1     -35.100  15.676 -31.360  1.00  0.00    -0.550 OA
ENDBRANCH   7   9
ENDBRANCH   6   7
ENDBRANCH   5   6
ENDBRANCH   4   5
ENDBRANCH   3   4
ENDBRANCH   2   3
ENDBRANCH   1   2
BRANCH   1  12
ATOM     12  C   UNL     1     -33.969  22.001 -30.425  1.00  0.00     0.000 C 
BRANCH  12  13
ATOM     13  C   UNL     1     -34.696  21.127 -31.465  1.00  0.00    -0.000 C 
BRANCH  13  14
ATOM     14  C   UNL     1     -36.045  21.684 -31.960  1.00  0.00    -0.000 C 
BRANCH  14  15
ATOM     15  C   UNL     1     -37.125  20.627 -32.255  1.00  0.00    -0.000 C 
BRANCH  15  16
ATOM     16  C   UNL     1     -38.451  20.907 -31.528  1.00  0.00    -0.000 C 
BRANCH  16  17
ATOM     17  C   UNL     1     -38.322  20.827 -29.996  1.00  0.00    -0.000 C 
BRANCH  17  18
ATOM     18  C   UNL     1     -39.624  20.487 -29.248  1.00  0.00    -0.003 C 
ATOM     19  C   UNL     1     -39.585  19.117 -28.572  1.00  0.00     0.004 C 
ENDBRANCH  17  18
ENDBRANCH  16  17
ENDBRANCH  15  16
ENDBRANCH  14  15
ENDBRANCH  13  14
ENDBRANCH  12  13
ENDBRANCH   1  12
TORSDOF 14
ENDMDL
MODEL 4
REMARK VINA RESULT:    -4.326     14.017     15.512
REMARK INTER + INTRA:         -10.047
REMARK INTER:                  -7.811
REMARK INTRA:                  -2.236
REMARK UNBOUND:                -2.181
REMARK SMILES CCCCCCCCCCCCCC[C@@H](C)C(=O)[O-]
REMARK SMILES IDX 9 1 10 2 11 3 12 4 13 5 14 6 15 7 16 8 17 9 18 10 19 11 8 12
REMARK SMILES IDX 7 13 6 14 5 15 4 16 3 17 2 18 1 19
REMARK H PARENT
REMARK Flexibility Score: inf
ROOT
ATOM      1  C   UNL     1     -49.649  11.927 -31.106  1.00  0.00     0.000 C 
ENDROOT
BRANCH   1   2
ATOM      2  C   UNL     1     -51.122  11.563 -31.381  1.00  0.00     0.000 C 
BRANCH   2   3
ATOM      3  C   UNL     1     -52.003  11.427 -30.127  1.00  0.00     0.000 C 
BRANCH   3   4
ATOM      4  C   UNL     1     -53.181  12.412 -30.115  1.00  0.00     0.000 C 
BRANCH   4   5
ATOM      5  C   UNL     1     -52.780  13.740 -29.463  1.00  0.00     0.001 C 
BRANCH   5   6
ATOM      6  C   UNL     1     -52.675  14.860 -30.510  1.00  0.00     0.009 C 
BRANCH   6   7
ATOM      7  C   UNL     1     -51.291  15.539 -30.500  1.00  0.00     0.032 C 
ATOM      8  C   UNL     1     -50.653  15.488 -31.893  1.00  0.00     0.014 C 
BRANCH   7   9
ATOM      9  C   UNL     1     -51.380  16.967 -30.029  1.00  0.00     0.044 C 
ATOM     10  O   UNL     1     -51.852  17.238 -28.892  1.00  0.00    -0.550 OA
ATOM     11  O   UNL     1     -50.940  17.996 -30.852  1.00  0.00    -0.550 OA
ENDBRANCH   7   9
ENDBRANCH   6   7
ENDBRANCH   5   6
ENDBRANCH   4   5
ENDBRANCH   3   4
ENDBRANCH   2   3
ENDBRANCH   1   2
BRANCH   1  12
ATOM     12  C   UNL     1     -49.278  12.072 -29.618  1.00  0.00     0.000 C 
BRANCH  12  13
ATOM     13  C   UNL     1     -48.127  11.164 -29.145  1.00  0.00    -0.000 C 
BRANCH  13  14
ATOM     14  C   UNL     1     -48.211   9.700 -29.622  1.00  0.00    -0.000 C 
BRANCH  14  15
ATOM     15  C   UNL     1     -47.014   9.213 -30.461  1.00  0.00    -0.000 C 
BRANCH  15  16
ATOM     16  C   UNL     1     -47.430   8.273 -31.605  1.00  0.00    -0.000 C 
BRANCH  16  17
ATOM     17  C   UNL     1     -48.432   8.919 -32.577  1.00  0.00    -0.000 C 
BRANCH  17  18
ATOM     18  C   UNL     1     -49.646   8.044 -32.943  1.00  0.00    -0.003 C 
ATOM     19  C   UNL     1     -50.648   7.903 -31.798  1.00  0.00     0.004 C 
ENDBRANCH  17  18
ENDBRANCH  16  17
ENDBRANCH  15  16
ENDBRANCH  14  15
ENDBRANCH  13  14
ENDBRANCH  12  13
ENDBRANCH   1  12
TORSDOF 14
ENDMDL
MODEL 5
REMARK VINA RESULT:    -4.283     14.035     16.550
REMARK INTER + INTRA:          -9.969
REMARK INTER:                  -7.763
REMARK INTRA:                  -2.206
REMARK UNBOUND:                -2.181
REMARK SMILES CCCCCCCCCCCCCC[C@@H](C)C(=O)[O-]
REMARK SMILES IDX 9 1 10 2 11 3 12 4 13 5 14 6 15 7 16 8 17 9 18 10 19 11 8 12
REMARK SMILES IDX 7 13 6 14 5 15 4 16 3 17 2 18 1 19
REMARK H PARENT
REMARK Flexibility Score: inf
ROOT
ATOM      1  C   UNL     1     -52.412  15.237 -27.915  1.00  0.00     0.000 C 
ENDROOT
BRANCH   1   2
ATOM      2  C   UNL     1     -53.700  14.515 -28.358  1.00  0.00     0.000 C 
BRANCH   2   3
ATOM      3  C   UNL     1     -53.510  13.048 -28.784  1.00  0.00     0.000 C 
BRANCH   3   4
ATOM      4  C   UNL     1     -53.483  12.867 -30.309  1.00  0.00     0.000 C 
BRANCH   4   5
ATOM      5  C   UNL     1     -52.281  12.020 -30.741  1.00  0.00     0.001 C 
BRANCH   5   6
ATOM      6  C   UNL     1     -51.304  11.812 -29.573  1.00  0.00     0.009 C 
BRANCH   6   7
ATOM      7  C   UNL     1     -50.157  10.848 -29.937  1.00  0.00     0.032 C 
ATOM      8  C   UNL     1     -50.075  10.653 -31.455  1.00  0.00     0.014 C 
BRANCH   7   9
ATOM      9  C   UNL     1     -48.834  11.340 -29.411  1.00  0.00     0.044 C 
ATOM     10  O   UNL     1     -48.534  12.562 -29.474  1.00  0.00    -0.550 OA
ATOM     11  O   UNL     1     -47.934  10.442 -28.853  1.00  0.00    -0.550 OA
ENDBRANCH   7   9
ENDBRANCH   6   7
ENDBRANCH   5   6
ENDBRANCH   4   5
ENDBRANCH   3   4
ENDBRANCH   2   3
ENDBRANCH   1   2
BRANCH   1  12
ATOM     12  C   UNL     1     -52.552  16.759 -27.718  1.00  0.00     0.000 C 
BRANCH  12  13
ATOM     13  C   UNL     1     -53.874  17.361 -28.233  1.00  0.00    -0.000 C 
BRANCH  13  14
ATOM     14  C   UNL     1     -53.735  18.306 -29.443  1.00  0.00    -0.000 C 
BRANCH  14  15
ATOM     15  C   UNL     1     -53.128  17.671 -30.707  1.00  0.00    -0.000 C 
BRANCH  15  16
ATOM     16  C   UNL     1     -51.705  18.173 -31.004  1.00  0.00    -0.000 C 
BRANCH  16  17
ATOM     17  C   UNL     1     -50.661  17.042 -31.016  1.00  0.00    -0.000 C 
BRANCH  17  18
ATOM     18  C   UNL     1     -51.206  15.654 -31.398  1.00  0.00    -0.003 C 
ATOM     19  C   UNL     1     -50.119  14.700 -31.893  1.00  0.00     0.004 C 
ENDBRANCH  17  18
ENDBRANCH  16  17
ENDBRANCH  15  16
ENDBRANCH  14  15
ENDBRANCH  13  14
ENDBRANCH  12  13
ENDBRANCH   1  12
TORSDOF 14
ENDMDL
MODEL 6
REMARK VINA RESULT:    -4.248     14.063     16.297
REMARK INTER + INTRA:          -9.906
REMARK INTER:                  -7.662
REMARK INTRA:                  -2.244
REMARK UNBOUND:                -2.181
REMARK SMILES CCCCCCCCCCCCCC[C@@H](C)C(=O)[O-]
REMARK SMILES IDX 9 1 10 2 11 3 12 4 13 5 14 6 15 7 16 8 17 9 18 10 19 11 8 12
REMARK SMILES IDX 7 13 6 14 5 15 4 16 3 17 2 18 1 19
REMARK H PARENT
REMARK Flexibility Score: inf
ROOT
ATOM      1  C   UNL     1     -50.392  13.255 -29.940  1.00  0.00     0.000 C 
ENDROOT
BRANCH   1   2
ATOM      2  C   UNL     1     -51.420  12.111 -30.045  1.00  0.00     0.000 C 
BRANCH   2   3
ATOM      3  C   UNL     1     -51.921  11.814 -31.469  1.00  0.00     0.000 C 
BRANCH   3   4
ATOM      4  C   UNL     1     -51.506  10.422 -31.969  1.00  0.00     0.000 C 
BRANCH   4   5
ATOM      5  C   UNL     1     -50.456   9.796 -31.044  1.00  0.00     0.001 C 
BRANCH   5   6
ATOM      6  C   UNL     1     -49.102   9.660 -31.757  1.00  0.00     0.009 C 
BRANCH   6   7
ATOM      7  C   UNL     1     -47.920   9.646 -30.766  1.00  0.00     0.032 C 
ATOM      8  C   UNL     1     -48.382  10.069 -29.368  1.00  0.00     0.014 C 
BRANCH   7   9
ATOM      9  C   UNL     1     -47.270   8.289 -30.703  1.00  0.00     0.044 C 
ATOM     10  O   UNL     1     -47.691   7.343 -31.422  1.00  0.00    -0.550 OA
ATOM     11  O   UNL     1     -46.199   8.074 -29.846  1.00  0.00    -0.550 OA
ENDBRANCH   7   9
ENDBRANCH   6   7
ENDBRANCH   5   6
ENDBRANCH   4   5
ENDBRANCH   3   4
ENDBRANCH   2   3
ENDBRANCH   1   2
BRANCH   1  12
ATOM     12  C   UNL     1     -49.548  13.493 -31.208  1.00  0.00     0.000 C 
BRANCH  12  13
ATOM     13  C   UNL     1     -49.741  14.874 -31.865  1.00  0.00    -0.000 C 
BRANCH  13  14
ATOM     14  C   UNL     1     -51.129  15.510 -31.654  1.00  0.00    -0.000 C 
BRANCH  14  15
ATOM     15  C   UNL     1     -51.133  16.838 -30.875  1.00  0.00    -0.000 C 
BRANCH  15  16
ATOM     16  C   UNL     1     -52.427  17.059 -30.075  1.00  0.00    -0.000 C 
BRANCH  16  17
ATOM     17  C   UNL     1     -53.325  15.809 -30.032  1.00  0.00    -0.000 C 
BRANCH  17  18
ATOM     18  C   UNL     1     -53.322  15.048 -28.694  1.00  0.00    -0.003 C 
ATOM     19  C   UNL     1     -52.523  15.759 -27.602  1.00  0.00     0.004 C 
ENDBRANCH  17  18
ENDBRANCH  16  17
ENDBRANCH  15  16
ENDBRANCH  14  15
ENDBRANCH  13  14
ENDBRANCH  12  13
ENDBRANCH   1  12
TORSDOF 14
ENDMDL
MODEL 7
REMARK VINA RESULT:    -4.231     13.949     15.780
REMARK INTER + INTRA:          -9.875
REMARK INTER:                  -7.704
REMARK INTRA:                  -2.171
REMARK UNBOUND:                -2.181
REMARK SMILES CCCCCCCCCCCCCC[C@@H](C)C(=O)[O-]
REMARK SMILES IDX 9 1 10 2 11 3 12 4 13 5 14 6 15 7 16 8 17 9 18 10 19 11 8 12
REMARK SMILES IDX 7 13 6 14 5 15 4 16 3 17 2 18 1 19
REMARK H PARENT
REMARK Flexibility Score: inf
ROOT
ATOM      1  C   UNL     1     -48.898   9.739 -29.648  1.00  0.00     0.000 C 
ENDROOT
BRANCH   1   2
ATOM      2  C   UNL     1     -49.744  11.017 -29.822  1.00  0.00     0.000 C 
BRANCH   2   3
ATOM      3  C   UNL     1     -48.974  12.337 -29.639  1.00  0.00     0.000 C 
BRANCH   3   4
ATOM      4  C   UNL     1     -49.256  13.352 -30.756  1.00  0.00     0.000 C 
BRANCH   4   5
ATOM      5  C   UNL     1     -50.533  12.986 -31.522  1.00  0.00     0.001 C 
BRANCH   5   6
ATOM      6  C   UNL     1     -51.581  14.105 -31.414  1.00  0.00     0.009 C 
BRANCH   6   7
ATOM      7  C   UNL     1     -52.824  13.665 -30.615  1.00  0.00     0.032 C 
ATOM      8  C   UNL     1     -53.109  12.176 -30.837  1.00  0.00     0.014 C 
BRANCH   7   9
ATOM      9  C   UNL     1     -52.661  13.943 -29.144  1.00  0.00     0.044 C 
ATOM     10  O   UNL     1     -51.909  14.873 -28.747  1.00  0.00    -0.550 OA
ATOM     11  O   UNL     1     -53.342  13.168 -28.214  1.00  0.00    -0.550 OA
ENDBRANCH   7   9
ENDBRANCH   6   7
ENDBRANCH   5   6
ENDBRANCH   4   5
ENDBRANCH   3   4
ENDBRANCH   2   3
ENDBRANCH   1   2
BRANCH   1  12
ATOM     12  C   UNL     1     -47.374   9.963 -29.622  1.00  0.00     0.000 C 
BRANCH  12  13
ATOM     13  C   UNL     1     -46.553   8.921 -30.408  1.00  0.00    -0.000 C 
BRANCH  13  14
ATOM     14  C   UNL     1     -47.386   7.884 -31.186  1.00  0.00    -0.000 C 
BRANCH  14  15
ATOM     15  C   UNL     1     -47.424   8.082 -32.712  1.00  0.00    -0.000 C 
BRANCH  15  16
ATOM     16  C   UNL     1     -48.742   7.602 -33.345  1.00  0.00    -0.000 C 
BRANCH  16  17
ATOM     17  C   UNL     1     -49.831   7.298 -32.302  1.00  0.00    -0.000 C 
BRANCH  17  18
ATOM     18  C   UNL     1     -51.113   8.140 -32.431  1.00  0.00    -0.003 C 
ATOM     19  C   UNL     1     -50.860   9.530 -33.014  1.00  0.00     0.004 C 
ENDBRANCH  17  18
ENDBRANCH  16  17
ENDBRANCH  15  16
ENDBRANCH  14  15
ENDBRANCH  13  14
ENDBRANCH  12  13
ENDBRANCH   1  12
TORSDOF 14
ENDMDL
MODEL 8
REMARK VINA RESULT:    -4.228     13.989     15.884
REMARK INTER + INTRA:          -9.870
REMARK INTER:                  -7.724
REMARK INTRA:                  -2.145
REMARK UNBOUND:                -2.181
REMARK SMILES CCCCCCCCCCCCCC[C@@H](C)C(=O)[O-]
REMARK SMILES IDX 9 1 10 2 11 3 12 4 13 5 14 6 15 7 16 8 17 9 18 10 19 11 8 12
REMARK SMILES IDX 7 13 6 14 5 15 4 16 3 17 2 18 1 19
REMARK H PARENT
REMARK Flexibility Score: inf
ROOT
ATOM      1  C   UNL     1     -47.727  10.398 -29.260  1.00  0.00     0.000 C 
ENDROOT
BRANCH   1   2
ATOM      2  C   UNL     1     -48.903  11.339 -29.591  1.00  0.00     0.000 C 
BRANCH   2   3
ATOM      3  C   UNL     1     -50.293  10.802 -29.208  1.00  0.00     0.000 C 
BRANCH   3   4
ATOM      4  C   UNL     1     -51.420  11.399 -30.063  1.00  0.00     0.000 C 
BRANCH   4   5
ATOM      5  C   UNL     1     -50.898  11.825 -31.440  1.00  0.00     0.001 C 
BRANCH   5   6
ATOM      6  C   UNL     1     -51.495  13.177 -31.864  1.00  0.00     0.009 C 
BRANCH   6   7
ATOM      7  C   UNL     1     -50.919  14.350 -31.044  1.00  0.00     0.032 C 
ATOM      8  C   UNL     1     -50.006  15.220 -31.914  1.00  0.00     0.014 C 
BRANCH   7   9
ATOM      9  C   UNL     1     -52.014  15.194 -30.446  1.00  0.00     0.044 C 
ATOM     10  O   UNL     1     -52.186  16.383 -30.825  1.00  0.00    -0.550 OA
ATOM     11  O   UNL     1     -52.843  14.660 -29.467  1.00  0.00    -0.550 OA
ENDBRANCH   7   9
ENDBRANCH   6   7
ENDBRANCH   5   6
ENDBRANCH   4   5
ENDBRANCH   3   4
ENDBRANCH   2   3
ENDBRANCH   1   2
BRANCH   1  12
ATOM     12  C   UNL     1     -47.799   9.006 -29.916  1.00  0.00     0.000 C 
BRANCH  12  13
ATOM     13  C   UNL     1     -46.788   8.773 -31.056  1.00  0.00    -0.000 C 
BRANCH  13  14
ATOM     14  C   UNL     1     -47.391   8.210 -32.359  1.00  0.00    -0.000 C 
BRANCH  14  15
ATOM     15  C   UNL     1     -48.699   8.878 -32.820  1.00  0.00    -0.000 C 
BRANCH  15  16
ATOM     16  C   UNL     1     -49.835   7.868 -33.058  1.00  0.00    -0.000 C 
BRANCH  16  17
ATOM     17  C   UNL     1     -51.230   8.516 -33.018  1.00  0.00    -0.000 C 
BRANCH  17  18
ATOM     18  C   UNL     1     -52.058   8.209 -31.757  1.00  0.00    -0.003 C 
ATOM     19  C   UNL     1     -51.299   7.366 -30.733  1.00  0.00     0.004 C 
ENDBRANCH  17  18
ENDBRANCH  16  17
ENDBRANCH  15  16
ENDBRANCH  14  15
ENDBRANCH  13  14
ENDBRANCH  12  13
ENDBRANCH   1  12
TORSDOF 14
ENDMDL
MODEL 9
REMARK VINA RESULT:    -4.228     14.353     16.928
REMARK INTER + INTRA:          -9.869
REMARK INTER:                  -7.346
REMARK INTRA:                  -2.523
REMARK UNBOUND:                -2.181
REMARK SMILES CCCCCCCCCCCCCC[C@@H](C)C(=O)[O-]
REMARK SMILES IDX 9 1 10 2 11 3 12 4 13 5 14 6 15 7 16 8 17 9 18 10 19 11 8 12
REMARK SMILES IDX 7 13 6 14 5 15 4 16 3 17 2 18 1 19
REMARK H PARENT
REMARK Flexibility Score: inf
ROOT
ATOM      1  C   UNL     1     -49.665  11.678 -29.863  1.00  0.00     0.000 C 
ENDROOT
BRANCH   1   2
ATOM      2  C   UNL     1     -50.958  11.122 -29.233  1.00  0.00     0.000 C 
BRANCH   2   3
ATOM      3  C   UNL     1     -51.903  10.406 -30.213  1.00  0.00     0.000 C 
BRANCH   3   4
ATOM      4  C   UNL     1     -51.848  10.992 -31.632  1.00  0.00     0.000 C 
BRANCH   4   5
ATOM      5  C   UNL     1     -51.352   9.947 -32.639  1.00  0.00     0.001 C 
BRANCH   5   6
ATOM      6  C   UNL     1     -51.191   8.571 -31.973  1.00  0.00     0.009 C 
BRANCH   6   7
ATOM      7  C   UNL     1     -49.731   8.077 -32.003  1.00  0.00     0.032 C 
ATOM      8  C   UNL     1     -48.801   9.170 -32.541  1.00  0.00     0.014 C 
BRANCH   7   9
ATOM      9  C   UNL     1     -49.269   7.637 -30.639  1.00  0.00     0.044 C 
ATOM     10  O   UNL     1     -48.574   8.403 -29.919  1.00  0.00    -0.550 OA
ATOM     11  O   UNL     1     -49.609   6.375 -30.168  1.00  0.00    -0.550 OA
ENDBRANCH   7   9
ENDBRANCH   6   7
ENDBRANCH   5   6
ENDBRANCH   4   5
ENDBRANCH   3   4
ENDBRANCH   2   3
ENDBRANCH   1   2
BRANCH   1  12
ATOM     12  C   UNL     1     -49.607  13.213 -29.989  1.00  0.00     0.000 C 
BRANCH  12  13
ATOM     13  C   UNL     1     -49.406  13.738 -31.424  1.00  0.00    -0.000 C 
BRANCH  13  14
ATOM     14  C   UNL     1     -50.564  14.595 -31.974  1.00  0.00    -0.000 C 
BRANCH  14  15
ATOM     15  C   UNL     1     -51.113  15.658 -31.005  1.00  0.00    -0.000 C 
BRANCH  15  16
ATOM     16  C   UNL     1     -52.647  15.629 -30.892  1.00  0.00    -0.000 C 
BRANCH  16  17
ATOM     17  C   UNL     1     -53.184  14.286 -30.368  1.00  0.00    -0.000 C 
BRANCH  17  18
ATOM     18  C   UNL     1     -53.090  14.095 -28.843  1.00  0.00    -0.003 C 
ATOM     19  C   UNL     1     -53.996  12.979 -28.323  1.00  0.00     0.004 C 
ENDBRANCH  17  18
ENDBRANCH  16  17
ENDBRANCH  15  16
ENDBRANCH  14  15
ENDBRANCH  13  14
ENDBRANCH  12  13
ENDBRANCH   1  12
TORSDOF 14
ENDMDL
