MODEL 1
REMARK VINA RESULT:    -4.300      0.000      0.000
REMARK INTER + INTRA:          -8.402
REMARK INTER:                  -7.317
REMARK INTRA:                  -1.085
REMARK UNBOUND:                -1.085
REMARK SMILES CCCCCCCCCCCCCC(=O)[O-]
REMARK SMILES IDX 8 1 9 2 10 3 11 4 12 5 13 6 14 7 15 8 16 9 7 10 6 11 5 12
REMARK SMILES IDX 4 13 3 14 2 15 1 16
REMARK H PARENT
REMARK Flexibility Score: inf
ROOT
ATOM      1  C   UNL     1       9.392  -3.442  42.161  1.00  0.00     0.000 C 
ENDROOT
BRANCH   1   2
ATOM      2  C   UNL     1       9.426  -2.614  40.867  1.00  0.00     0.000 C 
BRANCH   2   3
ATOM      3  C   UNL     1       8.018  -2.254  40.362  1.00  0.00     0.000 C 
BRANCH   3   4
ATOM      4  C   UNL     1       7.614  -3.061  39.117  1.00  0.00     0.000 C 
BRANCH   4   5
ATOM      5  C   UNL     1       6.552  -2.345  38.264  1.00  0.00     0.006 C 
BRANCH   5   6
ATOM      6  C   UNL     1       6.956  -2.264  36.787  1.00  0.00     0.053 C 
BRANCH   6   7
ATOM      7  C   UNL     1       5.986  -1.447  35.990  1.00  0.00     0.041 C 
ATOM      8  O   UNL     1       5.364  -0.495  36.531  1.00  0.00    -0.550 OA
ATOM      9  O   UNL     1       5.794  -1.716  34.641  1.00  0.00    -0.550 OA
ENDBRANCH   6   7
ENDBRANCH   5   6
ENDBRANCH   4   5
ENDBRANCH   3   4
ENDBRANCH   2   3
ENDBRANCH   1   2
BRANCH   1  10
ATOM     10  C   UNL     1       7.982  -3.532  42.772  1.00  0.00     0.000 C 
BRANCH  10  11
ATOM     11  C   UNL     1       7.493  -4.982  42.938  1.00  0.00    -0.000 C 
BRANCH  11  12
ATOM     12  C   UNL     1       7.528  -5.842  41.655  1.00  0.00    -0.000 C 
BRANCH  12  13
ATOM     13  C   UNL     1       8.425  -7.094  41.728  1.00  0.00    -0.000 C 
BRANCH  13  14
ATOM     14  C   UNL     1       9.246  -7.199  43.034  1.00  0.00    -0.000 C 
BRANCH  14  15
ATOM     15  C   UNL     1       8.745  -8.297  43.986  1.00  0.00    -0.003 C 
ATOM     16  C   UNL     1       7.753  -9.250  43.322  1.00  0.00     0.004 C 
ENDBRANCH  14  15
ENDBRANCH  13  14
ENDBRANCH  12  13
ENDBRANCH  11  12
ENDBRANCH  10  11
ENDBRANCH   1  10
TORSDOF 12
ENDMDL
MODEL 2
REMARK VINA RESULT:    -4.236      3.388      5.979
REMARK INTER + INTRA:          -8.293
REMARK INTER:                  -7.371
REMARK INTRA:                  -0.922
REMARK UNBOUND:                -1.085
REMARK SMILES CCCCCCCCCCCCCC(=O)[O-]
REMARK SMILES IDX 8 1 9 2 10 3 11 4 12 5 13 6 14 7 15 8 16 9 7 10 6 11 5 12
REMARK SMILES IDX 4 13 3 14 2 15 1 16
REMARK H PARENT
REMARK Flexibility Score: inf
ROOT
ATOM      1  C   UNL     1       8.069  -9.019  43.877  1.00  0.00     0.000 C 
ENDROOT
BRANCH   1   2
ATOM      2  C   UNL     1       8.039  -8.883  42.346  1.00  0.00     0.000 C 
BRANCH   2   3
ATOM      3  C   UNL     1       7.831  -7.429  41.889  1.00  0.00     0.000 C 
BRANCH   3   4
ATOM      4  C   UNL     1       7.990  -6.421  43.039  1.00  0.00     0.000 C 
BRANCH   4   5
ATOM      5  C   UNL     1       7.239  -5.103  42.781  1.00  0.00     0.006 C 
BRANCH   5   6
ATOM      6  C   UNL     1       8.179  -3.983  42.317  1.00  0.00     0.053 C 
BRANCH   6   7
ATOM      7  C   UNL     1       8.217  -3.874  40.824  1.00  0.00     0.041 C 
ATOM      8  O   UNL     1       7.564  -2.972  40.236  1.00  0.00    -0.550 OA
ATOM      9  O   UNL     1       9.002  -4.749  40.084  1.00  0.00    -0.550 OA
ENDBRANCH   6   7
ENDBRANCH   5   6
ENDBRANCH   4   5
ENDBRANCH   3   4
ENDBRANCH   2   3
ENDBRANCH   1   2
BRANCH   1  10
ATOM     10  C   UNL     1       7.144 -10.137  44.392  1.00  0.00     0.000 C 
BRANCH  10  11
ATOM     11  C   UNL     1       6.873 -11.223  43.335  1.00  0.00    -0.000 C 
BRANCH  11  12
ATOM     12  C   UNL     1       5.384 -11.553  43.092  1.00  0.00    -0.000 C 
BRANCH  12  13
ATOM     13  C   UNL     1       4.876 -11.277  41.663  1.00  0.00    -0.000 C 
BRANCH  13  14
ATOM     14  C   UNL     1       5.992 -11.265  40.593  1.00  0.00    -0.000 C 
BRANCH  14  15
ATOM     15  C   UNL     1       6.012 -12.526  39.714  1.00  0.00    -0.003 C 
ATOM     16  C   UNL     1       7.097 -12.482  38.640  1.00  0.00     0.004 C 
ENDBRANCH  14  15
ENDBRANCH  13  14
ENDBRANCH  12  13
ENDBRANCH  11  12
ENDBRANCH  10  11
ENDBRANCH   1  10
TORSDOF 12
ENDMDL
MODEL 3
REMARK VINA RESULT:    -4.212      3.952      7.362
REMARK INTER + INTRA:          -8.252
REMARK INTER:                  -7.401
REMARK INTRA:                  -0.850
REMARK UNBOUND:                -1.085
REMARK SMILES CCCCCCCCCCCCCC(=O)[O-]
REMARK SMILES IDX 8 1 9 2 10 3 11 4 12 5 13 6 14 7 15 8 16 9 7 10 6 11 5 12
REMARK SMILES IDX 4 13 3 14 2 15 1 16
REMARK H PARENT
REMARK Flexibility Score: inf
ROOT
ATOM      1  C   UNL     1       8.662  -3.592  41.151  1.00  0.00     0.000 C 
ENDROOT
BRANCH   1   2
ATOM      2  C   UNL     1       8.313  -3.725  42.641  1.00  0.00     0.000 C 
BRANCH   2   3
ATOM      3  C   UNL     1       7.358  -4.899  42.919  1.00  0.00     0.000 C 
BRANCH   3   4
ATOM      4  C   UNL     1       7.537  -6.053  41.919  1.00  0.00     0.000 C 
BRANCH   4   5
ATOM      5  C   UNL     1       8.212  -7.285  42.547  1.00  0.00     0.006 C 
BRANCH   5   6
ATOM      6  C   UNL     1       8.417  -8.414  41.529  1.00  0.00     0.053 C 
BRANCH   6   7
ATOM      7  C   UNL     1       7.343  -9.453  41.630  1.00  0.00     0.041 C 
ATOM      8  O   UNL     1       7.063  -9.971  42.743  1.00  0.00    -0.550 OA
ATOM      9  O   UNL     1       6.629  -9.826  40.498  1.00  0.00    -0.550 OA
ENDBRANCH   6   7
ENDBRANCH   5   6
ENDBRANCH   4   5
ENDBRANCH   3   4
ENDBRANCH   2   3
ENDBRANCH   1   2
BRANCH   1  10
ATOM     10  C   UNL     1       8.067  -2.324  40.512  1.00  0.00     0.000 C 
BRANCH  10  11
ATOM     11  C   UNL     1       7.516  -2.571  39.096  1.00  0.00    -0.000 C 
BRANCH  11  12
ATOM     12  C   UNL     1       8.126  -3.779  38.350  1.00  0.00    -0.000 C 
BRANCH  12  13
ATOM     13  C   UNL     1       8.263  -3.607  36.824  1.00  0.00    -0.000 C 
BRANCH  13  14
ATOM     14  C   UNL     1       6.911  -3.492  36.084  1.00  0.00    -0.000 C 
BRANCH  14  15
ATOM     15  C   UNL     1       6.855  -2.322  35.089  1.00  0.00    -0.003 C 
ATOM     16  C   UNL     1       6.751  -0.962  35.778  1.00  0.00     0.004 C 
ENDBRANCH  14  15
ENDBRANCH  13  14
ENDBRANCH  12  13
ENDBRANCH  11  12
ENDBRANCH  10  11
ENDBRANCH   1  10
TORSDOF 12
ENDMDL
MODEL 4
REMARK VINA RESULT:    -4.208      1.460      3.192
REMARK INTER + INTRA:          -8.245
REMARK INTER:                  -7.260
REMARK INTRA:                  -0.985
REMARK UNBOUND:                -1.085
REMARK SMILES CCCCCCCCCCCCCC(=O)[O-]
REMARK SMILES IDX 8 1 9 2 10 3 11 4 12 5 13 6 14 7 15 8 16 9 7 10 6 11 5 12
REMARK SMILES IDX 4 13 3 14 2 15 1 16
REMARK H PARENT
REMARK Flexibility Score: inf
ROOT
ATOM      1  C   UNL     1       7.773  -3.724  38.689  1.00  0.00     0.000 C 
ENDROOT
BRANCH   1   2
ATOM      2  C   UNL     1       8.378  -3.482  37.297  1.00  0.00     0.000 C 
BRANCH   2   3
ATOM      3  C   UNL     1       7.353  -3.678  36.167  1.00  0.00     0.000 C 
BRANCH   3   4
ATOM      4  C   UNL     1       7.417  -2.560  35.113  1.00  0.00     0.000 C 
BRANCH   4   5
ATOM      5  C   UNL     1       6.104  -1.763  35.011  1.00  0.00     0.006 C 
BRANCH   5   6
ATOM      6  C   UNL     1       5.638  -1.242  36.377  1.00  0.00     0.053 C 
BRANCH   6   7
ATOM      7  C   UNL     1       5.621   0.255  36.422  1.00  0.00     0.041 C 
ATOM      8  O   UNL     1       5.780   0.858  37.516  1.00  0.00    -0.550 OA
ATOM      9  O   UNL     1       5.463   0.984  35.250  1.00  0.00    -0.550 OA
ENDBRANCH   6   7
ENDBRANCH   5   6
ENDBRANCH   4   5
ENDBRANCH   3   4
ENDBRANCH   2   3
ENDBRANCH   1   2
BRANCH   1  10
ATOM     10  C   UNL     1       7.507  -2.416  39.456  1.00  0.00     0.000 C 
BRANCH  10  11
ATOM     11  C   UNL     1       8.426  -2.244  40.680  1.00  0.00    -0.000 C 
BRANCH  11  12
ATOM     12  C   UNL     1       8.775  -3.547  41.432  1.00  0.00    -0.000 C 
BRANCH  12  13
ATOM     13  C   UNL     1       7.975  -3.791  42.728  1.00  0.00    -0.000 C 
BRANCH  13  14
ATOM     14  C   UNL     1       7.495  -5.250  42.901  1.00  0.00    -0.000 C 
BRANCH  14  15
ATOM     15  C   UNL     1       7.525  -6.064  41.598  1.00  0.00    -0.003 C 
ATOM     16  C   UNL     1       7.911  -7.525  41.820  1.00  0.00     0.004 C 
ENDBRANCH  14  15
ENDBRANCH  13  14
ENDBRANCH  12  13
ENDBRANCH  11  12
ENDBRANCH  10  11
ENDBRANCH   1  10
TORSDOF 12
ENDMDL
MODEL 5
REMARK VINA RESULT:    -4.157      4.370      6.914
REMARK INTER + INTRA:          -8.158
REMARK INTER:                  -6.755
REMARK INTRA:                  -1.404
REMARK UNBOUND:                -1.085
REMARK SMILES CCCCCCCCCCCCCC(=O)[O-]
REMARK SMILES IDX 8 1 9 2 10 3 11 4 12 5 13 6 14 7 15 8 16 9 7 10 6 11 5 12
REMARK SMILES IDX 4 13 3 14 2 15 1 16
REMARK H PARENT
REMARK Flexibility Score: inf
ROOT
ATOM      1  C   UNL     1      10.258  -3.403  42.094  1.00  0.00     0.000 C 
ENDROOT
BRANCH   1   2
ATOM      2  C   UNL     1       9.835  -4.863  42.325  1.00  0.00     0.000 C 
BRANCH   2   3
ATOM      3  C   UNL     1       8.328  -5.002  42.603  1.00  0.00     0.000 C 
BRANCH   3   4
ATOM      4  C   UNL     1       7.649  -6.020  41.672  1.00  0.00     0.000 C 
BRANCH   4   5
ATOM      5  C   UNL     1       8.450  -7.326  41.536  1.00  0.00     0.006 C 
BRANCH   5   6
ATOM      6  C   UNL     1       7.543  -8.563  41.527  1.00  0.00     0.053 C 
BRANCH   6   7
ATOM      7  C   UNL     1       7.599  -9.301  42.829  1.00  0.00     0.041 C 
ATOM      8  O   UNL     1       7.238 -10.506  42.891  1.00  0.00    -0.550 OA
ATOM      9  O   UNL     1       8.082  -8.667  43.966  1.00  0.00    -0.550 OA
ENDBRANCH   6   7
ENDBRANCH   5   6
ENDBRANCH   4   5
ENDBRANCH   3   4
ENDBRANCH   2   3
ENDBRANCH   1   2
BRANCH   1  10
ATOM     10  C   UNL     1       9.313  -2.396  42.776  1.00  0.00     0.000 C 
BRANCH  10  11
ATOM     11  C   UNL     1       8.619  -1.456  41.774  1.00  0.00    -0.000 C 
BRANCH  11  12
ATOM     12  C   UNL     1       8.795  -1.830  40.285  1.00  0.00    -0.000 C 
BRANCH  12  13
ATOM     13  C   UNL     1       7.538  -2.406  39.601  1.00  0.00    -0.000 C 
BRANCH  13  14
ATOM     14  C   UNL     1       7.790  -3.728  38.842  1.00  0.00    -0.000 C 
BRANCH  14  15
ATOM     15  C   UNL     1       9.056  -3.703  37.970  1.00  0.00    -0.003 C 
ATOM     16  C   UNL     1       8.750  -3.823  36.478  1.00  0.00     0.004 C 
ENDBRANCH  14  15
ENDBRANCH  13  14
ENDBRANCH  12  13
ENDBRANCH  11  12
ENDBRANCH  10  11
ENDBRANCH   1  10
TORSDOF 12
ENDMDL
MODEL 6
REMARK VINA RESULT:    -4.142      4.372      6.602
REMARK INTER + INTRA:          -8.133
REMARK INTER:                  -6.318
REMARK INTRA:                  -1.814
REMARK UNBOUND:                -1.085
REMARK SMILES CCCCCCCCCCCCCC(=O)[O-]
REMARK SMILES IDX 8 1 9 2 10 3 11 4 12 5 13 6 14 7 15 8 16 9 7 10 6 11 5 12
REMARK SMILES IDX 4 13 3 14 2 15 1 16
REMARK H PARENT
REMARK Flexibility Score: inf
ROOT
ATOM      1  C   UNL     1       9.208  -1.722  41.808  1.00  0.00     0.000 C 
ENDROOT
BRANCH   1   2
ATOM      2  C   UNL     1       8.507  -2.586  42.869  1.00  0.00     0.000 C 
BRANCH   2   3
ATOM      3  C   UNL     1       8.773  -4.089  42.674  1.00  0.00     0.000 C 
BRANCH   3   4
ATOM      4  C   UNL     1       7.492  -4.878  42.359  1.00  0.00     0.000 C 
BRANCH   4   5
ATOM      5  C   UNL     1       7.733  -6.397  42.290  1.00  0.00     0.006 C 
BRANCH   5   6
ATOM      6  C   UNL     1       9.019  -6.812  43.015  1.00  0.00     0.053 C 
BRANCH   6   7
ATOM      7  C   UNL     1       8.842  -8.094  43.768  1.00  0.00     0.041 C 
ATOM      8  O   UNL     1       9.729  -8.486  44.571  1.00  0.00    -0.550 OA
ATOM      9  O   UNL     1       7.681  -8.839  43.608  1.00  0.00    -0.550 OA
ENDBRANCH   6   7
ENDBRANCH   5   6
ENDBRANCH   4   5
ENDBRANCH   3   4
ENDBRANCH   2   3
ENDBRANCH   1   2
BRANCH   1  10
ATOM     10  C   UNL     1       8.215  -0.981  40.895  1.00  0.00     0.000 C 
BRANCH  10  11
ATOM     11  C   UNL     1       8.163  -1.565  39.471  1.00  0.00    -0.000 C 
BRANCH  11  12
ATOM     12  C   UNL     1       7.588  -2.995  39.364  1.00  0.00    -0.000 C 
BRANCH  12  13
ATOM     13  C   UNL     1       8.559  -4.052  38.801  1.00  0.00    -0.000 C 
BRANCH  13  14
ATOM     14  C   UNL     1      10.008  -3.542  38.630  1.00  0.00    -0.000 C 
BRANCH  14  15
ATOM     15  C   UNL     1      10.972  -4.061  39.708  1.00  0.00    -0.003 C 
ATOM     16  C   UNL     1      10.743  -5.532  40.050  1.00  0.00     0.004 C 
ENDBRANCH  14  15
ENDBRANCH  13  14
ENDBRANCH  12  13
ENDBRANCH  11  12
ENDBRANCH  10  11
ENDBRANCH   1  10
TORSDOF 12
ENDMDL
MODEL 7
REMARK VINA RESULT:    -4.131      3.807      7.388
REMARK INTER + INTRA:          -8.114
REMARK INTER:                  -7.180
REMARK INTRA:                  -0.934
REMARK UNBOUND:                -1.085
REMARK SMILES CCCCCCCCCCCCCC(=O)[O-]
REMARK SMILES IDX 8 1 9 2 10 3 11 4 12 5 13 6 14 7 15 8 16 9 7 10 6 11 5 12
REMARK SMILES IDX 4 13 3 14 2 15 1 16
REMARK H PARENT
REMARK Flexibility Score: inf
ROOT
ATOM      1  C   UNL     1       7.670  -3.238  40.202  1.00  0.00     0.000 C 
ENDROOT
BRANCH   1   2
ATOM      2  C   UNL     1       8.441  -2.676  41.408  1.00  0.00     0.000 C 
BRANCH   2   3
ATOM      3  C   UNL     1       8.201  -3.490  42.691  1.00  0.00     0.000 C 
BRANCH   3   4
ATOM      4  C   UNL     1       7.842  -4.957  42.400  1.00  0.00     0.000 C 
BRANCH   4   5
ATOM      5  C   UNL     1       9.048  -5.902  42.542  1.00  0.00     0.006 C 
BRANCH   5   6
ATOM      6  C   UNL     1       9.005  -7.050  41.526  1.00  0.00     0.053 C 
BRANCH   6   7
ATOM      7  C   UNL     1       8.159  -8.188  42.010  1.00  0.00     0.041 C 
ATOM      8  O   UNL     1       8.278  -8.610  43.190  1.00  0.00    -0.550 OA
ATOM      9  O   UNL     1       7.214  -8.758  41.167  1.00  0.00    -0.550 OA
ENDBRANCH   6   7
ENDBRANCH   5   6
ENDBRANCH   4   5
ENDBRANCH   3   4
ENDBRANCH   2   3
ENDBRANCH   1   2
BRANCH   1  10
ATOM     10  C   UNL     1       8.179  -2.682  38.861  1.00  0.00     0.000 C 
BRANCH  10  11
ATOM     11  C   UNL     1       8.858  -3.753  37.988  1.00  0.00    -0.000 C 
BRANCH  11  12
ATOM     12  C   UNL     1       8.293  -3.897  36.558  1.00  0.00    -0.000 C 
BRANCH  12  13
ATOM     13  C   UNL     1       6.895  -3.283  36.341  1.00  0.00    -0.000 C 
BRANCH  13  14
ATOM     14  C   UNL     1       6.894  -2.037  35.426  1.00  0.00    -0.000 C 
BRANCH  14  15
ATOM     15  C   UNL     1       5.688  -1.111  35.652  1.00  0.00    -0.003 C 
ATOM     16  C   UNL     1       5.540  -0.673  37.108  1.00  0.00     0.004 C 
ENDBRANCH  14  15
ENDBRANCH  13  14
ENDBRANCH  12  13
ENDBRANCH  11  12
ENDBRANCH  10  11
ENDBRANCH   1  10
TORSDOF 12
ENDMDL
MODEL 8
REMARK VINA RESULT:    -4.081      2.089      3.879
REMARK INTER + INTRA:          -8.029
REMARK INTER:                  -6.074
REMARK INTRA:                  -1.955
REMARK UNBOUND:                -1.085
REMARK SMILES CCCCCCCCCCCCCC(=O)[O-]
REMARK SMILES IDX 8 1 9 2 10 3 11 4 12 5 13 6 14 7 15 8 16 9 7 10 6 11 5 12
REMARK SMILES IDX 4 13 3 14 2 15 1 16
REMARK H PARENT
REMARK Flexibility Score: inf
ROOT
ATOM      1  C   UNL     1       7.436  -4.848  42.482  1.00  0.00     0.000 C 
ENDROOT
BRANCH   1   2
ATOM      2  C   UNL     1       8.048  -3.456  42.706  1.00  0.00     0.000 C 
BRANCH   2   3
ATOM      3  C   UNL     1       8.329  -2.718  41.385  1.00  0.00     0.000 C 
BRANCH   3   4
ATOM      4  C   UNL     1       7.732  -3.441  40.167  1.00  0.00     0.000 C 
BRANCH   4   5
ATOM      5  C   UNL     1       7.948  -2.669  38.853  1.00  0.00     0.006 C 
BRANCH   5   6
ATOM      6  C   UNL     1       8.726  -3.494  37.820  1.00  0.00     0.053 C 
BRANCH   6   7
ATOM      7  C   UNL     1       7.909  -3.755  36.591  1.00  0.00     0.041 C 
ATOM      8  O   UNL     1       8.362  -4.488  35.673  1.00  0.00    -0.550 OA
ATOM      9  O   UNL     1       6.635  -3.215  36.477  1.00  0.00    -0.550 OA
ENDBRANCH   6   7
ENDBRANCH   5   6
ENDBRANCH   4   5
ENDBRANCH   3   4
ENDBRANCH   2   3
ENDBRANCH   1   2
BRANCH   1  10
ATOM     10  C   UNL     1       8.303  -5.979  43.065  1.00  0.00     0.000 C 
BRANCH  10  11
ATOM     11  C   UNL     1       9.722  -6.011  42.468  1.00  0.00    -0.000 C 
BRANCH  11  12
ATOM     12  C   UNL     1       9.794  -6.304  40.953  1.00  0.00    -0.000 C 
BRANCH  12  13
ATOM     13  C   UNL     1      10.822  -5.461  40.171  1.00  0.00    -0.000 C 
BRANCH  13  14
ATOM     14  C   UNL     1      11.471  -4.333  41.005  1.00  0.00    -0.000 C 
BRANCH  14  15
ATOM     15  C   UNL     1      12.316  -3.360  40.167  1.00  0.00    -0.003 C 
ATOM     16  C   UNL     1      11.616  -2.024  39.924  1.00  0.00     0.004 C 
ENDBRANCH  14  15
ENDBRANCH  13  14
ENDBRANCH  12  13
ENDBRANCH  11  12
ENDBRANCH  10  11
ENDBRANCH   1  10
TORSDOF 12
ENDMDL
MODEL 9
REMARK VINA RESULT:    -4.059      1.395      2.035
REMARK INTER + INTRA:          -7.992
REMARK INTER:                  -7.310
REMARK INTRA:                  -0.681
REMARK UNBOUND:                -1.085
REMARK SMILES CCCCCCCCCCCCCC(=O)[O-]
REMARK SMILES IDX 8 1 9 2 10 3 11 4 12 5 13 6 14 7 15 8 16 9 7 10 6 11 5 12
REMARK SMILES IDX 4 13 3 14 2 15 1 16
REMARK H PARENT
REMARK Flexibility Score: inf
ROOT
ATOM      1  C   UNL     1       8.751  -4.335  39.489  1.00  0.00     0.000 C 
ENDROOT
BRANCH   1   2
ATOM      2  C   UNL     1       8.504  -3.121  38.579  1.00  0.00     0.000 C 
BRANCH   2   3
ATOM      3  C   UNL     1       7.238  -2.340  38.971  1.00  0.00     0.000 C 
BRANCH   3   4
ATOM      4  C   UNL     1       6.163  -2.370  37.872  1.00  0.00     0.000 C 
BRANCH   4   5
ATOM      5  C   UNL     1       6.681  -1.845  36.522  1.00  0.00     0.006 C 
BRANCH   5   6
ATOM      6  C   UNL     1       6.052  -0.497  36.147  1.00  0.00     0.053 C 
BRANCH   6   7
ATOM      7  C   UNL     1       5.636  -0.460  34.708  1.00  0.00     0.041 C 
ATOM      8  O   UNL     1       5.331  -1.524  34.108  1.00  0.00    -0.550 OA
ATOM      9  O   UNL     1       5.553   0.755  34.040  1.00  0.00    -0.550 OA
ENDBRANCH   6   7
ENDBRANCH   5   6
ENDBRANCH   4   5
ENDBRANCH   3   4
ENDBRANCH   2   3
ENDBRANCH   1   2
BRANCH   1  10
ATOM     10  C   UNL     1       8.014  -4.228  40.836  1.00  0.00     0.000 C 
BRANCH  10  11
ATOM     11  C   UNL     1       8.424  -5.329  41.831  1.00  0.00    -0.000 C 
BRANCH  11  12
ATOM     12  C   UNL     1       7.532  -5.451  43.086  1.00  0.00    -0.000 C 
BRANCH  12  13
ATOM     13  C   UNL     1       7.840  -6.659  43.994  1.00  0.00    -0.000 C 
BRANCH  13  14
ATOM     14  C   UNL     1       8.698  -7.750  43.314  1.00  0.00    -0.000 C 
BRANCH  14  15
ATOM     15  C   UNL     1       7.895  -8.998  42.910  1.00  0.00    -0.003 C 
ATOM     16  C   UNL     1       7.503  -8.999  41.434  1.00  0.00     0.004 C 
ENDBRANCH  14  15
ENDBRANCH  13  14
ENDBRANCH  12  13
ENDBRANCH  11  12
ENDBRANCH  10  11
ENDBRANCH   1  10
TORSDOF 12
ENDMDL
