MODEL 1
REMARK VINA RESULT:     2.166      0.000      0.000
REMARK INTER + INTRA:           4.783
REMARK INTER:                   3.368
REMARK INTRA:                   1.415
REMARK UNBOUND:                 1.415
REMARK SMILES C[C@@]12C[C@H](O)[C@H]3C[C@]1(O[C@H]1O[C@@H](CO)[C@@H](O)[C@@H](O)[C@H]1O)[C@@]3(COC(=O)c1ccccc1)C(=O)O2
REMARK SMILES IDX 1 1 2 2 3 3 4 4 6 5 7 6 8 7 21 8 32 9 33 10 34 11 9 12 10 13
REMARK SMILES IDX 19 14 11 15 17 16 12 17 15 18 20 19 18 21 13 23 14 24 16 26
REMARK SMILES IDX 5 28 22 30 23 31 24 32 25 33 26 34 27 35 31 36 28 37 30 38
REMARK SMILES IDX 29 39
REMARK H PARENT 20 20 18 22 14 25 16 27 5 29
REMARK Flexibility Score: inf
ROOT
ATOM      1  C   UNL     1      56.530  28.289  25.271  1.00  0.00     0.060 C 
ATOM      2  C   UNL     1      57.270  29.073  26.360  1.00  0.00     0.142 C 
ATOM      3  C   UNL     1      56.530  30.411  26.697  1.00  0.00     0.083 C 
ATOM      4  C   UNL     1      57.143  31.095  27.990  1.00  0.00     0.123 C 
ATOM      5  C   UNL     1      57.800  30.030  28.926  1.00  0.00     0.045 C 
ATOM      6  C   UNL     1      56.853  28.826  28.958  1.00  0.00     0.049 C 
ATOM      7  C   UNL     1      57.620  28.303  27.728  1.00  0.00     0.131 C 
ATOM      8  C   UNL     1      58.838  29.139  28.170  1.00  0.00     0.140 C 
ATOM      9  C   UNL     1      59.422  29.608  26.880  1.00  0.00     0.319 C 
ATOM     10  O   UNL     1      60.589  30.066  26.722  1.00  0.00    -0.251 OA
ATOM     11  O   UNL     1      58.533  29.460  25.844  1.00  0.00    -0.456 OA
ENDROOT
BRANCH   7  12
ATOM     12  O   UNL     1      57.909  26.906  27.685  1.00  0.00    -0.338 OA
BRANCH  12  13
ATOM     13  C   UNL     1      57.713  26.239  28.931  1.00  0.00     0.282 C 
ATOM     14  C   UNL     1      58.567  24.955  29.074  1.00  0.00     0.202 C 
ATOM     15  O   UNL     1      56.331  25.953  29.125  1.00  0.00    -0.341 OA
ATOM     16  C   UNL     1      58.126  23.880  28.081  1.00  0.00     0.179 C 
ATOM     17  C   UNL     1      55.805  24.955  28.246  1.00  0.00     0.178 C 
ATOM     18  C   UNL     1      56.628  23.636  28.260  1.00  0.00     0.177 C 
BRANCH  14  19
ATOM     19  O   UNL     1      59.942  25.201  28.951  1.00  0.00    -0.385 OA
ATOM     20  H   UNL     1      60.058  26.175  29.091  1.00  0.00     0.211 HD
ENDBRANCH  14  19
BRANCH  16  21
ATOM     21  O   UNL     1      58.410  24.267  26.756  1.00  0.00    -0.387 OA
ATOM     22  H   UNL     1      59.391  24.205  26.648  1.00  0.00     0.211 HD
ENDBRANCH  16  21
BRANCH  17  23
ATOM     23  C   UNL     1      55.480  25.513  26.843  1.00  0.00     0.191 C 
BRANCH  23  24
ATOM     24  O   UNL     1      55.685  24.524  25.872  1.00  0.00    -0.394 OA
ATOM     25  H   UNL     1      56.479  24.811  25.349  1.00  0.00     0.210 HD
ENDBRANCH  23  24
ENDBRANCH  17  23
BRANCH  18  26
ATOM     26  O   UNL     1      56.161  22.746  27.279  1.00  0.00    -0.387 OA
ATOM     27  H   UNL     1      56.839  22.740  26.552  1.00  0.00     0.211 HD
ENDBRANCH  18  26
ENDBRANCH  12  13
ENDBRANCH   7  12
BRANCH   4  28
ATOM     28  O   UNL     1      58.059  32.125  27.715  1.00  0.00    -0.393 OA
ATOM     29  H   UNL     1      58.351  32.558  28.559  1.00  0.00     0.210 HD
ENDBRANCH   4  28
BRANCH   8  30
ATOM     30  C   UNL     1      59.855  28.421  29.086  1.00  0.00     0.255 C 
BRANCH  30  31
ATOM     31  O   UNL     1      61.091  29.124  29.071  1.00  0.00    -0.461 OA
BRANCH  31  32
ATOM     32  C   UNL     1      62.323  28.475  28.994  1.00  0.00     0.338 C 
ATOM     33  O   UNL     1      62.363  27.216  28.956  1.00  0.00    -0.246 OA
BRANCH  32  34
ATOM     34  C   UNL     1      63.578  29.259  28.969  1.00  0.00     0.060 A 
ATOM     35  C   UNL     1      64.825  28.607  28.969  1.00  0.00     0.015 A 
ATOM     36  C   UNL     1      63.546  30.666  28.973  1.00  0.00     0.015 A 
ATOM     37  C   UNL     1      66.007  29.348  28.988  1.00  0.00     0.001 A 
ATOM     38  C   UNL     1      64.733  31.398  29.010  1.00  0.00     0.001 A 
ATOM     39  C   UNL     1      65.965  30.738  29.034  1.00  0.00     0.000 A 
ENDBRANCH  32  34
ENDBRANCH  31  32
ENDBRANCH  30  31
ENDBRANCH   8  30
TORSDOF 12
ENDMDL
MODEL 2
REMARK VINA RESULT:     4.596      2.088      5.936
REMARK INTER + INTRA:           8.564
REMARK INTER:                   4.011
REMARK INTRA:                   4.553
REMARK UNBOUND:                 1.415
REMARK SMILES C[C@@]12C[C@H](O)[C@H]3C[C@]1(O[C@H]1O[C@@H](CO)[C@@H](O)[C@@H](O)[C@H]1O)[C@@]3(COC(=O)c1ccccc1)C(=O)O2
REMARK SMILES IDX 1 1 2 2 3 3 4 4 6 5 7 6 8 7 21 8 32 9 33 10 34 11 9 12 10 13
REMARK SMILES IDX 19 14 11 15 17 16 12 17 15 18 20 19 18 21 13 23 14 24 16 26
REMARK SMILES IDX 5 28 22 30 23 31 24 32 25 33 26 34 27 35 31 36 28 37 30 38
REMARK SMILES IDX 29 39
REMARK H PARENT 20 20 18 22 14 25 16 27 5 29
REMARK Flexibility Score: inf
ROOT
ATOM      1  C   UNL     1      61.827  32.053  25.713  1.00  0.00     0.060 C 
ATOM      2  C   UNL     1      62.223  30.941  26.689  1.00  0.00     0.142 C 
ATOM      3  C   UNL     1      63.427  31.379  27.588  1.00  0.00     0.083 C 
ATOM      4  C   UNL     1      63.673  30.343  28.763  1.00  0.00     0.123 C 
ATOM      5  C   UNL     1      62.354  29.586  29.124  1.00  0.00     0.045 C 
ATOM      6  C   UNL     1      61.231  30.630  29.119  1.00  0.00     0.049 C 
ATOM      7  C   UNL     1      61.069  30.317  27.619  1.00  0.00     0.131 C 
ATOM      8  C   UNL     1      61.689  28.928  27.873  1.00  0.00     0.140 C 
ATOM      9  C   UNL     1      62.498  28.680  26.644  1.00  0.00     0.319 C 
ATOM     10  O   UNL     1      62.937  27.558  26.264  1.00  0.00    -0.251 OA
ATOM     11  O   UNL     1      62.698  29.838  25.934  1.00  0.00    -0.456 OA
ENDROOT
BRANCH   7  12
ATOM     12  O   UNL     1      59.738  30.230  27.112  1.00  0.00    -0.338 OA
BRANCH  12  13
ATOM     13  C   UNL     1      58.733  30.554  28.072  1.00  0.00     0.282 C 
ATOM     14  C   UNL     1      57.811  29.358  28.413  1.00  0.00     0.202 C 
ATOM     15  O   UNL     1      57.970  31.672  27.628  1.00  0.00    -0.341 OA
ATOM     16  C   UNL     1      56.961  28.949  27.210  1.00  0.00     0.179 C 
ATOM     17  C   UNL     1      57.131  31.406  26.501  1.00  0.00     0.178 C 
ATOM     18  C   UNL     1      56.202  30.177  26.709  1.00  0.00     0.177 C 
BRANCH  14  19
ATOM     19  O   UNL     1      58.516  28.252  28.911  1.00  0.00    -0.385 OA
ATOM     20  H   UNL     1      58.750  28.480  29.848  1.00  0.00     0.211 HD
ENDBRANCH  14  19
BRANCH  16  21
ATOM     21  O   UNL     1      57.762  28.410  26.183  1.00  0.00    -0.387 OA
ATOM     22  H   UNL     1      58.694  28.421  26.516  1.00  0.00     0.211 HD
ENDBRANCH  16  21
BRANCH  17  23
ATOM     23  C   UNL     1      57.908  31.424  25.167  1.00  0.00     0.191 C 
BRANCH  23  24
ATOM     24  O   UNL     1      57.039  31.709  24.106  1.00  0.00    -0.394 OA
ATOM     25  H   UNL     1      56.558  30.863  23.908  1.00  0.00     0.210 HD
ENDBRANCH  23  24
ENDBRANCH  17  23
BRANCH  18  26
ATOM     26  O   UNL     1      55.508  29.870  25.528  1.00  0.00    -0.387 OA
ATOM     27  H   UNL     1      54.573  29.662  25.792  1.00  0.00     0.211 HD
ENDBRANCH  18  26
ENDBRANCH  12  13
ENDBRANCH   7  12
BRANCH   4  28
ATOM     28  O   UNL     1      64.703  29.420  28.509  1.00  0.00    -0.393 OA
ATOM     29  H   UNL     1      65.441  29.541  29.162  1.00  0.00     0.210 HD
ENDBRANCH   4  28
BRANCH   8  30
ATOM     30  C   UNL     1      60.693  27.791  28.198  1.00  0.00     0.255 C 
BRANCH  30  31
ATOM     31  O   UNL     1      61.356  26.770  28.934  1.00  0.00    -0.461 OA
BRANCH  31  32
ATOM     32  C   UNL     1      60.922  25.445  28.936  1.00  0.00     0.338 C 
ATOM     33  O   UNL     1      61.769  24.512  28.944  1.00  0.00    -0.246 OA
BRANCH  32  34
ATOM     34  C   UNL     1      59.475  25.135  28.917  1.00  0.00     0.060 A 
ATOM     35  C   UNL     1      59.027  23.816  29.117  1.00  0.00     0.015 A 
ATOM     36  C   UNL     1      58.527  26.146  28.673  1.00  0.00     0.015 A 
ATOM     37  C   UNL     1      57.665  23.518  29.056  1.00  0.00     0.001 A 
ATOM     38  C   UNL     1      57.168  25.835  28.597  1.00  0.00     0.001 A 
ATOM     39  C   UNL     1      56.739  24.517  28.773  1.00  0.00     0.000 A 
ENDBRANCH  32  34
ENDBRANCH  31  32
ENDBRANCH  30  31
ENDBRANCH   8  30
TORSDOF 12
ENDMDL
