MODEL 1
REMARK VINA RESULT:    -5.103      0.000      0.000
REMARK INTER + INTRA:          -8.470
REMARK INTER:                  -7.937
REMARK INTRA:                  -0.533
REMARK UNBOUND:                -0.533
REMARK SMILES COc1cc(CNC(=O)CCCCC=CC(C)C)ccc1O
REMARK SMILES IDX 11 1 12 2 13 3 14 4 15 5 16 6 17 7 18 8 10 9 8 10 9 11 7 12
REMARK SMILES IDX 6 14 5 15 4 16 19 17 3 18 20 19 21 20 2 21 1 22 22 23
REMARK H PARENT 7 13 22 24
REMARK Flexibility Score: inf
ROOT
ATOM      1  C   UNL     1       2.369  10.258  12.997  1.00  0.00     0.010 C 
ENDROOT
BRANCH   1   2
ATOM      2  C   UNL     1       3.622  10.089  12.112  1.00  0.00     0.005 C 
BRANCH   2   3
ATOM      3  C   UNL     1       4.035   8.626  11.875  1.00  0.00     0.027 C 
BRANCH   3   4
ATOM      4  C   UNL     1       5.416   8.324  12.392  1.00  0.00    -0.031 C 
ATOM      5  C   UNL     1       5.649   7.295  13.221  1.00  0.00    -0.028 C 
BRANCH   5   6
ATOM      6  C   UNL     1       7.040   6.995  13.728  1.00  0.00     0.005 C 
ATOM      7  C   UNL     1       7.884   6.340  12.629  1.00  0.00     0.012 C 
ATOM      8  C   UNL     1       7.715   8.276  14.228  1.00  0.00     0.012 C 
ENDBRANCH   5   6
ENDBRANCH   3   4
ENDBRANCH   2   3
ENDBRANCH   1   2
BRANCH   1   9
ATOM      9  C   UNL     1       1.542  11.516  12.687  1.00  0.00     0.100 C 
BRANCH   9  10
ATOM     10  C   UNL     1       0.722  11.951  13.866  1.00  0.00     0.220 C 
ATOM     11  O   UNL     1      -0.533  11.841  13.821  1.00  0.00    -0.275 OA
ATOM     12  N   UNL     1       1.363  12.455  15.046  1.00  0.00    -0.352 N 
ATOM     13  H   UNL     1       2.406  12.507  15.078  1.00  0.00     0.163 HD
BRANCH  12  14
ATOM     14  C   UNL     1       0.611  12.888  16.223  1.00  0.00     0.151 C 
BRANCH  14  15
ATOM     15  C   UNL     1       1.075  14.249  16.665  1.00  0.00    -0.025 A 
ATOM     16  C   UNL     1       0.688  15.390  15.947  1.00  0.00     0.056 A 
ATOM     17  C   UNL     1       1.873  14.393  17.809  1.00  0.00     0.009 A 
ATOM     18  C   UNL     1       1.097  16.673  16.361  1.00  0.00     0.160 A 
ATOM     19  C   UNL     1       2.284  15.660  18.225  1.00  0.00     0.050 A 
ATOM     20  C   UNL     1       1.901  16.799  17.509  1.00  0.00     0.157 A 
BRANCH  18  21
ATOM     21  O   UNL     1       0.725  17.835  15.664  1.00  0.00    -0.493 OA
ATOM     22  C   UNL     1      -0.392  17.925  14.786  1.00  0.00     0.278 C 
ENDBRANCH  18  21
BRANCH  20  23
ATOM     23  O   UNL     1       2.330  18.049  17.955  1.00  0.00    -0.504 OA
ATOM     24  H   UNL     1       3.099  18.545  17.519  1.00  0.00     0.293 HD
ENDBRANCH  20  23
ENDBRANCH  14  15
ENDBRANCH  12  14
ENDBRANCH   9  10
ENDBRANCH   1   9
TORSDOF 10
ENDMDL
MODEL 2
REMARK VINA RESULT:    -4.914      1.386      2.304
REMARK INTER + INTRA:          -8.177
REMARK INTER:                  -7.640
REMARK INTRA:                  -0.536
REMARK UNBOUND:                -0.533
REMARK SMILES COc1cc(CNC(=O)CCCCC=CC(C)C)ccc1O
REMARK SMILES IDX 11 1 12 2 13 3 14 4 15 5 16 6 17 7 18 8 10 9 8 10 9 11 7 12
REMARK SMILES IDX 6 14 5 15 4 16 19 17 3 18 20 19 21 20 2 21 1 22 22 23
REMARK H PARENT 7 13 22 24
REMARK Flexibility Score: inf
ROOT
ATOM      1  C   UNL     1       2.470  10.527  12.092  1.00  0.00     0.010 C 
ENDROOT
BRANCH   1   2
ATOM      2  C   UNL     1       3.887   9.956  11.875  1.00  0.00     0.005 C 
BRANCH   2   3
ATOM      3  C   UNL     1       4.048   8.485  12.298  1.00  0.00     0.027 C 
BRANCH   3   4
ATOM      4  C   UNL     1       5.489   8.062  12.384  1.00  0.00    -0.031 C 
ATOM      5  C   UNL     1       5.966   7.394  13.446  1.00  0.00    -0.028 C 
BRANCH   5   6
ATOM      6  C   UNL     1       7.413   6.967  13.520  1.00  0.00     0.005 C 
ATOM      7  C   UNL     1       7.843   6.295  12.211  1.00  0.00     0.012 C 
ATOM      8  C   UNL     1       8.311   8.171  13.822  1.00  0.00     0.012 C 
ENDBRANCH   5   6
ENDBRANCH   3   4
ENDBRANCH   2   3
ENDBRANCH   1   2
BRANCH   1   9
ATOM      9  C   UNL     1       2.373  12.052  11.932  1.00  0.00     0.100 C 
BRANCH   9  10
ATOM     10  C   UNL     1       1.226  12.625  12.712  1.00  0.00     0.220 C 
ATOM     11  O   UNL     1       0.390  11.845  13.245  1.00  0.00    -0.275 OA
ATOM     12  N   UNL     1       1.100  14.044  12.878  1.00  0.00    -0.352 N 
ATOM     13  H   UNL     1       1.821  14.673  12.457  1.00  0.00     0.163 HD
BRANCH  12  14
ATOM     14  C   UNL     1       0.005  14.652  13.631  1.00  0.00     0.151 C 
BRANCH  14  15
ATOM     15  C   UNL     1       0.538  15.356  14.848  1.00  0.00    -0.025 A 
ATOM     16  C   UNL     1       0.882  14.619  15.991  1.00  0.00     0.056 A 
ATOM     17  C   UNL     1       0.722  16.746  14.844  1.00  0.00     0.009 A 
ATOM     18  C   UNL     1       1.403  15.262  17.131  1.00  0.00     0.160 A 
ATOM     19  C   UNL     1       1.236  17.391  15.971  1.00  0.00     0.050 A 
ATOM     20  C   UNL     1       1.576  16.658  17.112  1.00  0.00     0.157 A 
BRANCH  18  21
ATOM     21  O   UNL     1       1.757  14.552  18.290  1.00  0.00    -0.493 OA
ATOM     22  C   UNL     1       1.354  13.216  18.572  1.00  0.00     0.278 C 
ENDBRANCH  18  21
BRANCH  20  23
ATOM     23  O   UNL     1       2.088  17.336  18.218  1.00  0.00    -0.504 OA
ATOM     24  H   UNL     1       1.492  17.701  18.952  1.00  0.00     0.293 HD
ENDBRANCH  20  23
ENDBRANCH  14  15
ENDBRANCH  12  14
ENDBRANCH   9  10
ENDBRANCH   1   9
TORSDOF 10
ENDMDL
MODEL 3
REMARK VINA RESULT:    -4.712      4.090      7.355
REMARK INTER + INTRA:          -7.861
REMARK INTER:                  -6.012
REMARK INTRA:                  -1.850
REMARK UNBOUND:                -0.533
REMARK SMILES COc1cc(CNC(=O)CCCCC=CC(C)C)ccc1O
REMARK SMILES IDX 11 1 12 2 13 3 14 4 15 5 16 6 17 7 18 8 10 9 8 10 9 11 7 12
REMARK SMILES IDX 6 14 5 15 4 16 19 17 3 18 20 19 21 20 2 21 1 22 22 23
REMARK H PARENT 7 13 22 24
REMARK Flexibility Score: inf
ROOT
ATOM      1  C   UNL     1       0.154  12.556  17.619  1.00  0.00     0.010 C 
ENDROOT
BRANCH   1   2
ATOM      2  C   UNL     1       0.843  13.755  18.302  1.00  0.00     0.005 C 
BRANCH   2   3
ATOM      3  C   UNL     1       1.987  14.377  17.483  1.00  0.00     0.027 C 
BRANCH   3   4
ATOM      4  C   UNL     1       1.801  15.854  17.257  1.00  0.00    -0.031 C 
ATOM      5  C   UNL     1       1.465  16.347  16.055  1.00  0.00    -0.028 C 
BRANCH   5   6
ATOM      6  C   UNL     1       1.273  17.829  15.840  1.00  0.00     0.005 C 
ATOM      7  C   UNL     1      -0.212  18.156  15.646  1.00  0.00     0.012 C 
ATOM      8  C   UNL     1       1.844  18.619  17.022  1.00  0.00     0.012 C 
ENDBRANCH   5   6
ENDBRANCH   3   4
ENDBRANCH   2   3
ENDBRANCH   1   2
BRANCH   1   9
ATOM      9  C   UNL     1      -1.076  12.929  16.777  1.00  0.00     0.100 C 
BRANCH   9  10
ATOM     10  C   UNL     1      -0.760  12.967  15.310  1.00  0.00     0.220 C 
ATOM     11  O   UNL     1      -0.198  11.975  14.773  1.00  0.00    -0.275 OA
ATOM     12  N   UNL     1      -1.125  14.108  14.521  1.00  0.00    -0.352 N 
ATOM     13  H   UNL     1      -1.621  14.907  14.977  1.00  0.00     0.163 HD
BRANCH  12  14
ATOM     14  C   UNL     1      -0.844  14.193  13.089  1.00  0.00     0.151 C 
BRANCH  14  15
ATOM     15  C   UNL     1       0.348  15.078  12.844  1.00  0.00    -0.025 A 
ATOM     16  C   UNL     1       1.644  14.575  13.027  1.00  0.00     0.056 A 
ATOM     17  C   UNL     1       0.177  16.399  12.406  1.00  0.00     0.009 A 
ATOM     18  C   UNL     1       2.770  15.385  12.781  1.00  0.00     0.160 A 
ATOM     19  C   UNL     1       1.287  17.208  12.162  1.00  0.00     0.050 A 
ATOM     20  C   UNL     1       2.581  16.710  12.347  1.00  0.00     0.157 A 
BRANCH  18  21
ATOM     21  O   UNL     1       4.081  14.910  12.954  1.00  0.00    -0.493 OA
ATOM     22  C   UNL     1       4.440  13.533  13.000  1.00  0.00     0.278 C 
ENDBRANCH  18  21
BRANCH  20  23
ATOM     23  O   UNL     1       3.667  17.547  12.092  1.00  0.00    -0.504 OA
ATOM     24  H   UNL     1       3.909  18.319  12.701  1.00  0.00     0.293 HD
ENDBRANCH  20  23
ENDBRANCH  14  15
ENDBRANCH  12  14
ENDBRANCH   9  10
ENDBRANCH   1   9
TORSDOF 10
ENDMDL
MODEL 4
REMARK VINA RESULT:    -4.643      3.890      9.930
REMARK INTER + INTRA:          -7.755
REMARK INTER:                  -7.078
REMARK INTRA:                  -0.677
REMARK UNBOUND:                -0.533
REMARK SMILES COc1cc(CNC(=O)CCCCC=CC(C)C)ccc1O
REMARK SMILES IDX 11 1 12 2 13 3 14 4 15 5 16 6 17 7 18 8 10 9 8 10 9 11 7 12
REMARK SMILES IDX 6 14 5 15 4 16 19 17 3 18 20 19 21 20 2 21 1 22 22 23
REMARK H PARENT 7 13 22 24
REMARK Flexibility Score: inf
ROOT
ATOM      1  C   UNL     1       4.099  13.693  13.283  1.00  0.00     0.010 C 
ENDROOT
BRANCH   1   2
ATOM      2  C   UNL     1       3.518  15.075  12.918  1.00  0.00     0.005 C 
BRANCH   2   3
ATOM      3  C   UNL     1       2.096  15.028  12.332  1.00  0.00     0.027 C 
BRANCH   3   4
ATOM      4  C   UNL     1       1.203  16.102  12.894  1.00  0.00    -0.031 C 
ATOM      5  C   UNL     1       1.134  16.343  14.212  1.00  0.00    -0.028 C 
BRANCH   5   6
ATOM      6  C   UNL     1       0.241  17.428  14.766  1.00  0.00     0.005 C 
ATOM      7  C   UNL     1       1.035  18.359  15.690  1.00  0.00     0.012 C 
ATOM      8  C   UNL     1      -0.400  18.227  13.626  1.00  0.00     0.012 C 
ENDBRANCH   5   6
ENDBRANCH   3   4
ENDBRANCH   2   3
ENDBRANCH   1   2
BRANCH   1   9
ATOM      9  C   UNL     1       4.494  12.834  12.072  1.00  0.00     0.100 C 
BRANCH   9  10
ATOM     10  C   UNL     1       3.773  11.518  12.062  1.00  0.00     0.220 C 
ATOM     11  O   UNL     1       2.517  11.499  12.171  1.00  0.00    -0.275 OA
ATOM     12  N   UNL     1       4.504  10.295  11.896  1.00  0.00    -0.352 N 
ATOM     13  H   UNL     1       5.541  10.332  11.774  1.00  0.00     0.163 HD
BRANCH  12  14
ATOM     14  C   UNL     1       3.850   8.987  11.875  1.00  0.00     0.151 C 
BRANCH  14  15
ATOM     15  C   UNL     1       4.834   7.907  12.233  1.00  0.00    -0.025 A 
ATOM     16  C   UNL     1       6.181   8.231  12.455  1.00  0.00     0.056 A 
ATOM     17  C   UNL     1       4.413   6.578  12.376  1.00  0.00     0.009 A 
ATOM     18  C   UNL     1       7.110   7.234  12.812  1.00  0.00     0.160 A 
ATOM     19  C   UNL     1       5.328   5.584  12.727  1.00  0.00     0.050 A 
ATOM     20  C   UNL     1       6.672   5.904  12.945  1.00  0.00     0.157 A 
BRANCH  18  21
ATOM     21  O   UNL     1       8.465   7.526  13.041  1.00  0.00    -0.493 OA
ATOM     22  C   UNL     1       8.934   8.650  13.780  1.00  0.00     0.278 C 
ENDBRANCH  18  21
BRANCH  20  23
ATOM     23  O   UNL     1       7.557   4.885  13.297  1.00  0.00    -0.504 OA
ATOM     24  H   UNL     1       8.561   5.017  13.298  1.00  0.00     0.293 HD
ENDBRANCH  20  23
ENDBRANCH  14  15
ENDBRANCH  12  14
ENDBRANCH   9  10
ENDBRANCH   1   9
TORSDOF 10
ENDMDL
MODEL 5
REMARK VINA RESULT:    -4.616      4.289      7.003
REMARK INTER + INTRA:          -7.712
REMARK INTER:                  -6.164
REMARK INTRA:                  -1.549
REMARK UNBOUND:                -0.533
REMARK SMILES COc1cc(CNC(=O)CCCCC=CC(C)C)ccc1O
REMARK SMILES IDX 11 1 12 2 13 3 14 4 15 5 16 6 17 7 18 8 10 9 8 10 9 11 7 12
REMARK SMILES IDX 6 14 5 15 4 16 19 17 3 18 20 19 21 20 2 21 1 22 22 23
REMARK H PARENT 7 13 22 24
REMARK Flexibility Score: inf
ROOT
ATOM      1  C   UNL     1       3.473  15.190  12.841  1.00  0.00     0.010 C 
ENDROOT
BRANCH   1   2
ATOM      2  C   UNL     1       3.544  16.392  11.876  1.00  0.00     0.005 C 
BRANCH   2   3
ATOM      3  C   UNL     1       2.308  17.307  11.915  1.00  0.00     0.027 C 
BRANCH   3   4
ATOM      4  C   UNL     1       1.785  17.515  13.311  1.00  0.00    -0.031 C 
ATOM      5  C   UNL     1       0.482  17.731  13.551  1.00  0.00    -0.028 C 
BRANCH   5   6
ATOM      6  C   UNL     1      -0.035  17.930  14.956  1.00  0.00     0.005 C 
ATOM      7  C   UNL     1      -1.116  16.895  15.283  1.00  0.00     0.012 C 
ATOM      8  C   UNL     1       1.114  17.840  15.966  1.00  0.00     0.012 C 
ENDBRANCH   5   6
ENDBRANCH   3   4
ENDBRANCH   2   3
ENDBRANCH   1   2
BRANCH   1   9
ATOM      9  C   UNL     1       3.138  13.853  12.161  1.00  0.00     0.100 C 
BRANCH   9  10
ATOM     10  C   UNL     1       1.831  13.294  12.641  1.00  0.00     0.220 C 
ATOM     11  O   UNL     1       1.405  12.211  12.154  1.00  0.00    -0.275 OA
ATOM     12  N   UNL     1       1.089  13.966  13.668  1.00  0.00    -0.352 N 
ATOM     13  H   UNL     1       1.474  14.844  14.085  1.00  0.00     0.163 HD
BRANCH  12  14
ATOM     14  C   UNL     1      -0.186  13.461  14.174  1.00  0.00     0.151 C 
BRANCH  14  15
ATOM     15  C   UNL     1      -0.111  13.253  15.662  1.00  0.00    -0.025 A 
ATOM     16  C   UNL     1       0.967  13.778  16.390  1.00  0.00     0.056 A 
ATOM     17  C   UNL     1      -1.125  12.559  16.336  1.00  0.00     0.009 A 
ATOM     18  C   UNL     1       1.040  13.609  17.787  1.00  0.00     0.160 A 
ATOM     19  C   UNL     1      -1.058  12.385  17.720  1.00  0.00     0.050 A 
ATOM     20  C   UNL     1       0.017  12.906  18.447  1.00  0.00     0.157 A 
BRANCH  18  21
ATOM     21  O   UNL     1       2.106  14.124  18.544  1.00  0.00    -0.493 OA
ATOM     22  C   UNL     1       2.585  15.462  18.457  1.00  0.00     0.278 C 
ENDBRANCH  18  21
BRANCH  20  23
ATOM     23  O   UNL     1       0.049  12.714  19.829  1.00  0.00    -0.504 OA
ATOM     24  H   UNL     1       0.918  12.664  20.348  1.00  0.00     0.293 HD
ENDBRANCH  20  23
ENDBRANCH  14  15
ENDBRANCH  12  14
ENDBRANCH   9  10
ENDBRANCH   1   9
TORSDOF 10
ENDMDL
MODEL 6
REMARK VINA RESULT:    -4.548      3.094      5.293
REMARK INTER + INTRA:          -7.607
REMARK INTER:                  -6.310
REMARK INTRA:                  -1.297
REMARK UNBOUND:                -0.533
REMARK SMILES COc1cc(CNC(=O)CCCCC=CC(C)C)ccc1O
REMARK SMILES IDX 11 1 12 2 13 3 14 4 15 5 16 6 17 7 18 8 10 9 8 10 9 11 7 12
REMARK SMILES IDX 6 14 5 15 4 16 19 17 3 18 20 19 21 20 2 21 1 22 22 23
REMARK H PARENT 7 13 22 24
REMARK Flexibility Score: inf
ROOT
ATOM      1  C   UNL     1       2.611  11.494  12.388  1.00  0.00     0.010 C 
ENDROOT
BRANCH   1   2
ATOM      2  C   UNL     1       3.351  12.771  11.939  1.00  0.00     0.005 C 
BRANCH   2   3
ATOM      3  C   UNL     1       3.627  13.774  13.073  1.00  0.00     0.027 C 
BRANCH   3   4
ATOM      4  C   UNL     1       3.153  15.164  12.743  1.00  0.00    -0.031 C 
ATOM      5  C   UNL     1       1.949  15.388  12.195  1.00  0.00    -0.028 C 
BRANCH   5   6
ATOM      6  C   UNL     1       1.479  16.787  11.875  1.00  0.00     0.005 C 
ATOM      7  C   UNL     1      -0.051  16.863  11.915  1.00  0.00     0.012 C 
ATOM      8  C   UNL     1       2.090  17.793  12.855  1.00  0.00     0.012 C 
ENDBRANCH   5   6
ENDBRANCH   3   4
ENDBRANCH   2   3
ENDBRANCH   1   2
BRANCH   1   9
ATOM      9  C   UNL     1       1.156  11.404  11.901  1.00  0.00     0.100 C 
BRANCH   9  10
ATOM     10  C   UNL     1       0.202  12.044  12.867  1.00  0.00     0.220 C 
ATOM     11  O   UNL     1      -0.871  12.546  12.435  1.00  0.00    -0.275 OA
ATOM     12  N   UNL     1       0.493  12.055  14.271  1.00  0.00    -0.352 N 
ATOM     13  H   UNL     1       1.371  11.604  14.614  1.00  0.00     0.163 HD
BRANCH  12  14
ATOM     14  C   UNL     1      -0.404  12.661  15.253  1.00  0.00     0.151 C 
BRANCH  14  15
ATOM     15  C   UNL     1       0.317  13.732  16.026  1.00  0.00    -0.025 A 
ATOM     16  C   UNL     1       0.056  15.085  15.760  1.00  0.00     0.056 A 
ATOM     17  C   UNL     1       1.231  13.392  17.032  1.00  0.00     0.009 A 
ATOM     18  C   UNL     1       0.707  16.099  16.490  1.00  0.00     0.160 A 
ATOM     19  C   UNL     1       1.883  14.390  17.758  1.00  0.00     0.050 A 
ATOM     20  C   UNL     1       1.626  15.740  17.493  1.00  0.00     0.157 A 
BRANCH  18  21
ATOM     21  O   UNL     1       0.467  17.462  16.249  1.00  0.00    -0.493 OA
ATOM     22  C   UNL     1      -0.306  17.964  15.163  1.00  0.00     0.278 C 
ENDBRANCH  18  21
BRANCH  20  23
ATOM     23  O   UNL     1       2.294  16.710  18.240  1.00  0.00    -0.504 OA
ATOM     24  H   UNL     1       2.643  17.566  17.825  1.00  0.00     0.293 HD
ENDBRANCH  20  23
ENDBRANCH  14  15
ENDBRANCH  12  14
ENDBRANCH   9  10
ENDBRANCH   1   9
TORSDOF 10
ENDMDL
MODEL 7
REMARK VINA RESULT:    -4.532      3.737      8.062
REMARK INTER + INTRA:          -7.582
REMARK INTER:                  -6.255
REMARK INTRA:                  -1.327
REMARK UNBOUND:                -0.533
REMARK SMILES COc1cc(CNC(=O)CCCCC=CC(C)C)ccc1O
REMARK SMILES IDX 11 1 12 2 13 3 14 4 15 5 16 6 17 7 18 8 10 9 8 10 9 11 7 12
REMARK SMILES IDX 6 14 5 15 4 16 19 17 3 18 20 19 21 20 2 21 1 22 22 23
REMARK H PARENT 7 13 22 24
REMARK Flexibility Score: inf
ROOT
ATOM      1  C   UNL     1       1.883  15.763  17.187  1.00  0.00     0.010 C 
ENDROOT
BRANCH   1   2
ATOM      2  C   UNL     1       1.987  17.215  17.700  1.00  0.00     0.005 C 
BRANCH   2   3
ATOM      3  C   UNL     1       1.662  18.284  16.642  1.00  0.00     0.027 C 
BRANCH   3   4
ATOM      4  C   UNL     1       0.764  17.764  15.551  1.00  0.00    -0.031 C 
ATOM      5  C   UNL     1       1.205  17.597  14.295  1.00  0.00    -0.028 C 
BRANCH   5   6
ATOM      6  C   UNL     1       0.300  17.068  13.209  1.00  0.00     0.005 C 
ATOM      7  C   UNL     1      -0.847  18.049  12.938  1.00  0.00     0.012 C 
ATOM      8  C   UNL     1       1.097  16.811  11.925  1.00  0.00     0.012 C 
ENDBRANCH   5   6
ENDBRANCH   3   4
ENDBRANCH   2   3
ENDBRANCH   1   2
BRANCH   1   9
ATOM      9  C   UNL     1       0.801  14.924  17.883  1.00  0.00     0.100 C 
BRANCH   9  10
ATOM     10  C   UNL     1       0.122  13.984  16.929  1.00  0.00     0.220 C 
ATOM     11  O   UNL     1      -0.153  12.813  17.306  1.00  0.00    -0.275 OA
ATOM     12  N   UNL     1      -0.240  14.426  15.614  1.00  0.00    -0.352 N 
ATOM     13  H   UNL     1      -0.035  15.411  15.331  1.00  0.00     0.163 HD
BRANCH  12  14
ATOM     14  C   UNL     1      -0.906  13.553  14.649  1.00  0.00     0.151 C 
BRANCH  14  15
ATOM     15  C   UNL     1       0.109  12.731  13.903  1.00  0.00    -0.025 A 
ATOM     16  C   UNL     1       1.305  13.320  13.468  1.00  0.00     0.056 A 
ATOM     17  C   UNL     1      -0.117  11.368  13.660  1.00  0.00     0.009 A 
ATOM     18  C   UNL     1       2.275  12.557  12.787  1.00  0.00     0.160 A 
ATOM     19  C   UNL     1       0.838  10.607  12.983  1.00  0.00     0.050 A 
ATOM     20  C   UNL     1       2.030  11.193  12.546  1.00  0.00     0.157 A 
BRANCH  18  21
ATOM     21  O   UNL     1       3.483  13.118  12.339  1.00  0.00    -0.493 OA
ATOM     22  C   UNL     1       3.965  14.403  12.717  1.00  0.00     0.278 C 
ENDBRANCH  18  21
BRANCH  20  23
ATOM     23  O   UNL     1       2.962  10.401  11.875  1.00  0.00    -0.504 OA
ATOM     24  H   UNL     1       3.461  10.729  11.056  1.00  0.00     0.293 HD
ENDBRANCH  20  23
ENDBRANCH  14  15
ENDBRANCH  12  14
ENDBRANCH   9  10
ENDBRANCH   1   9
TORSDOF 10
ENDMDL
MODEL 8
REMARK VINA RESULT:    -4.503      3.318      5.755
REMARK INTER + INTRA:          -7.538
REMARK INTER:                  -5.274
REMARK INTRA:                  -2.264
REMARK UNBOUND:                -0.533
REMARK SMILES COc1cc(CNC(=O)CCCCC=CC(C)C)ccc1O
REMARK SMILES IDX 11 1 12 2 13 3 14 4 15 5 16 6 17 7 18 8 10 9 8 10 9 11 7 12
REMARK SMILES IDX 6 14 5 15 4 16 19 17 3 18 20 19 21 20 2 21 1 22 22 23
REMARK H PARENT 7 13 22 24
REMARK Flexibility Score: inf
ROOT
ATOM      1  C   UNL     1       2.348  11.523  12.473  1.00  0.00     0.010 C 
ENDROOT
BRANCH   1   2
ATOM      2  C   UNL     1       3.048  12.886  12.291  1.00  0.00     0.005 C 
BRANCH   2   3
ATOM      3  C   UNL     1       3.157  13.718  13.582  1.00  0.00     0.027 C 
BRANCH   3   4
ATOM      4  C   UNL     1       2.585  15.101  13.427  1.00  0.00    -0.031 C 
ATOM      5  C   UNL     1       1.638  15.376  12.516  1.00  0.00    -0.028 C 
BRANCH   5   6
ATOM      6  C   UNL     1       1.065  16.765  12.374  1.00  0.00     0.005 C 
ATOM      7  C   UNL     1      -0.467  16.717  12.366  1.00  0.00     0.012 C 
ATOM      8  C   UNL     1       1.565  17.669  13.507  1.00  0.00     0.012 C 
ENDBRANCH   5   6
ENDBRANCH   3   4
ENDBRANCH   2   3
ENDBRANCH   1   2
BRANCH   1   9
ATOM      9  C   UNL     1       0.934  11.454  11.875  1.00  0.00     0.100 C 
BRANCH   9  10
ATOM     10  C   UNL     1      -0.064  12.201  12.710  1.00  0.00     0.220 C 
ATOM     11  O   UNL     1      -0.972  12.866  12.141  1.00  0.00    -0.275 OA
ATOM     12  N   UNL     1      -0.005  12.132  14.142  1.00  0.00    -0.352 N 
ATOM     13  H   UNL     1       0.734  11.548  14.595  1.00  0.00     0.163 HD
BRANCH  12  14
ATOM     14  C   UNL     1      -0.955  12.837  15.000  1.00  0.00     0.151 C 
BRANCH  14  15
ATOM     15  C   UNL     1      -0.253  13.918  15.777  1.00  0.00    -0.025 A 
ATOM     16  C   UNL     1       0.931  13.627  16.470  1.00  0.00     0.056 A 
ATOM     17  C   UNL     1      -0.758  15.226  15.792  1.00  0.00     0.009 A 
ATOM     18  C   UNL     1       1.611  14.633  17.183  1.00  0.00     0.160 A 
ATOM     19  C   UNL     1      -0.091  16.228  16.499  1.00  0.00     0.050 A 
ATOM     20  C   UNL     1       1.088  15.940  17.194  1.00  0.00     0.157 A 
BRANCH  18  21
ATOM     21  O   UNL     1       2.799  14.374  17.887  1.00  0.00    -0.493 OA
ATOM     22  C   UNL     1       2.876  14.178  19.295  1.00  0.00     0.278 C 
ENDBRANCH  18  21
BRANCH  20  23
ATOM     23  O   UNL     1       1.728  16.967  17.887  1.00  0.00    -0.504 OA
ATOM     24  H   UNL     1       1.273  17.483  18.631  1.00  0.00     0.293 HD
ENDBRANCH  20  23
ENDBRANCH  14  15
ENDBRANCH  12  14
ENDBRANCH   9  10
ENDBRANCH   1   9
TORSDOF 10
ENDMDL
MODEL 9
REMARK VINA RESULT:    -4.478      4.015      6.016
REMARK INTER + INTRA:          -7.498
REMARK INTER:                  -5.657
REMARK INTRA:                  -1.841
REMARK UNBOUND:                -0.533
REMARK SMILES COc1cc(CNC(=O)CCCCC=CC(C)C)ccc1O
REMARK SMILES IDX 11 1 12 2 13 3 14 4 15 5 16 6 17 7 18 8 10 9 8 10 9 11 7 12
REMARK SMILES IDX 6 14 5 15 4 16 19 17 3 18 20 19 21 20 2 21 1 22 22 23
REMARK H PARENT 7 13 22 24
REMARK Flexibility Score: inf
ROOT
ATOM      1  C   UNL     1       0.777  12.587  18.227  1.00  0.00     0.010 C 
ENDROOT
BRANCH   1   2
ATOM      2  C   UNL     1      -0.729  12.679  17.903  1.00  0.00     0.005 C 
BRANCH   2   3
ATOM      3  C   UNL     1      -1.040  13.228  16.499  1.00  0.00     0.027 C 
BRANCH   3   4
ATOM      4  C   UNL     1      -0.158  12.630  15.436  1.00  0.00    -0.031 C 
ATOM      5  C   UNL     1       0.196  13.323  14.342  1.00  0.00    -0.028 C 
BRANCH   5   6
ATOM      6  C   UNL     1       1.088  12.719  13.284  1.00  0.00     0.005 C 
ATOM      7  C   UNL     1       2.489  13.338  13.343  1.00  0.00     0.012 C 
ATOM      8  C   UNL     1       1.169  11.198  13.458  1.00  0.00     0.012 C 
ENDBRANCH   5   6
ENDBRANCH   3   4
ENDBRANCH   2   3
ENDBRANCH   1   2
BRANCH   1   9
ATOM      9  C   UNL     1       1.357  13.845  18.893  1.00  0.00     0.100 C 
BRANCH   9  10
ATOM     10  C   UNL     1       1.798  14.861  17.880  1.00  0.00     0.220 C 
ATOM     11  O   UNL     1       2.479  14.488  16.886  1.00  0.00    -0.275 OA
ATOM     12  N   UNL     1       1.421  16.237  18.024  1.00  0.00    -0.352 N 
ATOM     13  H   UNL     1       0.827  16.521  18.836  1.00  0.00     0.163 HD
BRANCH  12  14
ATOM     14  C   UNL     1       1.820  17.265  17.065  1.00  0.00     0.151 C 
BRANCH  14  15
ATOM     15  C   UNL     1       1.046  17.111  15.784  1.00  0.00    -0.025 A 
ATOM     16  C   UNL     1       1.709  17.187  14.550  1.00  0.00     0.056 A 
ATOM     17  C   UNL     1      -0.334  16.865  15.811  1.00  0.00     0.009 A 
ATOM     18  C   UNL     1       1.001  17.024  13.343  1.00  0.00     0.160 A 
ATOM     19  C   UNL     1      -1.043  16.704  14.619  1.00  0.00     0.050 A 
ATOM     20  C   UNL     1      -0.384  16.782  13.388  1.00  0.00     0.157 A 
BRANCH  18  21
ATOM     21  O   UNL     1       1.636  17.093  12.092  1.00  0.00    -0.493 OA
ATOM     22  C   UNL     1       3.048  17.087  11.903  1.00  0.00     0.278 C 
ENDBRANCH  18  21
BRANCH  20  23
ATOM     23  O   UNL     1      -1.125  16.615  12.218  1.00  0.00    -0.504 OA
ATOM     24  H   UNL     1      -1.991  16.090  12.196  1.00  0.00     0.293 HD
ENDBRANCH  20  23
ENDBRANCH  14  15
ENDBRANCH  12  14
ENDBRANCH   9  10
ENDBRANCH   1   9
TORSDOF 10
ENDMDL
