MODEL 1
REMARK VINA RESULT:    -3.994      0.000      0.000
REMARK INTER + INTRA:         -15.065
REMARK INTER:                 -10.532
REMARK INTRA:                  -4.533
REMARK UNBOUND:                -4.533
REMARK SMILES CCCCCCCCCCCCCCCCCCCCCCCCCCCCCC(=O)[O-]
REMARK SMILES IDX 16 1 17 2 18 3 19 4 20 5 21 6 22 7 23 8 24 9 25 10 26 11
REMARK SMILES IDX 27 12 28 13 29 14 30 15 31 16 32 17 15 18 14 19 13 20 12 21
REMARK SMILES IDX 11 22 10 23 9 24 8 25 7 26 6 27 5 28 4 29 3 30 2 31 1 32
REMARK H PARENT
REMARK Flexibility Score: inf
ROOT
ATOM      1  C   UNL     1       5.088  -1.133   0.143  1.00  0.00     0.000 C 
ENDROOT
BRANCH   1   2
ATOM      2  C   UNL     1       5.358  -1.097  -1.376  1.00  0.00     0.000 C 
BRANCH   2   3
ATOM      3  C   UNL     1       6.783  -0.651  -1.756  1.00  0.00     0.000 C 
BRANCH   3   4
ATOM      4  C   UNL     1       7.907  -1.661  -1.446  1.00  0.00     0.000 C 
BRANCH   4   5
ATOM      5  C   UNL     1       8.694  -1.396  -0.147  1.00  0.00     0.000 C 
BRANCH   5   6
ATOM      6  C   UNL     1       8.553  -2.528   0.886  1.00  0.00     0.000 C 
BRANCH   6   7
ATOM      7  C   UNL     1       8.134  -2.019   2.277  1.00  0.00     0.000 C 
BRANCH   7   8
ATOM      8  C   UNL     1       7.689  -0.547   2.327  1.00  0.00     0.000 C 
BRANCH   8   9
ATOM      9  C   UNL     1       8.571   0.314   3.241  1.00  0.00     0.000 C 
BRANCH   9  10
ATOM     10  C   UNL     1       8.440   1.803   2.884  1.00  0.00     0.000 C 
BRANCH  10  11
ATOM     11  C   UNL     1       7.736   2.626   3.976  1.00  0.00     0.000 C 
BRANCH  11  12
ATOM     12  C   UNL     1       6.699   3.642   3.460  1.00  0.00     0.000 C 
BRANCH  12  13
ATOM     13  C   UNL     1       6.276   4.665   4.529  1.00  0.00     0.006 C 
BRANCH  13  14
ATOM     14  C   UNL     1       4.758   4.894   4.547  1.00  0.00     0.053 C 
BRANCH  14  15
ATOM     15  C   UNL     1       4.030   3.750   5.188  1.00  0.00     0.041 C 
ATOM     16  O   UNL     1       4.261   3.447   6.388  1.00  0.00    -0.550 OA
ATOM     17  O   UNL     1       3.122   3.001   4.452  1.00  0.00    -0.550 OA
ENDBRANCH  14  15
ENDBRANCH  13  14
ENDBRANCH  12  13
ENDBRANCH  11  12
ENDBRANCH  10  11
ENDBRANCH   9  10
ENDBRANCH   8   9
ENDBRANCH   7   8
ENDBRANCH   6   7
ENDBRANCH   5   6
ENDBRANCH   4   5
ENDBRANCH   3   4
ENDBRANCH   2   3
ENDBRANCH   1   2
BRANCH   1  18
ATOM     18  C   UNL     1       4.855  -2.558   0.677  1.00  0.00     0.000 C 
BRANCH  18  19
ATOM     19  C   UNL     1       4.512  -3.568  -0.433  1.00  0.00     0.000 C 
BRANCH  19  20
ATOM     20  C   UNL     1       5.581  -4.648  -0.677  1.00  0.00     0.000 C 
BRANCH  20  21
ATOM     21  C   UNL     1       5.042  -6.079  -0.497  1.00  0.00     0.000 C 
BRANCH  21  22
ATOM     22  C   UNL     1       5.883  -6.912   0.482  1.00  0.00     0.000 C 
BRANCH  22  23
ATOM     23  C   UNL     1       7.064  -6.123   1.076  1.00  0.00     0.000 C 
BRANCH  23  24
ATOM     24  C   UNL     1       6.973  -5.970   2.613  1.00  0.00    -0.000 C 
BRANCH  24  25
ATOM     25  C   UNL     1       5.685  -5.278   3.099  1.00  0.00    -0.000 C 
BRANCH  25  26
ATOM     26  C   UNL     1       4.665  -6.204   3.787  1.00  0.00    -0.000 C 
BRANCH  26  27
ATOM     27  C   UNL     1       3.272  -5.561   3.981  1.00  0.00    -0.000 C 
BRANCH  27  28
ATOM     28  C   UNL     1       2.951  -4.513   2.905  1.00  0.00    -0.000 C 
BRANCH  28  29
ATOM     29  C   UNL     1       1.551  -4.735   2.316  1.00  0.00    -0.000 C 
BRANCH  29  30
ATOM     30  C   UNL     1       1.306  -6.198   1.911  1.00  0.00    -0.000 C 
BRANCH  30  31
ATOM     31  C   UNL     1       1.391  -6.418   0.393  1.00  0.00    -0.003 C 
ATOM     32  C   UNL     1       1.389  -5.089  -0.357  1.00  0.00     0.004 C 
ENDBRANCH  30  31
ENDBRANCH  29  30
ENDBRANCH  28  29
ENDBRANCH  27  28
ENDBRANCH  26  27
ENDBRANCH  25  26
ENDBRANCH  24  25
ENDBRANCH  23  24
ENDBRANCH  22  23
ENDBRANCH  21  22
ENDBRANCH  20  21
ENDBRANCH  19  20
ENDBRANCH  18  19
ENDBRANCH   1  18
TORSDOF 28
ENDMDL
MODEL 2
REMARK VINA RESULT:    -3.938      1.186      3.252
REMARK INTER + INTRA:         -14.915
REMARK INTER:                 -10.818
REMARK INTRA:                  -4.097
REMARK UNBOUND:                -4.533
REMARK SMILES CCCCCCCCCCCCCCCCCCCCCCCCCCCCCC(=O)[O-]
REMARK SMILES IDX 16 1 17 2 18 3 19 4 20 5 21 6 22 7 23 8 24 9 25 10 26 11
REMARK SMILES IDX 27 12 28 13 29 14 30 15 31 16 32 17 15 18 14 19 13 20 12 21
REMARK SMILES IDX 11 22 10 23 9 24 8 25 7 26 6 27 5 28 4 29 3 30 2 31 1 32
REMARK H PARENT
REMARK Flexibility Score: inf
ROOT
ATOM      1  C   UNL     1       4.945  -1.508  -0.060  1.00  0.00     0.000 C 
ENDROOT
BRANCH   1   2
ATOM      2  C   UNL     1       5.568  -1.509  -1.473  1.00  0.00     0.000 C 
BRANCH   2   3
ATOM      3  C   UNL     1       5.583  -0.128  -2.158  1.00  0.00     0.000 C 
BRANCH   3   4
ATOM      4  C   UNL     1       6.854   0.716  -1.937  1.00  0.00     0.000 C 
BRANCH   4   5
ATOM      5  C   UNL     1       8.109  -0.075  -1.520  1.00  0.00     0.000 C 
BRANCH   5   6
ATOM      6  C   UNL     1       9.007   0.694  -0.535  1.00  0.00     0.000 C 
BRANCH   6   7
ATOM      7  C   UNL     1       9.473  -0.173   0.649  1.00  0.00     0.000 C 
BRANCH   7   8
ATOM      8  C   UNL     1       8.351  -0.904   1.406  1.00  0.00     0.000 C 
BRANCH   8   9
ATOM      9  C   UNL     1       7.428   0.052   2.176  1.00  0.00     0.000 C 
BRANCH   9  10
ATOM     10  C   UNL     1       8.241   0.967   3.105  1.00  0.00     0.000 C 
BRANCH  10  11
ATOM     11  C   UNL     1       7.907   2.458   2.925  1.00  0.00     0.000 C 
BRANCH  11  12
ATOM     12  C   UNL     1       7.262   3.134   4.150  1.00  0.00     0.000 C 
BRANCH  12  13
ATOM     13  C   UNL     1       5.837   3.645   3.874  1.00  0.00     0.006 C 
BRANCH  13  14
ATOM     14  C   UNL     1       5.158   4.187   5.140  1.00  0.00     0.053 C 
BRANCH  14  15
ATOM     15  C   UNL     1       3.714   3.788   5.212  1.00  0.00     0.041 C 
ATOM     16  O   UNL     1       2.991   4.203   6.155  1.00  0.00    -0.550 OA
ATOM     17  O   UNL     1       3.178   2.933   4.258  1.00  0.00    -0.550 OA
ENDBRANCH  14  15
ENDBRANCH  13  14
ENDBRANCH  12  13
ENDBRANCH  11  12
ENDBRANCH  10  11
ENDBRANCH   9  10
ENDBRANCH   8   9
ENDBRANCH   7   8
ENDBRANCH   6   7
ENDBRANCH   5   6
ENDBRANCH   4   5
ENDBRANCH   3   4
ENDBRANCH   2   3
ENDBRANCH   1   2
BRANCH   1  18
ATOM     18  C   UNL     1       5.303  -2.765   0.753  1.00  0.00     0.000 C 
BRANCH  18  19
ATOM     19  C   UNL     1       4.069  -3.587   1.165  1.00  0.00     0.000 C 
BRANCH  19  20
ATOM     20  C   UNL     1       3.436  -4.415   0.032  1.00  0.00     0.000 C 
BRANCH  20  21
ATOM     21  C   UNL     1       1.926  -4.642   0.223  1.00  0.00     0.000 C 
BRANCH  21  22
ATOM     22  C   UNL     1       1.550  -6.130   0.284  1.00  0.00     0.000 C 
BRANCH  22  23
ATOM     23  C   UNL     1       0.923  -6.533   1.630  1.00  0.00     0.000 C 
BRANCH  23  24
ATOM     24  C   UNL     1       1.471  -5.712   2.820  1.00  0.00    -0.000 C 
BRANCH  24  25
ATOM     25  C   UNL     1       2.270  -6.545   3.842  1.00  0.00    -0.000 C 
BRANCH  25  26
ATOM     26  C   UNL     1       3.480  -5.827   4.468  1.00  0.00    -0.000 C 
BRANCH  26  27
ATOM     27  C   UNL     1       4.798  -6.031   3.685  1.00  0.00    -0.000 C 
BRANCH  27  28
ATOM     28  C   UNL     1       4.640  -7.003   2.507  1.00  0.00    -0.000 C 
BRANCH  28  29
ATOM     29  C   UNL     1       5.808  -6.872   1.520  1.00  0.00    -0.000 C 
BRANCH  29  30
ATOM     30  C   UNL     1       7.146  -6.590   2.223  1.00  0.00    -0.000 C 
BRANCH  30  31
ATOM     31  C   UNL     1       7.840  -5.324   1.698  1.00  0.00    -0.003 C 
ATOM     32  C   UNL     1       7.997  -4.284   2.805  1.00  0.00     0.004 C 
ENDBRANCH  30  31
ENDBRANCH  29  30
ENDBRANCH  28  29
ENDBRANCH  27  28
ENDBRANCH  26  27
ENDBRANCH  25  26
ENDBRANCH  24  25
ENDBRANCH  23  24
ENDBRANCH  22  23
ENDBRANCH  21  22
ENDBRANCH  20  21
ENDBRANCH  19  20
ENDBRANCH  18  19
ENDBRANCH   1  18
TORSDOF 28
ENDMDL
MODEL 3
REMARK VINA RESULT:    -3.928      4.269      5.983
REMARK INTER + INTRA:         -14.890
REMARK INTER:                  -9.149
REMARK INTRA:                  -5.741
REMARK UNBOUND:                -4.533
REMARK SMILES CCCCCCCCCCCCCCCCCCCCCCCCCCCCCC(=O)[O-]
REMARK SMILES IDX 16 1 17 2 18 3 19 4 20 5 21 6 22 7 23 8 24 9 25 10 26 11
REMARK SMILES IDX 27 12 28 13 29 14 30 15 31 16 32 17 15 18 14 19 13 20 12 21
REMARK SMILES IDX 11 22 10 23 9 24 8 25 7 26 6 27 5 28 4 29 3 30 2 31 1 32
REMARK H PARENT
REMARK Flexibility Score: inf
ROOT
ATOM      1  C   UNL     1       5.489  -1.399  -1.423  1.00  0.00     0.000 C 
ENDROOT
BRANCH   1   2
ATOM      2  C   UNL     1       5.652  -0.045  -2.146  1.00  0.00     0.000 C 
BRANCH   2   3
ATOM      3  C   UNL     1       6.993   0.663  -1.869  1.00  0.00     0.000 C 
BRANCH   3   4
ATOM      4  C   UNL     1       8.199  -0.263  -1.612  1.00  0.00     0.000 C 
BRANCH   4   5
ATOM      5  C   UNL     1       9.015   0.052  -0.342  1.00  0.00     0.000 C 
BRANCH   5   6
ATOM      6  C   UNL     1       8.199   0.794   0.731  1.00  0.00     0.000 C 
BRANCH   6   7
ATOM      7  C   UNL     1       7.833  -0.101   1.928  1.00  0.00     0.000 C 
BRANCH   7   8
ATOM      8  C   UNL     1       8.712  -1.352   2.103  1.00  0.00     0.000 C 
BRANCH   8   9
ATOM      9  C   UNL     1       7.894  -2.646   2.217  1.00  0.00     0.000 C 
BRANCH   9  10
ATOM     10  C   UNL     1       8.598  -3.803   1.490  1.00  0.00     0.000 C 
BRANCH  10  11
ATOM     11  C   UNL     1       8.807  -3.534  -0.011  1.00  0.00     0.000 C 
BRANCH  11  12
ATOM     12  C   UNL     1       7.944  -4.394  -0.953  1.00  0.00     0.000 C 
BRANCH  12  13
ATOM     13  C   UNL     1       7.989  -3.915  -2.415  1.00  0.00     0.006 C 
BRANCH  13  14
ATOM     14  C   UNL     1       6.773  -4.394  -3.222  1.00  0.00     0.053 C 
BRANCH  14  15
ATOM     15  C   UNL     1       7.144  -5.463  -4.206  1.00  0.00     0.041 C 
ATOM     16  O   UNL     1       6.284  -6.304  -4.578  1.00  0.00    -0.550 OA
ATOM     17  O   UNL     1       8.444  -5.549  -4.686  1.00  0.00    -0.550 OA
ENDBRANCH  14  15
ENDBRANCH  13  14
ENDBRANCH  12  13
ENDBRANCH  11  12
ENDBRANCH  10  11
ENDBRANCH   9  10
ENDBRANCH   8   9
ENDBRANCH   7   8
ENDBRANCH   6   7
ENDBRANCH   5   6
ENDBRANCH   4   5
ENDBRANCH   3   4
ENDBRANCH   2   3
ENDBRANCH   1   2
BRANCH   1  18
ATOM     18  C   UNL     1       5.089  -1.245   0.055  1.00  0.00     0.000 C 
BRANCH  18  19
ATOM     19  C   UNL     1       4.523  -2.540   0.664  1.00  0.00     0.000 C 
BRANCH  19  20
ATOM     20  C   UNL     1       4.425  -3.725  -0.314  1.00  0.00     0.000 C 
BRANCH  20  21
ATOM     21  C   UNL     1       4.558  -5.092   0.382  1.00  0.00     0.000 C 
BRANCH  21  22
ATOM     22  C   UNL     1       5.046  -4.976   1.833  1.00  0.00     0.000 C 
BRANCH  22  23
ATOM     23  C   UNL     1       5.783  -6.237   2.318  1.00  0.00     0.000 C 
BRANCH  23  24
ATOM     24  C   UNL     1       5.661  -6.456   3.844  1.00  0.00    -0.000 C 
BRANCH  24  25
ATOM     25  C   UNL     1       4.516  -5.662   4.502  1.00  0.00    -0.000 C 
BRANCH  25  26
ATOM     26  C   UNL     1       3.596  -6.484   5.425  1.00  0.00    -0.000 C 
BRANCH  26  27
ATOM     27  C   UNL     1       3.449  -7.964   4.999  1.00  0.00    -0.000 C 
BRANCH  27  28
ATOM     28  C   UNL     1       2.561  -8.135   3.758  1.00  0.00    -0.000 C 
BRANCH  28  29
ATOM     29  C   UNL     1       1.406  -7.124   3.759  1.00  0.00    -0.000 C 
BRANCH  29  30
ATOM     30  C   UNL     1       0.750  -6.974   2.377  1.00  0.00    -0.000 C 
BRANCH  30  31
ATOM     31  C   UNL     1       1.037  -5.612   1.726  1.00  0.00    -0.003 C 
ATOM     32  C   UNL     1       1.578  -4.617   2.748  1.00  0.00     0.004 C 
ENDBRANCH  30  31
ENDBRANCH  29  30
ENDBRANCH  28  29
ENDBRANCH  27  28
ENDBRANCH  26  27
ENDBRANCH  25  26
ENDBRANCH  24  25
ENDBRANCH  23  24
ENDBRANCH  22  23
ENDBRANCH  21  22
ENDBRANCH  20  21
ENDBRANCH  19  20
ENDBRANCH  18  19
ENDBRANCH   1  18
TORSDOF 28
ENDMDL
MODEL 4
REMARK VINA RESULT:    -3.899      1.234      2.447
REMARK INTER + INTRA:         -14.815
REMARK INTER:                 -10.154
REMARK INTRA:                  -4.661
REMARK UNBOUND:                -4.533
REMARK SMILES CCCCCCCCCCCCCCCCCCCCCCCCCCCCCC(=O)[O-]
REMARK SMILES IDX 16 1 17 2 18 3 19 4 20 5 21 6 22 7 23 8 24 9 25 10 26 11
REMARK SMILES IDX 27 12 28 13 29 14 30 15 31 16 32 17 15 18 14 19 13 20 12 21
REMARK SMILES IDX 11 22 10 23 9 24 8 25 7 26 6 27 5 28 4 29 3 30 2 31 1 32
REMARK H PARENT
REMARK Flexibility Score: inf
ROOT
ATOM      1  C   UNL     1       7.004   0.298  -1.500  1.00  0.00     0.000 C 
ENDROOT
BRANCH   1   2
ATOM      2  C   UNL     1       5.684  -0.357  -1.961  1.00  0.00     0.000 C 
BRANCH   2   3
ATOM      3  C   UNL     1       5.130  -1.418  -0.990  1.00  0.00     0.000 C 
BRANCH   3   4
ATOM      4  C   UNL     1       5.379  -1.152   0.508  1.00  0.00     0.000 C 
BRANCH   4   5
ATOM      5  C   UNL     1       6.191  -2.234   1.246  1.00  0.00     0.000 C 
BRANCH   5   6
ATOM      6  C   UNL     1       7.506  -1.701   1.843  1.00  0.00     0.000 C 
BRANCH   6   7
ATOM      7  C   UNL     1       7.445  -0.199   2.174  1.00  0.00     0.000 C 
BRANCH   7   8
ATOM      8  C   UNL     1       8.528   0.663   1.500  1.00  0.00     0.000 C 
BRANCH   8   9
ATOM      9  C   UNL     1       8.916   1.893   2.332  1.00  0.00     0.000 C 
BRANCH   9  10
ATOM     10  C   UNL     1       8.864   1.575   3.834  1.00  0.00     0.000 C 
BRANCH  10  11
ATOM     11  C   UNL     1       8.197   2.688   4.663  1.00  0.00     0.000 C 
BRANCH  11  12
ATOM     12  C   UNL     1       6.859   3.205   4.102  1.00  0.00     0.000 C 
BRANCH  12  13
ATOM     13  C   UNL     1       6.298   4.401   4.890  1.00  0.00     0.006 C 
BRANCH  13  14
ATOM     14  C   UNL     1       4.985   4.060   5.610  1.00  0.00     0.053 C 
BRANCH  14  15
ATOM     15  C   UNL     1       3.798   4.217   4.708  1.00  0.00     0.041 C 
ATOM     16  O   UNL     1       3.481   3.292   3.915  1.00  0.00    -0.550 OA
ATOM     17  O   UNL     1       3.062   5.394   4.722  1.00  0.00    -0.550 OA
ENDBRANCH  14  15
ENDBRANCH  13  14
ENDBRANCH  12  13
ENDBRANCH  11  12
ENDBRANCH  10  11
ENDBRANCH   9  10
ENDBRANCH   8   9
ENDBRANCH   7   8
ENDBRANCH   6   7
ENDBRANCH   5   6
ENDBRANCH   4   5
ENDBRANCH   3   4
ENDBRANCH   2   3
ENDBRANCH   1   2
BRANCH   1  18
ATOM     18  C   UNL     1       8.239  -0.272  -2.220  1.00  0.00     0.000 C 
BRANCH  18  19
ATOM     19  C   UNL     1       8.736  -1.595  -1.608  1.00  0.00     0.000 C 
BRANCH  19  20
ATOM     20  C   UNL     1       8.334  -2.859  -2.389  1.00  0.00     0.000 C 
BRANCH  20  21
ATOM     21  C   UNL     1       7.924  -4.027  -1.473  1.00  0.00     0.000 C 
BRANCH  21  22
ATOM     22  C   UNL     1       6.506  -4.540  -1.762  1.00  0.00     0.000 C 
BRANCH  22  23
ATOM     23  C   UNL     1       6.118  -5.747  -0.889  1.00  0.00     0.000 C 
BRANCH  23  24
ATOM     24  C   UNL     1       6.730  -5.685   0.530  1.00  0.00    -0.000 C 
BRANCH  24  25
ATOM     25  C   UNL     1       5.817  -6.259   1.631  1.00  0.00    -0.000 C 
BRANCH  25  26
ATOM     26  C   UNL     1       5.871  -5.513   2.979  1.00  0.00    -0.000 C 
BRANCH  26  27
ATOM     27  C   UNL     1       5.024  -6.175   4.091  1.00  0.00    -0.000 C 
BRANCH  27  28
ATOM     28  C   UNL     1       3.721  -5.413   4.372  1.00  0.00    -0.000 C 
BRANCH  28  29
ATOM     29  C   UNL     1       2.626  -5.800   3.368  1.00  0.00    -0.000 C 
BRANCH  29  30
ATOM     30  C   UNL     1       1.972  -4.576   2.707  1.00  0.00    -0.000 C 
BRANCH  30  31
ATOM     31  C   UNL     1       2.891  -3.890   1.684  1.00  0.00    -0.003 C 
ATOM     32  C   UNL     1       2.781  -4.553   0.314  1.00  0.00     0.004 C 
ENDBRANCH  30  31
ENDBRANCH  29  30
ENDBRANCH  28  29
ENDBRANCH  27  28
ENDBRANCH  26  27
ENDBRANCH  25  26
ENDBRANCH  24  25
ENDBRANCH  23  24
ENDBRANCH  22  23
ENDBRANCH  21  22
ENDBRANCH  20  21
ENDBRANCH  19  20
ENDBRANCH  18  19
ENDBRANCH   1  18
TORSDOF 28
ENDMDL
MODEL 5
REMARK VINA RESULT:    -3.897      1.151      3.075
REMARK INTER + INTRA:         -14.810
REMARK INTER:                 -10.924
REMARK INTRA:                  -3.886
REMARK UNBOUND:                -4.533
REMARK SMILES CCCCCCCCCCCCCCCCCCCCCCCCCCCCCC(=O)[O-]
REMARK SMILES IDX 16 1 17 2 18 3 19 4 20 5 21 6 22 7 23 8 24 9 25 10 26 11
REMARK SMILES IDX 27 12 28 13 29 14 30 15 31 16 32 17 15 18 14 19 13 20 12 21
REMARK SMILES IDX 11 22 10 23 9 24 8 25 7 26 6 27 5 28 4 29 3 30 2 31 1 32
REMARK H PARENT
REMARK Flexibility Score: inf
ROOT
ATOM      1  C   UNL     1       5.612  -0.397  -1.744  1.00  0.00     0.000 C 
ENDROOT
BRANCH   1   2
ATOM      2  C   UNL     1       6.964   0.349  -1.799  1.00  0.00     0.000 C 
BRANCH   2   3
ATOM      3  C   UNL     1       8.198  -0.573  -1.745  1.00  0.00     0.000 C 
BRANCH   3   4
ATOM      4  C   UNL     1       8.955  -0.603  -0.403  1.00  0.00     0.000 C 
BRANCH   4   5
ATOM      5  C   UNL     1       8.785  -1.892   0.424  1.00  0.00     0.000 C 
BRANCH   5   6
ATOM      6  C   UNL     1       8.343  -1.626   1.874  1.00  0.00     0.000 C 
BRANCH   6   7
ATOM      7  C   UNL     1       7.461  -0.372   2.008  1.00  0.00     0.000 C 
BRANCH   7   8
ATOM      8  C   UNL     1       8.039   0.742   2.900  1.00  0.00     0.000 C 
BRANCH   8   9
ATOM      9  C   UNL     1       8.391   2.014   2.115  1.00  0.00     0.000 C 
BRANCH   9  10
ATOM     10  C   UNL     1       7.899   3.266   2.856  1.00  0.00     0.000 C 
BRANCH  10  11
ATOM     11  C   UNL     1       8.430   3.362   4.297  1.00  0.00     0.000 C 
BRANCH  11  12
ATOM     12  C   UNL     1       7.346   3.379   5.392  1.00  0.00     0.000 C 
BRANCH  12  13
ATOM     13  C   UNL     1       5.990   3.901   4.888  1.00  0.00     0.006 C 
BRANCH  13  14
ATOM     14  C   UNL     1       5.025   4.222   6.038  1.00  0.00     0.053 C 
BRANCH  14  15
ATOM     15  C   UNL     1       3.656   3.662   5.790  1.00  0.00     0.041 C 
ATOM     16  O   UNL     1       2.834   3.561   6.738  1.00  0.00    -0.550 OA
ATOM     17  O   UNL     1       3.301   3.225   4.521  1.00  0.00    -0.550 OA
ENDBRANCH  14  15
ENDBRANCH  13  14
ENDBRANCH  12  13
ENDBRANCH  11  12
ENDBRANCH  10  11
ENDBRANCH   9  10
ENDBRANCH   8   9
ENDBRANCH   7   8
ENDBRANCH   6   7
ENDBRANCH   5   6
ENDBRANCH   4   5
ENDBRANCH   3   4
ENDBRANCH   2   3
ENDBRANCH   1   2
BRANCH   1  18
ATOM     18  C   UNL     1       5.707  -1.847  -2.252  1.00  0.00     0.000 C 
BRANCH  18  19
ATOM     19  C   UNL     1       5.610  -2.888  -1.123  1.00  0.00     0.000 C 
BRANCH  19  20
ATOM     20  C   UNL     1       5.084  -2.341   0.217  1.00  0.00     0.000 C 
BRANCH  20  21
ATOM     21  C   UNL     1       4.109  -3.304   0.918  1.00  0.00     0.000 C 
BRANCH  21  22
ATOM     22  C   UNL     1       3.417  -4.265  -0.059  1.00  0.00     0.000 C 
BRANCH  22  23
ATOM     23  C   UNL     1       2.894  -5.540   0.627  1.00  0.00     0.000 C 
BRANCH  23  24
ATOM     24  C   UNL     1       1.434  -5.404   1.120  1.00  0.00    -0.000 C 
BRANCH  24  25
ATOM     25  C   UNL     1       1.304  -5.176   2.639  1.00  0.00    -0.000 C 
BRANCH  25  26
ATOM     26  C   UNL     1       2.625  -4.864   3.369  1.00  0.00    -0.000 C 
BRANCH  26  27
ATOM     27  C   UNL     1       3.102  -6.000   4.303  1.00  0.00    -0.000 C 
BRANCH  27  28
ATOM     28  C   UNL     1       4.622  -6.215   4.241  1.00  0.00    -0.000 C 
BRANCH  28  29
ATOM     29  C   UNL     1       5.022  -6.979   2.971  1.00  0.00    -0.000 C 
BRANCH  29  30
ATOM     30  C   UNL     1       6.218  -6.339   2.249  1.00  0.00    -0.000 C 
BRANCH  30  31
ATOM     31  C   UNL     1       6.610  -4.976   2.839  1.00  0.00    -0.003 C 
ATOM     32  C   UNL     1       8.042  -4.996   3.367  1.00  0.00     0.004 C 
ENDBRANCH  30  31
ENDBRANCH  29  30
ENDBRANCH  28  29
ENDBRANCH  27  28
ENDBRANCH  26  27
ENDBRANCH  25  26
ENDBRANCH  24  25
ENDBRANCH  23  24
ENDBRANCH  22  23
ENDBRANCH  21  22
ENDBRANCH  20  21
ENDBRANCH  19  20
ENDBRANCH  18  19
ENDBRANCH   1  18
TORSDOF 28
ENDMDL
MODEL 6
REMARK VINA RESULT:    -3.888      1.219      2.689
REMARK INTER + INTRA:         -14.786
REMARK INTER:                 -10.656
REMARK INTRA:                  -4.129
REMARK UNBOUND:                -4.533
REMARK SMILES CCCCCCCCCCCCCCCCCCCCCCCCCCCCCC(=O)[O-]
REMARK SMILES IDX 16 1 17 2 18 3 19 4 20 5 21 6 22 7 23 8 24 9 25 10 26 11
REMARK SMILES IDX 27 12 28 13 29 14 30 15 31 16 32 17 15 18 14 19 13 20 12 21
REMARK SMILES IDX 11 22 10 23 9 24 8 25 7 26 6 27 5 28 4 29 3 30 2 31 1 32
REMARK H PARENT
REMARK Flexibility Score: inf
ROOT
ATOM      1  C   UNL     1       5.756  -3.207  -1.355  1.00  0.00     0.000 C 
ENDROOT
BRANCH   1   2
ATOM      2  C   UNL     1       5.992  -2.179  -2.483  1.00  0.00     0.000 C 
BRANCH   2   3
ATOM      3  C   UNL     1       5.287  -0.827  -2.263  1.00  0.00     0.000 C 
BRANCH   3   4
ATOM      4  C   UNL     1       6.207   0.361  -1.917  1.00  0.00     0.000 C 
BRANCH   4   5
ATOM      5  C   UNL     1       7.660  -0.010  -1.562  1.00  0.00     0.000 C 
BRANCH   5   6
ATOM      6  C   UNL     1       8.060   0.409  -0.137  1.00  0.00     0.000 C 
BRANCH   6   7
ATOM      7  C   UNL     1       7.308  -0.379   0.951  1.00  0.00     0.000 C 
BRANCH   7   8
ATOM      8  C   UNL     1       7.734  -0.068   2.396  1.00  0.00     0.000 C 
BRANCH   8   9
ATOM      9  C   UNL     1       8.442   1.288   2.532  1.00  0.00     0.000 C 
BRANCH   9  10
ATOM     10  C   UNL     1       8.644   1.652   4.011  1.00  0.00     0.000 C 
BRANCH  10  11
ATOM     11  C   UNL     1       8.089   3.042   4.371  1.00  0.00     0.000 C 
BRANCH  11  12
ATOM     12  C   UNL     1       7.050   3.605   3.383  1.00  0.00     0.000 C 
BRANCH  12  13
ATOM     13  C   UNL     1       5.614   3.566   3.934  1.00  0.00     0.006 C 
BRANCH  13  14
ATOM     14  C   UNL     1       5.501   4.230   5.313  1.00  0.00     0.053 C 
BRANCH  14  15
ATOM     15  C   UNL     1       4.107   4.145   5.860  1.00  0.00     0.041 C 
ATOM     16  O   UNL     1       3.177   3.681   5.150  1.00  0.00    -0.550 OA
ATOM     17  O   UNL     1       3.831   4.606   7.140  1.00  0.00    -0.550 OA
ENDBRANCH  14  15
ENDBRANCH  13  14
ENDBRANCH  12  13
ENDBRANCH  11  12
ENDBRANCH  10  11
ENDBRANCH   9  10
ENDBRANCH   8   9
ENDBRANCH   7   8
ENDBRANCH   6   7
ENDBRANCH   5   6
ENDBRANCH   4   5
ENDBRANCH   3   4
ENDBRANCH   2   3
ENDBRANCH   1   2
BRANCH   1  18
ATOM     18  C   UNL     1       4.859  -2.665  -0.228  1.00  0.00     0.000 C 
BRANCH  18  19
ATOM     19  C   UNL     1       5.196  -3.263   1.150  1.00  0.00     0.000 C 
BRANCH  19  20
ATOM     20  C   UNL     1       6.549  -3.993   1.225  1.00  0.00     0.000 C 
BRANCH  20  21
ATOM     21  C   UNL     1       6.506  -5.252   2.109  1.00  0.00     0.000 C 
BRANCH  21  22
ATOM     22  C   UNL     1       6.572  -6.553   1.295  1.00  0.00     0.000 C 
BRANCH  22  23
ATOM     23  C   UNL     1       5.203  -7.245   1.165  1.00  0.00     0.000 C 
BRANCH  23  24
ATOM     24  C   UNL     1       4.561  -7.052  -0.229  1.00  0.00    -0.000 C 
BRANCH  24  25
ATOM     25  C   UNL     1       3.408  -6.029  -0.252  1.00  0.00    -0.000 C 
BRANCH  25  26
ATOM     26  C   UNL     1       2.002  -6.625  -0.048  1.00  0.00    -0.000 C 
BRANCH  26  27
ATOM     27  C   UNL     1       1.209  -5.967   1.105  1.00  0.00    -0.000 C 
BRANCH  27  28
ATOM     28  C   UNL     1       1.848  -4.657   1.589  1.00  0.00    -0.000 C 
BRANCH  28  29
ATOM     29  C   UNL     1       2.127  -4.701   3.098  1.00  0.00    -0.000 C 
BRANCH  29  30
ATOM     30  C   UNL     1       2.931  -5.944   3.514  1.00  0.00    -0.000 C 
BRANCH  30  31
ATOM     31  C   UNL     1       4.079  -5.614   4.480  1.00  0.00    -0.003 C 
ATOM     32  C   UNL     1       3.890  -6.320   5.820  1.00  0.00     0.004 C 
ENDBRANCH  30  31
ENDBRANCH  29  30
ENDBRANCH  28  29
ENDBRANCH  27  28
ENDBRANCH  26  27
ENDBRANCH  25  26
ENDBRANCH  24  25
ENDBRANCH  23  24
ENDBRANCH  22  23
ENDBRANCH  21  22
ENDBRANCH  20  21
ENDBRANCH  19  20
ENDBRANCH  18  19
ENDBRANCH   1  18
TORSDOF 28
ENDMDL
MODEL 7
REMARK VINA RESULT:    -3.783      4.587      7.640
REMARK INTER + INTRA:         -14.508
REMARK INTER:                  -8.902
REMARK INTRA:                  -5.607
REMARK UNBOUND:                -4.533
REMARK SMILES CCCCCCCCCCCCCCCCCCCCCCCCCCCCCC(=O)[O-]
REMARK SMILES IDX 16 1 17 2 18 3 19 4 20 5 21 6 22 7 23 8 24 9 25 10 26 11
REMARK SMILES IDX 27 12 28 13 29 14 30 15 31 16 32 17 15 18 14 19 13 20 12 21
REMARK SMILES IDX 11 22 10 23 9 24 8 25 7 26 6 27 5 28 4 29 3 30 2 31 1 32
REMARK H PARENT
REMARK Flexibility Score: inf
ROOT
ATOM      1  C   UNL     1       5.295  -5.485   0.907  1.00  0.00     0.000 C 
ENDROOT
BRANCH   1   2
ATOM      2  C   UNL     1       6.757  -5.648   0.438  1.00  0.00     0.000 C 
BRANCH   2   3
ATOM      3  C   UNL     1       7.707  -4.539   0.929  1.00  0.00     0.000 C 
BRANCH   3   4
ATOM      4  C   UNL     1       7.076  -3.475   1.850  1.00  0.00     0.000 C 
BRANCH   4   5
ATOM      5  C   UNL     1       7.738  -2.083   1.802  1.00  0.00     0.000 C 
BRANCH   5   6
ATOM      6  C   UNL     1       6.803  -0.988   1.259  1.00  0.00     0.000 C 
BRANCH   6   7
ATOM      7  C   UNL     1       5.455  -1.545   0.766  1.00  0.00     0.000 C 
BRANCH   7   8
ATOM      8  C   UNL     1       5.169  -1.336  -0.731  1.00  0.00     0.000 C 
BRANCH   8   9
ATOM      9  C   UNL     1       6.428  -1.450  -1.602  1.00  0.00     0.000 C 
BRANCH   9  10
ATOM     10  C   UNL     1       6.466  -2.802  -2.332  1.00  0.00     0.000 C 
BRANCH  10  11
ATOM     11  C   UNL     1       7.894  -3.342  -2.526  1.00  0.00     0.000 C 
BRANCH  11  12
ATOM     12  C   UNL     1       8.019  -4.509  -3.525  1.00  0.00     0.000 C 
BRANCH  12  13
ATOM     13  C   UNL     1       6.791  -5.435  -3.525  1.00  0.00     0.006 C 
BRANCH  13  14
ATOM     14  C   UNL     1       6.376  -5.851  -4.944  1.00  0.00     0.053 C 
BRANCH  14  15
ATOM     15  C   UNL     1       5.856  -7.257  -4.982  1.00  0.00     0.041 C 
ATOM     16  O   UNL     1       6.067  -7.981  -5.990  1.00  0.00    -0.550 OA
ATOM     17  O   UNL     1       5.114  -7.755  -3.920  1.00  0.00    -0.550 OA
ENDBRANCH  14  15
ENDBRANCH  13  14
ENDBRANCH  12  13
ENDBRANCH  11  12
ENDBRANCH  10  11
ENDBRANCH   9  10
ENDBRANCH   8   9
ENDBRANCH   7   8
ENDBRANCH   6   7
ENDBRANCH   5   6
ENDBRANCH   4   5
ENDBRANCH   3   4
ENDBRANCH   2   3
ENDBRANCH   1   2
BRANCH   1  18
ATOM     18  C   UNL     1       4.347  -5.055  -0.226  1.00  0.00     0.000 C 
BRANCH  18  19
ATOM     19  C   UNL     1       3.046  -4.414   0.288  1.00  0.00     0.000 C 
BRANCH  19  20
ATOM     20  C   UNL     1       3.026  -4.113   1.798  1.00  0.00     0.000 C 
BRANCH  20  21
ATOM     21  C   UNL     1       1.714  -4.538   2.480  1.00  0.00     0.000 C 
BRANCH  21  22
ATOM     22  C   UNL     1       1.129  -5.830   1.890  1.00  0.00     0.000 C 
BRANCH  22  23
ATOM     23  C   UNL     1       0.461  -6.722   2.952  1.00  0.00     0.000 C 
BRANCH  23  24
ATOM     24  C   UNL     1       1.465  -7.283   3.986  1.00  0.00    -0.000 C 
BRANCH  24  25
ATOM     25  C   UNL     1       2.800  -7.752   3.374  1.00  0.00    -0.000 C 
BRANCH  25  26
ATOM     26  C   UNL     1       4.057  -7.068   3.945  1.00  0.00    -0.000 C 
BRANCH  26  27
ATOM     27  C   UNL     1       3.754  -6.034   5.054  1.00  0.00    -0.000 C 
BRANCH  27  28
ATOM     28  C   UNL     1       4.987  -5.708   5.910  1.00  0.00    -0.000 C 
BRANCH  28  29
ATOM     29  C   UNL     1       6.204  -6.529   5.462  1.00  0.00    -0.000 C 
BRANCH  29  30
ATOM     30  C   UNL     1       7.256  -5.676   4.735  1.00  0.00    -0.000 C 
BRANCH  30  31
ATOM     31  C   UNL     1       8.419  -6.511   4.178  1.00  0.00    -0.003 C 
ATOM     32  C   UNL     1       7.910  -7.626   3.268  1.00  0.00     0.004 C 
ENDBRANCH  30  31
ENDBRANCH  29  30
ENDBRANCH  28  29
ENDBRANCH  27  28
ENDBRANCH  26  27
ENDBRANCH  25  26
ENDBRANCH  24  25
ENDBRANCH  23  24
ENDBRANCH  22  23
ENDBRANCH  21  22
ENDBRANCH  20  21
ENDBRANCH  19  20
ENDBRANCH  18  19
ENDBRANCH   1  18
TORSDOF 28
ENDMDL
MODEL 8
REMARK VINA RESULT:    -3.763      4.361      6.762
REMARK INTER + INTRA:         -14.454
REMARK INTER:                  -8.609
REMARK INTRA:                  -5.845
REMARK UNBOUND:                -4.533
REMARK SMILES CCCCCCCCCCCCCCCCCCCCCCCCCCCCCC(=O)[O-]
REMARK SMILES IDX 16 1 17 2 18 3 19 4 20 5 21 6 22 7 23 8 24 9 25 10 26 11
REMARK SMILES IDX 27 12 28 13 29 14 30 15 31 16 32 17 15 18 14 19 13 20 12 21
REMARK SMILES IDX 11 22 10 23 9 24 8 25 7 26 6 27 5 28 4 29 3 30 2 31 1 32
REMARK H PARENT
REMARK Flexibility Score: inf
ROOT
ATOM      1  C   UNL     1       2.945  -3.765   1.588  1.00  0.00     0.000 C 
ENDROOT
BRANCH   1   2
ATOM      2  C   UNL     1       3.364  -4.707   0.439  1.00  0.00     0.000 C 
BRANCH   2   3
ATOM      3  C   UNL     1       4.822  -5.198   0.523  1.00  0.00     0.000 C 
BRANCH   3   4
ATOM      4  C   UNL     1       5.371  -5.433   1.945  1.00  0.00     0.000 C 
BRANCH   4   5
ATOM      5  C   UNL     1       6.649  -4.647   2.298  1.00  0.00     0.000 C 
BRANCH   5   6
ATOM      6  C   UNL     1       7.639  -4.546   1.125  1.00  0.00     0.000 C 
BRANCH   6   7
ATOM      7  C   UNL     1       8.229  -3.133   0.963  1.00  0.00     0.000 C 
BRANCH   7   8
ATOM      8  C   UNL     1       7.565  -2.044   1.824  1.00  0.00     0.000 C 
BRANCH   8   9
ATOM      9  C   UNL     1       6.872  -0.960   0.987  1.00  0.00     0.000 C 
BRANCH   9  10
ATOM     10  C   UNL     1       5.484  -1.430   0.525  1.00  0.00     0.000 C 
BRANCH  10  11
ATOM     11  C   UNL     1       5.198  -1.104  -0.951  1.00  0.00     0.000 C 
BRANCH  11  12
ATOM     12  C   UNL     1       6.182  -1.729  -1.959  1.00  0.00     0.000 C 
BRANCH  12  13
ATOM     13  C   UNL     1       5.875  -3.206  -2.263  1.00  0.00     0.006 C 
BRANCH  13  14
ATOM     14  C   UNL     1       7.136  -3.995  -2.644  1.00  0.00     0.053 C 
BRANCH  14  15
ATOM     15  C   UNL     1       6.823  -5.127  -3.576  1.00  0.00     0.041 C 
ATOM     16  O   UNL     1       6.909  -4.962  -4.821  1.00  0.00    -0.550 OA
ATOM     17  O   UNL     1       6.407  -6.352  -3.072  1.00  0.00    -0.550 OA
ENDBRANCH  14  15
ENDBRANCH  13  14
ENDBRANCH  12  13
ENDBRANCH  11  12
ENDBRANCH  10  11
ENDBRANCH   9  10
ENDBRANCH   8   9
ENDBRANCH   7   8
ENDBRANCH   6   7
ENDBRANCH   5   6
ENDBRANCH   4   5
ENDBRANCH   3   4
ENDBRANCH   2   3
ENDBRANCH   1   2
BRANCH   1  18
ATOM     18  C   UNL     1       2.010  -4.441   2.607  1.00  0.00     0.000 C 
BRANCH  18  19
ATOM     19  C   UNL     1       1.074  -5.482   1.967  1.00  0.00     0.000 C 
BRANCH  19  20
ATOM     20  C   UNL     1       0.983  -6.821   2.721  1.00  0.00     0.000 C 
BRANCH  20  21
ATOM     21  C   UNL     1       2.352  -7.333   3.204  1.00  0.00     0.000 C 
BRANCH  21  22
ATOM     22  C   UNL     1       2.278  -8.031   4.570  1.00  0.00     0.000 C 
BRANCH  22  23
ATOM     23  C   UNL     1       3.013  -7.254   5.678  1.00  0.00     0.000 C 
BRANCH  23  24
ATOM     24  C   UNL     1       3.718  -5.982   5.154  1.00  0.00    -0.000 C 
BRANCH  24  25
ATOM     25  C   UNL     1       4.676  -5.332   6.173  1.00  0.00    -0.000 C 
BRANCH  25  26
ATOM     26  C   UNL     1       5.240  -6.287   7.241  1.00  0.00    -0.000 C 
BRANCH  26  27
ATOM     27  C   UNL     1       6.720  -6.674   7.011  1.00  0.00    -0.000 C 
BRANCH  27  28
ATOM     28  C   UNL     1       7.239  -6.226   5.637  1.00  0.00    -0.000 C 
BRANCH  28  29
ATOM     29  C   UNL     1       7.592  -7.434   4.757  1.00  0.00    -0.000 C 
BRANCH  29  30
ATOM     30  C   UNL     1       6.502  -8.518   4.780  1.00  0.00    -0.000 C 
BRANCH  30  31
ATOM     31  C   UNL     1       5.848  -8.734   3.407  1.00  0.00    -0.003 C 
ATOM     32  C   UNL     1       6.893  -8.742   2.294  1.00  0.00     0.004 C 
ENDBRANCH  30  31
ENDBRANCH  29  30
ENDBRANCH  28  29
ENDBRANCH  27  28
ENDBRANCH  26  27
ENDBRANCH  25  26
ENDBRANCH  24  25
ENDBRANCH  23  24
ENDBRANCH  22  23
ENDBRANCH  21  22
ENDBRANCH  20  21
ENDBRANCH  19  20
ENDBRANCH  18  19
ENDBRANCH   1  18
TORSDOF 28
ENDMDL
MODEL 9
REMARK VINA RESULT:    -3.726      4.173      6.303
REMARK INTER + INTRA:         -14.358
REMARK INTER:                  -8.216
REMARK INTRA:                  -6.142
REMARK UNBOUND:                -4.533
REMARK SMILES CCCCCCCCCCCCCCCCCCCCCCCCCCCCCC(=O)[O-]
REMARK SMILES IDX 16 1 17 2 18 3 19 4 20 5 21 6 22 7 23 8 24 9 25 10 26 11
REMARK SMILES IDX 27 12 28 13 29 14 30 15 31 16 32 17 15 18 14 19 13 20 12 21
REMARK SMILES IDX 11 22 10 23 9 24 8 25 7 26 6 27 5 28 4 29 3 30 2 31 1 32
REMARK H PARENT
REMARK Flexibility Score: inf
ROOT
ATOM      1  C   UNL     1       5.427  -2.412   0.556  1.00  0.00     0.000 C 
ENDROOT
BRANCH   1   2
ATOM      2  C   UNL     1       4.912  -1.535  -0.606  1.00  0.00     0.000 C 
BRANCH   2   3
ATOM      3  C   UNL     1       5.741  -1.648  -1.900  1.00  0.00     0.000 C 
BRANCH   3   4
ATOM      4  C   UNL     1       7.223  -1.240  -1.786  1.00  0.00     0.000 C 
BRANCH   4   5
ATOM      5  C   UNL     1       7.477   0.236  -1.421  1.00  0.00     0.000 C 
BRANCH   5   6
ATOM      6  C   UNL     1       8.159   0.411  -0.054  1.00  0.00     0.000 C 
BRANCH   6   7
ATOM      7  C   UNL     1       8.723  -0.907   0.506  1.00  0.00     0.000 C 
BRANCH   7   8
ATOM      8  C   UNL     1       8.367  -1.200   1.974  1.00  0.00     0.000 C 
BRANCH   8   9
ATOM      9  C   UNL     1       9.023  -2.483   2.504  1.00  0.00     0.000 C 
BRANCH   9  10
ATOM     10  C   UNL     1       7.970  -3.578   2.739  1.00  0.00     0.000 C 
BRANCH  10  11
ATOM     11  C   UNL     1       8.374  -4.939   2.145  1.00  0.00     0.000 C 
BRANCH  11  12
ATOM     12  C   UNL     1       8.701  -4.922   0.640  1.00  0.00     0.000 C 
BRANCH  12  13
ATOM     13  C   UNL     1       7.781  -5.838  -0.186  1.00  0.00     0.006 C 
BRANCH  13  14
ATOM     14  C   UNL     1       7.024  -5.069  -1.279  1.00  0.00     0.053 C 
BRANCH  14  15
ATOM     15  C   UNL     1       6.339  -5.995  -2.239  1.00  0.00     0.041 C 
ATOM     16  O   UNL     1       6.629  -5.963  -3.463  1.00  0.00    -0.550 OA
ATOM     17  O   UNL     1       5.360  -6.869  -1.786  1.00  0.00    -0.550 OA
ENDBRANCH  14  15
ENDBRANCH  13  14
ENDBRANCH  12  13
ENDBRANCH  11  12
ENDBRANCH  10  11
ENDBRANCH   9  10
ENDBRANCH   8   9
ENDBRANCH   7   8
ENDBRANCH   6   7
ENDBRANCH   5   6
ENDBRANCH   4   5
ENDBRANCH   3   4
ENDBRANCH   2   3
ENDBRANCH   1   2
BRANCH   1  18
ATOM     18  C   UNL     1       4.348  -3.354   1.119  1.00  0.00     0.000 C 
BRANCH  18  19
ATOM     19  C   UNL     1       3.624  -4.162   0.027  1.00  0.00     0.000 C 
BRANCH  19  20
ATOM     20  C   UNL     1       2.202  -4.620   0.397  1.00  0.00     0.000 C 
BRANCH  20  21
ATOM     21  C   UNL     1       1.903  -4.498   1.902  1.00  0.00     0.000 C 
BRANCH  21  22
ATOM     22  C   UNL     1       1.308  -5.784   2.496  1.00  0.00     0.000 C 
BRANCH  22  23
ATOM     23  C   UNL     1       0.702  -6.711   1.426  1.00  0.00     0.000 C 
BRANCH  23  24
ATOM     24  C   UNL     1       1.365  -8.108   1.395  1.00  0.00    -0.000 C 
BRANCH  24  25
ATOM     25  C   UNL     1       2.670  -8.201   2.210  1.00  0.00    -0.000 C 
BRANCH  25  26
ATOM     26  C   UNL     1       3.965  -8.152   1.377  1.00  0.00    -0.000 C 
BRANCH  26  27
ATOM     27  C   UNL     1       4.920  -7.003   1.779  1.00  0.00    -0.000 C 
BRANCH  27  28
ATOM     28  C   UNL     1       5.257  -7.013   3.277  1.00  0.00    -0.000 C 
BRANCH  28  29
ATOM     29  C   UNL     1       5.023  -5.632   3.906  1.00  0.00    -0.000 C 
BRANCH  29  30
ATOM     30  C   UNL     1       3.966  -5.664   5.022  1.00  0.00    -0.000 C 
BRANCH  30  31
ATOM     31  C   UNL     1       3.876  -7.030   5.720  1.00  0.00    -0.003 C 
ATOM     32  C   UNL     1       2.441  -7.548   5.733  1.00  0.00     0.004 C 
ENDBRANCH  30  31
ENDBRANCH  29  30
ENDBRANCH  28  29
ENDBRANCH  27  28
ENDBRANCH  26  27
ENDBRANCH  25  26
ENDBRANCH  24  25
ENDBRANCH  23  24
ENDBRANCH  22  23
ENDBRANCH  21  22
ENDBRANCH  20  21
ENDBRANCH  19  20
ENDBRANCH  18  19
ENDBRANCH   1  18
TORSDOF 28
ENDMDL
