MODEL 1
REMARK VINA RESULT:    -3.076      0.000      0.000
REMARK INTER + INTRA:          -3.446
REMARK INTER:                  -3.436
REMARK INTRA:                  -0.010
REMARK UNBOUND:                -0.010
REMARK SMILES CCCC(=O)[O-]
REMARK SMILES IDX 3 1 4 2 5 3 6 4 2 5 1 6
REMARK H PARENT
REMARK Flexibility Score: inf
ROOT
ATOM      1  C   UNL     1      -8.194 -22.763  47.284  1.00  0.00     0.052 C 
ENDROOT
BRANCH   1   2
ATOM      2  C   UNL     1      -6.870 -22.080  47.155  1.00  0.00     0.041 C 
ATOM      3  O   UNL     1      -5.804 -22.743  47.251  1.00  0.00    -0.550 OA
ATOM      4  O   UNL     1      -6.813 -20.720  46.881  1.00  0.00    -0.550 OA
ENDBRANCH   1   2
BRANCH   1   5
ATOM      5  C   UNL     1      -9.331 -21.737  47.250  1.00  0.00     0.003 C 
ATOM      6  C   UNL     1     -10.664 -22.380  47.625  1.00  0.00     0.004 C 
ENDBRANCH   1   5
TORSDOF 2
ENDMDL
MODEL 2
REMARK VINA RESULT:    -3.047      2.643      3.705
REMARK INTER + INTRA:          -3.414
REMARK INTER:                  -3.406
REMARK INTRA:                  -0.008
REMARK UNBOUND:                -0.010
REMARK SMILES CCCC(=O)[O-]
REMARK SMILES IDX 3 1 4 2 5 3 6 4 2 5 1 6
REMARK H PARENT
REMARK Flexibility Score: inf
ROOT
ATOM      1  C   UNL     1      -9.056 -21.363  47.245  1.00  0.00     0.052 C 
ENDROOT
BRANCH   1   2
ATOM      2  C   UNL     1     -10.037 -22.455  47.532  1.00  0.00     0.041 C 
ATOM      3  O   UNL     1     -11.168 -22.452  46.978  1.00  0.00    -0.550 OA
ATOM      4  O   UNL     1      -9.686 -23.501  48.374  1.00  0.00    -0.550 OA
ENDBRANCH   1   2
BRANCH   1   5
ATOM      5  C   UNL     1      -7.670 -21.950  46.960  1.00  0.00     0.003 C 
ATOM      6  C   UNL     1      -6.627 -20.847  46.804  1.00  0.00     0.004 C 
ENDBRANCH   1   5
TORSDOF 2
ENDMDL
MODEL 3
REMARK VINA RESULT:    -3.037     11.317     12.117
REMARK INTER + INTRA:          -3.402
REMARK INTER:                  -3.362
REMARK INTRA:                  -0.040
REMARK UNBOUND:                -0.010
REMARK SMILES CCCC(=O)[O-]
REMARK SMILES IDX 3 1 4 2 5 3 6 4 2 5 1 6
REMARK H PARENT
REMARK Flexibility Score: inf
ROOT
ATOM      1  C   UNL     1      -6.956 -34.403  46.329  1.00  0.00     0.052 C 
ENDROOT
BRANCH   1   2
ATOM      2  C   UNL     1      -6.225 -33.460  47.232  1.00  0.00     0.041 C 
ATOM      3  O   UNL     1      -5.055 -33.728  47.613  1.00  0.00    -0.550 OA
ATOM      4  O   UNL     1      -6.817 -32.263  47.613  1.00  0.00    -0.550 OA
ENDBRANCH   1   2
BRANCH   1   5
ATOM      5  C   UNL     1      -6.035 -34.893  45.208  1.00  0.00     0.003 C 
ATOM      6  C   UNL     1      -6.227 -34.069  43.938  1.00  0.00     0.004 C 
ENDBRANCH   1   5
TORSDOF 2
ENDMDL
MODEL 4
REMARK VINA RESULT:    -3.004     11.898     12.749
REMARK INTER + INTRA:          -3.365
REMARK INTER:                  -3.300
REMARK INTRA:                  -0.066
REMARK UNBOUND:                -0.010
REMARK SMILES CCCC(=O)[O-]
REMARK SMILES IDX 3 1 4 2 5 3 6 4 2 5 1 6
REMARK H PARENT
REMARK Flexibility Score: inf
ROOT
ATOM      1  C   UNL     1      -6.938 -34.708  46.034  1.00  0.00     0.052 C 
ENDROOT
BRANCH   1   2
ATOM      2  C   UNL     1      -6.169 -34.666  44.752  1.00  0.00     0.041 C 
ATOM      3  O   UNL     1      -6.295 -33.688  43.969  1.00  0.00    -0.550 OA
ATOM      4  O   UNL     1      -5.276 -35.684  44.444  1.00  0.00    -0.550 OA
ENDBRANCH   1   2
BRANCH   1   5
ATOM      5  C   UNL     1      -6.610 -33.486  46.896  1.00  0.00     0.003 C 
ATOM      6  C   UNL     1      -5.263 -33.649  47.593  1.00  0.00     0.004 C 
ENDBRANCH   1   5
TORSDOF 2
ENDMDL
MODEL 5
REMARK VINA RESULT:    -2.978     12.191     12.948
REMARK INTER + INTRA:          -3.337
REMARK INTER:                  -3.298
REMARK INTRA:                  -0.039
REMARK UNBOUND:                -0.010
REMARK SMILES CCCC(=O)[O-]
REMARK SMILES IDX 3 1 4 2 5 3 6 4 2 5 1 6
REMARK H PARENT
REMARK Flexibility Score: inf
ROOT
ATOM      1  C   UNL     1      -6.092 -34.253  45.002  1.00  0.00     0.052 C 
ENDROOT
BRANCH   1   2
ATOM      2  C   UNL     1      -4.771 -34.945  45.125  1.00  0.00     0.041 C 
ATOM      3  O   UNL     1      -4.608 -36.090  44.629  1.00  0.00    -0.550 OA
ATOM      4  O   UNL     1      -3.706 -34.304  45.743  1.00  0.00    -0.550 OA
ENDBRANCH   1   2
BRANCH   1   5
ATOM      5  C   UNL     1      -6.989 -34.595  46.196  1.00  0.00     0.003 C 
ATOM      6  C   UNL     1      -7.000 -33.462  47.219  1.00  0.00     0.004 C 
ENDBRANCH   1   5
TORSDOF 2
ENDMDL
MODEL 6
REMARK VINA RESULT:    -2.968      2.392      3.096
REMARK INTER + INTRA:          -3.325
REMARK INTER:                  -3.301
REMARK INTRA:                  -0.024
REMARK UNBOUND:                -0.010
REMARK SMILES CCCC(=O)[O-]
REMARK SMILES IDX 3 1 4 2 5 3 6 4 2 5 1 6
REMARK H PARENT
REMARK Flexibility Score: inf
ROOT
ATOM      1  C   UNL     1      -6.351 -23.015  48.149  1.00  0.00     0.052 C 
ENDROOT
BRANCH   1   2
ATOM      2  C   UNL     1      -5.133 -23.706  47.623  1.00  0.00     0.041 C 
ATOM      3  O   UNL     1      -4.169 -23.034  47.170  1.00  0.00    -0.550 OA
ATOM      4  O   UNL     1      -5.041 -25.091  47.679  1.00  0.00    -0.550 OA
ENDBRANCH   1   2
BRANCH   1   5
ATOM      5  C   UNL     1      -7.184 -22.448  46.996  1.00  0.00     0.003 C 
ATOM      6  C   UNL     1      -6.934 -20.953  46.820  1.00  0.00     0.004 C 
ENDBRANCH   1   5
TORSDOF 2
ENDMDL
MODEL 7
REMARK VINA RESULT:    -2.847      2.445      3.327
REMARK INTER + INTRA:          -3.190
REMARK INTER:                  -3.184
REMARK INTRA:                  -0.007
REMARK UNBOUND:                -0.010
REMARK SMILES CCCC(=O)[O-]
REMARK SMILES IDX 3 1 4 2 5 3 6 4 2 5 1 6
REMARK H PARENT
REMARK Flexibility Score: inf
ROOT
ATOM      1  C   UNL     1      -7.980 -22.814  47.110  1.00  0.00     0.052 C 
ENDROOT
BRANCH   1   2
ATOM      2  C   UNL     1      -7.995 -24.105  47.867  1.00  0.00     0.041 C 
ATOM      3  O   UNL     1      -9.028 -24.461  48.491  1.00  0.00    -0.550 OA
ATOM      4  O   UNL     1      -6.884 -24.938  47.842  1.00  0.00    -0.550 OA
ENDBRANCH   1   2
BRANCH   1   5
ATOM      5  C   UNL     1      -6.623 -22.120  47.262  1.00  0.00     0.003 C 
ATOM      6  C   UNL     1      -6.692 -20.669  46.793  1.00  0.00     0.004 C 
ENDBRANCH   1   5
TORSDOF 2
ENDMDL
MODEL 8
REMARK VINA RESULT:    -2.845     10.547     11.920
REMARK INTER + INTRA:          -3.187
REMARK INTER:                  -3.180
REMARK INTRA:                  -0.008
REMARK UNBOUND:                -0.010
REMARK SMILES CCCC(=O)[O-]
REMARK SMILES IDX 3 1 4 2 5 3 6 4 2 5 1 6
REMARK H PARENT
REMARK Flexibility Score: inf
ROOT
ATOM      1  C   UNL     1       4.031 -20.992  46.512  1.00  0.00     0.052 C 
ENDROOT
BRANCH   1   2
ATOM      2  C   UNL     1       2.574 -20.821  46.217  1.00  0.00     0.041 C 
ATOM      3  O   UNL     1       1.717 -21.501  46.841  1.00  0.00    -0.550 OA
ATOM      4  O   UNL     1       2.160 -19.875  45.289  1.00  0.00    -0.550 OA
ENDBRANCH   1   2
BRANCH   1   5
ATOM      5  C   UNL     1       4.420 -22.472  46.444  1.00  0.00     0.003 C 
ATOM      6  C   UNL     1       5.905 -22.664  46.738  1.00  0.00     0.004 C 
ENDBRANCH   1   5
TORSDOF 2
ENDMDL
MODEL 9
REMARK VINA RESULT:    -2.802     11.018     11.708
REMARK INTER + INTRA:          -3.139
REMARK INTER:                  -3.117
REMARK INTRA:                  -0.022
REMARK UNBOUND:                -0.010
REMARK SMILES CCCC(=O)[O-]
REMARK SMILES IDX 3 1 4 2 5 3 6 4 2 5 1 6
REMARK H PARENT
REMARK Flexibility Score: inf
ROOT
ATOM      1  C   UNL     1       3.840 -20.943  46.974  1.00  0.00     0.052 C 
ENDROOT
BRANCH   1   2
ATOM      2  C   UNL     1       4.127 -22.410  47.033  1.00  0.00     0.041 C 
ATOM      3  O   UNL     1       4.806 -22.959  46.126  1.00  0.00    -0.550 OA
ATOM      4  O   UNL     1       3.685 -23.162  48.113  1.00  0.00    -0.550 OA
ENDBRANCH   1   2
BRANCH   1   5
ATOM      5  C   UNL     1       2.404 -20.696  46.503  1.00  0.00     0.003 C 
ATOM      6  C   UNL     1       2.382 -19.908  45.196  1.00  0.00     0.004 C 
ENDBRANCH   1   5
TORSDOF 2
ENDMDL
