MODEL 1
REMARK VINA RESULT:     3.255      0.000      0.000
REMARK INTER + INTRA:           4.908
REMARK INTER:                   5.920
REMARK INTRA:                  -1.012
REMARK UNBOUND:                -1.012
REMARK SMILES CCCCCCCCCCCCCC[C@@H](C)C(=O)[O-]
REMARK SMILES IDX 9 1 10 2 11 3 12 4 13 5 14 6 15 7 16 8 17 9 18 10 19 11 8 12
REMARK SMILES IDX 7 13 6 14 5 15 4 16 3 17 2 18 1 19
REMARK H PARENT
REMARK Flexibility Score: inf
ROOT
ATOM      1  C   UNL     1      20.307   0.931  26.139  1.00  0.00     0.000 C 
ENDROOT
BRANCH   1   2
ATOM      2  C   UNL     1      19.499   1.589  25.006  1.00  0.00     0.000 C 
BRANCH   2   3
ATOM      3  C   UNL     1      17.983   1.404  25.176  1.00  0.00     0.000 C 
BRANCH   3   4
ATOM      4  C   UNL     1      17.195   2.688  24.878  1.00  0.00     0.000 C 
BRANCH   4   5
ATOM      5  C   UNL     1      16.308   3.075  26.067  1.00  0.00     0.001 C 
BRANCH   5   6
ATOM      6  C   UNL     1      14.975   3.673  25.589  1.00  0.00     0.009 C 
BRANCH   6   7
ATOM      7  C   UNL     1      14.214   2.719  24.644  1.00  0.00     0.032 C 
ATOM      8  C   UNL     1      13.038   2.063  25.374  1.00  0.00     0.014 C 
BRANCH   7   9
ATOM      9  C   UNL     1      13.714   3.444  23.424  1.00  0.00     0.044 C 
ATOM     10  O   UNL     1      13.774   2.894  22.293  1.00  0.00    -0.550 OA
ATOM     11  O   UNL     1      13.179   4.722  23.535  1.00  0.00    -0.550 OA
ENDBRANCH   7   9
ENDBRANCH   6   7
ENDBRANCH   5   6
ENDBRANCH   4   5
ENDBRANCH   3   4
ENDBRANCH   2   3
ENDBRANCH   1   2
BRANCH   1  12
ATOM     12  C   UNL     1      19.487   0.762  27.429  1.00  0.00     0.000 C 
BRANCH  12  13
ATOM     13  C   UNL     1      19.102   2.106  28.064  1.00  0.00    -0.000 C 
BRANCH  13  14
ATOM     14  C   UNL     1      19.481   2.138  29.552  1.00  0.00    -0.000 C 
BRANCH  14  15
ATOM     15  C   UNL     1      19.485   3.561  30.134  1.00  0.00    -0.000 C 
BRANCH  15  16
ATOM     16  C   UNL     1      18.552   3.705  31.350  1.00  0.00    -0.000 C 
BRANCH  16  17
ATOM     17  C   UNL     1      17.282   4.515  31.035  1.00  0.00    -0.000 C 
BRANCH  17  18
ATOM     18  C   UNL     1      16.916   4.600  29.542  1.00  0.00    -0.003 C 
ATOM     19  C   UNL     1      15.483   5.075  29.302  1.00  0.00     0.004 C 
ENDBRANCH  17  18
ENDBRANCH  16  17
ENDBRANCH  15  16
ENDBRANCH  14  15
ENDBRANCH  13  14
ENDBRANCH  12  13
ENDBRANCH   1  12
TORSDOF 14
ENDMDL
MODEL 2
REMARK VINA RESULT:     3.543      2.757      6.400
REMARK INTER + INTRA:           5.431
REMARK INTER:                   6.845
REMARK INTRA:                  -1.415
REMARK UNBOUND:                -1.012
REMARK SMILES CCCCCCCCCCCCCC[C@@H](C)C(=O)[O-]
REMARK SMILES IDX 9 1 10 2 11 3 12 4 13 5 14 6 15 7 16 8 17 9 18 10 19 11 8 12
REMARK SMILES IDX 7 13 6 14 5 15 4 16 3 17 2 18 1 19
REMARK H PARENT
REMARK Flexibility Score: inf
ROOT
ATOM      1  C   UNL     1      18.021   1.148  24.974  1.00  0.00     0.000 C 
ENDROOT
BRANCH   1   2
ATOM      2  C   UNL     1      19.549   1.303  24.878  1.00  0.00     0.000 C 
BRANCH   2   3
ATOM      3  C   UNL     1      20.244   1.158  26.242  1.00  0.00     0.000 C 
BRANCH   3   4
ATOM      4  C   UNL     1      19.266   0.792  27.367  1.00  0.00     0.000 C 
BRANCH   4   5
ATOM      5  C   UNL     1      19.619   1.531  28.663  1.00  0.00     0.001 C 
BRANCH   5   6
ATOM      6  C   UNL     1      18.784   2.812  28.813  1.00  0.00     0.009 C 
BRANCH   6   7
ATOM      7  C   UNL     1      18.727   3.302  30.276  1.00  0.00     0.032 C 
ATOM      8  C   UNL     1      20.008   4.057  30.642  1.00  0.00     0.014 C 
BRANCH   7   9
ATOM      9  C   UNL     1      17.532   4.186  30.508  1.00  0.00     0.044 C 
ATOM     10  O   UNL     1      17.262   4.592  31.669  1.00  0.00    -0.550 OA
ATOM     11  O   UNL     1      16.720   4.566  29.446  1.00  0.00    -0.550 OA
ENDBRANCH   7   9
ENDBRANCH   6   7
ENDBRANCH   5   6
ENDBRANCH   4   5
ENDBRANCH   3   4
ENDBRANCH   2   3
ENDBRANCH   1   2
BRANCH   1  12
ATOM     12  C   UNL     1      17.275   2.464  24.705  1.00  0.00     0.000 C 
BRANCH  12  13
ATOM     13  C   UNL     1      16.730   3.107  25.990  1.00  0.00    -0.000 C 
BRANCH  13  14
ATOM     14  C   UNL     1      15.283   3.583  25.793  1.00  0.00    -0.000 C 
BRANCH  14  15
ATOM     15  C   UNL     1      14.266   2.431  25.845  1.00  0.00    -0.000 C 
BRANCH  15  16
ATOM     16  C   UNL     1      13.317   2.426  24.633  1.00  0.00    -0.000 C 
BRANCH  16  17
ATOM     17  C   UNL     1      13.876   3.211  23.433  1.00  0.00    -0.000 C 
BRANCH  17  18
ATOM     18  C   UNL     1      12.896   4.215  22.799  1.00  0.00    -0.003 C 
ATOM     19  C   UNL     1      13.179   5.663  23.200  1.00  0.00     0.004 C 
ENDBRANCH  17  18
ENDBRANCH  16  17
ENDBRANCH  15  16
ENDBRANCH  14  15
ENDBRANCH  13  14
ENDBRANCH  12  13
ENDBRANCH   1  12
TORSDOF 14
ENDMDL
MODEL 3
REMARK VINA RESULT:     3.616      3.279      6.493
REMARK INTER + INTRA:           5.564
REMARK INTER:                   6.447
REMARK INTRA:                  -0.883
REMARK UNBOUND:                -1.012
REMARK SMILES CCCCCCCCCCCCCC[C@@H](C)C(=O)[O-]
REMARK SMILES IDX 9 1 10 2 11 3 12 4 13 5 14 6 15 7 16 8 17 9 18 10 19 11 8 12
REMARK SMILES IDX 7 13 6 14 5 15 4 16 3 17 2 18 1 19
REMARK H PARENT
REMARK Flexibility Score: inf
ROOT
ATOM      1  C   UNL     1      18.369   1.163  24.705  1.00  0.00     0.000 C 
ENDROOT
BRANCH   1   2
ATOM      2  C   UNL     1      19.560   1.993  25.215  1.00  0.00     0.000 C 
BRANCH   2   3
ATOM      3  C   UNL     1      20.719   1.116  25.717  1.00  0.00     0.000 C 
BRANCH   3   4
ATOM      4  C   UNL     1      20.431   0.485  27.087  1.00  0.00     0.000 C 
BRANCH   4   5
ATOM      5  C   UNL     1      19.218   1.147  27.752  1.00  0.00     0.001 C 
BRANCH   5   6
ATOM      6  C   UNL     1      19.587   1.712  29.133  1.00  0.00     0.009 C 
BRANCH   6   7
ATOM      7  C   UNL     1      19.214   3.203  29.270  1.00  0.00     0.032 C 
ATOM      8  C   UNL     1      18.037   3.550  28.353  1.00  0.00     0.014 C 
BRANCH   7   9
ATOM      9  C   UNL     1      18.870   3.551  30.693  1.00  0.00     0.044 C 
ATOM     10  O   UNL     1      19.652   3.236  31.628  1.00  0.00    -0.550 OA
ATOM     11  O   UNL     1      17.690   4.225  30.986  1.00  0.00    -0.550 OA
ENDBRANCH   7   9
ENDBRANCH   6   7
ENDBRANCH   5   6
ENDBRANCH   4   5
ENDBRANCH   3   4
ENDBRANCH   2   3
ENDBRANCH   1   2
BRANCH   1  12
ATOM     12  C   UNL     1      17.035   1.591  25.338  1.00  0.00     0.000 C 
BRANCH  12  13
ATOM     13  C   UNL     1      16.881   3.117  25.415  1.00  0.00    -0.000 C 
BRANCH  13  14
ATOM     14  C   UNL     1      15.446   3.504  25.803  1.00  0.00    -0.000 C 
BRANCH  14  15
ATOM     15  C   UNL     1      14.467   2.322  25.712  1.00  0.00    -0.000 C 
BRANCH  15  16
ATOM     16  C   UNL     1      13.338   2.567  24.696  1.00  0.00    -0.000 C 
BRANCH  16  17
ATOM     17  C   UNL     1      13.844   3.172  23.374  1.00  0.00    -0.000 C 
BRANCH  17  18
ATOM     18  C   UNL     1      12.894   4.189  22.718  1.00  0.00    -0.003 C 
ATOM     19  C   UNL     1      13.164   5.629  23.153  1.00  0.00     0.004 C 
ENDBRANCH  17  18
ENDBRANCH  16  17
ENDBRANCH  15  16
ENDBRANCH  14  15
ENDBRANCH  13  14
ENDBRANCH  12  13
ENDBRANCH   1  12
TORSDOF 14
ENDMDL
MODEL 4
REMARK VINA RESULT:     3.680      0.639      1.444
REMARK INTER + INTRA:           5.681
REMARK INTER:                   6.383
REMARK INTRA:                  -0.702
REMARK UNBOUND:                -1.012
REMARK SMILES CCCCCCCCCCCCCC[C@@H](C)C(=O)[O-]
REMARK SMILES IDX 9 1 10 2 11 3 12 4 13 5 14 6 15 7 16 8 17 9 18 10 19 11 8 12
REMARK SMILES IDX 7 13 6 14 5 15 4 16 3 17 2 18 1 19
REMARK H PARENT
REMARK Flexibility Score: inf
ROOT
ATOM      1  C   UNL     1      19.762   1.879  25.077  1.00  0.00     0.000 C 
ENDROOT
BRANCH   1   2
ATOM      2  C   UNL     1      18.659   0.875  24.695  1.00  0.00     0.000 C 
BRANCH   2   3
ATOM      3  C   UNL     1      17.251   1.382  25.046  1.00  0.00     0.000 C 
BRANCH   3   4
ATOM      4  C   UNL     1      17.219   2.892  25.322  1.00  0.00     0.000 C 
BRANCH   4   5
ATOM      5  C   UNL     1      16.040   3.258  26.232  1.00  0.00     0.001 C 
BRANCH   5   6
ATOM      6  C   UNL     1      14.886   3.868  25.420  1.00  0.00     0.009 C 
BRANCH   6   7
ATOM      7  C   UNL     1      14.166   2.816  24.551  1.00  0.00     0.032 C 
ATOM      8  C   UNL     1      13.066   2.115  25.354  1.00  0.00     0.014 C 
BRANCH   7   9
ATOM      9  C   UNL     1      13.573   3.441  23.317  1.00  0.00     0.044 C 
ATOM     10  O   UNL     1      13.462   2.768  22.259  1.00  0.00    -0.550 OA
ATOM     11  O   UNL     1      13.140   4.762  23.336  1.00  0.00    -0.550 OA
ENDBRANCH   7   9
ENDBRANCH   6   7
ENDBRANCH   5   6
ENDBRANCH   4   5
ENDBRANCH   3   4
ENDBRANCH   2   3
ENDBRANCH   1   2
BRANCH   1  12
ATOM     12  C   UNL     1      20.997   1.198  25.687  1.00  0.00     0.000 C 
BRANCH  12  13
ATOM     13  C   UNL     1      20.742   0.677  27.110  1.00  0.00    -0.000 C 
BRANCH  13  14
ATOM     14  C   UNL     1      19.382   1.162  27.635  1.00  0.00    -0.000 C 
BRANCH  14  15
ATOM     15  C   UNL     1      19.446   1.641  29.095  1.00  0.00    -0.000 C 
BRANCH  15  16
ATOM     16  C   UNL     1      19.095   3.132  29.243  1.00  0.00    -0.000 C 
BRANCH  16  17
ATOM     17  C   UNL     1      18.972   3.573  30.713  1.00  0.00    -0.000 C 
BRANCH  17  18
ATOM     18  C   UNL     1      17.655   4.285  31.071  1.00  0.00    -0.003 C 
ATOM     19  C   UNL     1      16.855   4.717  29.843  1.00  0.00     0.004 C 
ENDBRANCH  17  18
ENDBRANCH  16  17
ENDBRANCH  15  16
ENDBRANCH  14  15
ENDBRANCH  13  14
ENDBRANCH  12  13
ENDBRANCH   1  12
TORSDOF 14
ENDMDL
MODEL 5
REMARK VINA RESULT:     3.905      2.808      6.347
REMARK INTER + INTRA:           6.089
REMARK INTER:                   7.286
REMARK INTRA:                  -1.197
REMARK UNBOUND:                -1.012
REMARK SMILES CCCCCCCCCCCCCC[C@@H](C)C(=O)[O-]
REMARK SMILES IDX 9 1 10 2 11 3 12 4 13 5 14 6 15 7 16 8 17 9 18 10 19 11 8 12
REMARK SMILES IDX 7 13 6 14 5 15 4 16 3 17 2 18 1 19
REMARK H PARENT
REMARK Flexibility Score: inf
ROOT
ATOM      1  C   UNL     1      17.177   5.091  30.089  1.00  0.00     0.000 C 
ENDROOT
BRANCH   1   2
ATOM      2  C   UNL     1      17.942   3.852  30.587  1.00  0.00     0.000 C 
BRANCH   2   3
ATOM      3  C   UNL     1      19.122   3.479  29.675  1.00  0.00     0.000 C 
BRANCH   3   4
ATOM      4  C   UNL     1      19.617   2.044  29.908  1.00  0.00     0.000 C 
BRANCH   4   5
ATOM      5  C   UNL     1      19.512   1.213  28.623  1.00  0.00     0.001 C 
BRANCH   5   6
ATOM      6  C   UNL     1      18.902   2.040  27.480  1.00  0.00     0.009 C 
BRANCH   6   7
ATOM      7  C   UNL     1      19.023   1.326  26.117  1.00  0.00     0.032 C 
ATOM      8  C   UNL     1      18.177   2.040  25.058  1.00  0.00     0.014 C 
BRANCH   7   9
ATOM      9  C   UNL     1      20.455   1.258  25.661  1.00  0.00     0.044 C 
ATOM     10  O   UNL     1      21.061   2.307  25.321  1.00  0.00    -0.550 OA
ATOM     11  O   UNL     1      21.122   0.038  25.617  1.00  0.00    -0.550 OA
ENDBRANCH   7   9
ENDBRANCH   6   7
ENDBRANCH   5   6
ENDBRANCH   4   5
ENDBRANCH   3   4
ENDBRANCH   2   3
ENDBRANCH   1   2
BRANCH   1  12
ATOM     12  C   UNL     1      15.806   4.739  29.489  1.00  0.00     0.000 C 
BRANCH  12  13
ATOM     13  C   UNL     1      15.719   5.056  27.989  1.00  0.00    -0.000 C 
BRANCH  13  14
ATOM     14  C   UNL     1      16.002   3.803  27.146  1.00  0.00    -0.000 C 
BRANCH  14  15
ATOM     15  C   UNL     1      15.317   3.845  25.771  1.00  0.00    -0.000 C 
BRANCH  15  16
ATOM     16  C   UNL     1      14.603   2.525  25.426  1.00  0.00    -0.000 C 
BRANCH  16  17
ATOM     17  C   UNL     1      13.326   2.736  24.593  1.00  0.00    -0.000 C 
BRANCH  17  18
ATOM     18  C   UNL     1      13.560   3.255  23.163  1.00  0.00    -0.003 C 
ATOM     19  C   UNL     1      13.025   4.671  22.945  1.00  0.00     0.004 C 
ENDBRANCH  17  18
ENDBRANCH  16  17
ENDBRANCH  15  16
ENDBRANCH  14  15
ENDBRANCH  13  14
ENDBRANCH  12  13
ENDBRANCH   1  12
TORSDOF 14
ENDMDL
MODEL 6
REMARK VINA RESULT:     4.092      1.791      6.037
REMARK INTER + INTRA:           6.429
REMARK INTER:                   7.452
REMARK INTRA:                  -1.023
REMARK UNBOUND:                -1.012
REMARK SMILES CCCCCCCCCCCCCC[C@@H](C)C(=O)[O-]
REMARK SMILES IDX 9 1 10 2 11 3 12 4 13 5 14 6 15 7 16 8 17 9 18 10 19 11 8 12
REMARK SMILES IDX 7 13 6 14 5 15 4 16 3 17 2 18 1 19
REMARK H PARENT
REMARK Flexibility Score: inf
ROOT
ATOM      1  C   UNL     1      17.273   5.015  29.985  1.00  0.00     0.000 C 
ENDROOT
BRANCH   1   2
ATOM      2  C   UNL     1      17.733   3.881  30.918  1.00  0.00     0.000 C 
BRANCH   2   3
ATOM      3  C   UNL     1      19.231   3.569  30.775  1.00  0.00     0.000 C 
BRANCH   3   4
ATOM      4  C   UNL     1      19.499   2.370  29.853  1.00  0.00     0.000 C 
BRANCH   4   5
ATOM      5  C   UNL     1      19.145   2.706  28.399  1.00  0.00     0.001 C 
BRANCH   5   6
ATOM      6  C   UNL     1      19.125   1.439  27.530  1.00  0.00     0.009 C 
BRANCH   6   7
ATOM      7  C   UNL     1      19.336   1.756  26.034  1.00  0.00     0.032 C 
ATOM      8  C   UNL     1      20.416   0.847  25.438  1.00  0.00     0.014 C 
BRANCH   7   9
ATOM      9  C   UNL     1      18.056   1.602  25.257  1.00  0.00     0.044 C 
ATOM     10  O   UNL     1      17.722   2.471  24.411  1.00  0.00    -0.550 OA
ATOM     11  O   UNL     1      17.237   0.498  25.464  1.00  0.00    -0.550 OA
ENDBRANCH   7   9
ENDBRANCH   6   7
ENDBRANCH   5   6
ENDBRANCH   4   5
ENDBRANCH   3   4
ENDBRANCH   2   3
ENDBRANCH   1   2
BRANCH   1  12
ATOM     12  C   UNL     1      15.915   4.727  29.327  1.00  0.00     0.000 C 
BRANCH  12  13
ATOM     13  C   UNL     1      15.912   5.029  27.821  1.00  0.00    -0.000 C 
BRANCH  13  14
ATOM     14  C   UNL     1      15.923   3.729  27.002  1.00  0.00    -0.000 C 
BRANCH  14  15
ATOM     15  C   UNL     1      15.054   3.818  25.736  1.00  0.00    -0.000 C 
BRANCH  15  16
ATOM     16  C   UNL     1      14.393   2.475  25.379  1.00  0.00    -0.000 C 
BRANCH  16  17
ATOM     17  C   UNL     1      13.265   2.621  24.341  1.00  0.00    -0.000 C 
BRANCH  17  18
ATOM     18  C   UNL     1      13.658   3.365  23.052  1.00  0.00    -0.003 C 
ATOM     19  C   UNL     1      12.974   4.725  22.913  1.00  0.00     0.004 C 
ENDBRANCH  17  18
ENDBRANCH  16  17
ENDBRANCH  15  16
ENDBRANCH  14  15
ENDBRANCH  13  14
ENDBRANCH  12  13
ENDBRANCH   1  12
TORSDOF 14
ENDMDL
MODEL 7
REMARK VINA RESULT:     5.538      0.817      4.106
REMARK INTER + INTRA:           9.059
REMARK INTER:                  10.445
REMARK INTRA:                  -1.386
REMARK UNBOUND:                -1.012
REMARK SMILES CCCCCCCCCCCCCC[C@@H](C)C(=O)[O-]
REMARK SMILES IDX 9 1 10 2 11 3 12 4 13 5 14 6 15 7 16 8 17 9 18 10 19 11 8 12
REMARK SMILES IDX 7 13 6 14 5 15 4 16 3 17 2 18 1 19
REMARK H PARENT
REMARK Flexibility Score: inf
ROOT
ATOM      1  C   UNL     1      17.103   4.579  30.781  1.00  0.00     0.000 C 
ENDROOT
BRANCH   1   2
ATOM      2  C   UNL     1      16.948   5.171  29.369  1.00  0.00     0.000 C 
BRANCH   2   3
ATOM      3  C   UNL     1      15.711   4.630  28.634  1.00  0.00     0.000 C 
BRANCH   3   4
ATOM      4  C   UNL     1      15.962   4.419  27.133  1.00  0.00     0.000 C 
BRANCH   4   5
ATOM      5  C   UNL     1      15.152   3.229  26.604  1.00  0.00     0.001 C 
BRANCH   5   6
ATOM      6  C   UNL     1      15.322   3.080  25.084  1.00  0.00     0.009 C 
BRANCH   6   7
ATOM      7  C   UNL     1      14.061   2.498  24.412  1.00  0.00     0.032 C 
ATOM      8  C   UNL     1      12.935   2.325  25.437  1.00  0.00     0.014 C 
BRANCH   7   9
ATOM      9  C   UNL     1      13.589   3.376  23.284  1.00  0.00     0.044 C 
ATOM     10  O   UNL     1      13.514   2.916  22.114  1.00  0.00    -0.550 OA
ATOM     11  O   UNL     1      13.229   4.696  23.524  1.00  0.00    -0.550 OA
ENDBRANCH   7   9
ENDBRANCH   6   7
ENDBRANCH   5   6
ENDBRANCH   4   5
ENDBRANCH   3   4
ENDBRANCH   2   3
ENDBRANCH   1   2
BRANCH   1  12
ATOM     12  C   UNL     1      18.422   3.810  30.958  1.00  0.00     0.000 C 
BRANCH  12  13
ATOM     13  C   UNL     1      19.099   3.483  29.619  1.00  0.00    -0.000 C 
BRANCH  13  14
ATOM     14  C   UNL     1      19.496   2.001  29.553  1.00  0.00    -0.000 C 
BRANCH  14  15
ATOM     15  C   UNL     1      19.119   1.344  28.214  1.00  0.00    -0.000 C 
BRANCH  15  16
ATOM     16  C   UNL     1      18.949   2.370  27.080  1.00  0.00    -0.000 C 
BRANCH  16  17
ATOM     17  C   UNL     1      18.750   1.711  25.703  1.00  0.00    -0.000 C 
BRANCH  17  18
ATOM     18  C   UNL     1      19.905   0.803  25.242  1.00  0.00    -0.003 C 
ATOM     19  C   UNL     1      21.272   1.274  25.741  1.00  0.00     0.004 C 
ENDBRANCH  17  18
ENDBRANCH  16  17
ENDBRANCH  15  16
ENDBRANCH  14  15
ENDBRANCH  13  14
ENDBRANCH  12  13
ENDBRANCH   1  12
TORSDOF 14
ENDMDL
MODEL 8
REMARK VINA RESULT:     5.892      0.880      4.355
REMARK INTER + INTRA:           9.703
REMARK INTER:                  11.257
REMARK INTRA:                  -1.554
REMARK UNBOUND:                -1.012
REMARK SMILES CCCCCCCCCCCCCC[C@@H](C)C(=O)[O-]
REMARK SMILES IDX 9 1 10 2 11 3 12 4 13 5 14 6 15 7 16 8 17 9 18 10 19 11 8 12
REMARK SMILES IDX 7 13 6 14 5 15 4 16 3 17 2 18 1 19
REMARK H PARENT
REMARK Flexibility Score: inf
ROOT
ATOM      1  C   UNL     1      17.798   3.894  30.553  1.00  0.00     0.000 C 
ENDROOT
BRANCH   1   2
ATOM      2  C   UNL     1      16.997   5.043  29.915  1.00  0.00     0.000 C 
BRANCH   2   3
ATOM      3  C   UNL     1      15.775   4.545  29.127  1.00  0.00     0.000 C 
BRANCH   3   4
ATOM      4  C   UNL     1      16.015   4.536  27.610  1.00  0.00     0.000 C 
BRANCH   4   5
ATOM      5  C   UNL     1      15.185   3.439  26.931  1.00  0.00     0.001 C 
BRANCH   5   6
ATOM      6  C   UNL     1      15.390   3.457  25.407  1.00  0.00     0.009 C 
BRANCH   6   7
ATOM      7  C   UNL     1      14.295   2.664  24.664  1.00  0.00     0.032 C 
ATOM      8  C   UNL     1      13.174   2.260  25.627  1.00  0.00     0.014 C 
BRANCH   7   9
ATOM      9  C   UNL     1      13.721   3.462  23.524  1.00  0.00     0.044 C 
ATOM     10  O   UNL     1      12.998   4.465  23.756  1.00  0.00    -0.550 OA
ATOM     11  O   UNL     1      13.989   3.101  22.208  1.00  0.00    -0.550 OA
ENDBRANCH   7   9
ENDBRANCH   6   7
ENDBRANCH   5   6
ENDBRANCH   4   5
ENDBRANCH   3   4
ENDBRANCH   2   3
ENDBRANCH   1   2
BRANCH   1  12
ATOM     12  C   UNL     1      19.125   3.622  29.827  1.00  0.00     0.000 C 
BRANCH  12  13
ATOM     13  C   UNL     1      19.559   2.152  29.920  1.00  0.00    -0.000 C 
BRANCH  13  14
ATOM     14  C   UNL     1      19.194   1.391  28.636  1.00  0.00    -0.000 C 
BRANCH  14  15
ATOM     15  C   UNL     1      19.107   2.310  27.406  1.00  0.00    -0.000 C 
BRANCH  15  16
ATOM     16  C   UNL     1      18.505   1.600  26.180  1.00  0.00    -0.000 C 
BRANCH  16  17
ATOM     17  C   UNL     1      19.571   1.168  25.157  1.00  0.00    -0.000 C 
BRANCH  17  18
ATOM     18  C   UNL     1      21.026   1.447  25.575  1.00  0.00    -0.003 C 
ATOM     19  C   UNL     1      21.793   0.180  25.953  1.00  0.00     0.004 C 
ENDBRANCH  17  18
ENDBRANCH  16  17
ENDBRANCH  15  16
ENDBRANCH  14  15
ENDBRANCH  13  14
ENDBRANCH  12  13
ENDBRANCH   1  12
TORSDOF 14
ENDMDL
