MODEL 1
REMARK VINA RESULT:    -4.792      0.000      0.000
REMARK INTER + INTRA:         -16.540
REMARK INTER:                 -12.075
REMARK INTRA:                  -4.465
REMARK UNBOUND:                -4.465
REMARK SMILES CCCCCCCCCCCCCCCCCCCCCCCCCCCC(=O)[O-]
REMARK SMILES IDX 15 1 16 2 17 3 18 4 19 5 20 6 21 7 22 8 23 9 24 10 25 11
REMARK SMILES IDX 26 12 27 13 28 14 29 15 30 16 14 17 13 18 12 19 11 20 10 21
REMARK SMILES IDX 9 22 8 23 7 24 6 25 5 26 4 27 3 28 2 29 1 30
REMARK H PARENT
REMARK Flexibility Score: inf
ROOT
ATOM      1  C   UNL     1      52.559   5.786  18.469  1.00  0.00     0.000 C 
ENDROOT
BRANCH   1   2
ATOM      2  C   UNL     1      51.905   4.448  18.829  1.00  0.00     0.000 C 
BRANCH   2   3
ATOM      3  C   UNL     1      52.922   3.489  19.470  1.00  0.00     0.000 C 
BRANCH   3   4
ATOM      4  C   UNL     1      52.610   2.011  19.179  1.00  0.00     0.000 C 
BRANCH   4   5
ATOM      5  C   UNL     1      52.752   1.119  20.424  1.00  0.00     0.000 C 
BRANCH   5   6
ATOM      6  C   UNL     1      51.973   1.671  21.630  1.00  0.00     0.000 C 
BRANCH   6   7
ATOM      7  C   UNL     1      50.449   1.650  21.411  1.00  0.00     0.000 C 
BRANCH   7   8
ATOM      8  C   UNL     1      49.812   3.034  21.649  1.00  0.00     0.000 C 
BRANCH   8   9
ATOM      9  C   UNL     1      49.884   3.496  23.121  1.00  0.00     0.000 C 
BRANCH   9  10
ATOM     10  C   UNL     1      48.510   3.760  23.765  1.00  0.00     0.000 C 
BRANCH  10  11
ATOM     11  C   UNL     1      47.358   3.060  23.015  1.00  0.00     0.000 C 
BRANCH  11  12
ATOM     12  C   UNL     1      46.303   4.052  22.477  1.00  0.00     0.006 C 
BRANCH  12  13
ATOM     13  C   UNL     1      46.210   4.057  20.941  1.00  0.00     0.053 C 
BRANCH  13  14
ATOM     14  C   UNL     1      45.917   2.698  20.386  1.00  0.00     0.041 C 
ATOM     15  O   UNL     1      44.773   2.193  20.521  1.00  0.00    -0.550 OA
ATOM     16  O   UNL     1      46.897   2.005  19.685  1.00  0.00    -0.550 OA
ENDBRANCH  13  14
ENDBRANCH  12  13
ENDBRANCH  11  12
ENDBRANCH  10  11
ENDBRANCH   9  10
ENDBRANCH   8   9
ENDBRANCH   7   8
ENDBRANCH   6   7
ENDBRANCH   5   6
ENDBRANCH   4   5
ENDBRANCH   3   4
ENDBRANCH   2   3
ENDBRANCH   1   2
BRANCH   1  17
ATOM     17  C   UNL     1      51.502   6.878  18.251  1.00  0.00     0.000 C 
BRANCH  17  18
ATOM     18  C   UNL     1      51.511   7.884  19.409  1.00  0.00     0.000 C 
BRANCH  18  19
ATOM     19  C   UNL     1      50.771   9.192  19.081  1.00  0.00     0.000 C 
BRANCH  19  20
ATOM     20  C   UNL     1      49.283   9.032  18.721  1.00  0.00     0.000 C 
BRANCH  20  21
ATOM     21  C   UNL     1      48.291   9.401  19.838  1.00  0.00     0.000 C 
BRANCH  21  22
ATOM     22  C   UNL     1      47.209   8.329  20.099  1.00  0.00    -0.000 C 
BRANCH  22  23
ATOM     23  C   UNL     1      47.449   7.561  21.412  1.00  0.00    -0.000 C 
BRANCH  23  24
ATOM     24  C   UNL     1      48.667   6.620  21.345  1.00  0.00    -0.000 C 
BRANCH  24  25
ATOM     25  C   UNL     1      49.792   6.943  22.345  1.00  0.00    -0.000 C 
BRANCH  25  26
ATOM     26  C   UNL     1      49.615   8.262  23.123  1.00  0.00    -0.000 C 
BRANCH  26  27
ATOM     27  C   UNL     1      50.273   8.254  24.522  1.00  0.00    -0.000 C 
BRANCH  27  28
ATOM     28  C   UNL     1      49.623   7.228  25.464  1.00  0.00    -0.000 C 
BRANCH  28  29
ATOM     29  C   UNL     1      50.633   6.226  26.044  1.00  0.00    -0.003 C 
ATOM     30  C   UNL     1      49.993   5.207  26.984  1.00  0.00     0.004 C 
ENDBRANCH  28  29
ENDBRANCH  27  28
ENDBRANCH  26  27
ENDBRANCH  25  26
ENDBRANCH  24  25
ENDBRANCH  23  24
ENDBRANCH  22  23
ENDBRANCH  21  22
ENDBRANCH  20  21
ENDBRANCH  19  20
ENDBRANCH  18  19
ENDBRANCH  17  18
ENDBRANCH   1  17
TORSDOF 26
ENDMDL
MODEL 2
REMARK VINA RESULT:    -4.532      2.547      7.328
REMARK INTER + INTRA:         -15.886
REMARK INTER:                 -10.681
REMARK INTRA:                  -5.204
REMARK UNBOUND:                -4.465
REMARK SMILES CCCCCCCCCCCCCCCCCCCCCCCCCCCC(=O)[O-]
REMARK SMILES IDX 15 1 16 2 17 3 18 4 19 5 20 6 21 7 22 8 23 9 24 10 25 11
REMARK SMILES IDX 26 12 27 13 28 14 29 15 30 16 14 17 13 18 12 19 11 20 10 21
REMARK SMILES IDX 9 22 8 23 7 24 6 25 5 26 4 27 3 28 2 29 1 30
REMARK H PARENT
REMARK Flexibility Score: inf
ROOT
ATOM      1  C   UNL     1      50.464   7.147  24.390  1.00  0.00     0.000 C 
ENDROOT
BRANCH   1   2
ATOM      2  C   UNL     1      50.241   8.626  24.721  1.00  0.00     0.000 C 
BRANCH   2   3
ATOM      3  C   UNL     1      49.157   9.238  23.817  1.00  0.00     0.000 C 
BRANCH   3   4
ATOM      4  C   UNL     1      47.834   9.488  24.561  1.00  0.00     0.000 C 
BRANCH   4   5
ATOM      5  C   UNL     1      46.673   8.647  24.002  1.00  0.00     0.000 C 
BRANCH   5   6
ATOM      6  C   UNL     1      46.439   7.362  24.812  1.00  0.00     0.000 C 
BRANCH   6   7
ATOM      7  C   UNL     1      47.134   6.135  24.192  1.00  0.00     0.000 C 
BRANCH   7   8
ATOM      8  C   UNL     1      46.544   5.772  22.815  1.00  0.00     0.000 C 
BRANCH   8   9
ATOM      9  C   UNL     1      47.618   5.559  21.725  1.00  0.00     0.000 C 
BRANCH   9  10
ATOM     10  C   UNL     1      48.115   6.861  21.070  1.00  0.00     0.000 C 
BRANCH  10  11
ATOM     11  C   UNL     1      49.651   6.902  20.923  1.00  0.00     0.000 C 
BRANCH  11  12
ATOM     12  C   UNL     1      50.171   8.283  20.468  1.00  0.00     0.006 C 
BRANCH  12  13
ATOM     13  C   UNL     1      51.226   8.191  19.351  1.00  0.00     0.053 C 
BRANCH  13  14
ATOM     14  C   UNL     1      50.613   7.916  18.014  1.00  0.00     0.041 C 
ATOM     15  O   UNL     1      49.583   8.539  17.650  1.00  0.00    -0.550 OA
ATOM     16  O   UNL     1      51.202   6.998  17.152  1.00  0.00    -0.550 OA
ENDBRANCH  13  14
ENDBRANCH  12  13
ENDBRANCH  11  12
ENDBRANCH  10  11
ENDBRANCH   9  10
ENDBRANCH   8   9
ENDBRANCH   7   8
ENDBRANCH   6   7
ENDBRANCH   5   6
ENDBRANCH   4   5
ENDBRANCH   3   4
ENDBRANCH   2   3
ENDBRANCH   1   2
BRANCH   1  17
ATOM     17  C   UNL     1      50.493   6.294  25.667  1.00  0.00     0.000 C 
BRANCH  17  18
ATOM     18  C   UNL     1      49.809   7.027  26.827  1.00  0.00     0.000 C 
BRANCH  18  19
ATOM     19  C   UNL     1      48.860   6.127  27.638  1.00  0.00     0.000 C 
BRANCH  19  20
ATOM     20  C   UNL     1      49.010   4.617  27.382  1.00  0.00     0.000 C 
BRANCH  20  21
ATOM     21  C   UNL     1      47.704   3.873  27.046  1.00  0.00     0.000 C 
BRANCH  21  22
ATOM     22  C   UNL     1      47.862   2.782  25.964  1.00  0.00    -0.000 C 
BRANCH  22  23
ATOM     23  C   UNL     1      49.286   2.737  25.379  1.00  0.00    -0.000 C 
BRANCH  23  24
ATOM     24  C   UNL     1      49.339   3.143  23.894  1.00  0.00    -0.000 C 
BRANCH  24  25
ATOM     25  C   UNL     1      49.835   2.042  22.939  1.00  0.00    -0.000 C 
BRANCH  25  26
ATOM     26  C   UNL     1      49.115   1.986  21.577  1.00  0.00    -0.000 C 
BRANCH  26  27
ATOM     27  C   UNL     1      50.054   2.190  20.366  1.00  0.00    -0.000 C 
BRANCH  27  28
ATOM     28  C   UNL     1      50.818   3.522  20.441  1.00  0.00    -0.000 C 
BRANCH  28  29
ATOM     29  C   UNL     1      52.231   3.434  19.845  1.00  0.00    -0.003 C 
ATOM     30  C   UNL     1      52.525   2.080  19.202  1.00  0.00     0.004 C 
ENDBRANCH  28  29
ENDBRANCH  27  28
ENDBRANCH  26  27
ENDBRANCH  25  26
ENDBRANCH  24  25
ENDBRANCH  23  24
ENDBRANCH  22  23
ENDBRANCH  21  22
ENDBRANCH  20  21
ENDBRANCH  19  20
ENDBRANCH  18  19
ENDBRANCH  17  18
ENDBRANCH   1  17
TORSDOF 26
ENDMDL
MODEL 3
REMARK VINA RESULT:    -4.529      2.777      7.016
REMARK INTER + INTRA:         -15.877
REMARK INTER:                 -10.705
REMARK INTRA:                  -5.173
REMARK UNBOUND:                -4.465
REMARK SMILES CCCCCCCCCCCCCCCCCCCCCCCCCCCC(=O)[O-]
REMARK SMILES IDX 15 1 16 2 17 3 18 4 19 5 20 6 21 7 22 8 23 9 24 10 25 11
REMARK SMILES IDX 26 12 27 13 28 14 29 15 30 16 14 17 13 18 12 19 11 20 10 21
REMARK SMILES IDX 9 22 8 23 7 24 6 25 5 26 4 27 3 28 2 29 1 30
REMARK H PARENT
REMARK Flexibility Score: inf
ROOT
ATOM      1  C   UNL     1      49.566   5.874  22.315  1.00  0.00     0.000 C 
ENDROOT
BRANCH   1   2
ATOM      2  C   UNL     1      49.437   6.440  20.898  1.00  0.00     0.000 C 
BRANCH   2   3
ATOM      3  C   UNL     1      50.005   7.867  20.817  1.00  0.00     0.000 C 
BRANCH   3   4
ATOM      4  C   UNL     1      49.316   8.721  19.739  1.00  0.00     0.000 C 
BRANCH   4   5
ATOM      5  C   UNL     1      47.869   8.274  19.464  1.00  0.00     0.000 C 
BRANCH   5   6
ATOM      6  C   UNL     1      46.871   8.880  20.464  1.00  0.00     0.000 C 
BRANCH   6   7
ATOM      7  C   UNL     1      47.210  10.336  20.834  1.00  0.00     0.000 C 
BRANCH   7   8
ATOM      8  C   UNL     1      47.017  10.610  22.338  1.00  0.00     0.000 C 
BRANCH   8   9
ATOM      9  C   UNL     1      47.013   9.329  23.199  1.00  0.00     0.000 C 
BRANCH   9  10
ATOM     10  C   UNL     1      48.007   9.357  24.375  1.00  0.00     0.000 C 
BRANCH  10  11
ATOM     11  C   UNL     1      49.464   9.114  23.927  1.00  0.00     0.000 C 
BRANCH  11  12
ATOM     12  C   UNL     1      50.304   8.384  24.998  1.00  0.00     0.006 C 
BRANCH  12  13
ATOM     13  C   UNL     1      49.469   7.431  25.872  1.00  0.00     0.053 C 
BRANCH  13  14
ATOM     14  C   UNL     1      50.253   6.238  26.319  1.00  0.00     0.041 C 
ATOM     15  O   UNL     1      50.944   5.589  25.491  1.00  0.00    -0.550 OA
ATOM     16  O   UNL     1      50.253   5.863  27.658  1.00  0.00    -0.550 OA
ENDBRANCH  13  14
ENDBRANCH  12  13
ENDBRANCH  11  12
ENDBRANCH  10  11
ENDBRANCH   9  10
ENDBRANCH   8   9
ENDBRANCH   7   8
ENDBRANCH   6   7
ENDBRANCH   5   6
ENDBRANCH   4   5
ENDBRANCH   3   4
ENDBRANCH   2   3
ENDBRANCH   1   2
BRANCH   1  17
ATOM     17  C   UNL     1      48.190   5.514  22.894  1.00  0.00     0.000 C 
BRANCH  17  18
ATOM     18  C   UNL     1      47.147   5.380  21.778  1.00  0.00     0.000 C 
BRANCH  18  19
ATOM     19  C   UNL     1      45.732   5.791  22.217  1.00  0.00     0.000 C 
BRANCH  19  20
ATOM     20  C   UNL     1      45.100   4.906  23.307  1.00  0.00     0.000 C 
BRANCH  20  21
ATOM     21  C   UNL     1      44.085   3.864  22.802  1.00  0.00     0.000 C 
BRANCH  21  22
ATOM     22  C   UNL     1      43.542   4.149  21.384  1.00  0.00    -0.000 C 
BRANCH  22  23
ATOM     23  C   UNL     1      43.850   3.008  20.398  1.00  0.00    -0.000 C 
BRANCH  23  24
ATOM     24  C   UNL     1      44.927   2.036  20.919  1.00  0.00    -0.000 C 
BRANCH  24  25
ATOM     25  C   UNL     1      46.341   2.276  20.360  1.00  0.00    -0.000 C 
BRANCH  25  26
ATOM     26  C   UNL     1      47.478   1.590  21.143  1.00  0.00    -0.000 C 
BRANCH  26  27
ATOM     27  C   UNL     1      48.886   1.868  20.570  1.00  0.00    -0.000 C 
BRANCH  27  28
ATOM     28  C   UNL     1      49.895   2.250  21.666  1.00  0.00    -0.000 C 
BRANCH  28  29
ATOM     29  C   UNL     1      51.235   2.741  21.099  1.00  0.00    -0.003 C 
ATOM     30  C   UNL     1      51.137   3.200  19.646  1.00  0.00     0.004 C 
ENDBRANCH  28  29
ENDBRANCH  27  28
ENDBRANCH  26  27
ENDBRANCH  25  26
ENDBRANCH  24  25
ENDBRANCH  23  24
ENDBRANCH  22  23
ENDBRANCH  21  22
ENDBRANCH  20  21
ENDBRANCH  19  20
ENDBRANCH  18  19
ENDBRANCH  17  18
ENDBRANCH   1  17
TORSDOF 26
ENDMDL
MODEL 4
REMARK VINA RESULT:    -4.512      1.429      2.161
REMARK INTER + INTRA:         -15.834
REMARK INTER:                 -11.879
REMARK INTRA:                  -3.955
REMARK UNBOUND:                -4.465
REMARK SMILES CCCCCCCCCCCCCCCCCCCCCCCCCCCC(=O)[O-]
REMARK SMILES IDX 15 1 16 2 17 3 18 4 19 5 20 6 21 7 22 8 23 9 24 10 25 11
REMARK SMILES IDX 26 12 27 13 28 14 29 15 30 16 14 17 13 18 12 19 11 20 10 21
REMARK SMILES IDX 9 22 8 23 7 24 6 25 5 26 4 27 3 28 2 29 1 30
REMARK H PARENT
REMARK Flexibility Score: inf
ROOT
ATOM      1  C   UNL     1      52.272   6.458  18.804  1.00  0.00     0.000 C 
ENDROOT
BRANCH   1   2
ATOM      2  C   UNL     1      52.258   5.072  18.152  1.00  0.00     0.000 C 
BRANCH   2   3
ATOM      3  C   UNL     1      51.632   4.026  19.089  1.00  0.00     0.000 C 
BRANCH   3   4
ATOM      4  C   UNL     1      52.418   2.704  19.113  1.00  0.00     0.000 C 
BRANCH   4   5
ATOM      5  C   UNL     1      52.779   2.255  20.540  1.00  0.00     0.000 C 
BRANCH   5   6
ATOM      6  C   UNL     1      51.574   1.663  21.289  1.00  0.00     0.000 C 
BRANCH   6   7
ATOM      7  C   UNL     1      51.462   2.179  22.736  1.00  0.00     0.000 C 
BRANCH   7   8
ATOM      8  C   UNL     1      50.885   1.112  23.687  1.00  0.00     0.000 C 
BRANCH   8   9
ATOM      9  C   UNL     1      49.343   1.039  23.662  1.00  0.00     0.000 C 
BRANCH   9  10
ATOM     10  C   UNL     1      48.773   0.162  22.532  1.00  0.00     0.000 C 
BRANCH  10  11
ATOM     11  C   UNL     1      47.454   0.720  21.956  1.00  0.00     0.000 C 
BRANCH  11  12
ATOM     12  C   UNL     1      47.610   2.142  21.374  1.00  0.00     0.006 C 
BRANCH  12  13
ATOM     13  C   UNL     1      46.775   2.366  20.100  1.00  0.00     0.053 C 
BRANCH  13  14
ATOM     14  C   UNL     1      45.724   3.414  20.287  1.00  0.00     0.041 C 
ATOM     15  O   UNL     1      45.976   4.449  20.957  1.00  0.00    -0.550 OA
ATOM     16  O   UNL     1      44.478   3.267  19.691  1.00  0.00    -0.550 OA
ENDBRANCH  13  14
ENDBRANCH  12  13
ENDBRANCH  11  12
ENDBRANCH  10  11
ENDBRANCH   9  10
ENDBRANCH   8   9
ENDBRANCH   7   8
ENDBRANCH   6   7
ENDBRANCH   5   6
ENDBRANCH   4   5
ENDBRANCH   3   4
ENDBRANCH   2   3
ENDBRANCH   1   2
BRANCH   1  17
ATOM     17  C   UNL     1      51.104   7.318  18.300  1.00  0.00     0.000 C 
BRANCH  17  18
ATOM     18  C   UNL     1      51.032   8.643  19.068  1.00  0.00     0.000 C 
BRANCH  18  19
ATOM     19  C   UNL     1      49.710   9.400  18.851  1.00  0.00     0.000 C 
BRANCH  19  20
ATOM     20  C   UNL     1      48.683   9.266  19.990  1.00  0.00     0.000 C 
BRANCH  20  21
ATOM     21  C   UNL     1      47.700   8.089  19.857  1.00  0.00     0.000 C 
BRANCH  21  22
ATOM     22  C   UNL     1      47.811   7.044  20.989  1.00  0.00    -0.000 C 
BRANCH  22  23
ATOM     23  C   UNL     1      49.272   6.758  21.382  1.00  0.00    -0.000 C 
BRANCH  23  24
ATOM     24  C   UNL     1      49.487   5.322  21.896  1.00  0.00    -0.000 C 
BRANCH  24  25
ATOM     25  C   UNL     1      48.869   5.028  23.275  1.00  0.00    -0.000 C 
BRANCH  25  26
ATOM     26  C   UNL     1      49.856   5.079  24.458  1.00  0.00    -0.000 C 
BRANCH  26  27
ATOM     27  C   UNL     1      49.744   6.366  25.308  1.00  0.00    -0.000 C 
BRANCH  27  28
ATOM     28  C   UNL     1      50.686   7.475  24.809  1.00  0.00    -0.000 C 
BRANCH  28  29
ATOM     29  C   UNL     1      49.932   8.707  24.287  1.00  0.00    -0.003 C 
ATOM     30  C   UNL     1      48.442   8.682  24.618  1.00  0.00     0.004 C 
ENDBRANCH  28  29
ENDBRANCH  27  28
ENDBRANCH  26  27
ENDBRANCH  25  26
ENDBRANCH  24  25
ENDBRANCH  23  24
ENDBRANCH  22  23
ENDBRANCH  21  22
ENDBRANCH  20  21
ENDBRANCH  19  20
ENDBRANCH  18  19
ENDBRANCH  17  18
ENDBRANCH   1  17
TORSDOF 26
ENDMDL
MODEL 5
REMARK VINA RESULT:    -4.458      2.471      6.873
REMARK INTER + INTRA:         -15.699
REMARK INTER:                 -10.197
REMARK INTRA:                  -5.503
REMARK UNBOUND:                -4.465
REMARK SMILES CCCCCCCCCCCCCCCCCCCCCCCCCCCC(=O)[O-]
REMARK SMILES IDX 15 1 16 2 17 3 18 4 19 5 20 6 21 7 22 8 23 9 24 10 25 11
REMARK SMILES IDX 26 12 27 13 28 14 29 15 30 16 14 17 13 18 12 19 11 20 10 21
REMARK SMILES IDX 9 22 8 23 7 24 6 25 5 26 4 27 3 28 2 29 1 30
REMARK H PARENT
REMARK Flexibility Score: inf
ROOT
ATOM      1  C   UNL     1      49.491   4.576  25.783  1.00  0.00     0.000 C 
ENDROOT
BRANCH   1   2
ATOM      2  C   UNL     1      50.259   5.863  26.099  1.00  0.00     0.000 C 
BRANCH   2   3
ATOM      3  C   UNL     1      50.407   6.742  24.846  1.00  0.00     0.000 C 
BRANCH   3   4
ATOM      4  C   UNL     1      49.215   7.691  24.642  1.00  0.00     0.000 C 
BRANCH   4   5
ATOM      5  C   UNL     1      49.519   8.818  23.639  1.00  0.00     0.000 C 
BRANCH   5   6
ATOM      6  C   UNL     1      48.782   8.627  22.304  1.00  0.00     0.000 C 
BRANCH   6   7
ATOM      7  C   UNL     1      49.715   8.159  21.172  1.00  0.00     0.000 C 
BRANCH   7   8
ATOM      8  C   UNL     1      49.701   6.626  21.009  1.00  0.00     0.000 C 
BRANCH   8   9
ATOM      9  C   UNL     1      48.371   5.975  21.444  1.00  0.00     0.000 C 
BRANCH   9  10
ATOM     10  C   UNL     1      48.539   4.653  22.215  1.00  0.00     0.000 C 
BRANCH  10  11
ATOM     11  C   UNL     1      49.988   4.122  22.174  1.00  0.00     0.000 C 
BRANCH  11  12
ATOM     12  C   UNL     1      50.078   2.665  21.671  1.00  0.00     0.006 C 
BRANCH  12  13
ATOM     13  C   UNL     1      50.378   2.567  20.164  1.00  0.00     0.053 C 
BRANCH  13  14
ATOM     14  C   UNL     1      51.802   2.897  19.846  1.00  0.00     0.041 C 
ATOM     15  O   UNL     1      52.080   3.587  18.832  1.00  0.00    -0.550 OA
ATOM     16  O   UNL     1      52.822   2.476  20.692  1.00  0.00    -0.550 OA
ENDBRANCH  13  14
ENDBRANCH  12  13
ENDBRANCH  11  12
ENDBRANCH  10  11
ENDBRANCH   9  10
ENDBRANCH   8   9
ENDBRANCH   7   8
ENDBRANCH   6   7
ENDBRANCH   5   6
ENDBRANCH   4   5
ENDBRANCH   3   4
ENDBRANCH   2   3
ENDBRANCH   1   2
BRANCH   1  17
ATOM     17  C   UNL     1      48.056   4.642  26.326  1.00  0.00     0.000 C 
BRANCH  17  18
ATOM     18  C   UNL     1      47.061   4.077  25.305  1.00  0.00     0.000 C 
BRANCH  18  19
ATOM     19  C   UNL     1      45.987   5.093  24.878  1.00  0.00     0.000 C 
BRANCH  19  20
ATOM     20  C   UNL     1      44.844   4.518  24.022  1.00  0.00     0.000 C 
BRANCH  20  21
ATOM     21  C   UNL     1      44.888   4.890  22.529  1.00  0.00     0.000 C 
BRANCH  21  22
ATOM     22  C   UNL     1      43.664   4.404  21.722  1.00  0.00    -0.000 C 
BRANCH  22  23
ATOM     23  C   UNL     1      44.022   3.280  20.733  1.00  0.00    -0.000 C 
BRANCH  23  24
ATOM     24  C   UNL     1      45.334   3.544  19.970  1.00  0.00    -0.000 C 
BRANCH  24  25
ATOM     25  C   UNL     1      46.418   2.467  20.152  1.00  0.00    -0.000 C 
BRANCH  25  26
ATOM     26  C   UNL     1      46.064   1.347  21.151  1.00  0.00    -0.000 C 
BRANCH  26  27
ATOM     27  C   UNL     1      46.718   1.522  22.541  1.00  0.00    -0.000 C 
BRANCH  27  28
ATOM     28  C   UNL     1      45.864   0.914  23.666  1.00  0.00    -0.000 C 
BRANCH  28  29
ATOM     29  C   UNL     1      44.381   0.789  23.287  1.00  0.00    -0.003 C 
ATOM     30  C   UNL     1      43.670  -0.346  24.022  1.00  0.00     0.004 C 
ENDBRANCH  28  29
ENDBRANCH  27  28
ENDBRANCH  26  27
ENDBRANCH  25  26
ENDBRANCH  24  25
ENDBRANCH  23  24
ENDBRANCH  22  23
ENDBRANCH  21  22
ENDBRANCH  20  21
ENDBRANCH  19  20
ENDBRANCH  18  19
ENDBRANCH  17  18
ENDBRANCH   1  17
TORSDOF 26
ENDMDL
MODEL 6
REMARK VINA RESULT:    -4.457      2.612      7.070
REMARK INTER + INTRA:         -15.696
REMARK INTER:                 -10.324
REMARK INTRA:                  -5.372
REMARK UNBOUND:                -4.465
REMARK SMILES CCCCCCCCCCCCCCCCCCCCCCCCCCCC(=O)[O-]
REMARK SMILES IDX 15 1 16 2 17 3 18 4 19 5 20 6 21 7 22 8 23 9 24 10 25 11
REMARK SMILES IDX 26 12 27 13 28 14 29 15 30 16 14 17 13 18 12 19 11 20 10 21
REMARK SMILES IDX 9 22 8 23 7 24 6 25 5 26 4 27 3 28 2 29 1 30
REMARK H PARENT
REMARK Flexibility Score: inf
ROOT
ATOM      1  C   UNL     1      49.074   5.228  25.270  1.00  0.00     0.000 C 
ENDROOT
BRANCH   1   2
ATOM      2  C   UNL     1      50.355   6.054  25.114  1.00  0.00     0.000 C 
BRANCH   2   3
ATOM      3  C   UNL     1      50.033   7.539  24.882  1.00  0.00     0.000 C 
BRANCH   3   4
ATOM      4  C   UNL     1      48.525   7.804  24.733  1.00  0.00     0.000 C 
BRANCH   4   5
ATOM      5  C   UNL     1      48.211   9.273  24.403  1.00  0.00     0.000 C 
BRANCH   5   6
ATOM      6  C   UNL     1      47.284   9.413  23.185  1.00  0.00     0.000 C 
BRANCH   6   7
ATOM      7  C   UNL     1      46.697   8.065  22.728  1.00  0.00     0.000 C 
BRANCH   7   8
ATOM      8  C   UNL     1      47.271   7.615  21.370  1.00  0.00     0.000 C 
BRANCH   8   9
ATOM      9  C   UNL     1      48.003   6.257  21.433  1.00  0.00     0.000 C 
BRANCH   9  10
ATOM     10  C   UNL     1      49.524   6.352  21.212  1.00  0.00     0.000 C 
BRANCH  10  11
ATOM     11  C   UNL     1      50.009   7.805  21.029  1.00  0.00     0.000 C 
BRANCH  11  12
ATOM     12  C   UNL     1      50.782   8.016  19.709  1.00  0.00     0.006 C 
BRANCH  12  13
ATOM     13  C   UNL     1      49.908   8.608  18.588  1.00  0.00     0.053 C 
BRANCH  13  14
ATOM     14  C   UNL     1      50.214   8.006  17.252  1.00  0.00     0.041 C 
ATOM     15  O   UNL     1      51.054   7.074  17.157  1.00  0.00    -0.550 OA
ATOM     16  O   UNL     1      49.545   8.448  16.117  1.00  0.00    -0.550 OA
ENDBRANCH  13  14
ENDBRANCH  12  13
ENDBRANCH  11  12
ENDBRANCH  10  11
ENDBRANCH   9  10
ENDBRANCH   8   9
ENDBRANCH   7   8
ENDBRANCH   6   7
ENDBRANCH   5   6
ENDBRANCH   4   5
ENDBRANCH   3   4
ENDBRANCH   2   3
ENDBRANCH   1   2
BRANCH   1  17
ATOM     17  C   UNL     1      49.034   4.074  24.258  1.00  0.00     0.000 C 
BRANCH  17  18
ATOM     18  C   UNL     1      47.595   3.589  24.042  1.00  0.00     0.000 C 
BRANCH  18  19
ATOM     19  C   UNL     1      46.543   4.684  24.287  1.00  0.00     0.000 C 
BRANCH  19  20
ATOM     20  C   UNL     1      45.248   4.545  23.465  1.00  0.00     0.000 C 
BRANCH  20  21
ATOM     21  C   UNL     1      44.599   3.150  23.489  1.00  0.00     0.000 C 
BRANCH  21  22
ATOM     22  C   UNL     1      44.324   2.559  22.089  1.00  0.00    -0.000 C 
BRANCH  22  23
ATOM     23  C   UNL     1      44.745   3.513  20.956  1.00  0.00    -0.000 C 
BRANCH  23  24
ATOM     24  C   UNL     1      46.032   3.065  20.239  1.00  0.00    -0.000 C 
BRANCH  24  25
ATOM     25  C   UNL     1      46.462   1.614  20.524  1.00  0.00    -0.000 C 
BRANCH  25  26
ATOM     26  C   UNL     1      47.983   1.392  20.632  1.00  0.00    -0.000 C 
BRANCH  26  27
ATOM     27  C   UNL     1      48.804   2.702  20.657  1.00  0.00    -0.000 C 
BRANCH  27  28
ATOM     28  C   UNL     1      50.316   2.439  20.754  1.00  0.00    -0.000 C 
BRANCH  28  29
ATOM     29  C   UNL     1      50.675   1.415  21.841  1.00  0.00    -0.003 C 
ATOM     30  C   UNL     1      51.841   1.860  22.721  1.00  0.00     0.004 C 
ENDBRANCH  28  29
ENDBRANCH  27  28
ENDBRANCH  26  27
ENDBRANCH  25  26
ENDBRANCH  24  25
ENDBRANCH  23  24
ENDBRANCH  22  23
ENDBRANCH  21  22
ENDBRANCH  20  21
ENDBRANCH  19  20
ENDBRANCH  18  19
ENDBRANCH  17  18
ENDBRANCH   1  17
TORSDOF 26
ENDMDL
MODEL 7
REMARK VINA RESULT:    -4.439      2.612      6.541
REMARK INTER + INTRA:         -15.650
REMARK INTER:                 -11.058
REMARK INTRA:                  -4.592
REMARK UNBOUND:                -4.465
REMARK SMILES CCCCCCCCCCCCCCCCCCCCCCCCCCCC(=O)[O-]
REMARK SMILES IDX 15 1 16 2 17 3 18 4 19 5 20 6 21 7 22 8 23 9 24 10 25 11
REMARK SMILES IDX 26 12 27 13 28 14 29 15 30 16 14 17 13 18 12 19 11 20 10 21
REMARK SMILES IDX 9 22 8 23 7 24 6 25 5 26 4 27 3 28 2 29 1 30
REMARK H PARENT
REMARK Flexibility Score: inf
ROOT
ATOM      1  C   UNL     1      49.444   5.977  26.757  1.00  0.00     0.000 C 
ENDROOT
BRANCH   1   2
ATOM      2  C   UNL     1      50.014   7.279  26.184  1.00  0.00     0.000 C 
BRANCH   2   3
ATOM      3  C   UNL     1      50.631   7.049  24.794  1.00  0.00     0.000 C 
BRANCH   3   4
ATOM      4  C   UNL     1      49.819   7.710  23.667  1.00  0.00     0.000 C 
BRANCH   4   5
ATOM      5  C   UNL     1      48.979   6.697  22.870  1.00  0.00     0.000 C 
BRANCH   5   6
ATOM      6  C   UNL     1      47.618   6.419  23.528  1.00  0.00     0.000 C 
BRANCH   6   7
ATOM      7  C   UNL     1      46.779   5.390  22.747  1.00  0.00     0.000 C 
BRANCH   7   8
ATOM      8  C   UNL     1      47.386   5.080  21.365  1.00  0.00     0.000 C 
BRANCH   8   9
ATOM      9  C   UNL     1      47.369   3.577  21.012  1.00  0.00     0.000 C 
BRANCH   9  10
ATOM     10  C   UNL     1      48.577   2.790  21.552  1.00  0.00     0.000 C 
BRANCH  10  11
ATOM     11  C   UNL     1      49.669   2.570  20.484  1.00  0.00     0.000 C 
BRANCH  11  12
ATOM     12  C   UNL     1      50.704   3.715  20.443  1.00  0.00     0.006 C 
BRANCH  12  13
ATOM     13  C   UNL     1      51.587   3.682  19.182  1.00  0.00     0.053 C 
BRANCH  13  14
ATOM     14  C   UNL     1      52.799   2.823  19.360  1.00  0.00     0.041 C 
ATOM     15  O   UNL     1      52.747   1.594  19.099  1.00  0.00    -0.550 OA
ATOM     16  O   UNL     1      53.999   3.387  19.778  1.00  0.00    -0.550 OA
ENDBRANCH  13  14
ENDBRANCH  12  13
ENDBRANCH  11  12
ENDBRANCH  10  11
ENDBRANCH   9  10
ENDBRANCH   8   9
ENDBRANCH   7   8
ENDBRANCH   6   7
ENDBRANCH   5   6
ENDBRANCH   4   5
ENDBRANCH   3   4
ENDBRANCH   2   3
ENDBRANCH   1   2
BRANCH   1  17
ATOM     17  C   UNL     1      48.212   6.251  27.631  1.00  0.00     0.000 C 
BRANCH  17  18
ATOM     18  C   UNL     1      47.812   7.730  27.561  1.00  0.00     0.000 C 
BRANCH  18  19
ATOM     19  C   UNL     1      46.315   7.942  27.277  1.00  0.00     0.000 C 
BRANCH  19  20
ATOM     20  C   UNL     1      45.998   8.901  26.115  1.00  0.00     0.000 C 
BRANCH  20  21
ATOM     21  C   UNL     1      47.223   9.482  25.387  1.00  0.00     0.000 C 
BRANCH  21  22
ATOM     22  C   UNL     1      46.910  10.721  24.518  1.00  0.00    -0.000 C 
BRANCH  22  23
ATOM     23  C   UNL     1      47.133  10.456  23.017  1.00  0.00    -0.000 C 
BRANCH  23  24
ATOM     24  C   UNL     1      46.051   9.550  22.399  1.00  0.00    -0.000 C 
BRANCH  24  25
ATOM     25  C   UNL     1      46.383   9.009  20.997  1.00  0.00    -0.000 C 
BRANCH  25  26
ATOM     26  C   UNL     1      47.806   9.325  20.494  1.00  0.00    -0.000 C 
BRANCH  26  27
ATOM     27  C   UNL     1      48.364   8.279  19.502  1.00  0.00    -0.000 C 
BRANCH  27  28
ATOM     28  C   UNL     1      49.347   8.900  18.496  1.00  0.00    -0.000 C 
BRANCH  28  29
ATOM     29  C   UNL     1      50.725   8.221  18.512  1.00  0.00    -0.003 C 
ATOM     30  C   UNL     1      51.061   7.583  19.858  1.00  0.00     0.004 C 
ENDBRANCH  28  29
ENDBRANCH  27  28
ENDBRANCH  26  27
ENDBRANCH  25  26
ENDBRANCH  24  25
ENDBRANCH  23  24
ENDBRANCH  22  23
ENDBRANCH  21  22
ENDBRANCH  20  21
ENDBRANCH  19  20
ENDBRANCH  18  19
ENDBRANCH  17  18
ENDBRANCH   1  17
TORSDOF 26
ENDMDL
MODEL 8
REMARK VINA RESULT:    -4.428      2.565      6.098
REMARK INTER + INTRA:         -15.623
REMARK INTER:                 -10.149
REMARK INTRA:                  -5.475
REMARK UNBOUND:                -4.465
REMARK SMILES CCCCCCCCCCCCCCCCCCCCCCCCCCCC(=O)[O-]
REMARK SMILES IDX 15 1 16 2 17 3 18 4 19 5 20 6 21 7 22 8 23 9 24 10 25 11
REMARK SMILES IDX 26 12 27 13 28 14 29 15 30 16 14 17 13 18 12 19 11 20 10 21
REMARK SMILES IDX 9 22 8 23 7 24 6 25 5 26 4 27 3 28 2 29 1 30
REMARK H PARENT
REMARK Flexibility Score: inf
ROOT
ATOM      1  C   UNL     1      43.939   1.203  21.046  1.00  0.00     0.000 C 
ENDROOT
BRANCH   1   2
ATOM      2  C   UNL     1      43.228   0.711  22.310  1.00  0.00     0.000 C 
BRANCH   2   3
ATOM      3  C   UNL     1      43.140   1.826  23.366  1.00  0.00     0.000 C 
BRANCH   3   4
ATOM      4  C   UNL     1      44.173   1.660  24.493  1.00  0.00     0.000 C 
BRANCH   4   5
ATOM      5  C   UNL     1      45.473   2.438  24.223  1.00  0.00     0.000 C 
BRANCH   5   6
ATOM      6  C   UNL     1      46.641   1.511  23.848  1.00  0.00     0.000 C 
BRANCH   6   7
ATOM      7  C   UNL     1      46.339   0.029  24.137  1.00  0.00     0.000 C 
BRANCH   7   8
ATOM      8  C   UNL     1      46.627  -0.868  22.918  1.00  0.00     0.000 C 
BRANCH   8   9
ATOM      9  C   UNL     1      47.635  -0.249  21.925  1.00  0.00     0.000 C 
BRANCH   9  10
ATOM     10  C   UNL     1      49.062  -0.814  22.044  1.00  0.00     0.000 C 
BRANCH  10  11
ATOM     11  C   UNL     1      50.138   0.291  22.083  1.00  0.00     0.000 C 
BRANCH  11  12
ATOM     12  C   UNL     1      49.579   1.683  21.717  1.00  0.00     0.006 C 
BRANCH  12  13
ATOM     13  C   UNL     1      50.671   2.763  21.616  1.00  0.00     0.053 C 
BRANCH  13  14
ATOM     14  C   UNL     1      51.722   2.415  20.610  1.00  0.00     0.041 C 
ATOM     15  O   UNL     1      52.811   1.908  20.983  1.00  0.00    -0.550 OA
ATOM     16  O   UNL     1      51.485   2.616  19.255  1.00  0.00    -0.550 OA
ENDBRANCH  13  14
ENDBRANCH  12  13
ENDBRANCH  11  12
ENDBRANCH  10  11
ENDBRANCH   9  10
ENDBRANCH   8   9
ENDBRANCH   7   8
ENDBRANCH   6   7
ENDBRANCH   5   6
ENDBRANCH   4   5
ENDBRANCH   3   4
ENDBRANCH   2   3
ENDBRANCH   1   2
BRANCH   1  17
ATOM     17  C   UNL     1      43.516   2.638  20.697  1.00  0.00     0.000 C 
BRANCH  17  18
ATOM     18  C   UNL     1      44.682   3.411  20.068  1.00  0.00     0.000 C 
BRANCH  18  19
ATOM     19  C   UNL     1      46.062   2.881  20.494  1.00  0.00     0.000 C 
BRANCH  19  20
ATOM     20  C   UNL     1      47.001   3.927  21.121  1.00  0.00     0.000 C 
BRANCH  20  21
ATOM     21  C   UNL     1      46.330   5.249  21.537  1.00  0.00     0.000 C 
BRANCH  21  22
ATOM     22  C   UNL     1      47.318   6.327  22.035  1.00  0.00    -0.000 C 
BRANCH  22  23
ATOM     23  C   UNL     1      48.684   6.243  21.328  1.00  0.00    -0.000 C 
BRANCH  23  24
ATOM     24  C   UNL     1      49.658   7.353  21.765  1.00  0.00    -0.000 C 
BRANCH  24  25
ATOM     25  C   UNL     1      49.422   7.900  23.184  1.00  0.00    -0.000 C 
BRANCH  25  26
ATOM     26  C   UNL     1      50.545   7.596  24.196  1.00  0.00    -0.000 C 
BRANCH  26  27
ATOM     27  C   UNL     1      50.197   6.469  25.194  1.00  0.00    -0.000 C 
BRANCH  27  28
ATOM     28  C   UNL     1      50.183   5.084  24.526  1.00  0.00    -0.000 C 
BRANCH  28  29
ATOM     29  C   UNL     1      48.819   4.386  24.627  1.00  0.00    -0.003 C 
ATOM     30  C   UNL     1      47.783   5.207  25.393  1.00  0.00     0.004 C 
ENDBRANCH  28  29
ENDBRANCH  27  28
ENDBRANCH  26  27
ENDBRANCH  25  26
ENDBRANCH  24  25
ENDBRANCH  23  24
ENDBRANCH  22  23
ENDBRANCH  21  22
ENDBRANCH  20  21
ENDBRANCH  19  20
ENDBRANCH  18  19
ENDBRANCH  17  18
ENDBRANCH   1  17
TORSDOF 26
ENDMDL
MODEL 9
REMARK VINA RESULT:    -4.397      2.386      6.079
REMARK INTER + INTRA:         -15.544
REMARK INTER:                 -10.389
REMARK INTRA:                  -5.155
REMARK UNBOUND:                -4.465
REMARK SMILES CCCCCCCCCCCCCCCCCCCCCCCCCCCC(=O)[O-]
REMARK SMILES IDX 15 1 16 2 17 3 18 4 19 5 20 6 21 7 22 8 23 9 24 10 25 11
REMARK SMILES IDX 26 12 27 13 28 14 29 15 30 16 14 17 13 18 12 19 11 20 10 21
REMARK SMILES IDX 9 22 8 23 7 24 6 25 5 26 4 27 3 28 2 29 1 30
REMARK H PARENT
REMARK Flexibility Score: inf
ROOT
ATOM      1  C   UNL     1      47.947   5.607  22.383  1.00  0.00     0.000 C 
ENDROOT
BRANCH   1   2
ATOM      2  C   UNL     1      46.582   6.048  21.844  1.00  0.00     0.000 C 
BRANCH   2   3
ATOM      3  C   UNL     1      45.448   5.609  22.785  1.00  0.00     0.000 C 
BRANCH   3   4
ATOM      4  C   UNL     1      44.154   5.256  22.032  1.00  0.00     0.000 C 
BRANCH   4   5
ATOM      5  C   UNL     1      43.691   3.812  22.295  1.00  0.00     0.000 C 
BRANCH   5   6
ATOM      6  C   UNL     1      43.870   2.908  21.066  1.00  0.00     0.000 C 
BRANCH   6   7
ATOM      7  C   UNL     1      44.999   3.389  20.134  1.00  0.00     0.000 C 
BRANCH   7   8
ATOM      8  C   UNL     1      46.207   2.432  20.147  1.00  0.00     0.000 C 
BRANCH   8   9
ATOM      9  C   UNL     1      46.665   2.042  21.570  1.00  0.00     0.000 C 
BRANCH   9  10
ATOM     10  C   UNL     1      48.171   1.748  21.687  1.00  0.00     0.000 C 
BRANCH  10  11
ATOM     11  C   UNL     1      48.993   2.393  20.551  1.00  0.00     0.000 C 
BRANCH  11  12
ATOM     12  C   UNL     1      50.285   3.070  21.059  1.00  0.00     0.006 C 
BRANCH  12  13
ATOM     13  C   UNL     1      51.279   3.392  19.928  1.00  0.00     0.053 C 
BRANCH  13  14
ATOM     14  C   UNL     1      52.580   2.672  20.094  1.00  0.00     0.041 C 
ATOM     15  O   UNL     1      52.603   1.511  20.578  1.00  0.00    -0.550 OA
ATOM     16  O   UNL     1      53.766   3.268  19.678  1.00  0.00    -0.550 OA
ENDBRANCH  13  14
ENDBRANCH  12  13
ENDBRANCH  11  12
ENDBRANCH  10  11
ENDBRANCH   9  10
ENDBRANCH   8   9
ENDBRANCH   7   8
ENDBRANCH   6   7
ENDBRANCH   5   6
ENDBRANCH   4   5
ENDBRANCH   3   4
ENDBRANCH   2   3
ENDBRANCH   1   2
BRANCH   1  17
ATOM     17  C   UNL     1      47.801   4.871  23.722  1.00  0.00     0.000 C 
BRANCH  17  18
ATOM     18  C   UNL     1      48.653   5.541  24.808  1.00  0.00     0.000 C 
BRANCH  18  19
ATOM     19  C   UNL     1      50.001   6.066  24.282  1.00  0.00     0.000 C 
BRANCH  19  20
ATOM     20  C   UNL     1      50.269   7.559  24.544  1.00  0.00     0.000 C 
BRANCH  20  21
ATOM     21  C   UNL     1      49.629   8.531  23.536  1.00  0.00     0.000 C 
BRANCH  21  22
ATOM     22  C   UNL     1      48.579   9.480  24.156  1.00  0.00    -0.000 C 
BRANCH  22  23
ATOM     23  C   UNL     1      47.211   8.798  24.345  1.00  0.00    -0.000 C 
BRANCH  23  24
ATOM     24  C   UNL     1      46.112   9.394  23.445  1.00  0.00    -0.000 C 
BRANCH  24  25
ATOM     25  C   UNL     1      46.624  10.299  22.310  1.00  0.00    -0.000 C 
BRANCH  25  26
ATOM     26  C   UNL     1      46.730   9.620  20.930  1.00  0.00    -0.000 C 
BRANCH  26  27
ATOM     27  C   UNL     1      48.025   9.969  20.162  1.00  0.00    -0.000 C 
BRANCH  27  28
ATOM     28  C   UNL     1      48.636   8.741  19.466  1.00  0.00    -0.000 C 
BRANCH  28  29
ATOM     29  C   UNL     1      50.123   8.546  19.799  1.00  0.00    -0.003 C 
ATOM     30  C   UNL     1      50.458   7.116  20.218  1.00  0.00     0.004 C 
ENDBRANCH  28  29
ENDBRANCH  27  28
ENDBRANCH  26  27
ENDBRANCH  25  26
ENDBRANCH  24  25
ENDBRANCH  23  24
ENDBRANCH  22  23
ENDBRANCH  21  22
ENDBRANCH  20  21
ENDBRANCH  19  20
ENDBRANCH  18  19
ENDBRANCH  17  18
ENDBRANCH   1  17
TORSDOF 26
ENDMDL
