MODEL 1
REMARK VINA RESULT:    -4.943      0.000      0.000
REMARK INTER + INTRA:         -12.273
REMARK INTER:                 -10.723
REMARK INTRA:                  -1.550
REMARK UNBOUND:                -1.550
REMARK SMILES CCCCCCCCCCCCCCCCCCCCCC(=O)[O-]
REMARK SMILES IDX 12 1 11 2 10 3 9 4 8 5 7 6 6 7 5 8 4 9 3 10 2 11 1 12 13 13
REMARK SMILES IDX 14 14 15 15 16 16 17 17 18 18 19 19 20 20 21 21 22 22 23 23
REMARK SMILES IDX 24 24
REMARK H PARENT
REMARK Flexibility Score: inf
ROOT
ATOM      1  C   UNL     1       3.731  -1.948   5.645  1.00  0.00     0.000 C 
ENDROOT
BRANCH   1   2
ATOM      2  C   UNL     1       2.370  -2.668   5.733  1.00  0.00     0.000 C 
BRANCH   2   3
ATOM      3  C   UNL     1       1.182  -1.884   5.143  1.00  0.00     0.000 C 
BRANCH   3   4
ATOM      4  C   UNL     1      -0.190  -2.214   5.765  1.00  0.00    -0.000 C 
BRANCH   4   5
ATOM      5  C   UNL     1      -1.405  -1.766   4.935  1.00  0.00    -0.000 C 
BRANCH   5   6
ATOM      6  C   UNL     1      -1.948  -2.876   4.023  1.00  0.00    -0.000 C 
BRANCH   6   7
ATOM      7  C   UNL     1      -3.227  -2.420   3.305  1.00  0.00    -0.000 C 
BRANCH   7   8
ATOM      8  C   UNL     1      -3.878  -1.196   3.969  1.00  0.00    -0.000 C 
BRANCH   8   9
ATOM      9  C   UNL     1      -5.169  -1.548   4.723  1.00  0.00    -0.000 C 
BRANCH   9  10
ATOM     10  C   UNL     1      -4.853  -2.103   6.120  1.00  0.00    -0.000 C 
BRANCH  10  11
ATOM     11  C   UNL     1      -5.152  -1.092   7.238  1.00  0.00    -0.003 C 
ATOM     12  C   UNL     1      -5.979   0.099   6.753  1.00  0.00     0.004 C 
ENDBRANCH  10  11
ENDBRANCH   9  10
ENDBRANCH   8   9
ENDBRANCH   7   8
ENDBRANCH   6   7
ENDBRANCH   5   6
ENDBRANCH   4   5
ENDBRANCH   3   4
ENDBRANCH   2   3
ENDBRANCH   1   2
BRANCH   1  13
ATOM     13  C   UNL     1       4.247  -1.360   6.973  1.00  0.00     0.000 C 
BRANCH  13  14
ATOM     14  C   UNL     1       3.163  -1.075   8.028  1.00  0.00     0.000 C 
BRANCH  14  15
ATOM     15  C   UNL     1       2.825   0.422   8.147  1.00  0.00     0.000 C 
BRANCH  15  16
ATOM     16  C   UNL     1       1.818   0.884   7.082  1.00  0.00     0.000 C 
BRANCH  16  17
ATOM     17  C   UNL     1       1.543   2.398   7.143  1.00  0.00     0.000 C 
BRANCH  17  18
ATOM     18  C   UNL     1       0.708   2.798   8.369  1.00  0.00     0.000 C 
BRANCH  18  19
ATOM     19  C   UNL     1       0.086   4.195   8.231  1.00  0.00     0.000 C 
BRANCH  19  20
ATOM     20  C   UNL     1       0.433   4.819   6.871  1.00  0.00     0.006 C 
BRANCH  20  21
ATOM     21  C   UNL     1      -0.520   5.960   6.494  1.00  0.00     0.053 C 
BRANCH  21  22
ATOM     22  C   UNL     1      -0.627   6.128   5.008  1.00  0.00     0.041 C 
ATOM     23  O   UNL     1      -1.344   7.043   4.525  1.00  0.00    -0.550 OA
ATOM     24  O   UNL     1       0.040   5.254   4.158  1.00  0.00    -0.550 OA
ENDBRANCH  21  22
ENDBRANCH  20  21
ENDBRANCH  19  20
ENDBRANCH  18  19
ENDBRANCH  17  18
ENDBRANCH  16  17
ENDBRANCH  15  16
ENDBRANCH  14  15
ENDBRANCH  13  14
ENDBRANCH   1  13
TORSDOF 20
ENDMDL
MODEL 2
REMARK VINA RESULT:    -4.769      1.420      2.345
REMARK INTER + INTRA:         -11.895
REMARK INTER:                  -9.651
REMARK INTRA:                  -2.244
REMARK UNBOUND:                -1.550
REMARK SMILES CCCCCCCCCCCCCCCCCCCCCC(=O)[O-]
REMARK SMILES IDX 12 1 11 2 10 3 9 4 8 5 7 6 6 7 5 8 4 9 3 10 2 11 1 12 13 13
REMARK SMILES IDX 14 14 15 15 16 16 17 17 18 18 19 19 20 20 21 21 22 22 23 23
REMARK SMILES IDX 24 24
REMARK H PARENT
REMARK Flexibility Score: inf
ROOT
ATOM      1  C   UNL     1       1.518  -1.384   5.441  1.00  0.00     0.000 C 
ENDROOT
BRANCH   1   2
ATOM      2  C   UNL     1       0.165  -2.122   5.446  1.00  0.00     0.000 C 
BRANCH   2   3
ATOM      3  C   UNL     1      -0.118  -2.949   6.716  1.00  0.00     0.000 C 
BRANCH   3   4
ATOM      4  C   UNL     1      -1.490  -2.688   7.371  1.00  0.00    -0.000 C 
BRANCH   4   5
ATOM      5  C   UNL     1      -2.637  -3.572   6.851  1.00  0.00    -0.000 C 
BRANCH   5   6
ATOM      6  C   UNL     1      -2.160  -4.949   6.370  1.00  0.00    -0.000 C 
BRANCH   6   7
ATOM      7  C   UNL     1      -2.328  -5.087   4.849  1.00  0.00    -0.000 C 
BRANCH   7   8
ATOM      8  C   UNL     1      -3.336  -4.083   4.268  1.00  0.00    -0.000 C 
BRANCH   8   9
ATOM      9  C   UNL     1      -2.695  -3.109   3.269  1.00  0.00    -0.000 C 
BRANCH   9  10
ATOM     10  C   UNL     1      -2.894  -1.653   3.719  1.00  0.00    -0.000 C 
BRANCH  10  11
ATOM     11  C   UNL     1      -4.372  -1.309   3.964  1.00  0.00    -0.003 C 
ATOM     12  C   UNL     1      -4.637  -0.819   5.387  1.00  0.00     0.004 C 
ENDBRANCH  10  11
ENDBRANCH   9  10
ENDBRANCH   8   9
ENDBRANCH   7   8
ENDBRANCH   6   7
ENDBRANCH   5   6
ENDBRANCH   4   5
ENDBRANCH   3   4
ENDBRANCH   2   3
ENDBRANCH   1   2
BRANCH   1  13
ATOM     13  C   UNL     1       1.538  -0.049   6.213  1.00  0.00     0.000 C 
BRANCH  13  14
ATOM     14  C   UNL     1       2.328  -0.068   7.534  1.00  0.00     0.000 C 
BRANCH  14  15
ATOM     15  C   UNL     1       1.421   0.023   8.773  1.00  0.00     0.000 C 
BRANCH  15  16
ATOM     16  C   UNL     1       1.593   1.349   9.533  1.00  0.00     0.000 C 
BRANCH  16  17
ATOM     17  C   UNL     1       0.426   2.325   9.296  1.00  0.00     0.000 C 
BRANCH  17  18
ATOM     18  C   UNL     1       0.644   3.219   8.065  1.00  0.00     0.000 C 
BRANCH  18  19
ATOM     19  C   UNL     1       0.217   4.674   8.308  1.00  0.00     0.000 C 
BRANCH  19  20
ATOM     20  C   UNL     1       0.543   5.552   7.090  1.00  0.00     0.006 C 
BRANCH  20  21
ATOM     21  C   UNL     1      -0.697   6.271   6.543  1.00  0.00     0.053 C 
BRANCH  21  22
ATOM     22  C   UNL     1      -0.730   6.262   5.045  1.00  0.00     0.041 C 
ATOM     23  O   UNL     1      -0.203   5.315   4.406  1.00  0.00    -0.550 OA
ATOM     24  O   UNL     1      -1.317   7.316   4.355  1.00  0.00    -0.550 OA
ENDBRANCH  21  22
ENDBRANCH  20  21
ENDBRANCH  19  20
ENDBRANCH  18  19
ENDBRANCH  17  18
ENDBRANCH  16  17
ENDBRANCH  15  16
ENDBRANCH  14  15
ENDBRANCH  13  14
ENDBRANCH   1  13
TORSDOF 20
ENDMDL
MODEL 3
REMARK VINA RESULT:    -4.759      1.638      2.581
REMARK INTER + INTRA:         -11.874
REMARK INTER:                  -9.357
REMARK INTRA:                  -2.517
REMARK UNBOUND:                -1.550
REMARK SMILES CCCCCCCCCCCCCCCCCCCCCC(=O)[O-]
REMARK SMILES IDX 12 1 11 2 10 3 9 4 8 5 7 6 6 7 5 8 4 9 3 10 2 11 1 12 13 13
REMARK SMILES IDX 14 14 15 15 16 16 17 17 18 18 19 19 20 20 21 21 22 22 23 23
REMARK SMILES IDX 24 24
REMARK H PARENT
REMARK Flexibility Score: inf
ROOT
ATOM      1  C   UNL     1       0.003  -2.101   5.262  1.00  0.00     0.000 C 
ENDROOT
BRANCH   1   2
ATOM      2  C   UNL     1      -0.867  -2.337   6.512  1.00  0.00     0.000 C 
BRANCH   2   3
ATOM      3  C   UNL     1      -0.449  -3.543   7.375  1.00  0.00     0.000 C 
BRANCH   3   4
ATOM      4  C   UNL     1      -1.084  -4.888   6.969  1.00  0.00    -0.000 C 
BRANCH   4   5
ATOM      5  C   UNL     1      -2.250  -4.782   5.971  1.00  0.00    -0.000 C 
BRANCH   5   6
ATOM      6  C   UNL     1      -2.132  -5.774   4.806  1.00  0.00    -0.000 C 
BRANCH   6   7
ATOM      7  C   UNL     1      -2.938  -5.292   3.590  1.00  0.00    -0.000 C 
BRANCH   7   8
ATOM      8  C   UNL     1      -2.567  -3.864   3.159  1.00  0.00    -0.000 C 
BRANCH   8   9
ATOM      9  C   UNL     1      -3.755  -2.894   3.238  1.00  0.00    -0.000 C 
BRANCH   9  10
ATOM     10  C   UNL     1      -3.321  -1.542   3.824  1.00  0.00    -0.000 C 
BRANCH  10  11
ATOM     11  C   UNL     1      -4.393  -0.922   4.733  1.00  0.00    -0.003 C 
ATOM     12  C   UNL     1      -4.512  -1.636   6.080  1.00  0.00     0.004 C 
ENDBRANCH  10  11
ENDBRANCH   9  10
ENDBRANCH   8   9
ENDBRANCH   7   8
ENDBRANCH   6   7
ENDBRANCH   5   6
ENDBRANCH   4   5
ENDBRANCH   3   4
ENDBRANCH   2   3
ENDBRANCH   1   2
BRANCH   1  13
ATOM     13  C   UNL     1       0.831  -0.800   5.277  1.00  0.00     0.000 C 
BRANCH  13  14
ATOM     14  C   UNL     1       2.020  -0.793   6.255  1.00  0.00     0.000 C 
BRANCH  14  15
ATOM     15  C   UNL     1       2.044   0.455   7.156  1.00  0.00     0.000 C 
BRANCH  15  16
ATOM     16  C   UNL     1       1.261   0.251   8.463  1.00  0.00     0.000 C 
BRANCH  16  17
ATOM     17  C   UNL     1       0.845   1.580   9.119  1.00  0.00     0.000 C 
BRANCH  17  18
ATOM     18  C   UNL     1       1.321   2.806   8.323  1.00  0.00     0.000 C 
BRANCH  18  19
ATOM     19  C   UNL     1       0.334   3.980   8.399  1.00  0.00     0.000 C 
BRANCH  19  20
ATOM     20  C   UNL     1       0.301   4.757   7.074  1.00  0.00     0.006 C 
BRANCH  20  21
ATOM     21  C   UNL     1       1.063   4.033   5.957  1.00  0.00     0.053 C 
BRANCH  21  22
ATOM     22  C   UNL     1       1.053   4.816   4.679  1.00  0.00     0.041 C 
ATOM     23  O   UNL     1      -0.035   5.219   4.192  1.00  0.00    -0.550 OA
ATOM     24  O   UNL     1       2.244   5.073   4.011  1.00  0.00    -0.550 OA
ENDBRANCH  21  22
ENDBRANCH  20  21
ENDBRANCH  19  20
ENDBRANCH  18  19
ENDBRANCH  17  18
ENDBRANCH  16  17
ENDBRANCH  15  16
ENDBRANCH  14  15
ENDBRANCH  13  14
ENDBRANCH   1  13
TORSDOF 20
ENDMDL
MODEL 4
REMARK VINA RESULT:    -4.759      1.070      2.375
REMARK INTER + INTRA:         -11.873
REMARK INTER:                  -9.585
REMARK INTRA:                  -2.288
REMARK UNBOUND:                -1.550
REMARK SMILES CCCCCCCCCCCCCCCCCCCCCC(=O)[O-]
REMARK SMILES IDX 12 1 11 2 10 3 9 4 8 5 7 6 6 7 5 8 4 9 3 10 2 11 1 12 13 13
REMARK SMILES IDX 14 14 15 15 16 16 17 17 18 18 19 19 20 20 21 21 22 22 23 23
REMARK SMILES IDX 24 24
REMARK H PARENT
REMARK Flexibility Score: inf
ROOT
ATOM      1  C   UNL     1       4.343  -2.672   7.804  1.00  0.00     0.000 C 
ENDROOT
BRANCH   1   2
ATOM      2  C   UNL     1       4.648  -1.553   6.789  1.00  0.00     0.000 C 
BRANCH   2   3
ATOM      3  C   UNL     1       4.188  -1.842   5.347  1.00  0.00     0.000 C 
BRANCH   3   4
ATOM      4  C   UNL     1       2.848  -2.597   5.229  1.00  0.00    -0.000 C 
BRANCH   4   5
ATOM      5  C   UNL     1       1.595  -1.704   5.243  1.00  0.00    -0.000 C 
BRANCH   5   6
ATOM      6  C   UNL     1       0.394  -2.371   5.927  1.00  0.00    -0.000 C 
BRANCH   6   7
ATOM      7  C   UNL     1      -0.929  -1.835   5.358  1.00  0.00    -0.000 C 
BRANCH   7   8
ATOM      8  C   UNL     1      -1.860  -2.953   4.861  1.00  0.00    -0.000 C 
BRANCH   8   9
ATOM      9  C   UNL     1      -2.545  -2.606   3.532  1.00  0.00    -0.000 C 
BRANCH   9  10
ATOM     10  C   UNL     1      -3.513  -1.426   3.705  1.00  0.00    -0.000 C 
BRANCH  10  11
ATOM     11  C   UNL     1      -4.748  -1.794   4.543  1.00  0.00    -0.003 C 
ATOM     12  C   UNL     1      -4.860  -0.969   5.825  1.00  0.00     0.004 C 
ENDBRANCH  10  11
ENDBRANCH   9  10
ENDBRANCH   8   9
ENDBRANCH   7   8
ENDBRANCH   6   7
ENDBRANCH   5   6
ENDBRANCH   4   5
ENDBRANCH   3   4
ENDBRANCH   2   3
ENDBRANCH   1   2
BRANCH   1  13
ATOM     13  C   UNL     1       3.842  -2.188   9.180  1.00  0.00     0.000 C 
BRANCH  13  14
ATOM     14  C   UNL     1       3.157  -0.809   9.180  1.00  0.00     0.000 C 
BRANCH  14  15
ATOM     15  C   UNL     1       1.624  -0.905   9.092  1.00  0.00     0.000 C 
BRANCH  15  16
ATOM     16  C   UNL     1       1.002   0.287   8.347  1.00  0.00     0.000 C 
BRANCH  16  17
ATOM     17  C   UNL     1       2.028   1.391   8.031  1.00  0.00     0.000 C 
BRANCH  17  18
ATOM     18  C   UNL     1       1.451   2.492   7.128  1.00  0.00     0.000 C 
BRANCH  18  19
ATOM     19  C   UNL     1       0.659   3.548   7.914  1.00  0.00     0.000 C 
BRANCH  19  20
ATOM     20  C   UNL     1       0.341   4.765   7.033  1.00  0.00     0.006 C 
BRANCH  20  21
ATOM     21  C   UNL     1       1.338   4.924   5.879  1.00  0.00     0.053 C 
BRANCH  21  22
ATOM     22  C   UNL     1       0.648   5.231   4.585  1.00  0.00     0.041 C 
ATOM     23  O   UNL     1       1.293   5.218   3.504  1.00  0.00    -0.550 OA
ATOM     24  O   UNL     1      -0.701   5.562   4.577  1.00  0.00    -0.550 OA
ENDBRANCH  21  22
ENDBRANCH  20  21
ENDBRANCH  19  20
ENDBRANCH  18  19
ENDBRANCH  17  18
ENDBRANCH  16  17
ENDBRANCH  15  16
ENDBRANCH  14  15
ENDBRANCH  13  14
ENDBRANCH   1  13
TORSDOF 20
ENDMDL
MODEL 5
REMARK VINA RESULT:    -4.749      4.845      9.227
REMARK INTER + INTRA:         -11.853
REMARK INTER:                  -9.567
REMARK INTRA:                  -2.286
REMARK UNBOUND:                -1.550
REMARK SMILES CCCCCCCCCCCCCCCCCCCCCC(=O)[O-]
REMARK SMILES IDX 12 1 11 2 10 3 9 4 8 5 7 6 6 7 5 8 4 9 3 10 2 11 1 12 13 13
REMARK SMILES IDX 14 14 15 15 16 16 17 17 18 18 19 19 20 20 21 21 22 22 23 23
REMARK SMILES IDX 24 24
REMARK H PARENT
REMARK Flexibility Score: inf
ROOT
ATOM      1  C   UNL     1      -4.494  -0.930   5.291  1.00  0.00     0.000 C 
ENDROOT
BRANCH   1   2
ATOM      2  C   UNL     1      -5.024  -2.010   6.254  1.00  0.00     0.000 C 
BRANCH   2   3
ATOM      3  C   UNL     1      -4.092  -2.340   7.436  1.00  0.00     0.000 C 
BRANCH   3   4
ATOM      4  C   UNL     1      -2.888  -3.239   7.085  1.00  0.00    -0.000 C 
BRANCH   4   5
ATOM      5  C   UNL     1      -1.541  -2.780   7.670  1.00  0.00    -0.000 C 
BRANCH   5   6
ATOM      6  C   UNL     1      -0.393  -2.851   6.653  1.00  0.00    -0.000 C 
BRANCH   6   7
ATOM      7  C   UNL     1       0.315  -1.493   6.529  1.00  0.00    -0.000 C 
BRANCH   7   8
ATOM      8  C   UNL     1       1.111  -1.355   5.222  1.00  0.00    -0.000 C 
BRANCH   8   9
ATOM      9  C   UNL     1       2.211  -2.417   5.082  1.00  0.00    -0.000 C 
BRANCH   9  10
ATOM     10  C   UNL     1       3.600  -1.801   5.311  1.00  0.00    -0.000 C 
BRANCH  10  11
ATOM     11  C   UNL     1       3.920  -1.605   6.802  1.00  0.00    -0.003 C 
ATOM     12  C   UNL     1       3.946  -2.922   7.579  1.00  0.00     0.004 C 
ENDBRANCH  10  11
ENDBRANCH   9  10
ENDBRANCH   8   9
ENDBRANCH   7   8
ENDBRANCH   6   7
ENDBRANCH   5   6
ENDBRANCH   4   5
ENDBRANCH   3   4
ENDBRANCH   2   3
ENDBRANCH   1   2
BRANCH   1  13
ATOM     13  C   UNL     1      -4.011  -1.453   3.923  1.00  0.00     0.000 C 
BRANCH  13  14
ATOM     14  C   UNL     1      -2.510  -1.786   3.842  1.00  0.00     0.000 C 
BRANCH  14  15
ATOM     15  C   UNL     1      -2.231  -3.110   3.110  1.00  0.00     0.000 C 
BRANCH  15  16
ATOM     16  C   UNL     1      -3.156  -4.246   3.577  1.00  0.00     0.000 C 
BRANCH  16  17
ATOM     17  C   UNL     1      -3.420  -5.287   2.474  1.00  0.00     0.000 C 
BRANCH  17  18
ATOM     18  C   UNL     1      -2.745  -4.922   1.142  1.00  0.00     0.000 C 
BRANCH  18  19
ATOM     19  C   UNL     1      -3.069  -5.920   0.021  1.00  0.00     0.000 C 
BRANCH  19  20
ATOM     20  C   UNL     1      -2.221  -5.637  -1.228  1.00  0.00     0.006 C 
BRANCH  20  21
ATOM     21  C   UNL     1      -1.403  -4.347  -1.095  1.00  0.00     0.053 C 
BRANCH  21  22
ATOM     22  C   UNL     1      -0.351  -4.243  -2.157  1.00  0.00     0.041 C 
ATOM     23  O   UNL     1       0.723  -4.891  -2.050  1.00  0.00    -0.550 OA
ATOM     24  O   UNL     1      -0.544  -3.408  -3.250  1.00  0.00    -0.550 OA
ENDBRANCH  21  22
ENDBRANCH  20  21
ENDBRANCH  19  20
ENDBRANCH  18  19
ENDBRANCH  17  18
ENDBRANCH  16  17
ENDBRANCH  15  16
ENDBRANCH  14  15
ENDBRANCH  13  14
ENDBRANCH   1  13
TORSDOF 20
ENDMDL
MODEL 6
REMARK VINA RESULT:    -4.696      4.472      7.664
REMARK INTER + INTRA:         -11.738
REMARK INTER:                  -9.075
REMARK INTRA:                  -2.662
REMARK UNBOUND:                -1.550
REMARK SMILES CCCCCCCCCCCCCCCCCCCCCC(=O)[O-]
REMARK SMILES IDX 12 1 11 2 10 3 9 4 8 5 7 6 6 7 5 8 4 9 3 10 2 11 1 12 13 13
REMARK SMILES IDX 14 14 15 15 16 16 17 17 18 18 19 19 20 20 21 21 22 22 23 23
REMARK SMILES IDX 24 24
REMARK H PARENT
REMARK Flexibility Score: inf
ROOT
ATOM      1  C   UNL     1      -5.303  -1.524   4.711  1.00  0.00     0.000 C 
ENDROOT
BRANCH   1   2
ATOM      2  C   UNL     1      -4.221  -1.513   3.614  1.00  0.00     0.000 C 
BRANCH   2   3
ATOM      3  C   UNL     1      -2.781  -1.719   4.120  1.00  0.00     0.000 C 
BRANCH   3   4
ATOM      4  C   UNL     1      -2.025  -2.898   3.474  1.00  0.00    -0.000 C 
BRANCH   4   5
ATOM      5  C   UNL     1      -2.560  -4.294   3.841  1.00  0.00    -0.000 C 
BRANCH   5   6
ATOM      6  C   UNL     1      -3.216  -5.014   2.655  1.00  0.00    -0.000 C 
BRANCH   6   7
ATOM      7  C   UNL     1      -2.645  -4.507   1.321  1.00  0.00    -0.000 C 
BRANCH   7   8
ATOM      8  C   UNL     1      -3.223  -5.250   0.106  1.00  0.00    -0.000 C 
BRANCH   8   9
ATOM      9  C   UNL     1      -2.184  -5.469  -1.004  1.00  0.00    -0.000 C 
BRANCH   9  10
ATOM     10  C   UNL     1      -1.193  -4.296  -1.067  1.00  0.00    -0.000 C 
BRANCH  10  11
ATOM     11  C   UNL     1      -0.993  -3.769  -2.496  1.00  0.00    -0.003 C 
ATOM     12  C   UNL     1      -0.107  -4.681  -3.345  1.00  0.00     0.004 C 
ENDBRANCH  10  11
ENDBRANCH   9  10
ENDBRANCH   8   9
ENDBRANCH   7   8
ENDBRANCH   6   7
ENDBRANCH   5   6
ENDBRANCH   4   5
ENDBRANCH   3   4
ENDBRANCH   2   3
ENDBRANCH   1   2
BRANCH   1  13
ATOM     13  C   UNL     1      -4.922  -0.792   6.013  1.00  0.00     0.000 C 
BRANCH  13  14
ATOM     14  C   UNL     1      -4.932  -1.664   7.282  1.00  0.00     0.000 C 
BRANCH  14  15
ATOM     15  C   UNL     1      -5.067  -3.166   6.973  1.00  0.00     0.000 C 
BRANCH  15  16
ATOM     16  C   UNL     1      -3.780  -3.948   7.280  1.00  0.00     0.000 C 
BRANCH  16  17
ATOM     17  C   UNL     1      -2.652  -3.048   7.817  1.00  0.00     0.000 C 
BRANCH  17  18
ATOM     18  C   UNL     1      -1.271  -3.444   7.271  1.00  0.00     0.000 C 
BRANCH  18  19
ATOM     19  C   UNL     1      -0.455  -2.234   6.793  1.00  0.00     0.000 C 
BRANCH  19  20
ATOM     20  C   UNL     1       0.971  -2.652   6.401  1.00  0.00     0.006 C 
BRANCH  20  21
ATOM     21  C   UNL     1       1.586  -1.713   5.357  1.00  0.00     0.053 C 
BRANCH  21  22
ATOM     22  C   UNL     1       3.079  -1.833   5.312  1.00  0.00     0.041 C 
ATOM     23  O   UNL     1       3.781  -1.367   6.247  1.00  0.00    -0.550 OA
ATOM     24  O   UNL     1       3.697  -2.431   4.221  1.00  0.00    -0.550 OA
ENDBRANCH  21  22
ENDBRANCH  20  21
ENDBRANCH  19  20
ENDBRANCH  18  19
ENDBRANCH  17  18
ENDBRANCH  16  17
ENDBRANCH  15  16
ENDBRANCH  14  15
ENDBRANCH  13  14
ENDBRANCH   1  13
TORSDOF 20
ENDMDL
MODEL 7
REMARK VINA RESULT:    -4.696      1.567      2.812
REMARK INTER + INTRA:         -11.738
REMARK INTER:                  -8.744
REMARK INTRA:                  -2.994
REMARK UNBOUND:                -1.550
REMARK SMILES CCCCCCCCCCCCCCCCCCCCCC(=O)[O-]
REMARK SMILES IDX 12 1 11 2 10 3 9 4 8 5 7 6 6 7 5 8 4 9 3 10 2 11 1 12 13 13
REMARK SMILES IDX 14 14 15 15 16 16 17 17 18 18 19 19 20 20 21 21 22 22 23 23
REMARK SMILES IDX 24 24
REMARK H PARENT
REMARK Flexibility Score: inf
ROOT
ATOM      1  C   UNL     1       3.600  -1.625   5.911  1.00  0.00     0.000 C 
ENDROOT
BRANCH   1   2
ATOM      2  C   UNL     1       3.747  -2.922   6.730  1.00  0.00     0.000 C 
BRANCH   2   3
ATOM      3  C   UNL     1       2.434  -3.691   6.968  1.00  0.00     0.000 C 
BRANCH   3   4
ATOM      4  C   UNL     1       1.835  -3.537   8.381  1.00  0.00    -0.000 C 
BRANCH   4   5
ATOM      5  C   UNL     1       0.328  -3.830   8.485  1.00  0.00    -0.000 C 
BRANCH   5   6
ATOM      6  C   UNL     1      -0.535  -2.564   8.389  1.00  0.00    -0.000 C 
BRANCH   6   7
ATOM      7  C   UNL     1      -1.641  -2.731   7.337  1.00  0.00    -0.000 C 
BRANCH   7   8
ATOM      8  C   UNL     1      -1.105  -3.224   5.983  1.00  0.00    -0.000 C 
BRANCH   8   9
ATOM      9  C   UNL     1      -1.306  -2.199   4.857  1.00  0.00    -0.000 C 
BRANCH   9  10
ATOM     10  C   UNL     1      -2.420  -2.648   3.900  1.00  0.00    -0.000 C 
BRANCH  10  11
ATOM     11  C   UNL     1      -3.505  -1.576   3.712  1.00  0.00    -0.003 C 
ATOM     12  C   UNL     1      -4.257  -1.263   5.006  1.00  0.00     0.004 C 
ENDBRANCH  10  11
ENDBRANCH   9  10
ENDBRANCH   8   9
ENDBRANCH   7   8
ENDBRANCH   6   7
ENDBRANCH   5   6
ENDBRANCH   4   5
ENDBRANCH   3   4
ENDBRANCH   2   3
ENDBRANCH   1   2
BRANCH   1  13
ATOM     13  C   UNL     1       2.150  -1.228   5.569  1.00  0.00     0.000 C 
BRANCH  13  14
ATOM     14  C   UNL     1       1.516  -0.190   6.513  1.00  0.00     0.000 C 
BRANCH  14  15
ATOM     15  C   UNL     1       2.508   0.353   7.556  1.00  0.00     0.000 C 
BRANCH  15  16
ATOM     16  C   UNL     1       2.013   0.156   8.998  1.00  0.00     0.000 C 
BRANCH  16  17
ATOM     17  C   UNL     1       0.808   1.053   9.339  1.00  0.00     0.000 C 
BRANCH  17  18
ATOM     18  C   UNL     1       1.180   2.543   9.400  1.00  0.00     0.000 C 
BRANCH  18  19
ATOM     19  C   UNL     1       0.238   3.422   8.564  1.00  0.00     0.000 C 
BRANCH  19  20
ATOM     20  C   UNL     1       0.800   3.642   7.152  1.00  0.00     0.006 C 
BRANCH  20  21
ATOM     21  C   UNL     1       0.179   4.862   6.462  1.00  0.00     0.053 C 
BRANCH  21  22
ATOM     22  C   UNL     1       0.654   5.005   5.048  1.00  0.00     0.041 C 
ATOM     23  O   UNL     1      -0.020   5.667   4.217  1.00  0.00    -0.550 OA
ATOM     24  O   UNL     1       1.826   4.380   4.640  1.00  0.00    -0.550 OA
ENDBRANCH  21  22
ENDBRANCH  20  21
ENDBRANCH  19  20
ENDBRANCH  18  19
ENDBRANCH  17  18
ENDBRANCH  16  17
ENDBRANCH  15  16
ENDBRANCH  14  15
ENDBRANCH  13  14
ENDBRANCH   1  13
TORSDOF 20
ENDMDL
MODEL 8
REMARK VINA RESULT:    -4.606      1.700      3.703
REMARK INTER + INTRA:         -11.540
REMARK INTER:                  -9.079
REMARK INTRA:                  -2.462
REMARK UNBOUND:                -1.550
REMARK SMILES CCCCCCCCCCCCCCCCCCCCCC(=O)[O-]
REMARK SMILES IDX 12 1 11 2 10 3 9 4 8 5 7 6 6 7 5 8 4 9 3 10 2 11 1 12 13 13
REMARK SMILES IDX 14 14 15 15 16 16 17 17 18 18 19 19 20 20 21 21 22 22 23 23
REMARK SMILES IDX 24 24
REMARK H PARENT
REMARK Flexibility Score: inf
ROOT
ATOM      1  C   UNL     1      -1.305  -3.706   6.207  1.00  0.00     0.000 C 
ENDROOT
BRANCH   1   2
ATOM      2  C   UNL     1      -1.731  -3.417   4.754  1.00  0.00     0.000 C 
BRANCH   2   3
ATOM      3  C   UNL     1      -1.908  -1.925   4.415  1.00  0.00     0.000 C 
BRANCH   3   4
ATOM      4  C   UNL     1      -3.261  -1.559   3.770  1.00  0.00    -0.000 C 
BRANCH   4   5
ATOM      5  C   UNL     1      -4.320  -1.013   4.743  1.00  0.00    -0.000 C 
BRANCH   5   6
ATOM      6  C   UNL     1      -5.307  -2.089   5.217  1.00  0.00    -0.000 C 
BRANCH   6   7
ATOM      7  C   UNL     1      -6.396  -2.337   4.163  1.00  0.00    -0.000 C 
BRANCH   7   8
ATOM      8  C   UNL     1      -6.369  -3.770   3.605  1.00  0.00    -0.000 C 
BRANCH   8   9
ATOM      9  C   UNL     1      -5.242  -4.620   4.210  1.00  0.00    -0.000 C 
BRANCH   9  10
ATOM     10  C   UNL     1      -4.560  -5.474   3.130  1.00  0.00    -0.000 C 
BRANCH  10  11
ATOM     11  C   UNL     1      -4.245  -4.673   1.857  1.00  0.00    -0.003 C 
ATOM     12  C   UNL     1      -2.779  -4.785   1.436  1.00  0.00     0.004 C 
ENDBRANCH  10  11
ENDBRANCH   9  10
ENDBRANCH   8   9
ENDBRANCH   7   8
ENDBRANCH   6   7
ENDBRANCH   5   6
ENDBRANCH   4   5
ENDBRANCH   3   4
ENDBRANCH   2   3
ENDBRANCH   1   2
BRANCH   1  13
ATOM     13  C   UNL     1      -0.994  -2.459   7.058  1.00  0.00     0.000 C 
BRANCH  13  14
ATOM     14  C   UNL     1       0.495  -2.240   7.381  1.00  0.00     0.000 C 
BRANCH  14  15
ATOM     15  C   UNL     1       1.324  -1.858   6.142  1.00  0.00     0.000 C 
BRANCH  15  16
ATOM     16  C   UNL     1       1.444  -0.336   5.961  1.00  0.00     0.000 C 
BRANCH  16  17
ATOM     17  C   UNL     1       1.428   0.424   7.300  1.00  0.00     0.000 C 
BRANCH  17  18
ATOM     18  C   UNL     1       2.098   1.804   7.203  1.00  0.00     0.000 C 
BRANCH  18  19
ATOM     19  C   UNL     1       1.114   2.957   7.451  1.00  0.00     0.000 C 
BRANCH  19  20
ATOM     20  C   UNL     1       1.087   3.922   6.257  1.00  0.00     0.006 C 
BRANCH  20  21
ATOM     21  C   UNL     1       0.091   5.071   6.460  1.00  0.00     0.053 C 
BRANCH  21  22
ATOM     22  C   UNL     1      -0.232   5.762   5.170  1.00  0.00     0.041 C 
ATOM     23  O   UNL     1       0.127   5.258   4.074  1.00  0.00    -0.550 OA
ATOM     24  O   UNL     1      -0.903   6.979   5.181  1.00  0.00    -0.550 OA
ENDBRANCH  21  22
ENDBRANCH  20  21
ENDBRANCH  19  20
ENDBRANCH  18  19
ENDBRANCH  17  18
ENDBRANCH  16  17
ENDBRANCH  15  16
ENDBRANCH  14  15
ENDBRANCH  13  14
ENDBRANCH   1  13
TORSDOF 20
ENDMDL
MODEL 9
REMARK VINA RESULT:    -4.522      1.422      2.596
REMARK INTER + INTRA:         -11.358
REMARK INTER:                  -8.752
REMARK INTRA:                  -2.606
REMARK UNBOUND:                -1.550
REMARK SMILES CCCCCCCCCCCCCCCCCCCCCC(=O)[O-]
REMARK SMILES IDX 12 1 11 2 10 3 9 4 8 5 7 6 6 7 5 8 4 9 3 10 2 11 1 12 13 13
REMARK SMILES IDX 14 14 15 15 16 16 17 17 18 18 19 19 20 20 21 21 22 22 23 23
REMARK SMILES IDX 24 24
REMARK H PARENT
REMARK Flexibility Score: inf
ROOT
ATOM      1  C   UNL     1       3.818  -1.580   6.262  1.00  0.00     0.000 C 
ENDROOT
BRANCH   1   2
ATOM      2  C   UNL     1       2.679  -2.059   5.342  1.00  0.00     0.000 C 
BRANCH   2   3
ATOM      3  C   UNL     1       1.443  -1.139   5.306  1.00  0.00     0.000 C 
BRANCH   3   4
ATOM      4  C   UNL     1       0.092  -1.852   5.521  1.00  0.00    -0.000 C 
BRANCH   4   5
ATOM      5  C   UNL     1       0.138  -3.058   6.475  1.00  0.00    -0.000 C 
BRANCH   5   6
ATOM      6  C   UNL     1      -1.238  -3.707   6.685  1.00  0.00    -0.000 C 
BRANCH   6   7
ATOM      7  C   UNL     1      -2.317  -2.640   6.927  1.00  0.00    -0.000 C 
BRANCH   7   8
ATOM      8  C   UNL     1      -3.464  -2.711   5.907  1.00  0.00    -0.000 C 
BRANCH   8   9
ATOM      9  C   UNL     1      -3.422  -1.563   4.887  1.00  0.00    -0.000 C 
BRANCH   9  10
ATOM     10  C   UNL     1      -3.476  -2.105   3.451  1.00  0.00    -0.000 C 
BRANCH  10  11
ATOM     11  C   UNL     1      -2.326  -3.076   3.143  1.00  0.00    -0.003 C 
ATOM     12  C   UNL     1      -2.817  -4.474   2.765  1.00  0.00     0.004 C 
ENDBRANCH  10  11
ENDBRANCH   9  10
ENDBRANCH   8   9
ENDBRANCH   7   8
ENDBRANCH   6   7
ENDBRANCH   5   6
ENDBRANCH   4   5
ENDBRANCH   3   4
ENDBRANCH   2   3
ENDBRANCH   1   2
BRANCH   1  13
ATOM     13  C   UNL     1       3.710  -2.038   7.730  1.00  0.00     0.000 C 
BRANCH  13  14
ATOM     14  C   UNL     1       3.328  -0.934   8.734  1.00  0.00     0.000 C 
BRANCH  14  15
ATOM     15  C   UNL     1       1.839  -0.967   9.119  1.00  0.00     0.000 C 
BRANCH  15  16
ATOM     16  C   UNL     1       1.052   0.213   8.526  1.00  0.00     0.000 C 
BRANCH  16  17
ATOM     17  C   UNL     1       1.842   1.534   8.567  1.00  0.00     0.000 C 
BRANCH  17  18
ATOM     18  C   UNL     1       1.307   2.573   7.569  1.00  0.00     0.000 C 
BRANCH  18  19
ATOM     19  C   UNL     1       2.430   3.328   6.843  1.00  0.00     0.000 C 
BRANCH  19  20
ATOM     20  C   UNL     1       1.911   4.645   6.248  1.00  0.00     0.006 C 
BRANCH  20  21
ATOM     21  C   UNL     1       0.384   4.759   6.332  1.00  0.00     0.053 C 
BRANCH  21  22
ATOM     22  C   UNL     1      -0.198   5.367   5.092  1.00  0.00     0.041 C 
ATOM     23  O   UNL     1       0.254   5.053   3.960  1.00  0.00    -0.550 OA
ATOM     24  O   UNL     1      -1.220   6.303   5.188  1.00  0.00    -0.550 OA
ENDBRANCH  21  22
ENDBRANCH  20  21
ENDBRANCH  19  20
ENDBRANCH  18  19
ENDBRANCH  17  18
ENDBRANCH  16  17
ENDBRANCH  15  16
ENDBRANCH  14  15
ENDBRANCH  13  14
ENDBRANCH   1  13
TORSDOF 20
ENDMDL
