MODEL 1
REMARK VINA RESULT:    -5.066      0.000      0.000
REMARK INTER + INTRA:          -6.876
REMARK INTER:                  -7.139
REMARK INTRA:                   0.263
REMARK UNBOUND:                 0.263
REMARK SMILES CC1=CCC(=C(C)C)C(=O)CC(C)=CCC1
REMARK SMILES IDX 12 1 14 2 13 3 15 4 16 5 2 6 1 7 3 8 11 10 9 11 10 12 5 13
REMARK SMILES IDX 6 14 7 15 8 16 4 17
REMARK H PARENT
REMARK Flexibility Score: 60.00
ROOT
ATOM      1  C   UNL     1      -3.367 -12.986  31.515  1.00  0.00    -0.070 C 
ATOM      2  C   UNL     1      -2.176 -13.615  31.736  1.00  0.00    -0.027 C 
ATOM      3  C   UNL     1      -4.615 -13.821  31.686  1.00  0.00     0.039 C 
ENDROOT
BRANCH   2   4
ATOM      4  C   UNL     1      -0.743 -13.098  31.715  1.00  0.00     0.032 C 
BRANCH   4   5
ATOM      5  C   UNL     1      -0.260 -12.416  30.429  1.00  0.00     0.034 C 
BRANCH   5   6
ATOM      6  C   UNL     1      -0.494 -13.135  29.093  1.00  0.00    -0.077 C 
ATOM      7  C   UNL     1       0.351 -14.371  28.865  1.00  0.00     0.039 C 
ATOM      8  C   UNL     1      -1.414 -12.865  28.119  1.00  0.00    -0.023 CG0
ATOM      9  G   UNL     1      -2.461 -11.773  28.019  1.00  0.00     0.000 G0
ENDBRANCH   5   6
ENDBRANCH   4   5
ENDBRANCH   2   4
BRANCH   1  10
ATOM     10  C   UNL     1      -3.570 -11.536  31.104  1.00  0.00     0.111 C 
BRANCH  10  11
ATOM     11  C   UNL     1      -4.260 -11.425  29.778  1.00  0.00     0.163 C 
ATOM     12  O   UNL     1      -5.231 -10.630  29.659  1.00  0.00    -0.294 OA
BRANCH  11  13
ATOM     13  C   UNL     1      -3.785 -12.205  28.606  1.00  0.00    -0.002 C 
ATOM     14  C   UNL     1      -4.516 -13.236  28.093  1.00  0.00    -0.069 C 
ATOM     15  C   UNL     1      -5.783 -13.709  28.769  1.00  0.00     0.039 C 
ATOM     16  C   UNL     1      -4.089 -13.962  26.837  1.00  0.00     0.039 C 
BRANCH  13  17
ATOM     17  C   UNL     1      -2.459 -11.775  28.014  1.00  0.00     0.066 CG0
ATOM     18  G   UNL     1      -1.411 -12.866  28.115  1.00  0.00     0.000 G0
ENDBRANCH  13  17
ENDBRANCH  11  13
ENDBRANCH  10  11
ENDBRANCH   1  10
TORSDOF 0
ENDMDL
MODEL 2
REMARK VINA RESULT:    -4.866      1.760      4.006
REMARK INTER + INTRA:          -6.595
REMARK INTER:                  -6.757
REMARK INTRA:                   0.162
REMARK UNBOUND:                 0.263
REMARK SMILES CC1=CCC(=C(C)C)C(=O)CC(C)=CCC1
REMARK SMILES IDX 12 1 14 2 13 3 15 4 16 5 2 6 1 7 3 8 11 10 9 11 10 12 5 13
REMARK SMILES IDX 6 14 7 15 8 16 4 17
REMARK H PARENT
REMARK Flexibility Score: 60.00
ROOT
ATOM      1  C   UNL     1      -4.768 -13.260  28.834  1.00  0.00    -0.070 C 
ATOM      2  C   UNL     1      -4.917 -14.000  29.971  1.00  0.00    -0.027 C 
ATOM      3  C   UNL     1      -4.922 -13.995  27.523  1.00  0.00     0.039 C 
ENDROOT
BRANCH   2   4
ATOM      4  C   UNL     1      -4.888 -13.605  31.443  1.00  0.00     0.032 C 
BRANCH   4   5
ATOM      5  C   UNL     1      -3.674 -12.806  31.933  1.00  0.00     0.034 C 
BRANCH   5   6
ATOM      6  C   UNL     1      -3.763 -11.273  31.932  1.00  0.00    -0.077 C 
ATOM      7  C   UNL     1      -4.833 -10.685  32.828  1.00  0.00     0.039 C 
ATOM      8  C   UNL     1      -2.960 -10.365  31.301  1.00  0.00    -0.023 CG0
ATOM      9  G   UNL     1      -1.766 -10.562  30.388  1.00  0.00     0.000 G0
ENDBRANCH   5   6
ENDBRANCH   4   5
ENDBRANCH   2   4
BRANCH   1  10
ATOM     10  C   UNL     1      -4.452 -11.775  28.747  1.00  0.00     0.111 C 
BRANCH  10  11
ATOM     11  C   UNL     1      -3.015 -11.531  28.397  1.00  0.00     0.163 C 
ATOM     12  O   UNL     1      -2.728 -11.136  27.235  1.00  0.00    -0.294 OA
BRANCH  11  13
ATOM     13  C   UNL     1      -1.946 -11.707  29.413  1.00  0.00    -0.002 C 
ATOM     14  C   UNL     1      -1.173 -12.832  29.446  1.00  0.00    -0.069 C 
ATOM     15  C   UNL     1      -1.454 -14.000  28.529  1.00  0.00     0.039 C 
ATOM     16  C   UNL     1      -0.015 -12.969  30.408  1.00  0.00     0.039 C 
BRANCH  13  17
ATOM     17  C   UNL     1      -1.757 -10.564  30.387  1.00  0.00     0.066 CG0
ATOM     18  G   UNL     1      -2.963 -10.379  31.289  1.00  0.00     0.000 G0
ENDBRANCH  13  17
ENDBRANCH  11  13
ENDBRANCH  10  11
ENDBRANCH   1  10
TORSDOF 0
ENDMDL
MODEL 3
REMARK VINA RESULT:    -4.704      2.194      4.766
REMARK INTER + INTRA:          -6.366
REMARK INTER:                  -6.868
REMARK INTRA:                   0.502
REMARK UNBOUND:                 0.263
REMARK SMILES CC1=CCC(=C(C)C)C(=O)CC(C)=CCC1
REMARK SMILES IDX 12 1 14 2 13 3 15 4 16 5 2 6 1 7 3 8 11 10 9 11 10 12 5 13
REMARK SMILES IDX 6 14 7 15 8 16 4 17
REMARK H PARENT
REMARK Flexibility Score: 60.00
ROOT
ATOM      1  C   UNL     1      -3.341 -11.396  27.290  1.00  0.00    -0.070 C 
ATOM      2  C   UNL     1      -3.008 -10.261  27.970  1.00  0.00    -0.027 C 
ATOM      3  C   UNL     1      -3.050 -11.407  25.807  1.00  0.00     0.039 C 
ENDROOT
BRANCH   2   4
ATOM      4  C   UNL     1      -3.097  -9.908  29.451  1.00  0.00     0.032 C 
BRANCH   4   5
ATOM      5  C   UNL     1      -4.338 -10.388  30.214  1.00  0.00     0.034 C 
BRANCH   5   6
ATOM      6  C   UNL     1      -4.135 -11.074  31.573  1.00  0.00    -0.077 C 
ATOM      7  C   UNL     1      -4.308 -10.180  32.782  1.00  0.00     0.039 C 
ATOM      8  C   UNL     1      -3.903 -12.393  31.846  1.00  0.00    -0.023 CG0
ATOM      9  G   UNL     1      -3.737 -13.583  30.921  1.00  0.00     0.000 G0
ENDBRANCH   5   6
ENDBRANCH   4   5
ENDBRANCH   2   4
BRANCH   1  10
ATOM     10  C   UNL     1      -3.982 -12.649  27.866  1.00  0.00     0.111 C 
BRANCH  10  11
ATOM     11  C   UNL     1      -2.968 -13.553  28.499  1.00  0.00     0.163 C 
ATOM     12  O   UNL     1      -2.400 -14.426  27.790  1.00  0.00    -0.294 OA
BRANCH  11  13
ATOM     13  C   UNL     1      -2.603 -13.399  29.931  1.00  0.00    -0.002 C 
ATOM     14  C   UNL     1      -1.331 -13.081  30.311  1.00  0.00    -0.069 C 
ATOM     15  C   UNL     1      -0.212 -12.991  29.299  1.00  0.00     0.039 C 
ATOM     16  C   UNL     1      -0.980 -12.818  31.758  1.00  0.00     0.039 C 
BRANCH  13  17
ATOM     17  C   UNL     1      -3.723 -13.600  30.929  1.00  0.00     0.066 CG0
ATOM     18  G   UNL     1      -3.892 -12.401  31.843  1.00  0.00     0.000 G0
ENDBRANCH  13  17
ENDBRANCH  11  13
ENDBRANCH  10  11
ENDBRANCH   1  10
TORSDOF 0
ENDMDL
MODEL 4
REMARK VINA RESULT:    -4.683      1.779      3.881
REMARK INTER + INTRA:          -6.336
REMARK INTER:                  -6.871
REMARK INTRA:                   0.535
REMARK UNBOUND:                 0.263
REMARK SMILES CC1=CCC(=C(C)C)C(=O)CC(C)=CCC1
REMARK SMILES IDX 12 1 14 2 13 3 15 4 16 5 2 6 1 7 3 8 11 10 9 11 10 12 5 13
REMARK SMILES IDX 6 14 7 15 8 16 4 17
REMARK H PARENT
REMARK Flexibility Score: 60.00
ROOT
ATOM      1  C   UNL     1      -4.498 -10.623  31.779  1.00  0.00    -0.070 C 
ATOM      2  C   UNL     1      -4.944  -9.959  30.673  1.00  0.00    -0.027 C 
ATOM      3  C   UNL     1      -4.760  -9.965  33.114  1.00  0.00     0.039 C 
ENDROOT
BRANCH   2   4
ATOM      4  C   UNL     1      -4.914 -10.328  29.194  1.00  0.00     0.032 C 
BRANCH   4   5
ATOM      5  C   UNL     1      -3.554 -10.285  28.486  1.00  0.00     0.034 C 
BRANCH   5   6
ATOM      6  C   UNL     1      -3.155 -11.477  27.604  1.00  0.00    -0.077 C 
ATOM      7  C   UNL     1      -2.960 -11.160  26.137  1.00  0.00     0.039 C 
ATOM      8  C   UNL     1      -2.872 -12.762  27.970  1.00  0.00    -0.023 CG0
ATOM      9  G   UNL     1      -2.889 -13.434  29.329  1.00  0.00     0.000 G0
ENDBRANCH   5   6
ENDBRANCH   4   5
ENDBRANCH   2   4
BRANCH   1  10
ATOM     10  C   UNL     1      -3.758 -11.951  31.809  1.00  0.00     0.111 C 
BRANCH  10  11
ATOM     11  C   UNL     1      -2.380 -11.834  31.232  1.00  0.00     0.163 C 
ATOM     12  O   UNL     1      -1.649 -10.870  31.586  1.00  0.00    -0.294 OA
BRANCH  11  13
ATOM     13  C   UNL     1      -1.861 -12.859  30.291  1.00  0.00    -0.002 C 
ATOM     14  C   UNL     1      -0.552 -13.246  30.309  1.00  0.00    -0.069 C 
ATOM     15  C   UNL     1       0.453 -12.559  31.206  1.00  0.00     0.039 C 
ATOM     16  C   UNL     1      -0.044 -14.364  29.427  1.00  0.00     0.039 C 
BRANCH  13  17
ATOM     17  C   UNL     1      -2.870 -13.453  29.331  1.00  0.00     0.066 CG0
ATOM     18  G   UNL     1      -2.853 -12.757  27.984  1.00  0.00     0.000 G0
ENDBRANCH  13  17
ENDBRANCH  11  13
ENDBRANCH  10  11
ENDBRANCH   1  10
TORSDOF 0
ENDMDL
MODEL 5
REMARK VINA RESULT:    -4.504      1.308      3.734
REMARK INTER + INTRA:          -6.084
REMARK INTER:                  -6.188
REMARK INTRA:                   0.104
REMARK UNBOUND:                 0.263
REMARK SMILES CC1=CCC(=C(C)C)C(=O)CC(C)=CCC1
REMARK SMILES IDX 12 1 14 2 13 3 15 4 16 5 2 6 1 7 3 8 11 10 9 11 10 12 5 13
REMARK SMILES IDX 6 14 7 15 8 16 4 17
REMARK H PARENT
REMARK Flexibility Score: 60.00
ROOT
ATOM      1  C   UNL     1      -5.123 -14.424  31.945  1.00  0.00    -0.070 C 
ATOM      2  C   UNL     1      -6.025 -14.714  30.963  1.00  0.00    -0.027 C 
ATOM      3  C   UNL     1      -5.653 -14.383  33.360  1.00  0.00     0.039 C 
ENDROOT
BRANCH   2   4
ATOM      4  C   UNL     1      -5.856 -14.895  29.459  1.00  0.00     0.032 C 
BRANCH   4   5
ATOM      5  C   UNL     1      -5.639 -13.631  28.619  1.00  0.00     0.034 C 
BRANCH   5   6
ATOM      6  C   UNL     1      -4.376 -13.543  27.750  1.00  0.00    -0.077 C 
ATOM      7  C   UNL     1      -4.399 -14.375  26.486  1.00  0.00     0.039 C 
ATOM      8  C   UNL     1      -3.270 -12.757  27.916  1.00  0.00    -0.023 CG0
ATOM      9  G   UNL     1      -2.914 -11.761  29.002  1.00  0.00     0.000 G0
ENDBRANCH   5   6
ENDBRANCH   4   5
ENDBRANCH   2   4
BRANCH   1  10
ATOM     10  C   UNL     1      -3.643 -14.129  31.765  1.00  0.00     0.111 C 
BRANCH  10  11
ATOM     11  C   UNL     1      -3.407 -12.722  31.306  1.00  0.00     0.163 C 
ATOM     12  O   UNL     1      -4.056 -11.786  31.845  1.00  0.00    -0.294 OA
BRANCH  11  13
ATOM     13  C   UNL     1      -2.394 -12.423  30.262  1.00  0.00    -0.002 C 
ATOM     14  C   UNL     1      -1.080 -12.754  30.429  1.00  0.00    -0.069 C 
ATOM     15  C   UNL     1      -0.578 -13.326  31.735  1.00  0.00     0.039 C 
ATOM     16  C   UNL     1      -0.065 -12.550  29.326  1.00  0.00     0.039 C 
BRANCH  13  17
ATOM     17  C   UNL     1      -2.909 -11.753  29.006  1.00  0.00     0.066 CG0
ATOM     18  G   UNL     1      -3.264 -12.758  27.928  1.00  0.00     0.000 G0
ENDBRANCH  13  17
ENDBRANCH  11  13
ENDBRANCH  10  11
ENDBRANCH   1  10
TORSDOF 0
ENDMDL
MODEL 6
REMARK VINA RESULT:    -4.281      1.927      2.588
REMARK INTER + INTRA:          -5.771
REMARK INTER:                  -6.054
REMARK INTRA:                   0.283
REMARK UNBOUND:                 0.263
REMARK SMILES CC1=CCC(=C(C)C)C(=O)CC(C)=CCC1
REMARK SMILES IDX 12 1 14 2 13 3 15 4 16 5 2 6 1 7 3 8 11 10 9 11 10 12 5 13
REMARK SMILES IDX 6 14 7 15 8 16 4 17
REMARK H PARENT
REMARK Flexibility Score: 60.00
ROOT
ATOM      1  C   UNL     1      -4.497 -13.331  31.357  1.00  0.00    -0.070 C 
ATOM      2  C   UNL     1      -4.118 -12.262  32.117  1.00  0.00    -0.027 C 
ATOM      3  C   UNL     1      -4.742 -14.629  32.090  1.00  0.00     0.039 C 
ENDROOT
BRANCH   2   4
ATOM      4  C   UNL     1      -3.842 -10.809  31.748  1.00  0.00     0.032 C 
BRANCH   4   5
ATOM      5  C   UNL     1      -2.380 -10.344  31.768  1.00  0.00     0.034 C 
BRANCH   5   6
ATOM      6  C   UNL     1      -1.341 -11.179  31.006  1.00  0.00    -0.077 C 
ATOM      7  C   UNL     1      -0.245 -11.783  31.856  1.00  0.00     0.039 C 
ATOM      8  C   UNL     1      -1.314 -11.520  29.683  1.00  0.00    -0.023 CG0
ATOM      9  G   UNL     1      -2.256 -11.170  28.548  1.00  0.00     0.000 G0
ENDBRANCH   5   6
ENDBRANCH   4   5
ENDBRANCH   2   4
BRANCH   1  10
ATOM     10  C   UNL     1      -4.688 -13.355  29.849  1.00  0.00     0.111 C 
BRANCH  10  11
ATOM     11  C   UNL     1      -3.378 -13.397  29.122  1.00  0.00     0.163 C 
ATOM     12  O   UNL     1      -2.566 -14.327  29.377  1.00  0.00    -0.294 OA
BRANCH  11  13
ATOM     13  C   UNL     1      -3.053 -12.384  28.084  1.00  0.00    -0.002 C 
ATOM     14  C   UNL     1      -3.457 -12.536  26.789  1.00  0.00    -0.069 C 
ATOM     15  C   UNL     1      -4.146 -13.800  26.330  1.00  0.00     0.039 C 
ATOM     16  C   UNL     1      -3.222 -11.459  25.755  1.00  0.00     0.039 C 
BRANCH  13  17
ATOM     17  C   UNL     1      -2.268 -11.178  28.554  1.00  0.00     0.066 CG0
ATOM     18  G   UNL     1      -1.306 -11.524  29.674  1.00  0.00     0.000 G0
ENDBRANCH  13  17
ENDBRANCH  11  13
ENDBRANCH  10  11
ENDBRANCH   1  10
TORSDOF 0
ENDMDL
MODEL 7
REMARK VINA RESULT:    -4.281      1.781      3.639
REMARK INTER + INTRA:          -5.770
REMARK INTER:                  -6.643
REMARK INTRA:                   0.873
REMARK UNBOUND:                 0.263
REMARK SMILES CC1=CCC(=C(C)C)C(=O)CC(C)=CCC1
REMARK SMILES IDX 12 1 14 2 13 3 15 4 16 5 2 6 1 7 3 8 11 10 9 11 10 12 5 13
REMARK SMILES IDX 6 14 7 15 8 16 4 17
REMARK H PARENT
REMARK Flexibility Score: 60.00
ROOT
ATOM      1  C   UNL     1      -5.213 -14.349  31.301  1.00  0.00    -0.070 C 
ATOM      2  C   UNL     1      -5.592 -14.358  29.990  1.00  0.00    -0.027 C 
ATOM      3  C   UNL     1      -5.603 -15.554  32.126  1.00  0.00     0.039 C 
ENDROOT
BRANCH   2   4
ATOM      4  C   UNL     1      -5.337 -13.368  28.860  1.00  0.00     0.032 C 
BRANCH   4   5
ATOM      5  C   UNL     1      -4.314 -13.769  27.790  1.00  0.00     0.034 C 
BRANCH   5   6
ATOM      6  C   UNL     1      -3.223 -12.757  27.412  1.00  0.00    -0.077 C 
ATOM      7  C   UNL     1      -3.435 -12.037  26.098  1.00  0.00     0.039 C 
ATOM      8  C   UNL     1      -2.133 -12.357  28.132  1.00  0.00    -0.023 CG0
ATOM      9  G   UNL     1      -1.630 -12.791  29.496  1.00  0.00     0.000 G0
ENDBRANCH   5   6
ENDBRANCH   4   5
ENDBRANCH   2   4
BRANCH   1  10
ATOM     10  C   UNL     1      -4.447 -13.251  32.022  1.00  0.00     0.111 C 
BRANCH  10  11
ATOM     11  C   UNL     1      -3.007 -13.214  31.609  1.00  0.00     0.163 C 
ATOM     12  O   UNL     1      -2.210 -14.061  32.094  1.00  0.00    -0.294 OA
BRANCH  11  13
ATOM     13  C   UNL     1      -2.528 -12.224  30.610  1.00  0.00    -0.002 C 
ATOM     14  C   UNL     1      -2.867 -10.905  30.696  1.00  0.00    -0.069 C 
ATOM     15  C   UNL     1      -3.843 -10.415  31.741  1.00  0.00     0.039 C 
ATOM     16  C   UNL     1      -2.296  -9.877  29.745  1.00  0.00     0.039 C 
BRANCH  13  17
ATOM     17  C   UNL     1      -1.637 -12.764  29.512  1.00  0.00     0.066 CG0
ATOM     18  G   UNL     1      -2.130 -12.369  28.133  1.00  0.00     0.000 G0
ENDBRANCH  13  17
ENDBRANCH  11  13
ENDBRANCH  10  11
ENDBRANCH   1  10
TORSDOF 0
ENDMDL
MODEL 8
REMARK VINA RESULT:    -4.194      1.716      3.617
REMARK INTER + INTRA:          -5.647
REMARK INTER:                  -5.890
REMARK INTRA:                   0.243
REMARK UNBOUND:                 0.263
REMARK SMILES CC1=CCC(=C(C)C)C(=O)CC(C)=CCC1
REMARK SMILES IDX 12 1 14 2 13 3 15 4 16 5 2 6 1 7 3 8 11 10 9 11 10 12 5 13
REMARK SMILES IDX 6 14 7 15 8 16 4 17
REMARK H PARENT
REMARK Flexibility Score: 60.00
ROOT
ATOM      1  C   UNL     1      -2.415 -12.584  27.770  1.00  0.00    -0.070 C 
ATOM      2  C   UNL     1      -1.079 -12.547  28.046  1.00  0.00    -0.027 C 
ATOM      3  C   UNL     1      -2.992 -11.381  27.060  1.00  0.00     0.039 C 
ENDROOT
BRANCH   2   4
ATOM      4  C   UNL     1      -0.153 -13.575  28.686  1.00  0.00     0.032 C 
BRANCH   4   5
ATOM      5  C   UNL     1      -0.589 -14.176  30.027  1.00  0.00     0.034 C 
BRANCH   5   6
ATOM      6  C   UNL     1      -0.893 -13.219  31.189  1.00  0.00    -0.077 C 
ATOM      7  C   UNL     1       0.304 -12.485  31.754  1.00  0.00     0.039 C 
ATOM      8  C   UNL     1      -2.101 -12.876  31.728  1.00  0.00    -0.023 CG0
ATOM      9  G   UNL     1      -3.505 -13.338  31.392  1.00  0.00     0.000 G0
ENDBRANCH   5   6
ENDBRANCH   4   5
ENDBRANCH   2   4
BRANCH   1  10
ATOM     10  C   UNL     1      -3.387 -13.703  28.110  1.00  0.00     0.111 C 
BRANCH  10  11
ATOM     11  C   UNL     1      -4.472 -13.237  29.033  1.00  0.00     0.163 C 
ATOM     12  O   UNL     1      -5.671 -13.503  28.750  1.00  0.00    -0.294 OA
BRANCH  11  13
ATOM     13  C   UNL     1      -4.143 -12.510  30.286  1.00  0.00    -0.002 C 
ATOM     14  C   UNL     1      -4.414 -11.180  30.430  1.00  0.00    -0.069 C 
ATOM     15  C   UNL     1      -4.947 -10.362  29.276  1.00  0.00     0.039 C 
ATOM     16  C   UNL     1      -4.180 -10.461  31.739  1.00  0.00     0.039 C 
BRANCH  13  17
ATOM     17  C   UNL     1      -3.511 -13.333  31.387  1.00  0.00     0.066 CG0
ATOM     18  G   UNL     1      -2.109 -12.862  31.718  1.00  0.00     0.000 G0
ENDBRANCH  13  17
ENDBRANCH  11  13
ENDBRANCH  10  11
ENDBRANCH   1  10
TORSDOF 0
ENDMDL
MODEL 9
REMARK VINA RESULT:    -4.071      1.728      3.493
REMARK INTER + INTRA:          -5.474
REMARK INTER:                  -5.665
REMARK INTRA:                   0.191
REMARK UNBOUND:                 0.263
REMARK SMILES CC1=CCC(=C(C)C)C(=O)CC(C)=CCC1
REMARK SMILES IDX 12 1 14 2 13 3 15 4 16 5 2 6 1 7 3 8 11 10 9 11 10 12 5 13
REMARK SMILES IDX 6 14 7 15 8 16 4 17
REMARK H PARENT
REMARK Flexibility Score: 60.00
ROOT
ATOM      1  C   UNL     1      -1.164 -12.959  29.436  1.00  0.00    -0.070 C 
ATOM      2  C   UNL     1      -1.480 -13.597  30.600  1.00  0.00    -0.027 C 
ATOM      3  C   UNL     1      -0.259 -13.702  28.481  1.00  0.00     0.039 C 
ENDROOT
BRANCH   2   4
ATOM      4  C   UNL     1      -2.389 -13.196  31.756  1.00  0.00     0.032 C 
BRANCH   4   5
ATOM      5  C   UNL     1      -3.809 -12.736  31.407  1.00  0.00     0.034 C 
BRANCH   5   6
ATOM      6  C   UNL     1      -4.059 -11.234  31.207  1.00  0.00    -0.077 C 
ATOM      7  C   UNL     1      -3.643 -10.348  32.361  1.00  0.00     0.039 C 
ATOM      8  C   UNL     1      -4.527 -10.579  30.102  1.00  0.00    -0.023 CG0
ATOM      9  G   UNL     1      -4.976 -11.104  28.752  1.00  0.00     0.000 G0
ENDBRANCH   5   6
ENDBRANCH   4   5
ENDBRANCH   2   4
BRANCH   1  10
ATOM     10  C   UNL     1      -1.619 -11.574  29.002  1.00  0.00     0.111 C 
BRANCH  10  11
ATOM     11  C   UNL     1      -2.635 -11.641  27.902  1.00  0.00     0.163 C 
ATOM     12  O   UNL     1      -2.292 -11.318  26.733  1.00  0.00    -0.294 OA
BRANCH  11  13
ATOM     13  C   UNL     1      -4.014 -12.122  28.170  1.00  0.00    -0.002 C 
ATOM     14  C   UNL     1      -4.381 -13.412  27.917  1.00  0.00    -0.069 C 
ATOM     15  C   UNL     1      -3.434 -14.375  27.238  1.00  0.00     0.039 C 
ATOM     16  C   UNL     1      -5.751 -13.934  28.289  1.00  0.00     0.039 C 
BRANCH  13  17
ATOM     17  C   UNL     1      -4.973 -11.105  28.752  1.00  0.00     0.066 CG0
ATOM     18  G   UNL     1      -4.518 -10.605  30.110  1.00  0.00     0.000 G0
ENDBRANCH  13  17
ENDBRANCH  11  13
ENDBRANCH  10  11
ENDBRANCH   1  10
TORSDOF 0
ENDMDL
