MODEL 1
REMARK VINA RESULT:    -5.406      0.000      0.000
REMARK INTER + INTRA:          -8.717
REMARK INTER:                  -8.251
REMARK INTRA:                  -0.466
REMARK UNBOUND:                -0.466
REMARK SMILES CCCCCCCCCCC(=O)[O-]
REMARK SMILES IDX 7 1 8 2 9 3 10 4 11 5 12 6 13 7 6 8 5 9 4 10 3 11 2 12 1 13
REMARK H PARENT
REMARK Flexibility Score: inf
ROOT
ATOM      1  C   UNL     1      13.718   2.298  15.899  1.00  0.00     0.000 C 
ENDROOT
BRANCH   1   2
ATOM      2  C   UNL     1      13.200   3.456  16.768  1.00  0.00     0.000 C 
BRANCH   2   3
ATOM      3  C   UNL     1      13.214   3.123  18.268  1.00  0.00     0.006 C 
BRANCH   3   4
ATOM      4  C   UNL     1      13.608   1.661  18.500  1.00  0.00     0.053 C 
BRANCH   4   5
ATOM      5  C   UNL     1      14.828   1.577  19.362  1.00  0.00     0.041 C 
ATOM      6  O   UNL     1      14.736   1.739  20.608  1.00  0.00    -0.550 OA
ATOM      7  O   UNL     1      16.059   1.272  18.798  1.00  0.00    -0.550 OA
ENDBRANCH   4   5
ENDBRANCH   3   4
ENDBRANCH   2   3
ENDBRANCH   1   2
BRANCH   1   8
ATOM      8  C   UNL     1      15.064   2.619  15.227  1.00  0.00     0.000 C 
BRANCH   8   9
ATOM      9  C   UNL     1      14.917   2.929  13.729  1.00  0.00    -0.000 C 
BRANCH   9  10
ATOM     10  C   UNL     1      15.306   1.739  12.835  1.00  0.00    -0.000 C 
BRANCH  10  11
ATOM     11  C   UNL     1      15.958   2.182  11.515  1.00  0.00    -0.000 C 
BRANCH  11  12
ATOM     12  C   UNL     1      17.156   1.305  11.124  1.00  0.00    -0.003 C 
ATOM     13  C   UNL     1      17.607   0.438  12.296  1.00  0.00     0.004 C 
ENDBRANCH  11  12
ENDBRANCH  10  11
ENDBRANCH   9  10
ENDBRANCH   8   9
ENDBRANCH   1   8
TORSDOF 9
ENDMDL
MODEL 2
REMARK VINA RESULT:    -5.369      3.155      6.105
REMARK INTER + INTRA:          -8.660
REMARK INTER:                  -7.544
REMARK INTRA:                  -1.116
REMARK UNBOUND:                -0.466
REMARK SMILES CCCCCCCCCCC(=O)[O-]
REMARK SMILES IDX 7 1 8 2 9 3 10 4 11 5 12 6 13 7 6 8 5 9 4 10 3 11 2 12 1 13
REMARK H PARENT
REMARK Flexibility Score: inf
ROOT
ATOM      1  C   UNL     1      16.872  -0.944  18.910  1.00  0.00     0.000 C 
ENDROOT
BRANCH   1   2
ATOM      2  C   UNL     1      17.837   0.253  18.906  1.00  0.00     0.000 C 
BRANCH   2   3
ATOM      3  C   UNL     1      18.037   0.848  17.504  1.00  0.00     0.006 C 
BRANCH   3   4
ATOM      4  C   UNL     1      16.937   1.866  17.181  1.00  0.00     0.053 C 
BRANCH   4   5
ATOM      5  C   UNL     1      16.172   1.443  15.967  1.00  0.00     0.041 C 
ATOM      6  O   UNL     1      15.848   2.291  15.094  1.00  0.00    -0.550 OA
ATOM      7  O   UNL     1      15.859   0.103  15.774  1.00  0.00    -0.550 OA
ENDBRANCH   4   5
ENDBRANCH   3   4
ENDBRANCH   2   3
ENDBRANCH   1   2
BRANCH   1   8
ATOM      8  C   UNL     1      15.547  -0.635  19.628  1.00  0.00     0.000 C 
BRANCH   8   9
ATOM      9  C   UNL     1      15.604   0.674  20.432  1.00  0.00    -0.000 C 
BRANCH   9  10
ATOM     10  C   UNL     1      14.509   1.673  20.018  1.00  0.00    -0.000 C 
BRANCH  10  11
ATOM     11  C   UNL     1      13.707   1.195  18.798  1.00  0.00    -0.000 C 
BRANCH  11  12
ATOM     12  C   UNL     1      13.368   2.339  17.830  1.00  0.00    -0.003 C 
ATOM     13  C   UNL     1      13.265   3.670  18.568  1.00  0.00     0.004 C 
ENDBRANCH  11  12
ENDBRANCH  10  11
ENDBRANCH   9  10
ENDBRANCH   8   9
ENDBRANCH   1   8
TORSDOF 9
ENDMDL
MODEL 3
REMARK VINA RESULT:    -5.362      0.913      1.551
REMARK INTER + INTRA:          -8.650
REMARK INTER:                  -8.154
REMARK INTRA:                  -0.496
REMARK UNBOUND:                -0.466
REMARK SMILES CCCCCCCCCCC(=O)[O-]
REMARK SMILES IDX 7 1 8 2 9 3 10 4 11 5 12 6 13 7 6 8 5 9 4 10 3 11 2 12 1 13
REMARK H PARENT
REMARK Flexibility Score: inf
ROOT
ATOM      1  C   UNL     1      13.017   3.360  16.506  1.00  0.00     0.000 C 
ENDROOT
BRANCH   1   2
ATOM      2  C   UNL     1      13.226   3.204  18.021  1.00  0.00     0.000 C 
BRANCH   2   3
ATOM      3  C   UNL     1      13.589   1.767  18.425  1.00  0.00     0.006 C 
BRANCH   3   4
ATOM      4  C   UNL     1      14.733   1.758  19.444  1.00  0.00     0.053 C 
BRANCH   4   5
ATOM      5  C   UNL     1      15.765   0.744  19.065  1.00  0.00     0.041 C 
ATOM      6  O   UNL     1      16.591   0.328  19.920  1.00  0.00    -0.550 OA
ATOM      7  O   UNL     1      15.785   0.219  17.779  1.00  0.00    -0.550 OA
ENDBRANCH   4   5
ENDBRANCH   3   4
ENDBRANCH   2   3
ENDBRANCH   1   2
BRANCH   1   8
ATOM      8  C   UNL     1      13.717   2.255  15.696  1.00  0.00     0.000 C 
BRANCH   8   9
ATOM      9  C   UNL     1      15.112   2.676  15.207  1.00  0.00    -0.000 C 
BRANCH   9  10
ATOM     10  C   UNL     1      15.148   2.974  13.698  1.00  0.00    -0.000 C 
BRANCH  10  11
ATOM     11  C   UNL     1      15.373   1.709  12.854  1.00  0.00    -0.000 C 
BRANCH  11  12
ATOM     12  C   UNL     1      15.861   2.027  11.433  1.00  0.00    -0.003 C 
ATOM     13  C   UNL     1      17.153   1.279  11.116  1.00  0.00     0.004 C 
ENDBRANCH  11  12
ENDBRANCH  10  11
ENDBRANCH   9  10
ENDBRANCH   8   9
ENDBRANCH   1   8
TORSDOF 9
ENDMDL
MODEL 4
REMARK VINA RESULT:    -5.360      1.831      2.486
REMARK INTER + INTRA:          -8.646
REMARK INTER:                  -7.771
REMARK INTRA:                  -0.874
REMARK UNBOUND:                -0.466
REMARK SMILES CCCCCCCCCCC(=O)[O-]
REMARK SMILES IDX 7 1 8 2 9 3 10 4 11 5 12 6 13 7 6 8 5 9 4 10 3 11 2 12 1 13
REMARK H PARENT
REMARK Flexibility Score: inf
ROOT
ATOM      1  C   UNL     1      14.622   2.455  14.356  1.00  0.00     0.000 C 
ENDROOT
BRANCH   1   2
ATOM      2  C   UNL     1      15.581   2.630  15.545  1.00  0.00     0.000 C 
BRANCH   2   3
ATOM      3  C   UNL     1      15.967   1.293  16.197  1.00  0.00     0.006 C 
BRANCH   3   4
ATOM      4  C   UNL     1      16.948   1.513  17.353  1.00  0.00     0.053 C 
BRANCH   4   5
ATOM      5  C   UNL     1      16.386   0.967  18.628  1.00  0.00     0.041 C 
ATOM      6  O   UNL     1      17.135   0.376  19.450  1.00  0.00    -0.550 OA
ATOM      7  O   UNL     1      15.044   1.154  18.932  1.00  0.00    -0.550 OA
ENDBRANCH   4   5
ENDBRANCH   3   4
ENDBRANCH   2   3
ENDBRANCH   1   2
BRANCH   1   8
ATOM      8  C   UNL     1      15.203   3.005  13.042  1.00  0.00     0.000 C 
BRANCH   8   9
ATOM      9  C   UNL     1      15.536   1.895  12.033  1.00  0.00    -0.000 C 
BRANCH   9  10
ATOM     10  C   UNL     1      16.947   2.039  11.436  1.00  0.00    -0.000 C 
BRANCH  10  11
ATOM     11  C   UNL     1      17.824   0.804  11.694  1.00  0.00    -0.000 C 
BRANCH  11  12
ATOM     12  C   UNL     1      17.370   0.004  12.923  1.00  0.00    -0.003 C 
ATOM     13  C   UNL     1      18.548  -0.302  13.844  1.00  0.00     0.004 C 
ENDBRANCH  11  12
ENDBRANCH  10  11
ENDBRANCH   9  10
ENDBRANCH   8   9
ENDBRANCH   1   8
TORSDOF 9
ENDMDL
MODEL 5
REMARK VINA RESULT:    -5.353     14.849     16.758
REMARK INTER + INTRA:          -8.636
REMARK INTER:                  -7.654
REMARK INTRA:                  -0.982
REMARK UNBOUND:                -0.466
REMARK SMILES CCCCCCCCCCC(=O)[O-]
REMARK SMILES IDX 7 1 8 2 9 3 10 4 11 5 12 6 13 7 6 8 5 9 4 10 3 11 2 12 1 13
REMARK H PARENT
REMARK Flexibility Score: inf
ROOT
ATOM      1  C   UNL     1      31.672  -0.273   8.000  1.00  0.00     0.000 C 
ENDROOT
BRANCH   1   2
ATOM      2  C   UNL     1      30.486   0.703   8.064  1.00  0.00     0.000 C 
BRANCH   2   3
ATOM      3  C   UNL     1      29.239   0.078   8.707  1.00  0.00     0.006 C 
BRANCH   3   4
ATOM      4  C   UNL     1      28.306   1.162   9.256  1.00  0.00     0.053 C 
BRANCH   4   5
ATOM      5  C   UNL     1      28.827   1.694  10.553  1.00  0.00     0.041 C 
ATOM      6  O   UNL     1      29.392   2.819  10.597  1.00  0.00    -0.550 OA
ATOM      7  O   UNL     1      28.645   0.971  11.725  1.00  0.00    -0.550 OA
ENDBRANCH   4   5
ENDBRANCH   3   4
ENDBRANCH   2   3
ENDBRANCH   1   2
BRANCH   1   8
ATOM      8  C   UNL     1      31.226  -1.743   7.922  1.00  0.00     0.000 C 
BRANCH   8   9
ATOM      9  C   UNL     1      31.115  -2.250   6.476  1.00  0.00    -0.000 C 
BRANCH   9  10
ATOM     10  C   UNL     1      29.794  -2.993   6.207  1.00  0.00    -0.000 C 
BRANCH  10  11
ATOM     11  C   UNL     1      28.685  -2.057   5.699  1.00  0.00    -0.000 C 
BRANCH  11  12
ATOM     12  C   UNL     1      27.373  -2.218   6.481  1.00  0.00    -0.003 C 
ATOM     13  C   UNL     1      26.528  -0.949   6.402  1.00  0.00     0.004 C 
ENDBRANCH  11  12
ENDBRANCH  10  11
ENDBRANCH   9  10
ENDBRANCH   8   9
ENDBRANCH   1   8
TORSDOF 9
ENDMDL
MODEL 6
REMARK VINA RESULT:    -5.270      3.047      6.250
REMARK INTER + INTRA:          -8.509
REMARK INTER:                  -7.688
REMARK INTRA:                  -0.821
REMARK UNBOUND:                -0.466
REMARK SMILES CCCCCCCCCCC(=O)[O-]
REMARK SMILES IDX 7 1 8 2 9 3 10 4 11 5 12 6 13 7 6 8 5 9 4 10 3 11 2 12 1 13
REMARK H PARENT
REMARK Flexibility Score: inf
ROOT
ATOM      1  C   UNL     1      15.429   3.020  16.756  1.00  0.00     0.000 C 
ENDROOT
BRANCH   1   2
ATOM      2  C   UNL     1      15.949   1.810  15.963  1.00  0.00     0.000 C 
BRANCH   2   3
ATOM      3  C   UNL     1      15.023   1.423  14.799  1.00  0.00     0.006 C 
BRANCH   3   4
ATOM      4  C   UNL     1      15.824   1.222  13.508  1.00  0.00     0.053 C 
BRANCH   4   5
ATOM      5  C   UNL     1      15.555   2.335  12.546  1.00  0.00     0.041 C 
ATOM      6  O   UNL     1      15.117   3.441  12.962  1.00  0.00    -0.550 OA
ATOM      7  O   UNL     1      15.834   2.170  11.196  1.00  0.00    -0.550 OA
ENDBRANCH   4   5
ENDBRANCH   3   4
ENDBRANCH   2   3
ENDBRANCH   1   2
BRANCH   1   8
ATOM      8  C   UNL     1      13.896   3.028  16.886  1.00  0.00     0.000 C 
BRANCH   8   9
ATOM      9  C   UNL     1      13.426   2.805  18.332  1.00  0.00    -0.000 C 
BRANCH   9  10
ATOM     10  C   UNL     1      13.780   1.404  18.863  1.00  0.00    -0.000 C 
BRANCH  10  11
ATOM     11  C   UNL     1      14.748   1.453  20.056  1.00  0.00    -0.000 C 
BRANCH  11  12
ATOM     12  C   UNL     1      15.625   0.196  20.157  1.00  0.00    -0.003 C 
ATOM     13  C   UNL     1      16.905   0.354  19.342  1.00  0.00     0.004 C 
ENDBRANCH  11  12
ENDBRANCH  10  11
ENDBRANCH   9  10
ENDBRANCH   8   9
ENDBRANCH   1   8
TORSDOF 9
ENDMDL
MODEL 7
REMARK VINA RESULT:    -5.216      3.186      5.305
REMARK INTER + INTRA:          -8.427
REMARK INTER:                  -7.378
REMARK INTRA:                  -1.049
REMARK UNBOUND:                -0.466
REMARK SMILES CCCCCCCCCCC(=O)[O-]
REMARK SMILES IDX 7 1 8 2 9 3 10 4 11 5 12 6 13 7 6 8 5 9 4 10 3 11 2 12 1 13
REMARK H PARENT
REMARK Flexibility Score: inf
ROOT
ATOM      1  C   UNL     1      13.795   1.194  18.600  1.00  0.00     0.000 C 
ENDROOT
BRANCH   1   2
ATOM      2  C   UNL     1      14.000   2.690  18.887  1.00  0.00     0.000 C 
BRANCH   2   3
ATOM      3  C   UNL     1      14.194   3.518  17.608  1.00  0.00     0.006 C 
BRANCH   3   4
ATOM      4  C   UNL     1      15.389   3.002  16.799  1.00  0.00     0.053 C 
BRANCH   4   5
ATOM      5  C   UNL     1      14.964   2.632  15.414  1.00  0.00     0.041 C 
ATOM      6  O   UNL     1      15.812   2.222  14.578  1.00  0.00    -0.550 OA
ATOM      7  O   UNL     1      13.622   2.692  15.059  1.00  0.00    -0.550 OA
ENDBRANCH   4   5
ENDBRANCH   3   4
ENDBRANCH   2   3
ENDBRANCH   1   2
BRANCH   1   8
ATOM      8  C   UNL     1      14.154   0.306  19.804  1.00  0.00     0.000 C 
BRANCH   8   9
ATOM      9  C   UNL     1      15.591   0.535  20.299  1.00  0.00    -0.000 C 
BRANCH   9  10
ATOM     10  C   UNL     1      16.650   0.085  19.277  1.00  0.00    -0.000 C 
BRANCH  10  11
ATOM     11  C   UNL     1      16.615  -1.431  19.022  1.00  0.00    -0.000 C 
BRANCH  11  12
ATOM     12  C   UNL     1      16.932  -1.791  17.563  1.00  0.00    -0.003 C 
ATOM     13  C   UNL     1      16.150  -0.905  16.596  1.00  0.00     0.004 C 
ENDBRANCH  11  12
ENDBRANCH  10  11
ENDBRANCH   9  10
ENDBRANCH   8   9
ENDBRANCH   1   8
TORSDOF 9
ENDMDL
MODEL 8
REMARK VINA RESULT:    -5.215      2.595      5.095
REMARK INTER + INTRA:          -8.425
REMARK INTER:                  -7.121
REMARK INTRA:                  -1.305
REMARK UNBOUND:                -0.466
REMARK SMILES CCCCCCCCCCC(=O)[O-]
REMARK SMILES IDX 7 1 8 2 9 3 10 4 11 5 12 6 13 7 6 8 5 9 4 10 3 11 2 12 1 13
REMARK H PARENT
REMARK Flexibility Score: inf
ROOT
ATOM      1  C   UNL     1      13.207   3.718  17.320  1.00  0.00     0.000 C 
ENDROOT
BRANCH   1   2
ATOM      2  C   UNL     1      13.351   2.562  16.317  1.00  0.00     0.000 C 
BRANCH   2   3
ATOM      3  C   UNL     1      14.651   2.643  15.502  1.00  0.00     0.006 C 
BRANCH   3   4
ATOM      4  C   UNL     1      15.362   1.286  15.472  1.00  0.00     0.053 C 
BRANCH   4   5
ATOM      5  C   UNL     1      16.623   1.338  16.275  1.00  0.00     0.041 C 
ATOM      6  O   UNL     1      16.775   2.218  17.163  1.00  0.00    -0.550 OA
ATOM      7  O   UNL     1      17.613   0.383  16.078  1.00  0.00    -0.550 OA
ENDBRANCH   4   5
ENDBRANCH   3   4
ENDBRANCH   2   3
ENDBRANCH   1   2
BRANCH   1   8
ATOM      8  C   UNL     1      13.631   3.322  18.744  1.00  0.00     0.000 C 
BRANCH   8   9
ATOM      9  C   UNL     1      13.651   1.799  18.952  1.00  0.00    -0.000 C 
BRANCH   9  10
ATOM     10  C   UNL     1      14.803   1.339  19.863  1.00  0.00    -0.000 C 
BRANCH  10  11
ATOM     11  C   UNL     1      15.300  -0.074  19.517  1.00  0.00    -0.000 C 
BRANCH  11  12
ATOM     12  C   UNL     1      14.427  -0.763  18.458  1.00  0.00    -0.003 C 
ATOM     13  C   UNL     1      15.215  -1.836  17.712  1.00  0.00     0.004 C 
ENDBRANCH  11  12
ENDBRANCH  10  11
ENDBRANCH   9  10
ENDBRANCH   8   9
ENDBRANCH   1   8
TORSDOF 9
ENDMDL
MODEL 9
REMARK VINA RESULT:    -3.242      3.105      6.556
REMARK INTER + INTRA:          -5.414
REMARK INTER:                  -4.754
REMARK INTRA:                  -0.660
REMARK UNBOUND:                -0.466
REMARK SMILES CCCCCCCCCCC(=O)[O-]
REMARK SMILES IDX 7 1 8 2 9 3 10 4 11 5 12 6 13 7 6 8 5 9 4 10 3 11 2 12 1 13
REMARK H PARENT
REMARK Flexibility Score: inf
ROOT
ATOM      1  C   UNL     1      14.875   2.630  15.087  1.00  0.00     0.000 C 
ENDROOT
BRANCH   1   2
ATOM      2  C   UNL     1      15.188   2.998  13.628  1.00  0.00     0.000 C 
BRANCH   2   3
ATOM      3  C   UNL     1      15.144   1.783  12.688  1.00  0.00     0.006 C 
BRANCH   3   4
ATOM      4  C   UNL     1      15.938   2.056  11.406  1.00  0.00     0.053 C 
BRANCH   4   5
ATOM      5  C   UNL     1      17.080   1.097  11.283  1.00  0.00     0.041 C 
ATOM      6  O   UNL     1      17.536   0.796  10.148  1.00  0.00    -0.550 OA
ATOM      7  O   UNL     1      17.674   0.573  12.424  1.00  0.00    -0.550 OA
ENDBRANCH   4   5
ENDBRANCH   3   4
ENDBRANCH   2   3
ENDBRANCH   1   2
BRANCH   1   8
ATOM      8  C   UNL     1      13.367   2.478  15.350  1.00  0.00     0.000 C 
BRANCH   8   9
ATOM      9  C   UNL     1      12.875   3.373  16.498  1.00  0.00    -0.000 C 
BRANCH   9  10
ATOM     10  C   UNL     1      14.007   3.785  17.456  1.00  0.00    -0.000 C 
BRANCH  10  11
ATOM     11  C   UNL     1      13.820   3.211  18.870  1.00  0.00    -0.000 C 
BRANCH  11  12
ATOM     12  C   UNL     1      13.979   1.684  18.913  1.00  0.00    -0.003 C 
ATOM     13  C   UNL     1      15.405   1.271  18.559  1.00  0.00     0.004 C 
ENDBRANCH  11  12
ENDBRANCH  10  11
ENDBRANCH   9  10
ENDBRANCH   8   9
ENDBRANCH   1   8
TORSDOF 9
ENDMDL
