MODEL 1
REMARK VINA RESULT:    -4.195      0.000      0.000
REMARK INTER + INTRA:          -6.575
REMARK INTER:                  -6.403
REMARK INTRA:                  -0.173
REMARK UNBOUND:                -0.173
REMARK SMILES CC1=CCC[C@@H](C)C(=O)C[C@@H](C(C)C)C(=O)C1
REMARK SMILES IDX 8 1 9 2 6 3 7 4 5 5 4 6 3 7 2 8 1 9 10 11 11 12 15 13 16 14
REMARK SMILES IDX 17 15 12 17 13 18 14 19
REMARK H PARENT
REMARK Flexibility Score: 70.00
ROOT
ATOM      1  C   UNL     1     -13.899  12.943 -30.516  1.00  0.00     0.136 C 
ATOM      2  O   UNL     1     -13.275  12.022 -31.026  1.00  0.00    -0.299 OA
ENDROOT
BRANCH   1   3
ATOM      3  C   UNL     1     -14.443  14.021 -31.441  1.00  0.00     0.053 C 
ATOM      4  C   UNL     1     -14.586  15.338 -30.668  1.00  0.00     0.016 C 
BRANCH   3   5
ATOM      5  C   UNL     1     -15.808  13.597 -32.030  1.00  0.00     0.015 C 
BRANCH   5   6
ATOM      6  C   UNL     1     -17.010  13.918 -31.122  1.00  0.00     0.028 C 
BRANCH   6   7
ATOM      7  C   UNL     1     -17.737  12.678 -30.663  1.00  0.00    -0.028 C 
ATOM      8  C   UNL     1     -17.759  12.183 -29.404  1.00  0.00    -0.070 CG0
ATOM      9  C   UNL     1     -18.585  10.947 -29.148  1.00  0.00     0.039 C 
ATOM     10  G   UNL     1     -16.938  12.751 -28.258  1.00  0.00     0.000 G0
ENDBRANCH   6   7
ENDBRANCH   5   6
ENDBRANCH   3   5
ENDBRANCH   1   3
BRANCH   1  11
ATOM     11  C   UNL     1     -14.038  12.916 -29.002  1.00  0.00     0.087 C 
BRANCH  11  12
ATOM     12  C   UNL     1     -14.532  11.616 -28.302  1.00  0.00     0.066 C 
BRANCH  12  13
ATOM     13  C   UNL     1     -15.956  11.714 -27.773  1.00  0.00     0.140 C 
ATOM     14  O   UNL     1     -16.275  10.982 -26.845  1.00  0.00    -0.299 OA
BRANCH  13  15
ATOM     15  C   UNL     1     -16.950  12.745 -28.250  1.00  0.00     0.106 CG0
ATOM     16  G   UNL     1     -17.761  12.205 -29.417  1.00  0.00     0.000 G0
ENDBRANCH  13  15
ENDBRANCH  12  13
BRANCH  12  17
ATOM     17  C   UNL     1     -13.576  11.184 -27.139  1.00  0.00    -0.006 C 
ATOM     18  C   UNL     1     -12.604  12.305 -26.720  1.00  0.00     0.008 C 
ATOM     19  C   UNL     1     -12.751   9.936 -27.510  1.00  0.00     0.008 C 
ENDBRANCH  12  17
ENDBRANCH  11  12
ENDBRANCH   1  11
TORSDOF 1
ENDMDL
MODEL 2
REMARK VINA RESULT:    -4.036      1.940      4.420
REMARK INTER + INTRA:          -6.332
REMARK INTER:                  -6.301
REMARK INTRA:                  -0.030
REMARK UNBOUND:                -0.173
REMARK SMILES CC1=CCC[C@@H](C)C(=O)C[C@@H](C(C)C)C(=O)C1
REMARK SMILES IDX 8 1 9 2 6 3 7 4 5 5 4 6 3 7 2 8 1 9 10 11 11 12 15 13 16 14
REMARK SMILES IDX 17 15 12 17 13 18 14 19
REMARK H PARENT
REMARK Flexibility Score: 70.00
ROOT
ATOM      1  C   UNL     1     -17.041  13.078 -29.245  1.00  0.00     0.136 C 
ATOM      2  O   UNL     1     -17.182  13.281 -28.046  1.00  0.00    -0.299 OA
ENDROOT
BRANCH   1   3
ATOM      3  C   UNL     1     -17.887  11.983 -29.877  1.00  0.00     0.053 C 
ATOM      4  C   UNL     1     -19.351  12.437 -29.942  1.00  0.00     0.016 C 
BRANCH   3   5
ATOM      5  C   UNL     1     -17.770  10.669 -29.070  1.00  0.00     0.015 C 
BRANCH   5   6
ATOM      6  C   UNL     1     -16.457   9.901 -29.310  1.00  0.00     0.028 C 
BRANCH   6   7
ATOM      7  C   UNL     1     -15.570   9.878 -28.089  1.00  0.00    -0.028 C 
ATOM      8  C   UNL     1     -14.353  10.457 -27.973  1.00  0.00    -0.070 CG0
ATOM      9  C   UNL     1     -13.646  10.349 -26.644  1.00  0.00     0.039 C 
ATOM     10  G   UNL     1     -13.627  11.138 -29.122  1.00  0.00     0.000 G0
ENDBRANCH   6   7
ENDBRANCH   5   6
ENDBRANCH   3   5
ENDBRANCH   1   3
BRANCH   1  11
ATOM     11  C   UNL     1     -16.009  13.931 -29.964  1.00  0.00     0.087 C 
BRANCH  11  12
ATOM     12  C   UNL     1     -14.621  13.320 -30.316  1.00  0.00     0.066 C 
BRANCH  12  13
ATOM     13  C   UNL     1     -13.945  12.629 -29.140  1.00  0.00     0.140 C 
ATOM     14  O   UNL     1     -13.741  13.286 -28.128  1.00  0.00    -0.299 OA
BRANCH  13  15
ATOM     15  C   UNL     1     -13.625  11.154 -29.117  1.00  0.00     0.106 CG0
ATOM     16  G   UNL     1     -14.346  10.469 -27.968  1.00  0.00     0.000 G0
ENDBRANCH  13  15
ENDBRANCH  12  13
BRANCH  12  17
ATOM     17  C   UNL     1     -13.649  14.394 -30.914  1.00  0.00    -0.006 C 
ATOM     18  C   UNL     1     -14.210  15.826 -30.814  1.00  0.00     0.008 C 
ATOM     19  C   UNL     1     -13.313  14.103 -32.390  1.00  0.00     0.008 C 
ENDBRANCH  12  17
ENDBRANCH  11  12
ENDBRANCH   1  11
TORSDOF 1
ENDMDL
MODEL 3
REMARK VINA RESULT:    -3.787      1.950      4.421
REMARK INTER + INTRA:          -5.953
REMARK INTER:                  -6.087
REMARK INTRA:                   0.134
REMARK UNBOUND:                -0.173
REMARK SMILES CC1=CCC[C@@H](C)C(=O)C[C@@H](C(C)C)C(=O)C1
REMARK SMILES IDX 8 1 9 2 6 3 7 4 5 5 4 6 3 7 2 8 1 9 10 11 11 12 15 13 16 14
REMARK SMILES IDX 17 15 12 17 13 18 14 19
REMARK H PARENT
REMARK Flexibility Score: 70.00
ROOT
ATOM      1  C   UNL     1     -14.498  10.731 -29.596  1.00  0.00     0.136 C 
ATOM      2  O   UNL     1     -14.800   9.974 -30.508  1.00  0.00    -0.299 OA
ENDROOT
BRANCH   1   3
ATOM      3  C   UNL     1     -13.019  10.923 -29.300  1.00  0.00     0.053 C 
ATOM      4  C   UNL     1     -12.848  11.526 -27.900  1.00  0.00     0.016 C 
BRANCH   3   5
ATOM      5  C   UNL     1     -12.365  11.839 -30.360  1.00  0.00     0.015 C 
BRANCH   5   6
ATOM      6  C   UNL     1     -13.374  12.584 -31.253  1.00  0.00     0.028 C 
BRANCH   6   7
ATOM      7  C   UNL     1     -13.405  14.067 -30.979  1.00  0.00    -0.028 C 
ATOM      8  C   UNL     1     -14.511  14.825 -30.801  1.00  0.00    -0.070 CG0
ATOM      9  C   UNL     1     -14.319  16.290 -30.495  1.00  0.00     0.039 C 
ATOM     10  G   UNL     1     -15.929  14.305 -30.970  1.00  0.00     0.000 G0
ENDBRANCH   6   7
ENDBRANCH   5   6
ENDBRANCH   3   5
ENDBRANCH   1   3
BRANCH   1  11
ATOM     11  C   UNL     1     -15.648  11.378 -28.840  1.00  0.00     0.087 C 
BRANCH  11  12
ATOM     12  C   UNL     1     -16.743  12.152 -29.629  1.00  0.00     0.066 C 
BRANCH  12  13
ATOM     13  C   UNL     1     -16.480  13.648 -29.727  1.00  0.00     0.140 C 
ATOM     14  O   UNL     1     -16.604  14.320 -28.711  1.00  0.00    -0.299 OA
BRANCH  13  15
ATOM     15  C   UNL     1     -15.962  14.319 -30.975  1.00  0.00     0.106 CG0
ATOM     16  G   UNL     1     -14.533  14.795 -30.772  1.00  0.00     0.000 G0
ENDBRANCH  13  15
ENDBRANCH  12  13
BRANCH  12  17
ATOM     17  C   UNL     1     -18.170  11.915 -29.026  1.00  0.00    -0.006 C 
ATOM     18  C   UNL     1     -18.400  10.452 -28.598  1.00  0.00     0.008 C 
ATOM     19  C   UNL     1     -19.283  12.317 -30.014  1.00  0.00     0.008 C 
ENDBRANCH  12  17
ENDBRANCH  11  12
ENDBRANCH   1  11
TORSDOF 1
ENDMDL
MODEL 4
REMARK VINA RESULT:    -3.707      1.761      3.829
REMARK INTER + INTRA:          -5.830
REMARK INTER:                  -5.694
REMARK INTRA:                  -0.137
REMARK UNBOUND:                -0.173
REMARK SMILES CC1=CCC[C@@H](C)C(=O)C[C@@H](C(C)C)C(=O)C1
REMARK SMILES IDX 8 1 9 2 6 3 7 4 5 5 4 6 3 7 2 8 1 9 10 11 11 12 15 13 16 14
REMARK SMILES IDX 17 15 12 17 13 18 14 19
REMARK H PARENT
REMARK Flexibility Score: 70.00
ROOT
ATOM      1  C   UNL     1     -16.506  12.268 -27.813  1.00  0.00     0.136 C 
ATOM      2  O   UNL     1     -16.607  12.363 -26.597  1.00  0.00    -0.299 OA
ENDROOT
BRANCH   1   3
ATOM      3  C   UNL     1     -17.342  13.212 -28.664  1.00  0.00     0.053 C 
ATOM      4  C   UNL     1     -17.905  12.453 -29.872  1.00  0.00     0.016 C 
BRANCH   3   5
ATOM      5  C   UNL     1     -16.495  14.416 -29.135  1.00  0.00     0.015 C 
BRANCH   5   6
ATOM      6  C   UNL     1     -16.248  14.452 -30.655  1.00  0.00     0.028 C 
BRANCH   6   7
ATOM      7  C   UNL     1     -14.783  14.565 -31.000  1.00  0.00    -0.028 C 
ATOM      8  C   UNL     1     -13.947  13.540 -31.284  1.00  0.00    -0.070 CG0
ATOM      9  C   UNL     1     -12.521  13.875 -31.646  1.00  0.00     0.039 C 
ATOM     10  G   UNL     1     -14.339  12.075 -31.182  1.00  0.00     0.000 G0
ENDBRANCH   6   7
ENDBRANCH   5   6
ENDBRANCH   3   5
ENDBRANCH   1   3
BRANCH   1  11
ATOM     11  C   UNL     1     -15.569  11.192 -28.337  1.00  0.00     0.087 C 
BRANCH  11  12
ATOM     12  C   UNL     1     -14.071  11.534 -28.580  1.00  0.00     0.066 C 
BRANCH  12  13
ATOM     13  C   UNL     1     -13.643  11.399 -30.034  1.00  0.00     0.140 C 
ATOM     14  O   UNL     1     -12.732  10.624 -30.296  1.00  0.00    -0.299 OA
BRANCH  13  15
ATOM     15  C   UNL     1     -14.362  12.076 -31.176  1.00  0.00     0.106 CG0
ATOM     16  G   UNL     1     -13.943  13.533 -31.283  1.00  0.00     0.000 G0
ENDBRANCH  13  15
ENDBRANCH  12  13
BRANCH  12  17
ATOM     17  C   UNL     1     -13.124  10.669 -27.680  1.00  0.00    -0.006 C 
ATOM     18  C   UNL     1     -13.773  10.279 -26.337  1.00  0.00     0.008 C 
ATOM     19  C   UNL     1     -11.793  11.391 -27.389  1.00  0.00     0.008 C 
ENDBRANCH  12  17
ENDBRANCH  11  12
ENDBRANCH   1  11
TORSDOF 1
ENDMDL
MODEL 5
REMARK VINA RESULT:    -3.686      1.989      4.275
REMARK INTER + INTRA:          -5.798
REMARK INTER:                  -5.753
REMARK INTRA:                  -0.045
REMARK UNBOUND:                -0.173
REMARK SMILES CC1=CCC[C@@H](C)C(=O)C[C@@H](C(C)C)C(=O)C1
REMARK SMILES IDX 8 1 9 2 6 3 7 4 5 5 4 6 3 7 2 8 1 9 10 11 11 12 15 13 16 14
REMARK SMILES IDX 17 15 12 17 13 18 14 19
REMARK H PARENT
REMARK Flexibility Score: 70.00
ROOT
ATOM      1  C   UNL     1     -14.656  11.137 -29.021  1.00  0.00     0.136 C 
ATOM      2  O   UNL     1     -13.761  11.167 -28.187  1.00  0.00    -0.299 OA
ENDROOT
BRANCH   1   3
ATOM      3  C   UNL     1     -16.079  10.944 -28.520  1.00  0.00     0.053 C 
ATOM      4  C   UNL     1     -17.009  10.659 -29.706  1.00  0.00     0.016 C 
BRANCH   3   5
ATOM      5  C   UNL     1     -16.561  12.197 -27.752  1.00  0.00     0.015 C 
BRANCH   5   6
ATOM      6  C   UNL     1     -17.286  13.232 -28.633  1.00  0.00     0.028 C 
BRANCH   6   7
ATOM      7  C   UNL     1     -16.399  14.392 -29.011  1.00  0.00    -0.028 C 
ATOM      8  C   UNL     1     -15.980  14.705 -30.259  1.00  0.00    -0.070 CG0
ATOM      9  C   UNL     1     -15.127  15.939 -30.426  1.00  0.00     0.039 C 
ATOM     10  G   UNL     1     -16.251  13.846 -31.483  1.00  0.00     0.000 G0
ENDBRANCH   6   7
ENDBRANCH   5   6
ENDBRANCH   3   5
ENDBRANCH   1   3
BRANCH   1  11
ATOM     11  C   UNL     1     -14.236  11.270 -30.476  1.00  0.00     0.087 C 
BRANCH  11  12
ATOM     12  C   UNL     1     -13.885  12.675 -31.045  1.00  0.00     0.066 C 
BRANCH  12  13
ATOM     13  C   UNL     1     -14.948  13.238 -31.977  1.00  0.00     0.140 C 
ATOM     14  O   UNL     1     -14.789  13.097 -33.182  1.00  0.00    -0.299 OA
BRANCH  13  15
ATOM     15  C   UNL     1     -16.239  13.850 -31.488  1.00  0.00     0.106 CG0
ATOM     16  G   UNL     1     -15.992  14.712 -30.262  1.00  0.00     0.000 G0
ENDBRANCH  13  15
ENDBRANCH  12  13
BRANCH  12  17
ATOM     17  C   UNL     1     -12.501  12.674 -31.781  1.00  0.00    -0.006 C 
ATOM     18  C   UNL     1     -11.468  11.751 -31.104  1.00  0.00     0.008 C 
ATOM     19  C   UNL     1     -11.902  14.092 -31.876  1.00  0.00     0.008 C 
ENDBRANCH  12  17
ENDBRANCH  11  12
ENDBRANCH   1  11
TORSDOF 1
ENDMDL
MODEL 6
REMARK VINA RESULT:    -3.403      1.826      4.923
REMARK INTER + INTRA:          -5.366
REMARK INTER:                  -5.883
REMARK INTRA:                   0.517
REMARK UNBOUND:                -0.173
REMARK SMILES CC1=CCC[C@@H](C)C(=O)C[C@@H](C(C)C)C(=O)C1
REMARK SMILES IDX 8 1 9 2 6 3 7 4 5 5 4 6 3 7 2 8 1 9 10 11 11 12 15 13 16 14
REMARK SMILES IDX 17 15 12 17 13 18 14 19
REMARK H PARENT
REMARK Flexibility Score: 70.00
ROOT
ATOM      1  C   UNL     1     -15.700  11.287 -27.152  1.00  0.00     0.136 C 
ATOM      2  O   UNL     1     -15.970  11.059 -25.981  1.00  0.00    -0.299 OA
ENDROOT
BRANCH   1   3
ATOM      3  C   UNL     1     -14.425  10.676 -27.712  1.00  0.00     0.053 C 
ATOM      4  C   UNL     1     -13.609  10.053 -26.572  1.00  0.00     0.016 C 
BRANCH   3   5
ATOM      5  C   UNL     1     -13.585  11.745 -28.448  1.00  0.00     0.015 C 
BRANCH   5   6
ATOM      6  C   UNL     1     -13.474  11.519 -29.967  1.00  0.00     0.028 C 
BRANCH   6   7
ATOM      7  C   UNL     1     -13.212  12.797 -30.725  1.00  0.00    -0.028 C 
ATOM      8  C   UNL     1     -14.131  13.542 -31.381  1.00  0.00    -0.070 CG0
ATOM      9  C   UNL     1     -13.664  14.814 -32.043  1.00  0.00     0.039 C 
ATOM     10  G   UNL     1     -15.584  13.130 -31.556  1.00  0.00     0.000 G0
ENDBRANCH   6   7
ENDBRANCH   5   6
ENDBRANCH   3   5
ENDBRANCH   1   3
BRANCH   1  11
ATOM     11  C   UNL     1     -16.665  12.183 -27.912  1.00  0.00     0.087 C 
BRANCH  11  12
ATOM     12  C   UNL     1     -16.810  12.019 -29.453  1.00  0.00     0.066 C 
BRANCH  12  13
ATOM     13  C   UNL     1     -16.352  13.238 -30.241  1.00  0.00     0.140 C 
ATOM     14  O   UNL     1     -16.509  14.341 -29.734  1.00  0.00    -0.299 OA
BRANCH  13  15
ATOM     15  C   UNL     1     -15.609  13.148 -31.552  1.00  0.00     0.106 CG0
ATOM     16  G   UNL     1     -14.153  13.544 -31.369  1.00  0.00     0.000 G0
ENDBRANCH  13  15
ENDBRANCH  12  13
BRANCH  12  17
ATOM     17  C   UNL     1     -18.279  11.660 -29.863  1.00  0.00    -0.006 C 
ATOM     18  C   UNL     1     -19.234  12.866 -29.773  1.00  0.00     0.008 C 
ATOM     19  C   UNL     1     -18.851  10.518 -29.000  1.00  0.00     0.008 C 
ENDBRANCH  12  17
ENDBRANCH  11  12
ENDBRANCH   1  11
TORSDOF 1
ENDMDL
MODEL 7
REMARK VINA RESULT:    -3.040      1.725      4.033
REMARK INTER + INTRA:          -4.812
REMARK INTER:                  -5.893
REMARK INTRA:                   1.082
REMARK UNBOUND:                -0.173
REMARK SMILES CC1=CCC[C@@H](C)C(=O)C[C@@H](C(C)C)C(=O)C1
REMARK SMILES IDX 8 1 9 2 6 3 7 4 5 5 4 6 3 7 2 8 1 9 10 11 11 12 15 13 16 14
REMARK SMILES IDX 17 15 12 17 13 18 14 19
REMARK H PARENT
REMARK Flexibility Score: 70.00
ROOT
ATOM      1  C   UNL     1     -13.638  12.279 -27.589  1.00  0.00     0.136 C 
ATOM      2  O   UNL     1     -12.916  12.960 -26.873  1.00  0.00    -0.299 OA
ENDROOT
BRANCH   1   3
ATOM      3  C   UNL     1     -14.471  11.195 -26.921  1.00  0.00     0.053 C 
ATOM      4  C   UNL     1     -14.306   9.875 -27.686  1.00  0.00     0.016 C 
BRANCH   3   5
ATOM      5  C   UNL     1     -15.961  11.603 -26.874  1.00  0.00     0.015 C 
BRANCH   5   6
ATOM      6  C   UNL     1     -16.916  10.560 -27.483  1.00  0.00     0.028 C 
BRANCH   6   7
ATOM      7  C   UNL     1     -17.911  11.174 -28.438  1.00  0.00    -0.028 C 
ATOM      8  C   UNL     1     -17.641  11.660 -29.672  1.00  0.00    -0.070 CG0
ATOM      9  C   UNL     1     -18.793  12.196 -30.484  1.00  0.00     0.039 C 
ATOM     10  G   UNL     1     -16.239  11.769 -30.250  1.00  0.00     0.000 G0
ENDBRANCH   6   7
ENDBRANCH   5   6
ENDBRANCH   3   5
ENDBRANCH   1   3
BRANCH   1  11
ATOM     11  C   UNL     1     -13.600  12.581 -29.078  1.00  0.00     0.087 C 
BRANCH  11  12
ATOM     12  C   UNL     1     -14.493  13.719 -29.651  1.00  0.00     0.066 C 
BRANCH  12  13
ATOM     13  C   UNL     1     -15.781  13.220 -30.289  1.00  0.00     0.140 C 
ATOM     14  O   UNL     1     -16.439  14.012 -30.952  1.00  0.00    -0.299 OA
BRANCH  13  15
ATOM     15  C   UNL     1     -16.222  11.777 -30.248  1.00  0.00     0.106 CG0
ATOM     16  G   UNL     1     -17.632  11.665 -29.691  1.00  0.00     0.000 G0
ENDBRANCH  13  15
ENDBRANCH  12  13
BRANCH  12  17
ATOM     17  C   UNL     1     -13.714  14.605 -30.683  1.00  0.00    -0.006 C 
ATOM     18  C   UNL     1     -14.268  16.040 -30.774  1.00  0.00     0.008 C 
ATOM     19  C   UNL     1     -13.729  13.985 -32.095  1.00  0.00     0.008 C 
ENDBRANCH  12  17
ENDBRANCH  11  12
ENDBRANCH   1  11
TORSDOF 1
ENDMDL
MODEL 8
REMARK VINA RESULT:    -2.879      1.724      4.070
REMARK INTER + INTRA:          -4.567
REMARK INTER:                  -5.687
REMARK INTRA:                   1.120
REMARK UNBOUND:                -0.173
REMARK SMILES CC1=CCC[C@@H](C)C(=O)C[C@@H](C(C)C)C(=O)C1
REMARK SMILES IDX 8 1 9 2 6 3 7 4 5 5 4 6 3 7 2 8 1 9 10 11 11 12 15 13 16 14
REMARK SMILES IDX 17 15 12 17 13 18 14 19
REMARK H PARENT
REMARK Flexibility Score: 70.00
ROOT
ATOM      1  C   UNL     1     -12.931  11.410 -29.886  1.00  0.00     0.136 C 
ATOM      2  O   UNL     1     -11.955  11.026 -30.518  1.00  0.00    -0.299 OA
ENDROOT
BRANCH   1   3
ATOM      3  C   UNL     1     -12.883  11.281 -28.371  1.00  0.00     0.053 C 
ATOM      4  C   UNL     1     -13.359   9.883 -27.958  1.00  0.00     0.016 C 
BRANCH   3   5
ATOM      5  C   UNL     1     -13.761  12.365 -27.704  1.00  0.00     0.015 C 
BRANCH   5   6
ATOM      6  C   UNL     1     -14.889  11.801 -26.820  1.00  0.00     0.028 C 
BRANCH   6   7
ATOM      7  C   UNL     1     -16.140  11.493 -27.606  1.00  0.00    -0.028 C 
ATOM      8  C   UNL     1     -16.727  12.296 -28.523  1.00  0.00    -0.070 CG0
ATOM      9  C   UNL     1     -17.956  11.778 -29.229  1.00  0.00     0.039 C 
ATOM     10  G   UNL     1     -16.268  13.714 -28.824  1.00  0.00     0.000 G0
ENDBRANCH   6   7
ENDBRANCH   5   6
ENDBRANCH   3   5
ENDBRANCH   1   3
BRANCH   1  11
ATOM     11  C   UNL     1     -14.097  11.950 -30.697  1.00  0.00     0.087 C 
BRANCH  11  12
ATOM     12  C   UNL     1     -14.379  13.481 -30.705  1.00  0.00     0.066 C 
BRANCH  12  13
ATOM     13  C   UNL     1     -15.793  13.842 -30.271  1.00  0.00     0.140 C 
ATOM     14  O   UNL     1     -16.599  14.149 -31.139  1.00  0.00    -0.299 OA
BRANCH  13  15
ATOM     15  C   UNL     1     -16.279  13.724 -28.847  1.00  0.00     0.106 CG0
ATOM     16  G   UNL     1     -16.739  12.304 -28.556  1.00  0.00     0.000 G0
ENDBRANCH  13  15
ENDBRANCH  12  13
BRANCH  12  17
ATOM     17  C   UNL     1     -14.090  14.117 -32.108  1.00  0.00    -0.006 C 
ATOM     18  C   UNL     1     -14.622  13.258 -33.272  1.00  0.00     0.008 C 
ATOM     19  C   UNL     1     -12.584  14.359 -32.327  1.00  0.00     0.008 C 
ENDBRANCH  12  17
ENDBRANCH  11  12
ENDBRANCH   1  11
TORSDOF 1
ENDMDL
MODEL 9
REMARK VINA RESULT:    -2.705      8.921     11.500
REMARK INTER + INTRA:          -4.301
REMARK INTER:                  -4.863
REMARK INTRA:                   0.562
REMARK UNBOUND:                -0.173
REMARK SMILES CC1=CCC[C@@H](C)C(=O)C[C@@H](C(C)C)C(=O)C1
REMARK SMILES IDX 8 1 9 2 6 3 7 4 5 5 4 6 3 7 2 8 1 9 10 11 11 12 15 13 16 14
REMARK SMILES IDX 17 15 12 17 13 18 14 19
REMARK H PARENT
REMARK Flexibility Score: 70.00
ROOT
ATOM      1  C   UNL     1     -26.168  13.414 -30.897  1.00  0.00     0.136 C 
ATOM      2  O   UNL     1     -25.859  13.274 -32.072  1.00  0.00    -0.299 OA
ENDROOT
BRANCH   1   3
ATOM      3  C   UNL     1     -25.159  14.089 -29.980  1.00  0.00     0.053 C 
ATOM      4  C   UNL     1     -25.259  15.611 -30.137  1.00  0.00     0.016 C 
BRANCH   3   5
ATOM      5  C   UNL     1     -23.724  13.611 -30.302  1.00  0.00     0.015 C 
BRANCH   5   6
ATOM      6  C   UNL     1     -23.425  12.172 -29.843  1.00  0.00     0.028 C 
BRANCH   6   7
ATOM      7  C   UNL     1     -24.190  11.790 -28.600  1.00  0.00    -0.028 C 
ATOM      8  C   UNL     1     -25.057  10.758 -28.479  1.00  0.00    -0.070 CG0
ATOM      9  C   UNL     1     -25.688  10.524 -27.129  1.00  0.00     0.039 C 
ATOM     10  G   UNL     1     -25.490   9.877 -29.640  1.00  0.00     0.000 G0
ENDBRANCH   6   7
ENDBRANCH   5   6
ENDBRANCH   3   5
ENDBRANCH   1   3
BRANCH   1  11
ATOM     11  C   UNL     1     -27.524  12.869 -30.479  1.00  0.00     0.087 C 
BRANCH  11  12
ATOM     12  C   UNL     1     -27.599  11.546 -29.663  1.00  0.00     0.066 C 
BRANCH  12  13
ATOM     13  C   UNL     1     -26.787  10.410 -30.270  1.00  0.00     0.140 C 
ATOM     14  O   UNL     1     -27.130   9.979 -31.363  1.00  0.00    -0.299 OA
BRANCH  13  15
ATOM     15  C   UNL     1     -25.518   9.876 -29.652  1.00  0.00     0.106 CG0
ATOM     16  G   UNL     1     -25.082  10.749 -28.486  1.00  0.00     0.000 G0
ENDBRANCH  13  15
ENDBRANCH  12  13
BRANCH  12  17
ATOM     17  C   UNL     1     -29.079  11.072 -29.460  1.00  0.00    -0.006 C 
ATOM     18  C   UNL     1     -29.967  11.351 -30.689  1.00  0.00     0.008 C 
ATOM     19  C   UNL     1     -29.727  11.734 -28.228  1.00  0.00     0.008 C 
ENDBRANCH  12  17
ENDBRANCH  11  12
ENDBRANCH   1  11
TORSDOF 1
ENDMDL
