MODEL 1
REMARK VINA RESULT:    -4.128      0.000      0.000
REMARK INTER + INTRA:         -12.518
REMARK INTER:                  -8.955
REMARK INTRA:                  -3.563
REMARK UNBOUND:                -3.563
REMARK SMILES CCCCCCCCCCCCCCCCCCCCCC(=O)[O-]
REMARK SMILES IDX 12 1 11 2 10 3 9 4 8 5 7 6 6 7 5 8 4 9 3 10 2 11 1 12 13 13
REMARK SMILES IDX 14 14 15 15 16 16 17 17 18 18 19 19 20 20 21 21 22 22 23 23
REMARK SMILES IDX 24 24
REMARK H PARENT
REMARK Flexibility Score: inf
ROOT
ATOM      1  C   UNL     1      13.747  22.959  23.080  1.00  0.00     0.000 C 
ENDROOT
BRANCH   1   2
ATOM      2  C   UNL     1      14.236  22.846  24.537  1.00  0.00     0.000 C 
BRANCH   2   3
ATOM      3  C   UNL     1      15.608  23.492  24.814  1.00  0.00     0.000 C 
BRANCH   3   4
ATOM      4  C   UNL     1      16.665  23.282  23.714  1.00  0.00    -0.000 C 
BRANCH   4   5
ATOM      5  C   UNL     1      17.419  21.950  23.857  1.00  0.00    -0.000 C 
BRANCH   5   6
ATOM      6  C   UNL     1      17.289  21.050  22.615  1.00  0.00    -0.000 C 
BRANCH   6   7
ATOM      7  C   UNL     1      16.607  19.689  22.858  1.00  0.00    -0.000 C 
BRANCH   7   8
ATOM      8  C   UNL     1      15.896  19.539  24.220  1.00  0.00    -0.000 C 
BRANCH   8   9
ATOM      9  C   UNL     1      14.596  18.716  24.190  1.00  0.00    -0.000 C 
BRANCH   9  10
ATOM     10  C   UNL     1      13.623  19.098  25.319  1.00  0.00    -0.000 C 
BRANCH  10  11
ATOM     11  C   UNL     1      14.008  18.465  26.666  1.00  0.00    -0.003 C 
ATOM     12  C   UNL     1      13.321  17.122  26.910  1.00  0.00     0.004 C 
ENDBRANCH  10  11
ENDBRANCH   9  10
ENDBRANCH   8   9
ENDBRANCH   7   8
ENDBRANCH   6   7
ENDBRANCH   5   6
ENDBRANCH   4   5
ENDBRANCH   3   4
ENDBRANCH   2   3
ENDBRANCH   1   2
BRANCH   1  13
ATOM     13  C   UNL     1      13.117  21.675  22.501  1.00  0.00     0.000 C 
BRANCH  13  14
ATOM     14  C   UNL     1      13.736  21.173  21.184  1.00  0.00     0.000 C 
BRANCH  14  15
ATOM     15  C   UNL     1      14.605  22.231  20.485  1.00  0.00     0.000 C 
BRANCH  15  16
ATOM     16  C   UNL     1      13.905  22.872  19.274  1.00  0.00     0.000 C 
BRANCH  16  17
ATOM     17  C   UNL     1      12.556  22.214  18.914  1.00  0.00     0.000 C 
BRANCH  17  18
ATOM     18  C   UNL     1      11.387  23.212  18.978  1.00  0.00     0.000 C 
BRANCH  18  19
ATOM     19  C   UNL     1      11.748  24.491  19.754  1.00  0.00     0.000 C 
BRANCH  19  20
ATOM     20  C   UNL     1      11.014  24.580  21.103  1.00  0.00     0.006 C 
BRANCH  20  21
ATOM     21  C   UNL     1       9.511  24.850  20.935  1.00  0.00     0.053 C 
BRANCH  21  22
ATOM     22  C   UNL     1       9.233  26.083  20.131  1.00  0.00     0.041 C 
ATOM     23  O   UNL     1       8.693  25.998  18.994  1.00  0.00    -0.550 OA
ATOM     24  O   UNL     1       9.597  27.330  20.625  1.00  0.00    -0.550 OA
ENDBRANCH  21  22
ENDBRANCH  20  21
ENDBRANCH  19  20
ENDBRANCH  18  19
ENDBRANCH  17  18
ENDBRANCH  16  17
ENDBRANCH  15  16
ENDBRANCH  14  15
ENDBRANCH  13  14
ENDBRANCH   1  13
TORSDOF 20
ENDMDL
MODEL 2
REMARK VINA RESULT:    -4.039      5.641      9.570
REMARK INTER + INTRA:         -12.326
REMARK INTER:                  -9.915
REMARK INTRA:                  -2.411
REMARK UNBOUND:                -3.563
REMARK SMILES CCCCCCCCCCCCCCCCCCCCCC(=O)[O-]
REMARK SMILES IDX 12 1 11 2 10 3 9 4 8 5 7 6 6 7 5 8 4 9 3 10 2 11 1 12 13 13
REMARK SMILES IDX 14 14 15 15 16 16 17 17 18 18 19 19 20 20 21 21 22 22 23 23
REMARK SMILES IDX 24 24
REMARK H PARENT
REMARK Flexibility Score: inf
ROOT
ATOM      1  C   UNL     1      14.450  17.907  23.826  1.00  0.00     0.000 C 
ENDROOT
BRANCH   1   2
ATOM      2  C   UNL     1      14.718  18.650  22.504  1.00  0.00     0.000 C 
BRANCH   2   3
ATOM      3  C   UNL     1      15.580  17.876  21.487  1.00  0.00     0.000 C 
BRANCH   3   4
ATOM      4  C   UNL     1      16.967  18.482  21.208  1.00  0.00    -0.000 C 
BRANCH   4   5
ATOM      5  C   UNL     1      17.030  19.991  21.497  1.00  0.00    -0.000 C 
BRANCH   5   6
ATOM      6  C   UNL     1      18.072  20.355  22.570  1.00  0.00    -0.000 C 
BRANCH   6   7
ATOM      7  C   UNL     1      17.545  21.223  23.730  1.00  0.00    -0.000 C 
BRANCH   7   8
ATOM      8  C   UNL     1      16.463  22.254  23.347  1.00  0.00    -0.000 C 
BRANCH   8   9
ATOM      9  C   UNL     1      15.082  22.021  23.987  1.00  0.00    -0.000 C 
BRANCH   9  10
ATOM     10  C   UNL     1      13.920  22.338  23.031  1.00  0.00    -0.000 C 
BRANCH  10  11
ATOM     11  C   UNL     1      14.393  22.572  21.587  1.00  0.00    -0.003 C 
ATOM     12  C   UNL     1      13.698  21.658  20.579  1.00  0.00     0.004 C 
ENDBRANCH  10  11
ENDBRANCH   9  10
ENDBRANCH   8   9
ENDBRANCH   7   8
ENDBRANCH   6   7
ENDBRANCH   5   6
ENDBRANCH   4   5
ENDBRANCH   3   4
ENDBRANCH   2   3
ENDBRANCH   1   2
BRANCH   1  13
ATOM     13  C   UNL     1      15.131  18.518  25.069  1.00  0.00     0.000 C 
BRANCH  13  14
ATOM     14  C   UNL     1      14.884  17.768  26.391  1.00  0.00     0.000 C 
BRANCH  14  15
ATOM     15  C   UNL     1      13.619  18.240  27.125  1.00  0.00     0.000 C 
BRANCH  15  16
ATOM     16  C   UNL     1      12.428  17.285  26.935  1.00  0.00     0.000 C 
BRANCH  16  17
ATOM     17  C   UNL     1      11.510  17.180  28.171  1.00  0.00     0.000 C 
BRANCH  17  18
ATOM     18  C   UNL     1      11.784  15.907  28.991  1.00  0.00     0.000 C 
BRANCH  18  19
ATOM     19  C   UNL     1      11.791  16.174  30.506  1.00  0.00     0.000 C 
BRANCH  19  20
ATOM     20  C   UNL     1      10.769  15.300  31.256  1.00  0.00     0.006 C 
BRANCH  20  21
ATOM     21  C   UNL     1       9.933  14.431  30.305  1.00  0.00     0.053 C 
BRANCH  21  22
ATOM     22  C   UNL     1       8.666  13.939  30.938  1.00  0.00     0.041 C 
ATOM     23  O   UNL     1       8.032  14.667  31.749  1.00  0.00    -0.550 OA
ATOM     24  O   UNL     1       8.199  12.663  30.651  1.00  0.00    -0.550 OA
ENDBRANCH  21  22
ENDBRANCH  20  21
ENDBRANCH  19  20
ENDBRANCH  18  19
ENDBRANCH  17  18
ENDBRANCH  16  17
ENDBRANCH  15  16
ENDBRANCH  14  15
ENDBRANCH  13  14
ENDBRANCH   1  13
TORSDOF 20
ENDMDL
MODEL 3
REMARK VINA RESULT:    -4.022      8.003     11.776
REMARK INTER + INTRA:         -12.287
REMARK INTER:                  -8.824
REMARK INTRA:                  -3.462
REMARK UNBOUND:                -3.563
REMARK SMILES CCCCCCCCCCCCCCCCCCCCCC(=O)[O-]
REMARK SMILES IDX 12 1 11 2 10 3 9 4 8 5 7 6 6 7 5 8 4 9 3 10 2 11 1 12 13 13
REMARK SMILES IDX 14 14 15 15 16 16 17 17 18 18 19 19 20 20 21 21 22 22 23 23
REMARK SMILES IDX 24 24
REMARK H PARENT
REMARK Flexibility Score: inf
ROOT
ATOM      1  C   UNL     1      10.567  17.632  28.211  1.00  0.00     0.000 C 
ENDROOT
BRANCH   1   2
ATOM      2  C   UNL     1      11.669  17.314  27.182  1.00  0.00     0.000 C 
BRANCH   2   3
ATOM      3  C   UNL     1      12.810  18.348  27.112  1.00  0.00     0.000 C 
BRANCH   3   4
ATOM      4  C   UNL     1      12.838  19.372  28.261  1.00  0.00    -0.000 C 
BRANCH   4   5
ATOM      5  C   UNL     1      12.493  20.798  27.799  1.00  0.00    -0.000 C 
BRANCH   5   6
ATOM      6  C   UNL     1      12.876  21.874  28.832  1.00  0.00    -0.000 C 
BRANCH   6   7
ATOM      7  C   UNL     1      13.308  21.336  30.210  1.00  0.00    -0.000 C 
BRANCH   7   8
ATOM      8  C   UNL     1      12.437  21.789  31.400  1.00  0.00    -0.000 C 
BRANCH   8   9
ATOM      9  C   UNL     1      10.923  21.825  31.124  1.00  0.00    -0.000 C 
BRANCH   9  10
ATOM     10  C   UNL     1      10.278  20.428  31.152  1.00  0.00    -0.000 C 
BRANCH  10  11
ATOM     11  C   UNL     1       9.052  20.329  30.232  1.00  0.00    -0.003 C 
ATOM     12  C   UNL     1       9.041  21.397  29.138  1.00  0.00     0.004 C 
ENDBRANCH  10  11
ENDBRANCH   9  10
ENDBRANCH   8   9
ENDBRANCH   7   8
ENDBRANCH   6   7
ENDBRANCH   5   6
ENDBRANCH   4   5
ENDBRANCH   3   4
ENDBRANCH   2   3
ENDBRANCH   1   2
BRANCH   1  13
ATOM     13  C   UNL     1      10.446  16.624  29.373  1.00  0.00     0.000 C 
BRANCH  13  14
ATOM     14  C   UNL     1      11.744  15.880  29.737  1.00  0.00     0.000 C 
BRANCH  14  15
ATOM     15  C   UNL     1      12.096  15.977  31.230  1.00  0.00     0.000 C 
BRANCH  15  16
ATOM     16  C   UNL     1      11.346  17.113  31.946  1.00  0.00     0.000 C 
BRANCH  16  17
ATOM     17  C   UNL     1      10.438  16.631  33.098  1.00  0.00     0.000 C 
BRANCH  17  18
ATOM     18  C   UNL     1       8.948  16.664  32.715  1.00  0.00     0.000 C 
BRANCH  18  19
ATOM     19  C   UNL     1       8.292  15.275  32.786  1.00  0.00     0.000 C 
BRANCH  19  20
ATOM     20  C   UNL     1       9.263  14.151  32.379  1.00  0.00     0.006 C 
BRANCH  20  21
ATOM     21  C   UNL     1       8.955  13.588  30.984  1.00  0.00     0.053 C 
BRANCH  21  22
ATOM     22  C   UNL     1       7.599  12.954  30.904  1.00  0.00     0.041 C 
ATOM     23  O   UNL     1       7.391  11.823  31.424  1.00  0.00    -0.550 OA
ATOM     24  O   UNL     1       6.570  13.599  30.230  1.00  0.00    -0.550 OA
ENDBRANCH  21  22
ENDBRANCH  20  21
ENDBRANCH  19  20
ENDBRANCH  18  19
ENDBRANCH  17  18
ENDBRANCH  16  17
ENDBRANCH  15  16
ENDBRANCH  14  15
ENDBRANCH  13  14
ENDBRANCH   1  13
TORSDOF 20
ENDMDL
MODEL 4
REMARK VINA RESULT:    -3.994      2.134      2.988
REMARK INTER + INTRA:         -12.228
REMARK INTER:                  -9.535
REMARK INTRA:                  -2.693
REMARK UNBOUND:                -3.563
REMARK SMILES CCCCCCCCCCCCCCCCCCCCCC(=O)[O-]
REMARK SMILES IDX 12 1 11 2 10 3 9 4 8 5 7 6 6 7 5 8 4 9 3 10 2 11 1 12 13 13
REMARK SMILES IDX 14 14 15 15 16 16 17 17 18 18 19 19 20 20 21 21 22 22 23 23
REMARK SMILES IDX 24 24
REMARK H PARENT
REMARK Flexibility Score: inf
ROOT
ATOM      1  C   UNL     1      13.884  23.291  25.014  1.00  0.00     0.000 C 
ENDROOT
BRANCH   1   2
ATOM      2  C   UNL     1      15.064  24.281  24.984  1.00  0.00     0.000 C 
BRANCH   2   3
ATOM      3  C   UNL     1      16.077  24.050  23.844  1.00  0.00     0.000 C 
BRANCH   3   4
ATOM      4  C   UNL     1      17.156  22.990  24.131  1.00  0.00    -0.000 C 
BRANCH   4   5
ATOM      5  C   UNL     1      16.761  21.587  23.642  1.00  0.00    -0.000 C 
BRANCH   5   6
ATOM      6  C   UNL     1      17.798  20.968  22.687  1.00  0.00    -0.000 C 
BRANCH   6   7
ATOM      7  C   UNL     1      17.210  20.229  21.469  1.00  0.00    -0.000 C 
BRANCH   7   8
ATOM      8  C   UNL     1      17.451  18.706  21.440  1.00  0.00    -0.000 C 
BRANCH   8   9
ATOM      9  C   UNL     1      16.181  17.846  21.303  1.00  0.00    -0.000 C 
BRANCH   9  10
ATOM     10  C   UNL     1      14.987  18.417  22.086  1.00  0.00    -0.000 C 
BRANCH  10  11
ATOM     11  C   UNL     1      14.762  17.694  23.424  1.00  0.00    -0.003 C 
ATOM     12  C   UNL     1      14.828  18.636  24.626  1.00  0.00     0.004 C 
ENDBRANCH  10  11
ENDBRANCH   9  10
ENDBRANCH   8   9
ENDBRANCH   7   8
ENDBRANCH   6   7
ENDBRANCH   5   6
ENDBRANCH   4   5
ENDBRANCH   3   4
ENDBRANCH   2   3
ENDBRANCH   1   2
BRANCH   1  13
ATOM     13  C   UNL     1      13.187  23.064  23.656  1.00  0.00     0.000 C 
BRANCH  13  14
ATOM     14  C   UNL     1      13.210  21.615  23.138  1.00  0.00     0.000 C 
BRANCH  14  15
ATOM     15  C   UNL     1      13.606  21.510  21.657  1.00  0.00     0.000 C 
BRANCH  15  16
ATOM     16  C   UNL     1      13.949  22.874  21.034  1.00  0.00     0.000 C 
BRANCH  16  17
ATOM     17  C   UNL     1      13.730  22.935  19.507  1.00  0.00     0.000 C 
BRANCH  17  18
ATOM     18  C   UNL     1      12.243  22.821  19.129  1.00  0.00     0.000 C 
BRANCH  18  19
ATOM     19  C   UNL     1      11.545  24.191  19.071  1.00  0.00     0.000 C 
BRANCH  19  20
ATOM     20  C   UNL     1      10.411  24.223  18.030  1.00  0.00     0.006 C 
BRANCH  20  21
ATOM     21  C   UNL     1       9.881  22.820  17.699  1.00  0.00     0.053 C 
BRANCH  21  22
ATOM     22  C   UNL     1       9.483  22.678  16.261  1.00  0.00     0.041 C 
ATOM     23  O   UNL     1       9.509  23.675  15.489  1.00  0.00    -0.550 OA
ATOM     24  O   UNL     1       9.054  21.448  15.778  1.00  0.00    -0.550 OA
ENDBRANCH  21  22
ENDBRANCH  20  21
ENDBRANCH  19  20
ENDBRANCH  18  19
ENDBRANCH  17  18
ENDBRANCH  16  17
ENDBRANCH  15  16
ENDBRANCH  14  15
ENDBRANCH  13  14
ENDBRANCH   1  13
TORSDOF 20
ENDMDL
MODEL 5
REMARK VINA RESULT:    -3.988      1.814      2.243
REMARK INTER + INTRA:         -12.215
REMARK INTER:                  -9.673
REMARK INTRA:                  -2.542
REMARK UNBOUND:                -3.563
REMARK SMILES CCCCCCCCCCCCCCCCCCCCCC(=O)[O-]
REMARK SMILES IDX 12 1 11 2 10 3 9 4 8 5 7 6 6 7 5 8 4 9 3 10 2 11 1 12 13 13
REMARK SMILES IDX 14 14 15 15 16 16 17 17 18 18 19 19 20 20 21 21 22 22 23 23
REMARK SMILES IDX 24 24
REMARK H PARENT
REMARK Flexibility Score: inf
ROOT
ATOM      1  C   UNL     1      13.534  22.959  23.052  1.00  0.00     0.000 C 
ENDROOT
BRANCH   1   2
ATOM      2  C   UNL     1      13.635  23.014  24.588  1.00  0.00     0.000 C 
BRANCH   2   3
ATOM      3  C   UNL     1      14.949  23.611  25.131  1.00  0.00     0.000 C 
BRANCH   3   4
ATOM      4  C   UNL     1      16.039  23.868  24.075  1.00  0.00    -0.000 C 
BRANCH   4   5
ATOM      5  C   UNL     1      17.218  22.885  24.181  1.00  0.00    -0.000 C 
BRANCH   5   6
ATOM      6  C   UNL     1      17.235  21.843  23.049  1.00  0.00    -0.000 C 
BRANCH   6   7
ATOM      7  C   UNL     1      17.150  20.373  23.508  1.00  0.00    -0.000 C 
BRANCH   7   8
ATOM      8  C   UNL     1      15.794  19.943  24.103  1.00  0.00    -0.000 C 
BRANCH   8   9
ATOM      9  C   UNL     1      15.220  18.630  23.540  1.00  0.00    -0.000 C 
BRANCH   9  10
ATOM     10  C   UNL     1      14.163  17.997  24.460  1.00  0.00    -0.000 C 
BRANCH  10  11
ATOM     11  C   UNL     1      14.597  17.989  25.935  1.00  0.00    -0.003 C 
ATOM     12  C   UNL     1      13.588  18.676  26.855  1.00  0.00     0.004 C 
ENDBRANCH  10  11
ENDBRANCH   9  10
ENDBRANCH   8   9
ENDBRANCH   7   8
ENDBRANCH   6   7
ENDBRANCH   5   6
ENDBRANCH   4   5
ENDBRANCH   3   4
ENDBRANCH   2   3
ENDBRANCH   1   2
BRANCH   1  13
ATOM     13  C   UNL     1      13.042  21.615  22.477  1.00  0.00     0.000 C 
BRANCH  13  14
ATOM     14  C   UNL     1      13.766  21.138  21.204  1.00  0.00     0.000 C 
BRANCH  14  15
ATOM     15  C   UNL     1      14.733  22.187  20.632  1.00  0.00     0.000 C 
BRANCH  15  16
ATOM     16  C   UNL     1      14.150  22.937  19.422  1.00  0.00     0.000 C 
BRANCH  16  17
ATOM     17  C   UNL     1      12.611  22.868  19.328  1.00  0.00     0.000 C 
BRANCH  17  18
ATOM     18  C   UNL     1      11.961  24.261  19.405  1.00  0.00     0.000 C 
BRANCH  18  19
ATOM     19  C   UNL     1      10.426  24.198  19.321  1.00  0.00     0.000 C 
BRANCH  19  20
ATOM     20  C   UNL     1       9.934  23.873  17.899  1.00  0.00     0.006 C 
BRANCH  20  21
ATOM     21  C   UNL     1       9.459  25.123  17.143  1.00  0.00     0.053 C 
BRANCH  21  22
ATOM     22  C   UNL     1       8.966  24.810  15.763  1.00  0.00     0.041 C 
ATOM     23  O   UNL     1       7.764  25.024  15.450  1.00  0.00    -0.550 OA
ATOM     24  O   UNL     1       9.830  24.254  14.828  1.00  0.00    -0.550 OA
ENDBRANCH  21  22
ENDBRANCH  20  21
ENDBRANCH  19  20
ENDBRANCH  18  19
ENDBRANCH  17  18
ENDBRANCH  16  17
ENDBRANCH  15  16
ENDBRANCH  14  15
ENDBRANCH  13  14
ENDBRANCH   1  13
TORSDOF 20
ENDMDL
MODEL 6
REMARK VINA RESULT:    -3.925      4.458      7.633
REMARK INTER + INTRA:         -12.077
REMARK INTER:                  -9.314
REMARK INTRA:                  -2.762
REMARK UNBOUND:                -3.563
REMARK SMILES CCCCCCCCCCCCCCCCCCCCCC(=O)[O-]
REMARK SMILES IDX 12 1 11 2 10 3 9 4 8 5 7 6 6 7 5 8 4 9 3 10 2 11 1 12 13 13
REMARK SMILES IDX 14 14 15 15 16 16 17 17 18 18 19 19 20 20 21 21 22 22 23 23
REMARK SMILES IDX 24 24
REMARK H PARENT
REMARK Flexibility Score: inf
ROOT
ATOM      1  C   UNL     1      13.888  18.611  22.783  1.00  0.00     0.000 C 
ENDROOT
BRANCH   1   2
ATOM      2  C   UNL     1      14.742  17.383  22.415  1.00  0.00     0.000 C 
BRANCH   2   3
ATOM      3  C   UNL     1      16.024  17.698  21.619  1.00  0.00     0.000 C 
BRANCH   3   4
ATOM      4  C   UNL     1      16.377  19.192  21.509  1.00  0.00    -0.000 C 
BRANCH   4   5
ATOM      5  C   UNL     1      17.712  19.542  22.189  1.00  0.00    -0.000 C 
BRANCH   5   6
ATOM      6  C   UNL     1      17.544  20.483  23.395  1.00  0.00    -0.000 C 
BRANCH   6   7
ATOM      7  C   UNL     1      16.971  21.876  23.067  1.00  0.00    -0.000 C 
BRANCH   7   8
ATOM      8  C   UNL     1      15.576  22.173  23.656  1.00  0.00    -0.000 C 
BRANCH   8   9
ATOM      9  C   UNL     1      14.620  22.932  22.718  1.00  0.00    -0.000 C 
BRANCH   9  10
ATOM     10  C   UNL     1      14.008  22.031  21.632  1.00  0.00    -0.000 C 
BRANCH  10  11
ATOM     11  C   UNL     1      14.679  22.222  20.263  1.00  0.00    -0.003 C 
ATOM     12  C   UNL     1      14.037  23.336  19.436  1.00  0.00     0.004 C 
ENDBRANCH  10  11
ENDBRANCH   9  10
ENDBRANCH   8   9
ENDBRANCH   7   8
ENDBRANCH   6   7
ENDBRANCH   5   6
ENDBRANCH   4   5
ENDBRANCH   3   4
ENDBRANCH   2   3
ENDBRANCH   1   2
BRANCH   1  13
ATOM     13  C   UNL     1      13.888  18.982  24.280  1.00  0.00     0.000 C 
BRANCH  13  14
ATOM     14  C   UNL     1      15.080  18.444  25.093  1.00  0.00     0.000 C 
BRANCH  14  15
ATOM     15  C   UNL     1      14.720  18.125  26.552  1.00  0.00     0.000 C 
BRANCH  15  16
ATOM     16  C   UNL     1      13.215  18.262  26.838  1.00  0.00     0.000 C 
BRANCH  16  17
ATOM     17  C   UNL     1      12.873  19.364  27.864  1.00  0.00     0.000 C 
BRANCH  17  18
ATOM     18  C   UNL     1      12.698  20.741  27.202  1.00  0.00     0.000 C 
BRANCH  18  19
ATOM     19  C   UNL     1      12.571  21.877  28.231  1.00  0.00     0.000 C 
BRANCH  19  20
ATOM     20  C   UNL     1      11.114  22.100  28.675  1.00  0.00     0.006 C 
BRANCH  20  21
ATOM     21  C   UNL     1      11.009  22.512  30.150  1.00  0.00     0.053 C 
BRANCH  21  22
ATOM     22  C   UNL     1      11.750  21.582  31.063  1.00  0.00     0.041 C 
ATOM     23  O   UNL     1      11.407  20.372  31.159  1.00  0.00    -0.550 OA
ATOM     24  O   UNL     1      12.804  22.059  31.831  1.00  0.00    -0.550 OA
ENDBRANCH  21  22
ENDBRANCH  20  21
ENDBRANCH  19  20
ENDBRANCH  18  19
ENDBRANCH  17  18
ENDBRANCH  16  17
ENDBRANCH  15  16
ENDBRANCH  14  15
ENDBRANCH  13  14
ENDBRANCH   1  13
TORSDOF 20
ENDMDL
MODEL 7
REMARK VINA RESULT:    -3.920      4.232      8.391
REMARK INTER + INTRA:         -12.067
REMARK INTER:                  -9.808
REMARK INTRA:                  -2.259
REMARK UNBOUND:                -3.563
REMARK SMILES CCCCCCCCCCCCCCCCCCCCCC(=O)[O-]
REMARK SMILES IDX 12 1 11 2 10 3 9 4 8 5 7 6 6 7 5 8 4 9 3 10 2 11 1 12 13 13
REMARK SMILES IDX 14 14 15 15 16 16 17 17 18 18 19 19 20 20 21 21 22 22 23 23
REMARK SMILES IDX 24 24
REMARK H PARENT
REMARK Flexibility Score: inf
ROOT
ATOM      1  C   UNL     1      11.561  16.889  28.598  1.00  0.00     0.000 C 
ENDROOT
BRANCH   1   2
ATOM      2  C   UNL     1      10.983  15.818  29.542  1.00  0.00     0.000 C 
BRANCH   2   3
ATOM      3  C   UNL     1      11.745  15.643  30.871  1.00  0.00     0.000 C 
BRANCH   3   4
ATOM      4  C   UNL     1      11.823  16.903  31.752  1.00  0.00    -0.000 C 
BRANCH   4   5
ATOM      5  C   UNL     1      10.671  16.995  32.767  1.00  0.00    -0.000 C 
BRANCH   5   6
ATOM      6  C   UNL     1       9.569  17.979  32.337  1.00  0.00    -0.000 C 
BRANCH   6   7
ATOM      7  C   UNL     1      10.013  19.070  31.343  1.00  0.00    -0.000 C 
BRANCH   7   8
ATOM      8  C   UNL     1      10.618  20.338  31.980  1.00  0.00    -0.000 C 
BRANCH   8   9
ATOM      9  C   UNL     1      11.567  21.138  31.068  1.00  0.00    -0.000 C 
BRANCH   9  10
ATOM     10  C   UNL     1      12.482  20.237  30.222  1.00  0.00    -0.000 C 
BRANCH  10  11
ATOM     11  C   UNL     1      12.782  20.837  28.839  1.00  0.00    -0.003 C 
ATOM     12  C   UNL     1      11.626  20.663  27.853  1.00  0.00     0.004 C 
ENDBRANCH  10  11
ENDBRANCH   9  10
ENDBRANCH   8   9
ENDBRANCH   7   8
ENDBRANCH   6   7
ENDBRANCH   5   6
ENDBRANCH   4   5
ENDBRANCH   3   4
ENDBRANCH   2   3
ENDBRANCH   1   2
BRANCH   1  13
ATOM     13  C   UNL     1      12.371  16.341  27.405  1.00  0.00     0.000 C 
BRANCH  13  14
ATOM     14  C   UNL     1      12.823  17.393  26.376  1.00  0.00     0.000 C 
BRANCH  14  15
ATOM     15  C   UNL     1      14.102  18.135  26.794  1.00  0.00     0.000 C 
BRANCH  15  16
ATOM     16  C   UNL     1      15.200  18.084  25.717  1.00  0.00     0.000 C 
BRANCH  16  17
ATOM     17  C   UNL     1      14.839  18.845  24.423  1.00  0.00     0.000 C 
BRANCH  17  18
ATOM     18  C   UNL     1      16.051  19.581  23.826  1.00  0.00     0.000 C 
BRANCH  18  19
ATOM     19  C   UNL     1      15.827  19.987  22.359  1.00  0.00     0.000 C 
BRANCH  19  20
ATOM     20  C   UNL     1      15.651  21.507  22.196  1.00  0.00     0.006 C 
BRANCH  20  21
ATOM     21  C   UNL     1      16.406  22.302  23.271  1.00  0.00     0.053 C 
BRANCH  21  22
ATOM     22  C   UNL     1      15.559  23.364  23.905  1.00  0.00     0.041 C 
ATOM     23  O   UNL     1      16.041  24.502  24.156  1.00  0.00    -0.550 OA
ATOM     24  O   UNL     1      14.241  23.087  24.246  1.00  0.00    -0.550 OA
ENDBRANCH  21  22
ENDBRANCH  20  21
ENDBRANCH  19  20
ENDBRANCH  18  19
ENDBRANCH  17  18
ENDBRANCH  16  17
ENDBRANCH  15  16
ENDBRANCH  14  15
ENDBRANCH  13  14
ENDBRANCH   1  13
TORSDOF 20
ENDMDL
MODEL 8
REMARK VINA RESULT:    -3.897      7.266     11.280
REMARK INTER + INTRA:         -12.017
REMARK INTER:                  -9.715
REMARK INTRA:                  -2.302
REMARK UNBOUND:                -3.563
REMARK SMILES CCCCCCCCCCCCCCCCCCCCCC(=O)[O-]
REMARK SMILES IDX 12 1 11 2 10 3 9 4 8 5 7 6 6 7 5 8 4 9 3 10 2 11 1 12 13 13
REMARK SMILES IDX 14 14 15 15 16 16 17 17 18 18 19 19 20 20 21 21 22 22 23 23
REMARK SMILES IDX 24 24
REMARK H PARENT
REMARK Flexibility Score: inf
ROOT
ATOM      1  C   UNL     1      11.766  15.751  30.331  1.00  0.00     0.000 C 
ENDROOT
BRANCH   1   2
ATOM      2  C   UNL     1      11.712  16.681  31.558  1.00  0.00     0.000 C 
BRANCH   2   3
ATOM      3  C   UNL     1      10.944  16.115  32.768  1.00  0.00     0.000 C 
BRANCH   3   4
ATOM      4  C   UNL     1       9.454  16.498  32.838  1.00  0.00    -0.000 C 
BRANCH   4   5
ATOM      5  C   UNL     1       8.519  15.326  32.499  1.00  0.00    -0.000 C 
BRANCH   5   6
ATOM      6  C   UNL     1       9.257  13.979  32.392  1.00  0.00    -0.000 C 
BRANCH   6   7
ATOM      7  C   UNL     1       8.991  13.185  31.098  1.00  0.00    -0.000 C 
BRANCH   7   8
ATOM      8  C   UNL     1       7.559  12.632  30.944  1.00  0.00    -0.000 C 
BRANCH   8   9
ATOM      9  C   UNL     1       7.245  11.387  31.794  1.00  0.00    -0.000 C 
BRANCH   9  10
ATOM     10  C   UNL     1       5.851  11.443  32.442  1.00  0.00    -0.000 C 
BRANCH  10  11
ATOM     11  C   UNL     1       5.503  12.845  32.966  1.00  0.00    -0.003 C 
ATOM     12  C   UNL     1       4.185  13.379  32.405  1.00  0.00     0.004 C 
ENDBRANCH  10  11
ENDBRANCH   9  10
ENDBRANCH   8   9
ENDBRANCH   7   8
ENDBRANCH   6   7
ENDBRANCH   5   6
ENDBRANCH   4   5
ENDBRANCH   3   4
ENDBRANCH   2   3
ENDBRANCH   1   2
BRANCH   1  13
ATOM     13  C   UNL     1      11.170  16.341  29.036  1.00  0.00     0.000 C 
BRANCH  13  14
ATOM     14  C   UNL     1      12.071  16.243  27.792  1.00  0.00     0.000 C 
BRANCH  14  15
ATOM     15  C   UNL     1      12.694  17.589  27.390  1.00  0.00     0.000 C 
BRANCH  15  16
ATOM     16  C   UNL     1      11.969  18.792  28.018  1.00  0.00     0.000 C 
BRANCH  16  17
ATOM     17  C   UNL     1      12.859  20.044  28.175  1.00  0.00     0.000 C 
BRANCH  17  18
ATOM     18  C   UNL     1      12.916  20.538  29.630  1.00  0.00     0.000 C 
BRANCH  18  19
ATOM     19  C   UNL     1      11.845  19.880  30.517  1.00  0.00     0.000 C 
BRANCH  19  20
ATOM     20  C   UNL     1      10.844  20.905  31.079  1.00  0.00     0.006 C 
BRANCH  20  21
ATOM     21  C   UNL     1      10.931  22.261  30.362  1.00  0.00     0.053 C 
BRANCH  21  22
ATOM     22  C   UNL     1       9.810  22.471  29.389  1.00  0.00     0.041 C 
ATOM     23  O   UNL     1       9.876  23.389  28.527  1.00  0.00    -0.550 OA
ATOM     24  O   UNL     1       8.678  21.669  29.451  1.00  0.00    -0.550 OA
ENDBRANCH  21  22
ENDBRANCH  20  21
ENDBRANCH  19  20
ENDBRANCH  18  19
ENDBRANCH  17  18
ENDBRANCH  16  17
ENDBRANCH  15  16
ENDBRANCH  14  15
ENDBRANCH  13  14
ENDBRANCH   1  13
TORSDOF 20
ENDMDL
MODEL 9
REMARK VINA RESULT:    -3.883      2.631      6.383
REMARK INTER + INTRA:         -11.987
REMARK INTER:                  -9.240
REMARK INTRA:                  -2.747
REMARK UNBOUND:                -3.563
REMARK SMILES CCCCCCCCCCCCCCCCCCCCCC(=O)[O-]
REMARK SMILES IDX 12 1 11 2 10 3 9 4 8 5 7 6 6 7 5 8 4 9 3 10 2 11 1 12 13 13
REMARK SMILES IDX 14 14 15 15 16 16 17 17 18 18 19 19 20 20 21 21 22 22 23 23
REMARK SMILES IDX 24 24
REMARK H PARENT
REMARK Flexibility Score: inf
ROOT
ATOM      1  C   UNL     1      15.823  18.033  21.717  1.00  0.00     0.000 C 
ENDROOT
BRANCH   1   2
ATOM      2  C   UNL     1      17.030  18.974  21.546  1.00  0.00     0.000 C 
BRANCH   2   3
ATOM      3  C   UNL     1      17.452  19.727  22.824  1.00  0.00     0.000 C 
BRANCH   3   4
ATOM      4  C   UNL     1      17.771  21.220  22.630  1.00  0.00    -0.000 C 
BRANCH   4   5
ATOM      5  C   UNL     1      17.390  22.076  23.850  1.00  0.00    -0.000 C 
BRANCH   5   6
ATOM      6  C   UNL     1      16.139  22.940  23.611  1.00  0.00    -0.000 C 
BRANCH   6   7
ATOM      7  C   UNL     1      14.804  22.169  23.581  1.00  0.00    -0.000 C 
BRANCH   7   8
ATOM      8  C   UNL     1      13.992  22.304  22.276  1.00  0.00    -0.000 C 
BRANCH   8   9
ATOM      9  C   UNL     1      14.739  21.889  20.996  1.00  0.00    -0.000 C 
BRANCH   9  10
ATOM     10  C   UNL     1      14.368  22.755  19.780  1.00  0.00    -0.000 C 
BRANCH  10  11
ATOM     11  C   UNL     1      12.848  22.907  19.609  1.00  0.00    -0.003 C 
ATOM     12  C   UNL     1      12.230  21.790  18.769  1.00  0.00     0.004 C 
ENDBRANCH  10  11
ENDBRANCH   9  10
ENDBRANCH   8   9
ENDBRANCH   7   8
ENDBRANCH   6   7
ENDBRANCH   5   6
ENDBRANCH   4   5
ENDBRANCH   3   4
ENDBRANCH   2   3
ENDBRANCH   1   2
BRANCH   1  13
ATOM     13  C   UNL     1      14.643  18.621  22.519  1.00  0.00     0.000 C 
BRANCH  13  14
ATOM     14  C   UNL     1      14.336  17.914  23.852  1.00  0.00     0.000 C 
BRANCH  14  15
ATOM     15  C   UNL     1      15.060  18.548  25.050  1.00  0.00     0.000 C 
BRANCH  15  16
ATOM     16  C   UNL     1      14.260  18.431  26.359  1.00  0.00     0.000 C 
BRANCH  16  17
ATOM     17  C   UNL     1      13.111  19.455  26.481  1.00  0.00     0.000 C 
BRANCH  17  18
ATOM     18  C   UNL     1      12.887  19.907  27.934  1.00  0.00     0.000 C 
BRANCH  18  19
ATOM     19  C   UNL     1      12.554  21.405  28.039  1.00  0.00     0.000 C 
BRANCH  19  20
ATOM     20  C   UNL     1      12.798  22.150  26.714  1.00  0.00     0.006 C 
BRANCH  20  21
ATOM     21  C   UNL     1      13.478  23.511  26.925  1.00  0.00     0.053 C 
BRANCH  21  22
ATOM     22  C   UNL     1      12.643  24.655  26.435  1.00  0.00     0.041 C 
ATOM     23  O   UNL     1      11.686  25.092  27.131  1.00  0.00    -0.550 OA
ATOM     24  O   UNL     1      12.904  25.223  25.194  1.00  0.00    -0.550 OA
ENDBRANCH  21  22
ENDBRANCH  20  21
ENDBRANCH  19  20
ENDBRANCH  18  19
ENDBRANCH  17  18
ENDBRANCH  16  17
ENDBRANCH  15  16
ENDBRANCH  14  15
ENDBRANCH  13  14
ENDBRANCH   1  13
TORSDOF 20
ENDMDL
