MODEL 1
REMARK VINA RESULT:    -4.506      0.000      0.000
REMARK INTER + INTRA:          -4.954
REMARK INTER:                  -4.902
REMARK INTRA:                  -0.053
REMARK UNBOUND:                -0.053
REMARK SMILES COc1cc2ccc(=O)oc2cc1O
REMARK SMILES IDX 3 1 13 2 12 3 11 4 5 5 4 6 6 7 7 8 8 9 9 10 10 11 2 12 1 13
REMARK SMILES IDX 14 14
REMARK H PARENT 14 15
REMARK Flexibility Score: inf
ROOT
ATOM      1  C   UNL     1       1.169  17.133  16.230  1.00  0.00     0.161 A 
ATOM      2  C   UNL     1       1.914  17.016  17.414  1.00  0.00     0.161 A 
ATOM      3  C   UNL     1       1.810  15.864  18.206  1.00  0.00     0.098 A 
ATOM      4  C   UNL     1       0.962  14.821  17.824  1.00  0.00     0.142 A 
ATOM      5  C   UNL     1       0.210  14.930  16.636  1.00  0.00     0.022 A 
ATOM      6  C   UNL     1       0.313  16.082  15.843  1.00  0.00     0.062 A 
ATOM      7  C   UNL     1      -0.630  13.869  16.279  1.00  0.00     0.019 A 
ATOM      8  C   UNL     1      -0.698  12.744  17.102  1.00  0.00     0.094 A 
ATOM      9  C   UNL     1       0.078  12.706  18.264  1.00  0.00     0.336 A 
ATOM     10  O   UNL     1       0.029  11.700  19.020  1.00  0.00    -0.246 OA
ATOM     11  O   UNL     1       0.868  13.729  18.580  1.00  0.00    -0.423 OA
ENDROOT
BRANCH   1  12
ATOM     12  O   UNL     1       1.304  18.304  15.469  1.00  0.00    -0.493 OA
ATOM     13  C   UNL     1       1.460  18.333  14.054  1.00  0.00     0.278 C 
ENDBRANCH   1  12
BRANCH   2  14
ATOM     14  O   UNL     1       2.760  18.055  17.799  1.00  0.00    -0.504 OA
ATOM     15  H   UNL     1       3.234  18.634  17.116  1.00  0.00     0.293 HD
ENDBRANCH   2  14
TORSDOF 2
ENDMDL
MODEL 2
REMARK VINA RESULT:    -4.334      2.277      5.048
REMARK INTER + INTRA:          -4.767
REMARK INTER:                  -4.708
REMARK INTRA:                  -0.058
REMARK UNBOUND:                -0.053
REMARK SMILES COc1cc2ccc(=O)oc2cc1O
REMARK SMILES IDX 3 1 13 2 12 3 11 4 5 5 4 6 6 7 7 8 8 9 9 10 10 11 2 12 1 13
REMARK SMILES IDX 14 14
REMARK H PARENT 14 15
REMARK Flexibility Score: inf
ROOT
ATOM      1  C   UNL     1       0.855  14.061  17.584  1.00  0.00     0.161 A 
ATOM      2  C   UNL     1       0.110  15.236  17.393  1.00  0.00     0.161 A 
ATOM      3  C   UNL     1       0.286  16.005  16.235  1.00  0.00     0.098 A 
ATOM      4  C   UNL     1       1.205  15.610  15.260  1.00  0.00     0.142 A 
ATOM      5  C   UNL     1       1.958  14.432  15.444  1.00  0.00     0.022 A 
ATOM      6  C   UNL     1       1.783  13.661  16.602  1.00  0.00     0.062 A 
ATOM      7  C   UNL     1       2.871  14.062  14.450  1.00  0.00     0.019 A 
ATOM      8  C   UNL     1       3.009  14.862  13.316  1.00  0.00     0.094 A 
ATOM      9  C   UNL     1       2.228  16.016  13.201  1.00  0.00     0.336 A 
ATOM     10  O   UNL     1       2.339  16.752  12.185  1.00  0.00    -0.246 OA
ATOM     11  O   UNL     1       1.368  16.345  14.162  1.00  0.00    -0.423 OA
ENDROOT
BRANCH   1  12
ATOM     12  O   UNL     1       0.646  13.323  18.760  1.00  0.00    -0.493 OA
ATOM     13  C   UNL     1      -0.224  12.200  18.863  1.00  0.00     0.278 C 
ENDBRANCH   1  12
BRANCH   2  14
ATOM     14  O   UNL     1      -0.808  15.633  18.364  1.00  0.00    -0.504 OA
ATOM     15  H   UNL     1      -1.417  16.431  18.225  1.00  0.00     0.293 HD
ENDBRANCH   2  14
TORSDOF 2
ENDMDL
MODEL 3
REMARK VINA RESULT:    -4.187      1.826      2.252
REMARK INTER + INTRA:          -4.607
REMARK INTER:                  -4.547
REMARK INTRA:                  -0.060
REMARK UNBOUND:                -0.053
REMARK SMILES COc1cc2ccc(=O)oc2cc1O
REMARK SMILES IDX 3 1 13 2 12 3 11 4 5 5 4 6 6 7 7 8 8 9 9 10 10 11 2 12 1 13
REMARK SMILES IDX 14 14
REMARK H PARENT 14 15
REMARK Flexibility Score: inf
ROOT
ATOM      1  C   UNL     1       0.870  16.942  15.159  1.00  0.00     0.161 A 
ATOM      2  C   UNL     1      -0.423  17.261  15.601  1.00  0.00     0.161 A 
ATOM      3  C   UNL     1      -1.050  16.477  16.580  1.00  0.00     0.098 A 
ATOM      4  C   UNL     1      -0.392  15.372  17.125  1.00  0.00     0.142 A 
ATOM      5  C   UNL     1       0.907  15.045  16.687  1.00  0.00     0.022 A 
ATOM      6  C   UNL     1       1.536  15.827  15.707  1.00  0.00     0.062 A 
ATOM      7  C   UNL     1       1.541  13.932  17.251  1.00  0.00     0.019 A 
ATOM      8  C   UNL     1       0.874  13.185  18.222  1.00  0.00     0.094 A 
ATOM      9  C   UNL     1      -0.414  13.569  18.608  1.00  0.00     0.336 A 
ATOM     10  O   UNL     1      -1.032  12.907  19.482  1.00  0.00    -0.246 OA
ATOM     11  O   UNL     1      -0.993  14.632  18.054  1.00  0.00    -0.423 OA
ENDROOT
BRANCH   1  12
ATOM     12  O   UNL     1       1.459  17.754  14.176  1.00  0.00    -0.493 OA
ATOM     13  C   UNL     1       1.881  17.294  12.896  1.00  0.00     0.278 C 
ENDBRANCH   1  12
BRANCH   2  14
ATOM     14  O   UNL     1      -1.083  18.363  15.059  1.00  0.00    -0.504 OA
ATOM     15  H   UNL     1      -1.334  19.164  15.627  1.00  0.00     0.293 HD
ENDBRANCH   2  14
TORSDOF 2
ENDMDL
MODEL 4
REMARK VINA RESULT:    -4.145      3.376      4.719
REMARK INTER + INTRA:          -4.561
REMARK INTER:                  -4.510
REMARK INTRA:                  -0.051
REMARK UNBOUND:                -0.053
REMARK SMILES COc1cc2ccc(=O)oc2cc1O
REMARK SMILES IDX 3 1 13 2 12 3 11 4 5 5 4 6 6 7 7 8 8 9 9 10 10 11 2 12 1 13
REMARK SMILES IDX 14 14
REMARK H PARENT 14 15
REMARK Flexibility Score: inf
ROOT
ATOM      1  C   UNL     1       0.526  13.764  17.348  1.00  0.00     0.161 A 
ATOM      2  C   UNL     1       1.522  14.710  17.058  1.00  0.00     0.161 A 
ATOM      3  C   UNL     1       2.261  14.619  15.870  1.00  0.00     0.098 A 
ATOM      4  C   UNL     1       2.012  13.585  14.964  1.00  0.00     0.142 A 
ATOM      5  C   UNL     1       1.014  12.631  15.247  1.00  0.00     0.022 A 
ATOM      6  C   UNL     1       0.274  12.720  16.435  1.00  0.00     0.062 A 
ATOM      7  C   UNL     1       0.788  11.607  14.321  1.00  0.00     0.019 A 
ATOM      8  C   UNL     1       1.550  11.561  13.153  1.00  0.00     0.094 A 
ATOM      9  C   UNL     1       2.522  12.542  12.939  1.00  0.00     0.336 A 
ATOM     10  O   UNL     1       3.221  12.517  11.892  1.00  0.00    -0.246 OA
ATOM     11  O   UNL     1       2.717  13.504  13.837  1.00  0.00    -0.423 OA
ENDROOT
BRANCH   1  12
ATOM     12  O   UNL     1      -0.188  13.894  18.550  1.00  0.00    -0.493 OA
ATOM     13  C   UNL     1      -0.544  12.806  19.398  1.00  0.00     0.278 C 
ENDBRANCH   1  12
BRANCH   2  14
ATOM     14  O   UNL     1       1.773  15.742  17.961  1.00  0.00    -0.504 OA
ATOM     15  H   UNL     1       2.711  15.953  18.280  1.00  0.00     0.293 HD
ENDBRANCH   2  14
TORSDOF 2
ENDMDL
MODEL 5
REMARK VINA RESULT:    -4.139      1.972      2.332
REMARK INTER + INTRA:          -4.555
REMARK INTER:                  -4.509
REMARK INTRA:                  -0.046
REMARK UNBOUND:                -0.053
REMARK SMILES COc1cc2ccc(=O)oc2cc1O
REMARK SMILES IDX 3 1 13 2 12 3 11 4 5 5 4 6 6 7 7 8 8 9 9 10 10 11 2 12 1 13
REMARK SMILES IDX 14 14
REMARK H PARENT 14 15
REMARK Flexibility Score: inf
ROOT
ATOM      1  C   UNL     1       1.516  15.727  14.783  1.00  0.00     0.161 A 
ATOM      2  C   UNL     1       2.249  14.535  14.888  1.00  0.00     0.161 A 
ATOM      3  C   UNL     1       1.946  13.605  15.893  1.00  0.00     0.098 A 
ATOM      4  C   UNL     1       0.913  13.857  16.798  1.00  0.00     0.142 A 
ATOM      5  C   UNL     1       0.172  15.052  16.700  1.00  0.00     0.022 A 
ATOM      6  C   UNL     1       0.473  15.983  15.696  1.00  0.00     0.062 A 
ATOM      7  C   UNL     1      -0.857  15.276  17.621  1.00  0.00     0.019 A 
ATOM      8  C   UNL     1      -1.119  14.319  18.601  1.00  0.00     0.094 A 
ATOM      9  C   UNL     1      -0.342  13.156  18.638  1.00  0.00     0.336 A 
ATOM     10  O   UNL     1      -0.562  12.281  19.516  1.00  0.00    -0.246 OA
ATOM     11  O   UNL     1       0.631  12.969  17.750  1.00  0.00    -0.423 OA
ENDROOT
BRANCH   1  12
ATOM     12  O   UNL     1       1.854  16.630  13.763  1.00  0.00    -0.493 OA
ATOM     13  C   UNL     1       1.503  18.011  13.758  1.00  0.00     0.278 C 
ENDBRANCH   1  12
BRANCH   2  14
ATOM     14  O   UNL     1       3.281  14.281  13.987  1.00  0.00    -0.504 OA
ATOM     15  H   UNL     1       4.060  14.919  13.877  1.00  0.00     0.293 HD
ENDBRANCH   2  14
TORSDOF 2
ENDMDL
MODEL 6
REMARK VINA RESULT:    -4.018      3.472      4.320
REMARK INTER + INTRA:          -4.423
REMARK INTER:                  -4.378
REMARK INTRA:                  -0.045
REMARK UNBOUND:                -0.053
REMARK SMILES COc1cc2ccc(=O)oc2cc1O
REMARK SMILES IDX 3 1 13 2 12 3 11 4 5 5 4 6 6 7 7 8 8 9 9 10 10 11 2 12 1 13
REMARK SMILES IDX 14 14
REMARK H PARENT 14 15
REMARK Flexibility Score: inf
ROOT
ATOM      1  C   UNL     1       2.581  13.462  13.570  1.00  0.00     0.161 A 
ATOM      2  C   UNL     1       1.692  12.376  13.552  1.00  0.00     0.161 A 
ATOM      3  C   UNL     1       0.961  12.041  14.700  1.00  0.00     0.098 A 
ATOM      4  C   UNL     1       1.111  12.785  15.873  1.00  0.00     0.142 A 
ATOM      5  C   UNL     1       2.002  13.877  15.900  1.00  0.00     0.022 A 
ATOM      6  C   UNL     1       2.735  14.214  14.752  1.00  0.00     0.062 A 
ATOM      7  C   UNL     1       2.132  14.603  17.089  1.00  0.00     0.019 A 
ATOM      8  C   UNL     1       1.382  14.230  18.204  1.00  0.00     0.094 A 
ATOM      9  C   UNL     1       0.517  13.135  18.104  1.00  0.00     0.336 A 
ATOM     10  O   UNL     1      -0.168  12.782  19.099  1.00  0.00    -0.246 OA
ATOM     11  O   UNL     1       0.414  12.462  16.961  1.00  0.00    -0.423 OA
ENDROOT
BRANCH   1  12
ATOM     12  O   UNL     1       3.293  13.761  12.398  1.00  0.00    -0.493 OA
ATOM     13  C   UNL     1       4.160  14.880  12.243  1.00  0.00     0.278 C 
ENDBRANCH   1  12
BRANCH   2  14
ATOM     14  O   UNL     1       1.539  11.632  12.384  1.00  0.00    -0.504 OA
ATOM     15  H   UNL     1       0.956  10.803  12.354  1.00  0.00     0.293 HD
ENDBRANCH   2  14
TORSDOF 2
ENDMDL
MODEL 7
REMARK VINA RESULT:    -3.975      2.380      2.891
REMARK INTER + INTRA:          -4.376
REMARK INTER:                  -4.326
REMARK INTRA:                  -0.050
REMARK UNBOUND:                -0.053
REMARK SMILES COc1cc2ccc(=O)oc2cc1O
REMARK SMILES IDX 3 1 13 2 12 3 11 4 5 5 4 6 6 7 7 8 8 9 9 10 10 11 2 12 1 13
REMARK SMILES IDX 14 14
REMARK H PARENT 14 15
REMARK Flexibility Score: inf
ROOT
ATOM      1  C   UNL     1       2.093  15.417  13.855  1.00  0.00     0.161 A 
ATOM      2  C   UNL     1       1.407  16.534  14.358  1.00  0.00     0.161 A 
ATOM      3  C   UNL     1       0.630  16.423  15.519  1.00  0.00     0.098 A 
ATOM      4  C   UNL     1       0.530  15.199  16.186  1.00  0.00     0.142 A 
ATOM      5  C   UNL     1       1.215  14.073  15.687  1.00  0.00     0.022 A 
ATOM      6  C   UNL     1       1.993  14.182  14.526  1.00  0.00     0.062 A 
ATOM      7  C   UNL     1       1.096  12.861  16.376  1.00  0.00     0.019 A 
ATOM      8  C   UNL     1       0.309  12.802  17.527  1.00  0.00     0.094 A 
ATOM      9  C   UNL     1      -0.341  13.961  17.963  1.00  0.00     0.336 A 
ATOM     10  O   UNL     1      -1.056  13.928  18.999  1.00  0.00    -0.246 OA
ATOM     11  O   UNL     1      -0.211  15.100  17.288  1.00  0.00    -0.423 OA
ENDROOT
BRANCH   1  12
ATOM     12  O   UNL     1       2.859  15.575  12.689  1.00  0.00    -0.493 OA
ATOM     13  C   UNL     1       4.125  14.960  12.467  1.00  0.00     0.278 C 
ENDBRANCH   1  12
BRANCH   2  14
ATOM     14  O   UNL     1       1.505  17.757  13.696  1.00  0.00    -0.504 OA
ATOM     15  H   UNL     1       1.770  17.812  12.719  1.00  0.00     0.293 HD
ENDBRANCH   2  14
TORSDOF 2
ENDMDL
MODEL 8
REMARK VINA RESULT:    -3.906      1.594      4.748
REMARK INTER + INTRA:          -4.301
REMARK INTER:                  -4.255
REMARK INTRA:                  -0.046
REMARK UNBOUND:                -0.053
REMARK SMILES COc1cc2ccc(=O)oc2cc1O
REMARK SMILES IDX 3 1 13 2 12 3 11 4 5 5 4 6 6 7 7 8 8 9 9 10 10 11 2 12 1 13
REMARK SMILES IDX 14 14
REMARK H PARENT 14 15
REMARK Flexibility Score: inf
ROOT
ATOM      1  C   UNL     1       0.160  13.583  16.084  1.00  0.00     0.161 A 
ATOM      2  C   UNL     1       0.736  13.596  17.364  1.00  0.00     0.161 A 
ATOM      3  C   UNL     1       1.322  14.767  17.865  1.00  0.00     0.098 A 
ATOM      4  C   UNL     1       1.339  15.932  17.094  1.00  0.00     0.142 A 
ATOM      5  C   UNL     1       0.763  15.928  15.807  1.00  0.00     0.022 A 
ATOM      6  C   UNL     1       0.176  14.758  15.305  1.00  0.00     0.062 A 
ATOM      7  C   UNL     1       0.794  17.110  15.059  1.00  0.00     0.019 A 
ATOM      8  C   UNL     1       1.389  18.248  15.603  1.00  0.00     0.094 A 
ATOM      9  C   UNL     1       1.940  18.178  16.886  1.00  0.00     0.336 A 
ATOM     10  O   UNL     1       2.483  19.194  17.393  1.00  0.00    -0.246 OA
ATOM     11  O   UNL     1       1.897  17.041  17.575  1.00  0.00    -0.423 OA
ENDROOT
BRANCH   1  12
ATOM     12  O   UNL     1      -0.415  12.389  15.623  1.00  0.00    -0.493 OA
ATOM     13  C   UNL     1      -0.676  12.095  14.254  1.00  0.00     0.278 C 
ENDBRANCH   1  12
BRANCH   2  14
ATOM     14  O   UNL     1       0.722  12.436  18.136  1.00  0.00    -0.504 OA
ATOM     15  H   UNL     1      -0.110  11.863  18.219  1.00  0.00     0.293 HD
ENDBRANCH   2  14
TORSDOF 2
ENDMDL
MODEL 9
REMARK VINA RESULT:    -3.895      3.446      4.348
REMARK INTER + INTRA:          -4.289
REMARK INTER:                  -4.242
REMARK INTRA:                  -0.047
REMARK UNBOUND:                -0.053
REMARK SMILES COc1cc2ccc(=O)oc2cc1O
REMARK SMILES IDX 3 1 13 2 12 3 11 4 5 5 4 6 6 7 7 8 8 9 9 10 10 11 2 12 1 13
REMARK SMILES IDX 14 14
REMARK H PARENT 14 15
REMARK Flexibility Score: inf
ROOT
ATOM      1  C   UNL     1       1.518  14.853  16.912  1.00  0.00     0.161 A 
ATOM      2  C   UNL     1       0.640  13.789  17.171  1.00  0.00     0.161 A 
ATOM      3  C   UNL     1       0.501  12.745  16.246  1.00  0.00     0.098 A 
ATOM      4  C   UNL     1       1.235  12.754  15.058  1.00  0.00     0.142 A 
ATOM      5  C   UNL     1       2.119  13.819  14.790  1.00  0.00     0.022 A 
ATOM      6  C   UNL     1       2.259  14.864  15.714  1.00  0.00     0.062 A 
ATOM      7  C   UNL     1       2.841  13.801  13.591  1.00  0.00     0.019 A 
ATOM      8  C   UNL     1       2.667  12.738  12.704  1.00  0.00     0.094 A 
ATOM      9  C   UNL     1       1.772  11.716  13.037  1.00  0.00     0.336 A 
ATOM     10  O   UNL     1       1.600  10.750  12.249  1.00  0.00    -0.246 OA
ATOM     11  O   UNL     1       1.098  11.759  14.183  1.00  0.00    -0.423 OA
ENDROOT
BRANCH   1  12
ATOM     12  O   UNL     1       1.625  15.877  17.866  1.00  0.00    -0.493 OA
ATOM     13  C   UNL     1       1.986  17.223  17.568  1.00  0.00     0.278 C 
ENDBRANCH   1  12
BRANCH   2  14
ATOM     14  O   UNL     1      -0.094  13.777  18.356  1.00  0.00    -0.504 OA
ATOM     15  H   UNL     1      -0.437  12.913  18.760  1.00  0.00     0.293 HD
ENDBRANCH   2  14
TORSDOF 2
ENDMDL
