MODEL 1
REMARK VINA RESULT:     9.503      0.000      0.000
REMARK INTER + INTRA:          17.283
REMARK INTER:                  17.836
REMARK INTRA:                  -0.553
REMARK UNBOUND:                -0.553
REMARK SMILES O=C([O-])CCCCCCCCCCCCCCC(=O)[O-]
REMARK SMILES IDX 10 1 9 2 8 3 7 4 6 5 5 6 4 7 2 8 1 9 3 10 11 11 12 12 13 13
REMARK SMILES IDX 14 14 15 15 16 16 17 17 18 18 19 19 20 20
REMARK H PARENT
REMARK Flexibility Score: inf
ROOT
ATOM      1  C   UNL     1       9.254 -31.555 -15.232  1.00  0.00     0.000 C 
ENDROOT
BRANCH   1   2
ATOM      2  C   UNL     1       8.882 -30.148 -14.736  1.00  0.00     0.000 C 
BRANCH   2   3
ATOM      3  C   UNL     1       9.025 -30.004 -13.211  1.00  0.00     0.000 C 
BRANCH   3   4
ATOM      4  C   UNL     1       7.697 -29.654 -12.516  1.00  0.00     0.000 C 
BRANCH   4   5
ATOM      5  C   UNL     1       7.838 -29.122 -11.078  1.00  0.00     0.000 C 
BRANCH   5   6
ATOM      6  C   UNL     1       9.126 -29.593 -10.387  1.00  0.00     0.006 C 
BRANCH   6   7
ATOM      7  C   UNL     1       9.278 -28.944  -9.008  1.00  0.00     0.053 C 
BRANCH   7   8
ATOM      8  C   UNL     1       9.815 -27.554  -9.140  1.00  0.00     0.041 C 
ATOM      9  O   UNL     1      10.958 -27.360  -9.633  1.00  0.00    -0.550 OA
ATOM     10  O   UNL     1       9.034 -26.468  -8.764  1.00  0.00    -0.550 OA
ENDBRANCH   7   8
ENDBRANCH   6   7
ENDBRANCH   5   6
ENDBRANCH   4   5
ENDBRANCH   3   4
ENDBRANCH   2   3
ENDBRANCH   1   2
BRANCH   1  11
ATOM     11  C   UNL     1       9.306 -31.643 -16.767  1.00  0.00     0.000 C 
BRANCH  11  12
ATOM     12  C   UNL     1       9.856 -30.363 -17.417  1.00  0.00     0.000 C 
BRANCH  12  13
ATOM     13  C   UNL     1       8.809 -29.649 -18.292  1.00  0.00     0.000 C 
BRANCH  13  14
ATOM     14  C   UNL     1       7.745 -28.918 -17.456  1.00  0.00     0.000 C 
BRANCH  14  15
ATOM     15  C   UNL     1       6.503 -28.538 -18.283  1.00  0.00     0.000 C 
BRANCH  15  16
ATOM     16  C   UNL     1       6.610 -28.989 -19.748  1.00  0.00     0.006 C 
BRANCH  16  17
ATOM     17  C   UNL     1       6.223 -27.883 -20.738  1.00  0.00     0.053 C 
BRANCH  17  18
ATOM     18  C   UNL     1       6.534 -28.305 -22.140  1.00  0.00     0.041 C 
ATOM     19  O   UNL     1       6.071 -27.655 -23.115  1.00  0.00    -0.550 OA
ATOM     20  O   UNL     1       7.293 -29.445 -22.370  1.00  0.00    -0.550 OA
ENDBRANCH  17  18
ENDBRANCH  16  17
ENDBRANCH  15  16
ENDBRANCH  14  15
ENDBRANCH  13  14
ENDBRANCH  12  13
ENDBRANCH  11  12
ENDBRANCH   1  11
TORSDOF 15
ENDMDL
MODEL 2
REMARK VINA RESULT:     9.546      0.654      9.352
REMARK INTER + INTRA:          17.365
REMARK INTER:                  17.505
REMARK INTRA:                  -0.140
REMARK UNBOUND:                -0.553
REMARK SMILES O=C([O-])CCCCCCCCCCCCCCC(=O)[O-]
REMARK SMILES IDX 10 1 9 2 8 3 7 4 6 5 5 6 4 7 2 8 1 9 3 10 11 11 12 12 13 13
REMARK SMILES IDX 14 14 15 15 16 16 17 17 18 18 19 19 20 20
REMARK H PARENT
REMARK Flexibility Score: inf
ROOT
ATOM      1  C   UNL     1       9.235 -31.953 -16.870  1.00  0.00     0.000 C 
ENDROOT
BRANCH   1   2
ATOM      2  C   UNL     1       9.863 -30.590 -17.204  1.00  0.00     0.000 C 
BRANCH   2   3
ATOM      3  C   UNL     1       8.892 -29.663 -17.955  1.00  0.00     0.000 C 
BRANCH   3   4
ATOM      4  C   UNL     1       7.872 -28.983 -17.024  1.00  0.00     0.000 C 
BRANCH   4   5
ATOM      5  C   UNL     1       6.576 -28.515 -17.712  1.00  0.00     0.000 C 
BRANCH   5   6
ATOM      6  C   UNL     1       6.409 -29.086 -19.128  1.00  0.00     0.006 C 
BRANCH   6   7
ATOM      7  C   UNL     1       6.514 -27.980 -20.181  1.00  0.00     0.053 C 
BRANCH   7   8
ATOM      8  C   UNL     1       6.674 -28.570 -21.546  1.00  0.00     0.041 C 
ATOM      9  O   UNL     1       6.144 -28.013 -22.544  1.00  0.00    -0.550 OA
ATOM     10  O   UNL     1       7.453 -29.707 -21.725  1.00  0.00    -0.550 OA
ENDBRANCH   7   8
ENDBRANCH   6   7
ENDBRANCH   5   6
ENDBRANCH   4   5
ENDBRANCH   3   4
ENDBRANCH   2   3
ENDBRANCH   1   2
BRANCH   1  11
ATOM     11  C   UNL     1       9.194 -32.228 -15.356  1.00  0.00     0.000 C 
BRANCH  11  12
ATOM     12  C   UNL     1       9.798 -31.082 -14.528  1.00  0.00     0.000 C 
BRANCH  12  13
ATOM     13  C   UNL     1       8.824 -29.902 -14.355  1.00  0.00     0.000 C 
BRANCH  13  14
ATOM     14  C   UNL     1       8.013 -29.997 -13.052  1.00  0.00     0.000 C 
BRANCH  14  15
ATOM     15  C   UNL     1       8.901 -29.921 -11.797  1.00  0.00     0.000 C 
BRANCH  15  16
ATOM     16  C   UNL     1       8.225 -29.169 -10.640  1.00  0.00     0.006 C 
BRANCH  16  17
ATOM     17  C   UNL     1       9.065 -29.178  -9.356  1.00  0.00     0.053 C 
BRANCH  17  18
ATOM     18  C   UNL     1       9.821 -27.894  -9.219  1.00  0.00     0.041 C 
ATOM     19  O   UNL     1       9.315 -26.925  -8.593  1.00  0.00    -0.550 OA
ATOM     20  O   UNL     1      11.062 -27.750  -9.826  1.00  0.00    -0.550 OA
ENDBRANCH  17  18
ENDBRANCH  16  17
ENDBRANCH  15  16
ENDBRANCH  14  15
ENDBRANCH  13  14
ENDBRANCH  12  13
ENDBRANCH  11  12
ENDBRANCH   1  11
TORSDOF 15
ENDMDL
MODEL 3
REMARK VINA RESULT:    10.210      1.142      9.630
REMARK INTER + INTRA:          18.610
REMARK INTER:                  18.760
REMARK INTRA:                  -0.150
REMARK UNBOUND:                -0.553
REMARK SMILES O=C([O-])CCCCCCCCCCCCCCC(=O)[O-]
REMARK SMILES IDX 10 1 9 2 8 3 7 4 6 5 5 6 4 7 2 8 1 9 3 10 11 11 12 12 13 13
REMARK SMILES IDX 14 14 15 15 16 16 17 17 18 18 19 19 20 20
REMARK H PARENT
REMARK Flexibility Score: inf
ROOT
ATOM      1  C   UNL     1      10.027 -30.378 -17.056  1.00  0.00     0.000 C 
ENDROOT
BRANCH   1   2
ATOM      2  C   UNL     1       9.070 -29.640 -18.006  1.00  0.00     0.000 C 
BRANCH   2   3
ATOM      3  C   UNL     1       7.976 -28.863 -17.254  1.00  0.00     0.000 C 
BRANCH   3   4
ATOM      4  C   UNL     1       6.616 -28.895 -17.975  1.00  0.00     0.000 C 
BRANCH   4   5
ATOM      5  C   UNL     1       6.641 -28.388 -19.429  1.00  0.00     0.000 C 
BRANCH   5   6
ATOM      6  C   UNL     1       6.797 -29.520 -20.455  1.00  0.00     0.006 C 
BRANCH   6   7
ATOM      7  C   UNL     1       6.086 -29.173 -21.767  1.00  0.00     0.053 C 
BRANCH   7   8
ATOM      8  C   UNL     1       6.654 -27.919 -22.355  1.00  0.00     0.041 C 
ATOM      9  O   UNL     1       5.956 -27.208 -23.124  1.00  0.00    -0.550 OA
ATOM     10  O   UNL     1       7.938 -27.511 -22.013  1.00  0.00    -0.550 OA
ENDBRANCH   7   8
ENDBRANCH   6   7
ENDBRANCH   5   6
ENDBRANCH   4   5
ENDBRANCH   3   4
ENDBRANCH   2   3
ENDBRANCH   1   2
BRANCH   1  11
ATOM     11  C   UNL     1       9.426 -31.687 -16.515  1.00  0.00     0.000 C 
BRANCH  11  12
ATOM     12  C   UNL     1       9.229 -31.665 -14.991  1.00  0.00     0.000 C 
BRANCH  12  13
ATOM     13  C   UNL     1       8.697 -30.311 -14.485  1.00  0.00     0.000 C 
BRANCH  13  14
ATOM     14  C   UNL     1       8.809 -30.169 -12.958  1.00  0.00     0.000 C 
BRANCH  14  15
ATOM     15  C   UNL     1      10.270 -30.093 -12.479  1.00  0.00     0.000 C 
BRANCH  15  16
ATOM     16  C   UNL     1      10.406 -30.303 -10.963  1.00  0.00     0.006 C 
BRANCH  16  17
ATOM     17  C   UNL     1      10.699 -29.000 -10.208  1.00  0.00     0.053 C 
BRANCH  17  18
ATOM     18  C   UNL     1       9.458 -28.489  -9.547  1.00  0.00     0.041 C 
ATOM     19  O   UNL     1       9.535 -27.623  -8.635  1.00  0.00    -0.550 OA
ATOM     20  O   UNL     1       8.218 -29.006  -9.902  1.00  0.00    -0.550 OA
ENDBRANCH  17  18
ENDBRANCH  16  17
ENDBRANCH  15  16
ENDBRANCH  14  15
ENDBRANCH  13  14
ENDBRANCH  12  13
ENDBRANCH  11  12
ENDBRANCH   1  11
TORSDOF 15
ENDMDL
MODEL 4
REMARK VINA RESULT:    10.294      1.350      1.793
REMARK INTER + INTRA:          18.768
REMARK INTER:                  19.627
REMARK INTRA:                  -0.859
REMARK UNBOUND:                -0.553
REMARK SMILES O=C([O-])CCCCCCCCCCCCCCC(=O)[O-]
REMARK SMILES IDX 10 1 9 2 8 3 7 4 6 5 5 6 4 7 2 8 1 9 3 10 11 11 12 12 13 13
REMARK SMILES IDX 14 14 15 15 16 16 17 17 18 18 19 19 20 20
REMARK H PARENT
REMARK Flexibility Score: inf
ROOT
ATOM      1  C   UNL     1       9.696 -30.753 -14.827  1.00  0.00     0.000 C 
ENDROOT
BRANCH   1   2
ATOM      2  C   UNL     1       8.514 -29.847 -14.444  1.00  0.00     0.000 C 
BRANCH   2   3
ATOM      3  C   UNL     1       7.956 -30.166 -13.046  1.00  0.00     0.000 C 
BRANCH   3   4
ATOM      4  C   UNL     1       7.826 -28.917 -12.156  1.00  0.00     0.000 C 
BRANCH   4   5
ATOM      5  C   UNL     1       7.546 -29.207 -10.669  1.00  0.00     0.000 C 
BRANCH   5   6
ATOM      6  C   UNL     1       8.563 -28.545  -9.728  1.00  0.00     0.006 C 
BRANCH   6   7
ATOM      7  C   UNL     1       9.377 -29.599  -8.971  1.00  0.00     0.053 C 
BRANCH   7   8
ATOM      8  C   UNL     1      10.513 -30.088  -9.813  1.00  0.00     0.041 C 
ATOM      9  O   UNL     1      10.941 -31.265  -9.677  1.00  0.00    -0.550 OA
ATOM     10  O   UNL     1      11.067 -29.260 -10.782  1.00  0.00    -0.550 OA
ENDBRANCH   7   8
ENDBRANCH   6   7
ENDBRANCH   5   6
ENDBRANCH   4   5
ENDBRANCH   3   4
ENDBRANCH   2   3
ENDBRANCH   1   2
BRANCH   1  11
ATOM     11  C   UNL     1       9.256 -31.980 -15.645  1.00  0.00     0.000 C 
BRANCH  11  12
ATOM     12  C   UNL     1       9.234 -31.708 -17.158  1.00  0.00     0.000 C 
BRANCH  12  13
ATOM     13  C   UNL     1       9.718 -30.289 -17.509  1.00  0.00     0.000 C 
BRANCH  13  14
ATOM     14  C   UNL     1       8.864 -29.632 -18.607  1.00  0.00     0.000 C 
BRANCH  14  15
ATOM     15  C   UNL     1       7.507 -29.132 -18.079  1.00  0.00     0.000 C 
BRANCH  15  16
ATOM     16  C   UNL     1       6.637 -28.512 -19.182  1.00  0.00     0.006 C 
BRANCH  16  17
ATOM     17  C   UNL     1       6.666 -29.321 -20.485  1.00  0.00     0.053 C 
BRANCH  17  18
ATOM     18  C   UNL     1       6.722 -28.405 -21.667  1.00  0.00     0.041 C 
ATOM     19  O   UNL     1       7.457 -27.382 -21.642  1.00  0.00    -0.550 OA
ATOM     20  O   UNL     1       5.923 -28.652 -22.776  1.00  0.00    -0.550 OA
ENDBRANCH  17  18
ENDBRANCH  16  17
ENDBRANCH  15  16
ENDBRANCH  14  15
ENDBRANCH  13  14
ENDBRANCH  12  13
ENDBRANCH  11  12
ENDBRANCH   1  11
TORSDOF 15
ENDMDL
MODEL 5
REMARK VINA RESULT:    11.305      1.516      9.453
REMARK INTER + INTRA:          20.666
REMARK INTER:                  19.851
REMARK INTRA:                   0.816
REMARK UNBOUND:                -0.553
REMARK SMILES O=C([O-])CCCCCCCCCCCCCCC(=O)[O-]
REMARK SMILES IDX 10 1 9 2 8 3 7 4 6 5 5 6 4 7 2 8 1 9 3 10 11 11 12 12 13 13
REMARK SMILES IDX 14 14 15 15 16 16 17 17 18 18 19 19 20 20
REMARK H PARENT
REMARK Flexibility Score: inf
ROOT
ATOM      1  C   UNL     1       9.307 -31.612 -15.628  1.00  0.00     0.000 C 
ENDROOT
BRANCH   1   2
ATOM      2  C   UNL     1       9.443 -31.422 -17.148  1.00  0.00     0.000 C 
BRANCH   2   3
ATOM      3  C   UNL     1       9.284 -29.952 -17.574  1.00  0.00     0.000 C 
BRANCH   3   4
ATOM      4  C   UNL     1       8.099 -29.253 -16.882  1.00  0.00     0.000 C 
BRANCH   4   5
ATOM      5  C   UNL     1       6.966 -28.811 -17.826  1.00  0.00     0.000 C 
BRANCH   5   6
ATOM      6  C   UNL     1       7.222 -29.193 -19.291  1.00  0.00     0.006 C 
BRANCH   6   7
ATOM      7  C   UNL     1       6.585 -28.176 -20.243  1.00  0.00     0.053 C 
BRANCH   7   8
ATOM      8  C   UNL     1       6.706 -28.638 -21.661  1.00  0.00     0.041 C 
ATOM      9  O   UNL     1       7.248 -29.744 -21.923  1.00  0.00    -0.550 OA
ATOM     10  O   UNL     1       6.176 -27.870 -22.690  1.00  0.00    -0.550 OA
ENDBRANCH   7   8
ENDBRANCH   6   7
ENDBRANCH   5   6
ENDBRANCH   4   5
ENDBRANCH   3   4
ENDBRANCH   2   3
ENDBRANCH   1   2
BRANCH   1  11
ATOM     11  C   UNL     1       9.487 -30.295 -14.852  1.00  0.00     0.000 C 
BRANCH  11  12
ATOM     12  C   UNL     1       8.269 -29.949 -13.980  1.00  0.00     0.000 C 
BRANCH  12  13
ATOM     13  C   UNL     1       8.590 -29.992 -12.475  1.00  0.00     0.000 C 
BRANCH  13  14
ATOM     14  C   UNL     1       7.402 -29.542 -11.608  1.00  0.00     0.000 C 
BRANCH  14  15
ATOM     15  C   UNL     1       7.836 -28.646 -10.434  1.00  0.00     0.000 C 
BRANCH  15  16
ATOM     16  C   UNL     1       8.833 -29.343  -9.495  1.00  0.00     0.006 C 
BRANCH  16  17
ATOM     17  C   UNL     1      10.275 -28.862  -9.701  1.00  0.00     0.053 C 
BRANCH  17  18
ATOM     18  C   UNL     1      11.137 -29.987 -10.183  1.00  0.00     0.041 C 
ATOM     19  O   UNL     1      10.859 -31.176  -9.871  1.00  0.00    -0.550 OA
ATOM     20  O   UNL     1      12.275 -29.719 -10.932  1.00  0.00    -0.550 OA
ENDBRANCH  17  18
ENDBRANCH  16  17
ENDBRANCH  15  16
ENDBRANCH  14  15
ENDBRANCH  13  14
ENDBRANCH  12  13
ENDBRANCH  11  12
ENDBRANCH   1  11
TORSDOF 15
ENDMDL
MODEL 6
REMARK VINA RESULT:    11.341      1.228      2.047
REMARK INTER + INTRA:          20.733
REMARK INTER:                  20.938
REMARK INTRA:                  -0.205
REMARK UNBOUND:                -0.553
REMARK SMILES O=C([O-])CCCCCCCCCCCCCCC(=O)[O-]
REMARK SMILES IDX 10 1 9 2 8 3 7 4 6 5 5 6 4 7 2 8 1 9 3 10 11 11 12 12 13 13
REMARK SMILES IDX 14 14 15 15 16 16 17 17 18 18 19 19 20 20
REMARK H PARENT
REMARK Flexibility Score: inf
ROOT
ATOM      1  C   UNL     1       9.988 -30.847 -17.176  1.00  0.00     0.000 C 
ENDROOT
BRANCH   1   2
ATOM      2  C   UNL     1       9.157 -31.775 -16.275  1.00  0.00     0.000 C 
BRANCH   2   3
ATOM      3  C   UNL     1       9.548 -31.660 -14.791  1.00  0.00     0.000 C 
BRANCH   3   4
ATOM      4  C   UNL     1       9.206 -30.287 -14.187  1.00  0.00     0.000 C 
BRANCH   4   5
ATOM      5  C   UNL     1       9.027 -30.277 -12.657  1.00  0.00     0.000 C 
BRANCH   5   6
ATOM      6  C   UNL     1      10.234 -29.684 -11.916  1.00  0.00     0.006 C 
BRANCH   6   7
ATOM      7  C   UNL     1      10.305 -30.205 -10.478  1.00  0.00     0.053 C 
BRANCH   7   8
ATOM      8  C   UNL     1       9.553 -29.299  -9.555  1.00  0.00     0.041 C 
ATOM      9  O   UNL     1       8.704 -29.774  -8.754  1.00  0.00    -0.550 OA
ATOM     10  O   UNL     1       9.824 -27.937  -9.544  1.00  0.00    -0.550 OA
ENDBRANCH   7   8
ENDBRANCH   6   7
ENDBRANCH   5   6
ENDBRANCH   4   5
ENDBRANCH   3   4
ENDBRANCH   2   3
ENDBRANCH   1   2
BRANCH   1  11
ATOM     11  C   UNL     1       9.154 -29.694 -17.762  1.00  0.00     0.000 C 
BRANCH  11  12
ATOM     12  C   UNL     1       8.328 -28.957 -16.695  1.00  0.00     0.000 C 
BRANCH  12  13
ATOM     13  C   UNL     1       7.141 -28.184 -17.298  1.00  0.00     0.000 C 
BRANCH  13  14
ATOM     14  C   UNL     1       6.255 -29.069 -18.191  1.00  0.00     0.000 C 
BRANCH  14  15
ATOM     15  C   UNL     1       6.220 -28.586 -19.652  1.00  0.00     0.000 C 
BRANCH  15  16
ATOM     16  C   UNL     1       6.761 -29.636 -20.634  1.00  0.00     0.006 C 
BRANCH  16  17
ATOM     17  C   UNL     1       6.382 -29.337 -22.091  1.00  0.00     0.053 C 
BRANCH  17  18
ATOM     18  C   UNL     1       6.683 -27.910 -22.425  1.00  0.00     0.041 C 
ATOM     19  O   UNL     1       5.878 -27.239 -23.125  1.00  0.00    -0.550 OA
ATOM     20  O   UNL     1       7.878 -27.336 -22.009  1.00  0.00    -0.550 OA
ENDBRANCH  17  18
ENDBRANCH  16  17
ENDBRANCH  15  16
ENDBRANCH  14  15
ENDBRANCH  13  14
ENDBRANCH  12  13
ENDBRANCH  11  12
ENDBRANCH   1  11
TORSDOF 15
ENDMDL
MODEL 7
REMARK VINA RESULT:    11.396      2.108     10.701
REMARK INTER + INTRA:          20.837
REMARK INTER:                  21.348
REMARK INTRA:                  -0.511
REMARK UNBOUND:                -0.553
REMARK SMILES O=C([O-])CCCCCCCCCCCCCCC(=O)[O-]
REMARK SMILES IDX 10 1 9 2 8 3 7 4 6 5 5 6 4 7 2 8 1 9 3 10 11 11 12 12 13 13
REMARK SMILES IDX 14 14 15 15 16 16 17 17 18 18 19 19 20 20
REMARK H PARENT
REMARK Flexibility Score: inf
ROOT
ATOM      1  C   UNL     1       9.493 -29.939 -13.607  1.00  0.00     0.000 C 
ENDROOT
BRANCH   1   2
ATOM      2  C   UNL     1       9.127 -31.074 -14.577  1.00  0.00     0.000 C 
BRANCH   2   3
ATOM      3  C   UNL     1       8.866 -30.567 -16.006  1.00  0.00     0.000 C 
BRANCH   3   4
ATOM      4  C   UNL     1       8.401 -29.101 -16.045  1.00  0.00     0.000 C 
BRANCH   4   5
ATOM      5  C   UNL     1       7.192 -28.828 -16.958  1.00  0.00     0.000 C 
BRANCH   5   6
ATOM      6  C   UNL     1       7.416 -29.289 -18.405  1.00  0.00     0.006 C 
BRANCH   6   7
ATOM      7  C   UNL     1       6.380 -28.668 -19.346  1.00  0.00     0.053 C 
BRANCH   7   8
ATOM      8  C   UNL     1       6.805 -28.827 -20.772  1.00  0.00     0.041 C 
ATOM      9  O   UNL     1       7.859 -29.456 -21.052  1.00  0.00    -0.550 OA
ATOM     10  O   UNL     1       6.009 -28.325 -21.794  1.00  0.00    -0.550 OA
ENDBRANCH   7   8
ENDBRANCH   6   7
ENDBRANCH   5   6
ENDBRANCH   4   5
ENDBRANCH   3   4
ENDBRANCH   2   3
ENDBRANCH   1   2
BRANCH   1  11
ATOM     11  C   UNL     1       8.660 -29.978 -12.313  1.00  0.00     0.000 C 
BRANCH  11  12
ATOM     12  C   UNL     1       9.529 -29.925 -11.046  1.00  0.00     0.000 C 
BRANCH  12  13
ATOM     13  C   UNL     1       8.882 -29.094  -9.923  1.00  0.00     0.000 C 
BRANCH  13  14
ATOM     14  C   UNL     1       9.858 -28.078  -9.307  1.00  0.00     0.000 C 
BRANCH  14  15
ATOM     15  C   UNL     1       9.220 -26.690  -9.112  1.00  0.00     0.000 C 
BRANCH  15  16
ATOM     16  C   UNL     1       9.013 -26.338  -7.631  1.00  0.00     0.006 C 
BRANCH  16  17
ATOM     17  C   UNL     1       8.221 -25.038  -7.436  1.00  0.00     0.053 C 
BRANCH  17  18
ATOM     18  C   UNL     1       7.946 -24.808  -5.984  1.00  0.00     0.041 C 
ATOM     19  O   UNL     1       8.595 -25.440  -5.108  1.00  0.00    -0.550 OA
ATOM     20  O   UNL     1       6.938 -23.934  -5.597  1.00  0.00    -0.550 OA
ENDBRANCH  17  18
ENDBRANCH  16  17
ENDBRANCH  15  16
ENDBRANCH  14  15
ENDBRANCH  13  14
ENDBRANCH  12  13
ENDBRANCH  11  12
ENDBRANCH   1  11
TORSDOF 15
ENDMDL
MODEL 8
REMARK VINA RESULT:    11.528      2.309      3.705
REMARK INTER + INTRA:          21.084
REMARK INTER:                  21.178
REMARK INTRA:                  -0.094
REMARK UNBOUND:                -0.553
REMARK SMILES O=C([O-])CCCCCCCCCCCCCCC(=O)[O-]
REMARK SMILES IDX 10 1 9 2 8 3 7 4 6 5 5 6 4 7 2 8 1 9 3 10 11 11 12 12 13 13
REMARK SMILES IDX 14 14 15 15 16 16 17 17 18 18 19 19 20 20
REMARK H PARENT
REMARK Flexibility Score: inf
ROOT
ATOM      1  C   UNL     1       9.216 -29.846 -11.932  1.00  0.00     0.000 C 
ENDROOT
BRANCH   1   2
ATOM      2  C   UNL     1       8.426 -29.459 -10.672  1.00  0.00     0.000 C 
BRANCH   2   3
ATOM      3  C   UNL     1       9.327 -28.877  -9.568  1.00  0.00     0.000 C 
BRANCH   3   4
ATOM      4  C   UNL     1       9.323 -27.338  -9.543  1.00  0.00     0.000 C 
BRANCH   4   5
ATOM      5  C   UNL     1       9.499 -26.711  -8.148  1.00  0.00     0.000 C 
BRANCH   5   6
ATOM      6  C   UNL     1       8.383 -25.719  -7.790  1.00  0.00     0.006 C 
BRANCH   6   7
ATOM      7  C   UNL     1       8.433 -25.348  -6.306  1.00  0.00     0.053 C 
BRANCH   7   8
ATOM      8  C   UNL     1       7.367 -24.350  -5.978  1.00  0.00     0.041 C 
ATOM      9  O   UNL     1       6.171 -24.722  -5.842  1.00  0.00    -0.550 OA
ATOM     10  O   UNL     1       7.702 -23.017  -5.775  1.00  0.00    -0.550 OA
ENDBRANCH   7   8
ENDBRANCH   6   7
ENDBRANCH   5   6
ENDBRANCH   4   5
ENDBRANCH   3   4
ENDBRANCH   2   3
ENDBRANCH   1   2
BRANCH   1  11
ATOM     11  C   UNL     1       8.313 -29.994 -13.170  1.00  0.00     0.000 C 
BRANCH  11  12
ATOM     12  C   UNL     1       9.103 -30.343 -14.442  1.00  0.00     0.000 C 
BRANCH  12  13
ATOM     13  C   UNL     1       8.546 -29.639 -15.693  1.00  0.00     0.000 C 
BRANCH  13  14
ATOM     14  C   UNL     1       9.359 -29.959 -16.959  1.00  0.00     0.000 C 
BRANCH  14  15
ATOM     15  C   UNL     1       8.508 -29.889 -18.240  1.00  0.00     0.000 C 
BRANCH  15  16
ATOM     16  C   UNL     1       7.335 -28.905 -18.116  1.00  0.00     0.006 C 
BRANCH  16  17
ATOM     17  C   UNL     1       6.370 -28.980 -19.307  1.00  0.00     0.053 C 
BRANCH  17  18
ATOM     18  C   UNL     1       7.109 -28.777 -20.591  1.00  0.00     0.041 C 
ATOM     19  O   UNL     1       7.010 -27.686 -21.214  1.00  0.00    -0.550 OA
ATOM     20  O   UNL     1       7.867 -29.810 -21.128  1.00  0.00    -0.550 OA
ENDBRANCH  17  18
ENDBRANCH  16  17
ENDBRANCH  15  16
ENDBRANCH  14  15
ENDBRANCH  13  14
ENDBRANCH  12  13
ENDBRANCH  11  12
ENDBRANCH   1  11
TORSDOF 15
ENDMDL
MODEL 9
REMARK VINA RESULT:    12.022      3.996      7.992
REMARK INTER + INTRA:          22.012
REMARK INTER:                  20.690
REMARK INTRA:                   1.322
REMARK UNBOUND:                -0.553
REMARK SMILES O=C([O-])CCCCCCCCCCCCCCC(=O)[O-]
REMARK SMILES IDX 10 1 9 2 8 3 7 4 6 5 5 6 4 7 2 8 1 9 3 10 11 11 12 12 13 13
REMARK SMILES IDX 14 14 15 15 16 16 17 17 18 18 19 19 20 20
REMARK H PARENT
REMARK Flexibility Score: inf
ROOT
ATOM      1  C   UNL     1       6.087 -28.870 -19.260  1.00  0.00     0.000 C 
ENDROOT
BRANCH   1   2
ATOM      2  C   UNL     1       6.613 -27.703 -20.110  1.00  0.00     0.000 C 
BRANCH   2   3
ATOM      3  C   UNL     1       6.382 -27.919 -21.616  1.00  0.00     0.000 C 
BRANCH   3   4
ATOM      4  C   UNL     1       7.141 -29.140 -22.168  1.00  0.00     0.000 C 
BRANCH   4   5
ATOM      5  C   UNL     1       7.378 -30.271 -21.150  1.00  0.00     0.000 C 
BRANCH   5   6
ATOM      6  C   UNL     1       8.867 -30.548 -20.896  1.00  0.00     0.006 C 
BRANCH   6   7
ATOM      7  C   UNL     1       9.488 -29.451 -20.027  1.00  0.00     0.053 C 
BRANCH   7   8
ATOM      8  C   UNL     1       9.802 -29.979 -18.663  1.00  0.00     0.041 C 
ATOM      9  O   UNL     1      10.461 -29.280 -17.848  1.00  0.00    -0.550 OA
ATOM     10  O   UNL     1       9.324 -31.224 -18.272  1.00  0.00    -0.550 OA
ENDBRANCH   7   8
ENDBRANCH   6   7
ENDBRANCH   5   6
ENDBRANCH   4   5
ENDBRANCH   3   4
ENDBRANCH   2   3
ENDBRANCH   1   2
BRANCH   1  11
ATOM     11  C   UNL     1       6.870 -29.042 -17.946  1.00  0.00     0.000 C 
BRANCH  11  12
ATOM     12  C   UNL     1       6.442 -28.038 -16.864  1.00  0.00     0.000 C 
BRANCH  12  13
ATOM     13  C   UNL     1       7.354 -28.082 -15.625  1.00  0.00     0.000 C 
BRANCH  13  14
ATOM     14  C   UNL     1       8.317 -29.282 -15.647  1.00  0.00     0.000 C 
BRANCH  14  15
ATOM     15  C   UNL     1       8.595 -29.840 -14.239  1.00  0.00     0.000 C 
BRANCH  15  16
ATOM     16  C   UNL     1       9.599 -31.004 -14.254  1.00  0.00     0.006 C 
BRANCH  16  17
ATOM     17  C   UNL     1       9.633 -31.740 -15.599  1.00  0.00     0.053 C 
BRANCH  17  18
ATOM     18  C   UNL     1       8.987 -33.084 -15.475  1.00  0.00     0.041 C 
ATOM     19  O   UNL     1       8.495 -33.648 -16.489  1.00  0.00    -0.550 OA
ATOM     20  O   UNL     1       8.882 -33.692 -14.230  1.00  0.00    -0.550 OA
ENDBRANCH  17  18
ENDBRANCH  16  17
ENDBRANCH  15  16
ENDBRANCH  14  15
ENDBRANCH  13  14
ENDBRANCH  12  13
ENDBRANCH  11  12
ENDBRANCH   1  11
TORSDOF 15
ENDMDL
