MODEL 1
REMARK VINA RESULT:    -2.928      0.000      0.000
REMARK INTER + INTRA:          -3.116
REMARK INTER:                  -3.099
REMARK INTRA:                  -0.017
REMARK UNBOUND:                -0.017
REMARK SMILES O=C([O-])c1cccnc1
REMARK SMILES IDX 4 1 5 2 9 3 6 4 8 5 7 6 2 7 1 8 3 9
REMARK H PARENT
REMARK Flexibility Score: inf
ROOT
ATOM      1  C   UNL     1     133.797 127.018 116.889  1.00  0.00     0.016 A 
ATOM      2  C   UNL     1     134.569 127.591 115.865  1.00  0.00     0.013 A 
ATOM      3  C   UNL     1     132.703 126.212 116.529  1.00  0.00     0.120 A 
ATOM      4  C   UNL     1     134.245 127.357 114.527  1.00  0.00     0.021 A 
ATOM      5  N   UNL     1     132.409 125.999 115.218  1.00  0.00    -0.264 NA
ATOM      6  C   UNL     1     133.149 126.549 114.221  1.00  0.00     0.111 A 
ENDROOT
BRANCH   1   7
ATOM      7  C   UNL     1     134.130 127.259 118.310  1.00  0.00     0.073 C 
ATOM      8  O   UNL     1     134.461 126.305 119.061  1.00  0.00    -0.545 OA
ATOM      9  O   UNL     1     134.083 128.546 118.834  1.00  0.00    -0.545 OA
ENDBRANCH   1   7
TORSDOF 1
ENDMDL
MODEL 2
REMARK VINA RESULT:    -2.919      0.912      1.601
REMARK INTER + INTRA:          -3.107
REMARK INTER:                  -3.089
REMARK INTRA:                  -0.018
REMARK UNBOUND:                -0.017
REMARK SMILES O=C([O-])c1cccnc1
REMARK SMILES IDX 4 1 5 2 9 3 6 4 8 5 7 6 2 7 1 8 3 9
REMARK H PARENT
REMARK Flexibility Score: inf
ROOT
ATOM      1  C   UNL     1     133.698 127.015 116.882  1.00  0.00     0.016 A 
ATOM      2  C   UNL     1     132.554 126.294 116.505  1.00  0.00     0.013 A 
ATOM      3  C   UNL     1     134.552 127.489 115.871  1.00  0.00     0.120 A 
ATOM      4  C   UNL     1     132.284 126.063 115.154  1.00  0.00     0.021 A 
ATOM      5  N   UNL     1     134.266 127.250 114.562  1.00  0.00    -0.264 NA
ATOM      6  C   UNL     1     133.162 126.554 114.187  1.00  0.00     0.111 A 
ENDROOT
BRANCH   1   7
ATOM      7  C   UNL     1     133.995 127.266 118.309  1.00  0.00     0.073 C 
ATOM      8  O   UNL     1     134.231 126.308 119.092  1.00  0.00    -0.545 OA
ATOM      9  O   UNL     1     134.019 128.565 118.804  1.00  0.00    -0.545 OA
ENDBRANCH   1   7
TORSDOF 1
ENDMDL
MODEL 3
REMARK VINA RESULT:    -2.915      2.722      3.557
REMARK INTER + INTRA:          -3.103
REMARK INTER:                  -3.081
REMARK INTRA:                  -0.022
REMARK UNBOUND:                -0.017
REMARK SMILES O=C([O-])c1cccnc1
REMARK SMILES IDX 4 1 5 2 9 3 6 4 8 5 7 6 2 7 1 8 3 9
REMARK H PARENT
REMARK Flexibility Score: inf
ROOT
ATOM      1  C   UNL     1     133.485 126.926 116.026  1.00  0.00     0.016 A 
ATOM      2  C   UNL     1     134.331 127.850 116.660  1.00  0.00     0.013 A 
ATOM      3  C   UNL     1     132.781 126.008 116.825  1.00  0.00     0.120 A 
ATOM      4  C   UNL     1     134.457 127.846 118.051  1.00  0.00     0.021 A 
ATOM      5  N   UNL     1     132.922 126.025 118.177  1.00  0.00    -0.264 NA
ATOM      6  C   UNL     1     133.736 126.915 118.800  1.00  0.00     0.111 A 
ENDROOT
BRANCH   1   7
ATOM      7  C   UNL     1     133.344 126.920 114.554  1.00  0.00     0.073 C 
ATOM      8  O   UNL     1     132.988 125.875 113.949  1.00  0.00    -0.545 OA
ATOM      9  O   UNL     1     133.601 128.072 113.819  1.00  0.00    -0.545 OA
ENDBRANCH   1   7
TORSDOF 1
ENDMDL
MODEL 4
REMARK VINA RESULT:    -2.890      2.876      3.881
REMARK INTER + INTRA:          -3.076
REMARK INTER:                  -3.053
REMARK INTRA:                  -0.023
REMARK UNBOUND:                -0.017
REMARK SMILES O=C([O-])c1cccnc1
REMARK SMILES IDX 4 1 5 2 9 3 6 4 8 5 7 6 2 7 1 8 3 9
REMARK H PARENT
REMARK Flexibility Score: inf
ROOT
ATOM      1  C   UNL     1     133.507 127.009 116.071  1.00  0.00     0.016 A 
ATOM      2  C   UNL     1     132.905 126.035 116.884  1.00  0.00     0.013 A 
ATOM      3  C   UNL     1     134.267 128.018 116.688  1.00  0.00     0.120 A 
ATOM      4  C   UNL     1     133.067 126.082 118.271  1.00  0.00     0.021 A 
ATOM      5  N   UNL     1     134.408 128.041 118.041  1.00  0.00    -0.264 NA
ATOM      6  C   UNL     1     133.830 127.104 118.836  1.00  0.00     0.111 A 
ENDROOT
BRANCH   1   7
ATOM      7  C   UNL     1     133.344 126.970 114.602  1.00  0.00     0.073 C 
ATOM      8  O   UNL     1     132.969 125.914 114.026  1.00  0.00    -0.545 OA
ATOM      9  O   UNL     1     133.601 128.101 113.836  1.00  0.00    -0.545 OA
ENDBRANCH   1   7
TORSDOF 1
ENDMDL
MODEL 5
REMARK VINA RESULT:    -2.878      3.132      4.039
REMARK INTER + INTRA:          -3.063
REMARK INTER:                  -3.045
REMARK INTRA:                  -0.018
REMARK UNBOUND:                -0.017
REMARK SMILES O=C([O-])c1cccnc1
REMARK SMILES IDX 4 1 5 2 9 3 6 4 8 5 7 6 2 7 1 8 3 9
REMARK H PARENT
REMARK Flexibility Score: inf
ROOT
ATOM      1  C   UNL     1     135.374 127.159 120.424  1.00  0.00     0.016 A 
ATOM      2  C   UNL     1     134.515 128.072 119.790  1.00  0.00     0.013 A 
ATOM      3  C   UNL     1     135.829 126.050 119.689  1.00  0.00     0.120 A 
ATOM      4  C   UNL     1     134.131 127.869 118.463  1.00  0.00     0.021 A 
ATOM      5  N   UNL     1     135.440 125.876 118.397  1.00  0.00    -0.264 NA
ATOM      6  C   UNL     1     134.610 126.752 117.776  1.00  0.00     0.111 A 
ENDROOT
BRANCH   1   7
ATOM      7  C   UNL     1     135.787 127.363 121.829  1.00  0.00     0.073 C 
ATOM      8  O   UNL     1     135.570 126.475 122.696  1.00  0.00    -0.545 OA
ATOM      9  O   UNL     1     136.423 128.539 122.211  1.00  0.00    -0.545 OA
ENDBRANCH   1   7
TORSDOF 1
ENDMDL
MODEL 6
REMARK VINA RESULT:    -2.873      1.364      1.543
REMARK INTER + INTRA:          -3.059
REMARK INTER:                  -3.042
REMARK INTRA:                  -0.017
REMARK UNBOUND:                -0.017
REMARK SMILES O=C([O-])c1cccnc1
REMARK SMILES IDX 4 1 5 2 9 3 6 4 8 5 7 6 2 7 1 8 3 9
REMARK H PARENT
REMARK Flexibility Score: inf
ROOT
ATOM      1  C   UNL     1     134.160 126.715 118.084  1.00  0.00     0.016 A 
ATOM      2  C   UNL     1     134.522 127.459 116.949  1.00  0.00     0.013 A 
ATOM      3  C   UNL     1     133.004 125.918 118.018  1.00  0.00     0.120 A 
ATOM      4  C   UNL     1     133.742 127.398 115.792  1.00  0.00     0.021 A 
ATOM      5  N   UNL     1     132.262 125.876 116.879  1.00  0.00    -0.264 NA
ATOM      6  C   UNL     1     132.603 126.592 115.777  1.00  0.00     0.111 A 
ENDROOT
BRANCH   1   7
ATOM      7  C   UNL     1     134.977 126.771 119.315  1.00  0.00     0.073 C 
ATOM      8  O   UNL     1     136.113 126.228 119.356  1.00  0.00    -0.545 OA
ATOM      9  O   UNL     1     134.501 127.427 120.445  1.00  0.00    -0.545 OA
ENDBRANCH   1   7
TORSDOF 1
ENDMDL
MODEL 7
REMARK VINA RESULT:    -2.873     17.186     18.009
REMARK INTER + INTRA:          -3.058
REMARK INTER:                  -3.037
REMARK INTRA:                  -0.021
REMARK UNBOUND:                -0.017
REMARK SMILES O=C([O-])c1cccnc1
REMARK SMILES IDX 4 1 5 2 9 3 6 4 8 5 7 6 2 7 1 8 3 9
REMARK H PARENT
REMARK Flexibility Score: inf
ROOT
ATOM      1  C   UNL     1     139.852 144.018 116.642  1.00  0.00     0.016 A 
ATOM      2  C   UNL     1     138.788 143.673 117.492  1.00  0.00     0.013 A 
ATOM      3  C   UNL     1     140.355 143.036 115.771  1.00  0.00     0.120 A 
ATOM      4  C   UNL     1     138.254 142.383 117.460  1.00  0.00     0.021 A 
ATOM      5  N   UNL     1     139.818 141.787 115.759  1.00  0.00    -0.264 NA
ATOM      6  C   UNL     1     138.789 141.444 116.577  1.00  0.00     0.111 A 
ENDROOT
BRANCH   1   7
ATOM      7  C   UNL     1     140.426 145.381 116.667  1.00  0.00     0.073 C 
ATOM      8  O   UNL     1     140.924 145.885 115.626  1.00  0.00    -0.545 OA
ATOM      9  O   UNL     1     140.421 146.124 117.842  1.00  0.00    -0.545 OA
ENDBRANCH   1   7
TORSDOF 1
ENDMDL
MODEL 8
REMARK VINA RESULT:    -2.820      2.868      4.214
REMARK INTER + INTRA:          -3.003
REMARK INTER:                  -2.986
REMARK INTRA:                  -0.016
REMARK UNBOUND:                -0.017
REMARK SMILES O=C([O-])c1cccnc1
REMARK SMILES IDX 4 1 5 2 9 3 6 4 8 5 7 6 2 7 1 8 3 9
REMARK H PARENT
REMARK Flexibility Score: inf
ROOT
ATOM      1  C   UNL     1     134.459 127.067 117.968  1.00  0.00     0.016 A 
ATOM      2  C   UNL     1     135.203 125.980 118.454  1.00  0.00     0.013 A 
ATOM      3  C   UNL     1     134.173 128.127 118.846  1.00  0.00     0.120 A 
ATOM      4  C   UNL     1     135.643 125.968 119.780  1.00  0.00     0.021 A 
ATOM      5  N   UNL     1     134.612 128.090 120.133  1.00  0.00    -0.264 NA
ATOM      6  C   UNL     1     135.334 127.044 120.613  1.00  0.00     0.111 A 
ENDROOT
BRANCH   1   7
ATOM      7  C   UNL     1     133.988 127.092 116.566  1.00  0.00     0.073 C 
ATOM      8  O   UNL     1     132.791 126.815 116.288  1.00  0.00    -0.545 OA
ATOM      9  O   UNL     1     134.862 127.422 115.537  1.00  0.00    -0.545 OA
ENDBRANCH   1   7
TORSDOF 1
ENDMDL
MODEL 9
REMARK VINA RESULT:    -2.765      3.488      5.024
REMARK INTER + INTRA:          -2.944
REMARK INTER:                  -2.927
REMARK INTRA:                  -0.017
REMARK UNBOUND:                -0.017
REMARK SMILES O=C([O-])c1cccnc1
REMARK SMILES IDX 4 1 5 2 9 3 6 4 8 5 7 6 2 7 1 8 3 9
REMARK H PARENT
REMARK Flexibility Score: inf
ROOT
ATOM      1  C   UNL     1     135.064 126.679 119.385  1.00  0.00     0.016 A 
ATOM      2  C   UNL     1     136.215 125.875 119.415  1.00  0.00     0.013 A 
ATOM      3  C   UNL     1     134.774 127.472 120.509  1.00  0.00     0.120 A 
ATOM      4  C   UNL     1     137.042 125.875 120.541  1.00  0.00     0.021 A 
ATOM      5  N   UNL     1     135.595 127.454 121.593  1.00  0.00    -0.264 NA
ATOM      6  C   UNL     1     136.711 126.680 121.632  1.00  0.00     0.111 A 
ENDROOT
BRANCH   1   7
ATOM      7  C   UNL     1     134.181 126.687 118.199  1.00  0.00     0.073 C 
ATOM      8  O   UNL     1     134.571 127.196 117.114  1.00  0.00    -0.545 OA
ATOM      9  O   UNL     1     132.909 126.132 118.266  1.00  0.00    -0.545 OA
ENDBRANCH   1   7
TORSDOF 1
ENDMDL
