MODEL 1
REMARK VINA RESULT:    -7.020      0.000      0.000
REMARK INTER + INTRA:          -8.607
REMARK INTER:                  -8.457
REMARK INTRA:                  -0.150
REMARK UNBOUND:                -0.150
REMARK SMILES O=c1c(O)c(-c2ccc(O)c(O)c2)oc2cc(O)cc(O)c12
REMARK SMILES IDX 5 1 3 2 2 3 1 4 22 5 20 6 19 7 17 8 16 9 15 10 14 11 6 12
REMARK SMILES IDX 7 13 8 14 9 15 13 16 11 17 10 18 12 20 4 22 21 24 18 26
REMARK H PARENT 10 19 12 21 4 23 21 25 18 27
REMARK Flexibility Score: inf
ROOT
ATOM      1  C   UNL     1     140.926 131.154 148.489  1.00  0.00     0.180 A 
ATOM      2  C   UNL     1     139.630 130.725 148.156  1.00  0.00     0.208 A 
ATOM      3  C   UNL     1     138.798 131.581 147.417  1.00  0.00     0.238 A 
ATOM      4  O   UNL     1     137.658 131.170 147.075  1.00  0.00    -0.285 OA
ATOM      5  C   UNL     1     139.267 132.861 147.034  1.00  0.00     0.111 A 
ATOM      6  C   UNL     1     138.496 133.826 146.318  1.00  0.00     0.134 A 
ATOM      7  C   UNL     1     139.105 135.007 145.877  1.00  0.00     0.093 A 
ATOM      8  C   UNL     1     140.438 135.288 146.185  1.00  0.00     0.123 A 
ATOM      9  C   UNL     1     141.182 134.381 146.934  1.00  0.00     0.094 A 
ATOM     10  C   UNL     1     140.613 133.175 147.356  1.00  0.00     0.146 A 
ATOM     11  O   UNL     1     141.360 132.333 148.059  1.00  0.00    -0.452 OA
ENDROOT
BRANCH   1  12
ATOM     12  C   UNL     1     141.852 130.319 149.288  1.00  0.00     0.025 A 
ATOM     13  C   UNL     1     143.040 129.809 148.736  1.00  0.00     0.016 A 
ATOM     14  C   UNL     1     143.886 129.003 149.503  1.00  0.00     0.051 A 
ATOM     15  C   UNL     1     143.550 128.682 150.825  1.00  0.00     0.157 A 
ATOM     16  C   UNL     1     141.511 129.977 150.607  1.00  0.00     0.062 A 
ATOM     17  C   UNL     1     142.355 129.170 151.378  1.00  0.00     0.158 A 
BRANCH  15  18
ATOM     18  O   UNL     1     144.397 127.879 151.587  1.00  0.00    -0.504 OA
ATOM     19  H   UNL     1     145.405 127.938 151.501  1.00  0.00     0.293 HD
ENDBRANCH  15  18
BRANCH  17  20
ATOM     20  O   UNL     1     141.989 128.863 152.688  1.00  0.00    -0.504 OA
ATOM     21  H   UNL     1     141.131 129.208 153.102  1.00  0.00     0.293 HD
ENDBRANCH  17  20
ENDBRANCH   1  12
BRANCH   2  22
ATOM     22  O   UNL     1     139.195 129.450 148.526  1.00  0.00    -0.502 OA
ATOM     23  H   UNL     1     139.687 128.884 149.208  1.00  0.00     0.293 HD
ENDBRANCH   2  22
BRANCH   6  24
ATOM     24  O   UNL     1     137.134 133.684 146.039  1.00  0.00    -0.507 OA
ATOM     25  H   UNL     1     136.404 134.260 146.432  1.00  0.00     0.293 HD
ENDBRANCH   6  24
BRANCH   8  26
ATOM     26  O   UNL     1     141.032 136.474 145.757  1.00  0.00    -0.508 OA
ATOM     27  H   UNL     1     141.575 136.517 144.902  1.00  0.00     0.293 HD
ENDBRANCH   8  26
TORSDOF 6
ENDMDL
MODEL 2
REMARK VINA RESULT:    -6.943      4.840      7.497
REMARK INTER + INTRA:          -8.514
REMARK INTER:                  -8.208
REMARK INTRA:                  -0.305
REMARK UNBOUND:                -0.150
REMARK SMILES O=c1c(O)c(-c2ccc(O)c(O)c2)oc2cc(O)cc(O)c12
REMARK SMILES IDX 5 1 3 2 2 3 1 4 22 5 20 6 19 7 17 8 16 9 15 10 14 11 6 12
REMARK SMILES IDX 7 13 8 14 9 15 13 16 11 17 10 18 12 20 4 22 21 24 18 26
REMARK H PARENT 10 19 12 21 4 23 21 25 18 27
REMARK Flexibility Score: inf
ROOT
ATOM      1  C   UNL     1     143.800 126.599 147.157  1.00  0.00     0.180 A 
ATOM      2  C   UNL     1     142.497 127.085 146.951  1.00  0.00     0.208 A 
ATOM      3  C   UNL     1     141.854 127.771 147.993  1.00  0.00     0.238 A 
ATOM      4  O   UNL     1     140.709 128.251 147.784  1.00  0.00    -0.285 OA
ATOM      5  C   UNL     1     142.514 127.950 149.232  1.00  0.00     0.111 A 
ATOM      6  C   UNL     1     141.942 128.596 150.369  1.00  0.00     0.134 A 
ATOM      7  C   UNL     1     142.735 128.833 151.500  1.00  0.00     0.093 A 
ATOM      8  C   UNL     1     144.057 128.389 151.558  1.00  0.00     0.123 A 
ATOM      9  C   UNL     1     144.606 127.706 150.476  1.00  0.00     0.094 A 
ATOM     10  C   UNL     1     143.853 127.486 149.320  1.00  0.00     0.146 A 
ATOM     11  O   UNL     1     144.418 126.841 148.307  1.00  0.00    -0.452 OA
ENDROOT
BRANCH   1  12
ATOM     12  C   UNL     1     144.533 125.844 146.115  1.00  0.00     0.025 A 
ATOM     13  C   UNL     1     145.215 126.501 145.077  1.00  0.00     0.016 A 
ATOM     14  C   UNL     1     145.880 125.766 144.092  1.00  0.00     0.051 A 
ATOM     15  C   UNL     1     145.861 124.365 144.121  1.00  0.00     0.157 A 
ATOM     16  C   UNL     1     144.500 124.440 146.128  1.00  0.00     0.062 A 
ATOM     17  C   UNL     1     145.165 123.700 145.144  1.00  0.00     0.158 A 
BRANCH  15  18
ATOM     18  O   UNL     1     146.526 123.635 143.138  1.00  0.00    -0.504 OA
ATOM     19  H   UNL     1     146.022 123.106 142.436  1.00  0.00     0.293 HD
ENDBRANCH  15  18
BRANCH  17  20
ATOM     20  O   UNL     1     145.120 122.307 145.197  1.00  0.00    -0.504 OA
ATOM     21  H   UNL     1     145.019 121.805 146.071  1.00  0.00     0.293 HD
ENDBRANCH  17  20
ENDBRANCH   1  12
BRANCH   2  22
ATOM     22  O   UNL     1     141.872 126.916 145.712  1.00  0.00    -0.502 OA
ATOM     23  H   UNL     1     142.388 126.696 144.869  1.00  0.00     0.293 HD
ENDBRANCH   2  22
BRANCH   6  24
ATOM     24  O   UNL     1     140.606 128.996 150.449  1.00  0.00    -0.507 OA
ATOM     25  H   UNL     1     139.832 128.501 150.033  1.00  0.00     0.293 HD
ENDBRANCH   6  24
BRANCH   8  26
ATOM     26  O   UNL     1     144.833 128.614 152.693  1.00  0.00    -0.508 OA
ATOM     27  H   UNL     1     145.839 128.720 152.635  1.00  0.00     0.293 HD
ENDBRANCH   8  26
TORSDOF 6
ENDMDL
MODEL 3
REMARK VINA RESULT:    -6.733      1.547      7.240
REMARK INTER + INTRA:          -8.261
REMARK INTER:                  -8.200
REMARK INTRA:                  -0.061
REMARK UNBOUND:                -0.150
REMARK SMILES O=c1c(O)c(-c2ccc(O)c(O)c2)oc2cc(O)cc(O)c12
REMARK SMILES IDX 5 1 3 2 2 3 1 4 22 5 20 6 19 7 17 8 16 9 15 10 14 11 6 12
REMARK SMILES IDX 7 13 8 14 9 15 13 16 11 17 10 18 12 20 4 22 21 24 18 26
REMARK H PARENT 10 19 12 21 4 23 21 25 18 27
REMARK Flexibility Score: inf
ROOT
ATOM      1  C   UNL     1     141.685 131.981 147.695  1.00  0.00     0.180 A 
ATOM      2  C   UNL     1     142.786 131.505 146.960  1.00  0.00     0.208 A 
ATOM      3  C   UNL     1     143.629 130.546 147.542  1.00  0.00     0.238 A 
ATOM      4  O   UNL     1     144.581 130.084 146.859  1.00  0.00    -0.285 OA
ATOM      5  C   UNL     1     143.371 130.084 148.854  1.00  0.00     0.111 A 
ATOM      6  C   UNL     1     144.182 129.142 149.556  1.00  0.00     0.134 A 
ATOM      7  C   UNL     1     143.758 128.658 150.801  1.00  0.00     0.093 A 
ATOM      8  C   UNL     1     142.588 129.132 151.397  1.00  0.00     0.123 A 
ATOM      9  C   UNL     1     141.821 130.095 150.748  1.00  0.00     0.094 A 
ATOM     10  C   UNL     1     142.198 130.570 149.488  1.00  0.00     0.146 A 
ATOM     11  O   UNL     1     141.432 131.480 148.898  1.00  0.00    -0.452 OA
ENDROOT
BRANCH   1  12
ATOM     12  C   UNL     1     140.767 133.012 147.160  1.00  0.00     0.025 A 
ATOM     13  C   UNL     1     139.390 132.766 147.023  1.00  0.00     0.016 A 
ATOM     14  C   UNL     1     138.546 133.746 146.494  1.00  0.00     0.051 A 
ATOM     15  C   UNL     1     139.068 134.979 146.079  1.00  0.00     0.157 A 
ATOM     16  C   UNL     1     141.287 134.241 146.724  1.00  0.00     0.062 A 
ATOM     17  C   UNL     1     140.446 135.225 146.193  1.00  0.00     0.158 A 
BRANCH  15  18
ATOM     18  O   UNL     1     138.224 135.955 145.552  1.00  0.00    -0.504 OA
ATOM     19  H   UNL     1     137.911 136.743 146.108  1.00  0.00     0.293 HD
ENDBRANCH  15  18
BRANCH  17  20
ATOM     20  O   UNL     1     140.997 136.439 145.783  1.00  0.00    -0.504 OA
ATOM     21  H   UNL     1     140.739 136.878 144.907  1.00  0.00     0.293 HD
ENDBRANCH  17  20
ENDBRANCH   1  12
BRANCH   2  22
ATOM     22  O   UNL     1     143.010 131.959 145.658  1.00  0.00    -0.502 OA
ATOM     23  H   UNL     1     143.938 132.158 145.303  1.00  0.00     0.293 HD
ENDBRANCH   2  22
BRANCH   6  24
ATOM     24  O   UNL     1     145.414 128.674 149.092  1.00  0.00    -0.507 OA
ATOM     25  H   UNL     1     145.529 127.945 148.403  1.00  0.00     0.293 HD
ENDBRANCH   6  24
BRANCH   8  26
ATOM     26  O   UNL     1     142.183 128.657 152.643  1.00  0.00    -0.508 OA
ATOM     27  H   UNL     1     142.184 129.253 153.463  1.00  0.00     0.293 HD
ENDBRANCH   8  26
TORSDOF 6
ENDMDL
MODEL 4
REMARK VINA RESULT:    -6.659      6.381      9.301
REMARK INTER + INTRA:          -8.172
REMARK INTER:                  -7.897
REMARK INTRA:                  -0.275
REMARK UNBOUND:                -0.150
REMARK SMILES O=c1c(O)c(-c2ccc(O)c(O)c2)oc2cc(O)cc(O)c12
REMARK SMILES IDX 5 1 3 2 2 3 1 4 22 5 20 6 19 7 17 8 16 9 15 10 14 11 6 12
REMARK SMILES IDX 7 13 8 14 9 15 13 16 11 17 10 18 12 20 4 22 21 24 18 26
REMARK H PARENT 10 19 12 21 4 23 21 25 18 27
REMARK Flexibility Score: inf
ROOT
ATOM      1  C   UNL     1     142.731 137.746 143.488  1.00  0.00     0.180 A 
ATOM      2  C   UNL     1     142.713 136.567 144.254  1.00  0.00     0.208 A 
ATOM      3  C   UNL     1     141.478 136.035 144.655  1.00  0.00     0.238 A 
ATOM      4  O   UNL     1     141.466 134.950 145.294  1.00  0.00    -0.285 OA
ATOM      5  C   UNL     1     140.277 136.696 144.301  1.00  0.00     0.111 A 
ATOM      6  C   UNL     1     138.971 136.267 144.687  1.00  0.00     0.134 A 
ATOM      7  C   UNL     1     137.848 136.924 144.169  1.00  0.00     0.093 A 
ATOM      8  C   UNL     1     137.985 138.033 143.332  1.00  0.00     0.123 A 
ATOM      9  C   UNL     1     139.254 138.496 142.997  1.00  0.00     0.094 A 
ATOM     10  C   UNL     1     140.395 137.839 143.468  1.00  0.00     0.146 A 
ATOM     11  O   UNL     1     141.587 138.306 143.115  1.00  0.00    -0.452 OA
ENDROOT
BRANCH   1  12
ATOM     12  C   UNL     1     143.995 138.381 143.050  1.00  0.00     0.025 A 
ATOM     13  C   UNL     1     144.473 138.230 141.737  1.00  0.00     0.016 A 
ATOM     14  C   UNL     1     145.680 138.820 141.352  1.00  0.00     0.051 A 
ATOM     15  C   UNL     1     146.435 139.554 142.277  1.00  0.00     0.157 A 
ATOM     16  C   UNL     1     144.765 139.101 143.977  1.00  0.00     0.062 A 
ATOM     17  C   UNL     1     145.974 139.693 143.597  1.00  0.00     0.158 A 
BRANCH  15  18
ATOM     18  O   UNL     1     147.638 140.142 141.890  1.00  0.00    -0.504 OA
ATOM     19  H   UNL     1     148.472 140.071 142.462  1.00  0.00     0.293 HD
ENDBRANCH  15  18
BRANCH  17  20
ATOM     20  O   UNL     1     146.705 140.411 144.543  1.00  0.00    -0.504 OA
ATOM     21  H   UNL     1     147.188 139.956 145.309  1.00  0.00     0.293 HD
ENDBRANCH  17  20
ENDBRANCH   1  12
BRANCH   2  22
ATOM     22  O   UNL     1     143.909 135.919 144.575  1.00  0.00    -0.502 OA
ATOM     23  H   UNL     1     144.107 135.572 145.506  1.00  0.00     0.293 HD
ENDBRANCH   2  22
BRANCH   6  24
ATOM     24  O   UNL     1     138.726 135.229 145.590  1.00  0.00    -0.507 OA
ATOM     25  H   UNL     1     139.084 135.191 146.532  1.00  0.00     0.293 HD
ENDBRANCH   6  24
BRANCH   8  26
ATOM     26  O   UNL     1     136.861 138.691 142.834  1.00  0.00    -0.508 OA
ATOM     27  H   UNL     1     136.580 138.600 141.865  1.00  0.00     0.293 HD
ENDBRANCH   8  26
TORSDOF 6
ENDMDL
MODEL 5
REMARK VINA RESULT:    -6.584      4.852      7.945
REMARK INTER + INTRA:          -8.081
REMARK INTER:                  -7.886
REMARK INTRA:                  -0.195
REMARK UNBOUND:                -0.150
REMARK SMILES O=c1c(O)c(-c2ccc(O)c(O)c2)oc2cc(O)cc(O)c12
REMARK SMILES IDX 5 1 3 2 2 3 1 4 22 5 20 6 19 7 17 8 16 9 15 10 14 11 6 12
REMARK SMILES IDX 7 13 8 14 9 15 13 16 11 17 10 18 12 20 4 22 21 24 18 26
REMARK H PARENT 10 19 12 21 4 23 21 25 18 27
REMARK Flexibility Score: inf
ROOT
ATOM      1  C   UNL     1     144.032 127.338 147.655  1.00  0.00     0.180 A 
ATOM      2  C   UNL     1     144.407 128.247 146.650  1.00  0.00     0.208 A 
ATOM      3  C   UNL     1     144.930 127.752 145.445  1.00  0.00     0.238 A 
ATOM      4  O   UNL     1     145.213 128.568 144.529  1.00  0.00    -0.285 OA
ATOM      5  C   UNL     1     145.085 126.357 145.265  1.00  0.00     0.111 A 
ATOM      6  C   UNL     1     145.641 125.747 144.099  1.00  0.00     0.134 A 
ATOM      7  C   UNL     1     145.624 124.351 143.976  1.00  0.00     0.093 A 
ATOM      8  C   UNL     1     145.134 123.543 145.004  1.00  0.00     0.123 A 
ATOM      9  C   UNL     1     144.645 124.126 146.170  1.00  0.00     0.094 A 
ATOM     10  C   UNL     1     144.613 125.517 146.308  1.00  0.00     0.146 A 
ATOM     11  O   UNL     1     144.128 126.033 147.430  1.00  0.00    -0.452 OA
ENDROOT
BRANCH   1  12
ATOM     12  C   UNL     1     143.499 127.785 148.962  1.00  0.00     0.025 A 
ATOM     13  C   UNL     1     144.222 127.596 150.151  1.00  0.00     0.016 A 
ATOM     14  C   UNL     1     143.688 128.005 151.376  1.00  0.00     0.051 A 
ATOM     15  C   UNL     1     142.418 128.594 151.432  1.00  0.00     0.157 A 
ATOM     16  C   UNL     1     142.218 128.357 149.026  1.00  0.00     0.062 A 
ATOM     17  C   UNL     1     141.679 128.768 150.250  1.00  0.00     0.158 A 
BRANCH  15  18
ATOM     18  O   UNL     1     141.888 129.002 152.655  1.00  0.00    -0.504 OA
ATOM     19  H   UNL     1     141.508 129.933 152.785  1.00  0.00     0.293 HD
ENDBRANCH  15  18
BRANCH  17  20
ATOM     20  O   UNL     1     140.409 129.345 150.273  1.00  0.00    -0.504 OA
ATOM     21  H   UNL     1     139.812 129.364 149.454  1.00  0.00     0.293 HD
ENDBRANCH  17  20
ENDBRANCH   1  12
BRANCH   2  22
ATOM     22  O   UNL     1     144.226 129.619 146.841  1.00  0.00    -0.502 OA
ATOM     23  H   UNL     1     144.497 130.305 146.146  1.00  0.00     0.293 HD
ENDBRANCH   2  22
BRANCH   6  24
ATOM     24  O   UNL     1     146.239 126.458 143.056  1.00  0.00    -0.507 OA
ATOM     25  H   UNL     1     146.259 126.157 142.093  1.00  0.00     0.293 HD
ENDBRANCH   6  24
BRANCH   8  26
ATOM     26  O   UNL     1     145.138 122.155 144.880  1.00  0.00    -0.508 OA
ATOM     27  H   UNL     1     144.741 121.694 144.069  1.00  0.00     0.293 HD
ENDBRANCH   8  26
TORSDOF 6
ENDMDL
MODEL 6
REMARK VINA RESULT:    -6.570      5.187      8.990
REMARK INTER + INTRA:          -8.064
REMARK INTER:                  -7.737
REMARK INTRA:                  -0.328
REMARK UNBOUND:                -0.150
REMARK SMILES O=c1c(O)c(-c2ccc(O)c(O)c2)oc2cc(O)cc(O)c12
REMARK SMILES IDX 5 1 3 2 2 3 1 4 22 5 20 6 19 7 17 8 16 9 15 10 14 11 6 12
REMARK SMILES IDX 7 13 8 14 9 15 13 16 11 17 10 18 12 20 4 22 21 24 18 26
REMARK H PARENT 10 19 12 21 4 23 21 25 18 27
REMARK Flexibility Score: inf
ROOT
ATOM      1  C   UNL     1     142.264 136.850 143.852  1.00  0.00     0.180 A 
ATOM      2  C   UNL     1     142.703 135.858 144.746  1.00  0.00     0.208 A 
ATOM      3  C   UNL     1     141.758 135.197 145.546  1.00  0.00     0.238 A 
ATOM      4  O   UNL     1     142.151 134.272 146.305  1.00  0.00    -0.285 OA
ATOM      5  C   UNL     1     140.390 135.546 145.455  1.00  0.00     0.111 A 
ATOM      6  C   UNL     1     139.351 134.968 146.247  1.00  0.00     0.134 A 
ATOM      7  C   UNL     1     138.016 135.296 145.979  1.00  0.00     0.093 A 
ATOM      8  C   UNL     1     137.687 136.229 144.993  1.00  0.00     0.123 A 
ATOM      9  C   UNL     1     138.696 136.842 144.256  1.00  0.00     0.094 A 
ATOM     10  C   UNL     1     140.036 136.509 144.474  1.00  0.00     0.146 A 
ATOM     11  O   UNL     1     140.967 137.108 143.741  1.00  0.00    -0.452 OA
ENDROOT
BRANCH   1  12
ATOM     12  C   UNL     1     143.203 137.609 142.994  1.00  0.00     0.025 A 
ATOM     13  C   UNL     1     143.876 138.746 143.473  1.00  0.00     0.016 A 
ATOM     14  C   UNL     1     144.740 139.460 142.638  1.00  0.00     0.051 A 
ATOM     15  C   UNL     1     144.932 139.057 141.310  1.00  0.00     0.157 A 
ATOM     16  C   UNL     1     143.385 137.221 141.657  1.00  0.00     0.062 A 
ATOM     17  C   UNL     1     144.249 137.933 140.817  1.00  0.00     0.158 A 
BRANCH  15  18
ATOM     18  O   UNL     1     145.796 139.770 140.479  1.00  0.00    -0.504 OA
ATOM     19  H   UNL     1     145.585 139.924 139.500  1.00  0.00     0.293 HD
ENDBRANCH  15  18
BRANCH  17  20
ATOM     20  O   UNL     1     144.413 137.510 139.498  1.00  0.00    -0.504 OA
ATOM     21  H   UNL     1     144.985 136.709 139.257  1.00  0.00     0.293 HD
ENDBRANCH  17  20
ENDBRANCH   1  12
BRANCH   2  22
ATOM     22  O   UNL     1     144.056 135.514 144.805  1.00  0.00    -0.502 OA
ATOM     23  H   UNL     1     144.794 136.166 144.566  1.00  0.00     0.293 HD
ENDBRANCH   2  22
BRANCH   6  24
ATOM     24  O   UNL     1     139.578 134.097 147.315  1.00  0.00    -0.507 OA
ATOM     25  H   UNL     1     139.364 133.111 147.307  1.00  0.00     0.293 HD
ENDBRANCH   6  24
BRANCH   8  26
ATOM     26  O   UNL     1     136.357 136.561 144.745  1.00  0.00    -0.508 OA
ATOM     27  H   UNL     1     135.764 135.978 144.166  1.00  0.00     0.293 HD
ENDBRANCH   8  26
TORSDOF 6
ENDMDL
MODEL 7
REMARK VINA RESULT:    -6.475      6.107      8.640
REMARK INTER + INTRA:          -7.950
REMARK INTER:                  -7.669
REMARK INTRA:                  -0.281
REMARK UNBOUND:                -0.150
REMARK SMILES O=c1c(O)c(-c2ccc(O)c(O)c2)oc2cc(O)cc(O)c12
REMARK SMILES IDX 5 1 3 2 2 3 1 4 22 5 20 6 19 7 17 8 16 9 15 10 14 11 6 12
REMARK SMILES IDX 7 13 8 14 9 15 13 16 11 17 10 18 12 20 4 22 21 24 18 26
REMARK H PARENT 10 19 12 21 4 23 21 25 18 27
REMARK Flexibility Score: inf
ROOT
ATOM      1  C   UNL     1     144.605 126.424 146.589  1.00  0.00     0.180 A 
ATOM      2  C   UNL     1     145.535 127.449 146.838  1.00  0.00     0.208 A 
ATOM      3  C   UNL     1     145.460 128.156 148.048  1.00  0.00     0.238 A 
ATOM      4  O   UNL     1     146.329 129.036 148.289  1.00  0.00    -0.285 OA
ATOM      5  C   UNL     1     144.449 127.841 148.988  1.00  0.00     0.111 A 
ATOM      6  C   UNL     1     144.256 128.519 150.229  1.00  0.00     0.134 A 
ATOM      7  C   UNL     1     143.307 128.036 151.139  1.00  0.00     0.093 A 
ATOM      8  C   UNL     1     142.499 126.942 150.824  1.00  0.00     0.123 A 
ATOM      9  C   UNL     1     142.639 126.310 149.591  1.00  0.00     0.094 A 
ATOM     10  C   UNL     1     143.602 126.745 148.677  1.00  0.00     0.146 A 
ATOM     11  O   UNL     1     143.710 126.108 147.518  1.00  0.00    -0.452 OA
ENDROOT
BRANCH   1  12
ATOM     12  C   UNL     1     144.603 125.652 145.326  1.00  0.00     0.025 A 
ATOM     13  C   UNL     1     144.116 126.207 144.130  1.00  0.00     0.016 A 
ATOM     14  C   UNL     1     144.103 125.451 142.954  1.00  0.00     0.051 A 
ATOM     15  C   UNL     1     144.562 124.127 142.960  1.00  0.00     0.157 A 
ATOM     16  C   UNL     1     145.044 124.319 145.329  1.00  0.00     0.062 A 
ATOM     17  C   UNL     1     145.032 123.559 144.155  1.00  0.00     0.158 A 
BRANCH  15  18
ATOM     18  O   UNL     1     144.549 123.376 141.785  1.00  0.00    -0.504 OA
ATOM     19  H   UNL     1     144.270 122.402 141.781  1.00  0.00     0.293 HD
ENDBRANCH  15  18
BRANCH  17  20
ATOM     20  O   UNL     1     145.490 122.241 144.195  1.00  0.00    -0.504 OA
ATOM     21  H   UNL     1     145.187 121.546 143.524  1.00  0.00     0.293 HD
ENDBRANCH  17  20
ENDBRANCH   1  12
BRANCH   2  22
ATOM     22  O   UNL     1     146.538 127.730 145.906  1.00  0.00    -0.502 OA
ATOM     23  H   UNL     1     147.410 128.175 146.164  1.00  0.00     0.293 HD
ENDBRANCH   2  22
BRANCH   6  24
ATOM     24  O   UNL     1     144.946 129.676 150.602  1.00  0.00    -0.507 OA
ATOM     25  H   UNL     1     145.547 130.209 149.990  1.00  0.00     0.293 HD
ENDBRANCH   6  24
BRANCH   8  26
ATOM     26  O   UNL     1     141.545 126.479 151.729  1.00  0.00    -0.508 OA
ATOM     27  H   UNL     1     141.633 125.573 152.174  1.00  0.00     0.293 HD
ENDBRANCH   8  26
TORSDOF 6
ENDMDL
MODEL 8
REMARK VINA RESULT:    -6.443      6.377      9.720
REMARK INTER + INTRA:          -7.912
REMARK INTER:                  -7.602
REMARK INTRA:                  -0.310
REMARK UNBOUND:                -0.150
REMARK SMILES O=c1c(O)c(-c2ccc(O)c(O)c2)oc2cc(O)cc(O)c12
REMARK SMILES IDX 5 1 3 2 2 3 1 4 22 5 20 6 19 7 17 8 16 9 15 10 14 11 6 12
REMARK SMILES IDX 7 13 8 14 9 15 13 16 11 17 10 18 12 20 4 22 21 24 18 26
REMARK H PARENT 10 19 12 21 4 23 21 25 18 27
REMARK Flexibility Score: inf
ROOT
ATOM      1  C   UNL     1     142.501 137.385 142.926  1.00  0.00     0.180 A 
ATOM      2  C   UNL     1     143.027 136.670 141.836  1.00  0.00     0.208 A 
ATOM      3  C   UNL     1     144.300 137.008 141.351  1.00  0.00     0.238 A 
ATOM      4  O   UNL     1     144.788 136.330 140.409  1.00  0.00    -0.285 OA
ATOM      5  C   UNL     1     145.026 138.065 141.952  1.00  0.00     0.111 A 
ATOM      6  C   UNL     1     146.308 138.518 141.517  1.00  0.00     0.134 A 
ATOM      7  C   UNL     1     146.990 139.484 142.268  1.00  0.00     0.093 A 
ATOM      8  C   UNL     1     146.408 140.060 143.400  1.00  0.00     0.123 A 
ATOM      9  C   UNL     1     145.133 139.667 143.798  1.00  0.00     0.094 A 
ATOM     10  C   UNL     1     144.442 138.679 143.091  1.00  0.00     0.146 A 
ATOM     11  O   UNL     1     143.233 138.326 143.511  1.00  0.00    -0.452 OA
ENDROOT
BRANCH   1  12
ATOM     12  C   UNL     1     141.155 137.104 143.476  1.00  0.00     0.025 A 
ATOM     13  C   UNL     1     139.995 137.605 142.862  1.00  0.00     0.016 A 
ATOM     14  C   UNL     1     138.736 137.346 143.413  1.00  0.00     0.051 A 
ATOM     15  C   UNL     1     138.621 136.598 144.592  1.00  0.00     0.157 A 
ATOM     16  C   UNL     1     141.035 136.372 144.669  1.00  0.00     0.062 A 
ATOM     17  C   UNL     1     139.777 136.111 145.223  1.00  0.00     0.158 A 
BRANCH  15  18
ATOM     18  O   UNL     1     137.364 136.341 145.138  1.00  0.00    -0.504 OA
ATOM     19  H   UNL     1     136.936 135.424 145.076  1.00  0.00     0.293 HD
ENDBRANCH  15  18
BRANCH  17  20
ATOM     20  O   UNL     1     139.696 135.369 146.402  1.00  0.00    -0.504 OA
ATOM     21  H   UNL     1     139.311 134.432 146.422  1.00  0.00     0.293 HD
ENDBRANCH  17  20
ENDBRANCH   1  12
BRANCH   2  22
ATOM     22  O   UNL     1     142.303 135.617 141.271  1.00  0.00    -0.502 OA
ATOM     23  H   UNL     1     141.752 135.726 140.428  1.00  0.00     0.293 HD
ENDBRANCH   2  22
BRANCH   6  24
ATOM     24  O   UNL     1     146.938 138.075 140.351  1.00  0.00    -0.507 OA
ATOM     25  H   UNL     1     146.834 138.504 139.444  1.00  0.00     0.293 HD
ENDBRANCH   6  24
BRANCH   8  26
ATOM     26  O   UNL     1     147.087 141.032 144.131  1.00  0.00    -0.508 OA
ATOM     27  H   UNL     1     147.418 141.886 143.698  1.00  0.00     0.293 HD
ENDBRANCH   8  26
TORSDOF 6
ENDMDL
MODEL 9
REMARK VINA RESULT:    -6.294      1.877      6.803
REMARK INTER + INTRA:          -7.733
REMARK INTER:                  -7.403
REMARK INTRA:                  -0.330
REMARK UNBOUND:                -0.150
REMARK SMILES O=c1c(O)c(-c2ccc(O)c(O)c2)oc2cc(O)cc(O)c12
REMARK SMILES IDX 5 1 3 2 2 3 1 4 22 5 20 6 19 7 17 8 16 9 15 10 14 11 6 12
REMARK SMILES IDX 7 13 8 14 9 15 13 16 11 17 10 18 12 20 4 22 21 24 18 26
REMARK H PARENT 10 19 12 21 4 23 21 25 18 27
REMARK Flexibility Score: inf
ROOT
ATOM      1  C   UNL     1     141.438 131.180 147.514  1.00  0.00     0.180 A 
ATOM      2  C   UNL     1     141.358 130.046 146.687  1.00  0.00     0.208 A 
ATOM      3  C   UNL     1     141.592 128.779 147.245  1.00  0.00     0.238 A 
ATOM      4  O   UNL     1     141.466 127.763 146.512  1.00  0.00    -0.285 OA
ATOM      5  C   UNL     1     141.919 128.663 148.618  1.00  0.00     0.111 A 
ATOM      6  C   UNL     1     142.215 127.433 149.279  1.00  0.00     0.134 A 
ATOM      7  C   UNL     1     142.395 127.423 150.668  1.00  0.00     0.093 A 
ATOM      8  C   UNL     1     142.356 128.606 151.409  1.00  0.00     0.123 A 
ATOM      9  C   UNL     1     142.127 129.819 150.764  1.00  0.00     0.094 A 
ATOM     10  C   UNL     1     141.906 129.858 149.384  1.00  0.00     0.146 A 
ATOM     11  O   UNL     1     141.680 131.033 148.811  1.00  0.00    -0.452 OA
ENDROOT
BRANCH   1  12
ATOM     12  C   UNL     1     141.229 132.550 146.993  1.00  0.00     0.025 A 
ATOM     13  C   UNL     1     142.279 133.280 146.411  1.00  0.00     0.016 A 
ATOM     14  C   UNL     1     142.064 134.581 145.947  1.00  0.00     0.051 A 
ATOM     15  C   UNL     1     140.802 135.176 146.072  1.00  0.00     0.157 A 
ATOM     16  C   UNL     1     139.971 133.160 147.134  1.00  0.00     0.062 A 
ATOM     17  C   UNL     1     139.752 134.461 146.671  1.00  0.00     0.158 A 
BRANCH  15  18
ATOM     18  O   UNL     1     140.590 136.474 145.608  1.00  0.00    -0.504 OA
ATOM     19  H   UNL     1     141.231 136.917 144.960  1.00  0.00     0.293 HD
ENDBRANCH  15  18
BRANCH  17  20
ATOM     20  O   UNL     1     138.486 135.029 146.817  1.00  0.00    -0.504 OA
ATOM     21  H   UNL     1     137.661 134.466 146.991  1.00  0.00     0.293 HD
ENDBRANCH  17  20
ENDBRANCH   1  12
BRANCH   2  22
ATOM     22  O   UNL     1     141.013 130.181 145.340  1.00  0.00    -0.502 OA
ATOM     23  H   UNL     1     141.703 130.346 144.616  1.00  0.00     0.293 HD
ENDBRANCH   2  22
BRANCH   6  24
ATOM     24  O   UNL     1     142.367 126.210 148.621  1.00  0.00    -0.507 OA
ATOM     25  H   UNL     1     141.648 125.507 148.542  1.00  0.00     0.293 HD
ENDBRANCH   6  24
BRANCH   8  26
ATOM     26  O   UNL     1     142.553 128.588 152.788  1.00  0.00    -0.508 OA
ATOM     27  H   UNL     1     141.774 128.553 153.435  1.00  0.00     0.293 HD
ENDBRANCH   8  26
TORSDOF 6
ENDMDL
