MODEL 1
REMARK VINA RESULT:    -4.259      0.000      0.000
REMARK INTER + INTRA:          -8.899
REMARK INTER:                  -7.496
REMARK INTRA:                  -1.403
REMARK UNBOUND:                -1.403
REMARK SMILES CCCCCCCCCCCCCCC(=O)[O-]
REMARK SMILES IDX 9 1 10 2 11 3 12 4 13 5 14 6 15 7 16 8 17 9 8 10 7 11 6 12
REMARK SMILES IDX 5 13 4 14 3 15 2 16 1 17
REMARK H PARENT
REMARK Flexibility Score: inf
ROOT
ATOM      1  C   UNL     1     131.111 137.077 130.468  1.00  0.00     0.000 C 
ENDROOT
BRANCH   1   2
ATOM      2  C   UNL     1     131.348 137.982 131.691  1.00  0.00     0.000 C 
BRANCH   2   3
ATOM      3  C   UNL     1     132.421 137.433 132.645  1.00  0.00     0.000 C 
BRANCH   3   4
ATOM      4  C   UNL     1     132.897 136.023 132.256  1.00  0.00     0.000 C 
BRANCH   4   5
ATOM      5  C   UNL     1     132.752 134.986 133.390  1.00  0.00     0.006 C 
BRANCH   5   6
ATOM      6  C   UNL     1     131.845 133.814 132.989  1.00  0.00     0.053 C 
BRANCH   6   7
ATOM      7  C   UNL     1     131.447 133.023 134.195  1.00  0.00     0.041 C 
ATOM      8  O   UNL     1     132.322 132.614 135.002  1.00  0.00    -0.550 OA
ATOM      9  O   UNL     1     130.104 132.778 134.453  1.00  0.00    -0.550 OA
ENDBRANCH   6   7
ENDBRANCH   5   6
ENDBRANCH   4   5
ENDBRANCH   3   4
ENDBRANCH   2   3
ENDBRANCH   1   2
BRANCH   1  10
ATOM     10  C   UNL     1     129.706 136.447 130.371  1.00  0.00     0.000 C 
BRANCH  10  11
ATOM     11  C   UNL     1     129.674 134.990 129.872  1.00  0.00    -0.000 C 
BRANCH  11  12
ATOM     12  C   UNL     1     131.054 134.396 129.530  1.00  0.00    -0.000 C 
BRANCH  12  13
ATOM     13  C   UNL     1     131.009 133.329 128.414  1.00  0.00    -0.000 C 
BRANCH  13  14
ATOM     14  C   UNL     1     130.930 131.898 128.973  1.00  0.00    -0.000 C 
BRANCH  14  15
ATOM     15  C   UNL     1     129.623 131.184 128.591  1.00  0.00    -0.000 C 
BRANCH  15  16
ATOM     16  C   UNL     1     128.903 131.857 127.413  1.00  0.00    -0.003 C 
ATOM     17  C   UNL     1     127.646 132.586 127.882  1.00  0.00     0.004 C 
ENDBRANCH  15  16
ENDBRANCH  14  15
ENDBRANCH  13  14
ENDBRANCH  12  13
ENDBRANCH  11  12
ENDBRANCH  10  11
ENDBRANCH   1  10
TORSDOF 13
ENDMDL
MODEL 2
REMARK VINA RESULT:    -4.044      2.700      5.724
REMARK INTER + INTRA:          -8.520
REMARK INTER:                  -6.955
REMARK INTRA:                  -1.565
REMARK UNBOUND:                -1.403
REMARK SMILES CCCCCCCCCCCCCCC(=O)[O-]
REMARK SMILES IDX 9 1 10 2 11 3 12 4 13 5 14 6 15 7 16 8 17 9 8 10 7 11 6 12
REMARK SMILES IDX 5 13 4 14 3 15 2 16 1 17
REMARK H PARENT
REMARK Flexibility Score: inf
ROOT
ATOM      1  C   UNL     1     130.246 137.226 131.129  1.00  0.00     0.000 C 
ENDROOT
BRANCH   1   2
ATOM      2  C   UNL     1     129.926 136.472 129.825  1.00  0.00     0.000 C 
BRANCH   2   3
ATOM      3  C   UNL     1     129.847 134.949 130.016  1.00  0.00     0.000 C 
BRANCH   3   4
ATOM      4  C   UNL     1     131.077 134.216 129.454  1.00  0.00     0.000 C 
BRANCH   4   5
ATOM      5  C   UNL     1     130.746 133.245 128.301  1.00  0.00     0.006 C 
BRANCH   5   6
ATOM      6  C   UNL     1     129.257 132.875 128.267  1.00  0.00     0.053 C 
BRANCH   6   7
ATOM      7  C   UNL     1     129.072 131.500 127.706  1.00  0.00     0.041 C 
ATOM      8  O   UNL     1     129.172 130.492 128.452  1.00  0.00    -0.550 OA
ATOM      9  O   UNL     1     128.739 131.335 126.367  1.00  0.00    -0.550 OA
ENDBRANCH   6   7
ENDBRANCH   5   6
ENDBRANCH   4   5
ENDBRANCH   3   4
ENDBRANCH   2   3
ENDBRANCH   1   2
BRANCH   1  10
ATOM     10  C   UNL     1     131.691 137.755 131.251  1.00  0.00     0.000 C 
BRANCH  10  11
ATOM     11  C   UNL     1     132.279 137.730 132.675  1.00  0.00    -0.000 C 
BRANCH  11  12
ATOM     12  C   UNL     1     133.460 136.759 132.866  1.00  0.00    -0.000 C 
BRANCH  12  13
ATOM     13  C   UNL     1     133.477 135.595 131.851  1.00  0.00    -0.000 C 
BRANCH  13  14
ATOM     14  C   UNL     1     133.286 134.225 132.526  1.00  0.00    -0.000 C 
BRANCH  14  15
ATOM     15  C   UNL     1     131.840 133.994 132.997  1.00  0.00    -0.000 C 
BRANCH  15  16
ATOM     16  C   UNL     1     131.765 133.442 134.428  1.00  0.00    -0.003 C 
ATOM     17  C   UNL     1     132.863 134.039 135.305  1.00  0.00     0.004 C 
ENDBRANCH  15  16
ENDBRANCH  14  15
ENDBRANCH  13  14
ENDBRANCH  12  13
ENDBRANCH  11  12
ENDBRANCH  10  11
ENDBRANCH   1  10
TORSDOF 13
ENDMDL
MODEL 3
REMARK VINA RESULT:    -3.920      2.211      3.402
REMARK INTER + INTRA:          -8.301
REMARK INTER:                  -7.226
REMARK INTRA:                  -1.075
REMARK UNBOUND:                -1.403
REMARK SMILES CCCCCCCCCCCCCCC(=O)[O-]
REMARK SMILES IDX 9 1 10 2 11 3 12 4 13 5 14 6 15 7 16 8 17 9 8 10 7 11 6 12
REMARK SMILES IDX 5 13 4 14 3 15 2 16 1 17
REMARK H PARENT
REMARK Flexibility Score: inf
ROOT
ATOM      1  C   UNL     1     131.747 133.483 131.849  1.00  0.00     0.000 C 
ENDROOT
BRANCH   1   2
ATOM      2  C   UNL     1     132.252 134.186 133.123  1.00  0.00     0.000 C 
BRANCH   2   3
ATOM      3  C   UNL     1     131.777 133.501 134.414  1.00  0.00     0.000 C 
BRANCH   3   4
ATOM      4  C   UNL     1     130.437 132.766 134.239  1.00  0.00     0.000 C 
BRANCH   4   5
ATOM      5  C   UNL     1     130.022 131.932 135.469  1.00  0.00     0.006 C 
BRANCH   5   6
ATOM      6  C   UNL     1     128.952 130.887 135.124  1.00  0.00     0.053 C 
BRANCH   6   7
ATOM      7  C   UNL     1     129.581 129.670 134.524  1.00  0.00     0.041 C 
ATOM      8  O   UNL     1     130.164 128.830 135.258  1.00  0.00    -0.550 OA
ATOM      9  O   UNL     1     129.482 129.439 133.157  1.00  0.00    -0.550 OA
ENDBRANCH   6   7
ENDBRANCH   5   6
ENDBRANCH   4   5
ENDBRANCH   3   4
ENDBRANCH   2   3
ENDBRANCH   1   2
BRANCH   1  10
ATOM     10  C   UNL     1     130.991 134.384 130.850  1.00  0.00     0.000 C 
BRANCH  10  11
ATOM     11  C   UNL     1     131.112 133.968 129.372  1.00  0.00    -0.000 C 
BRANCH  11  12
ATOM     12  C   UNL     1     131.455 132.483 129.146  1.00  0.00    -0.000 C 
BRANCH  12  13
ATOM     13  C   UNL     1     130.216 131.587 128.930  1.00  0.00    -0.000 C 
BRANCH  13  14
ATOM     14  C   UNL     1     129.433 131.965 127.660  1.00  0.00    -0.000 C 
BRANCH  14  15
ATOM     15  C   UNL     1     127.922 132.093 127.913  1.00  0.00    -0.000 C 
BRANCH  15  16
ATOM     16  C   UNL     1     127.398 133.515 127.666  1.00  0.00    -0.003 C 
ATOM     17  C   UNL     1     127.596 134.395 128.898  1.00  0.00     0.004 C 
ENDBRANCH  15  16
ENDBRANCH  14  15
ENDBRANCH  13  14
ENDBRANCH  12  13
ENDBRANCH  11  12
ENDBRANCH  10  11
ENDBRANCH   1  10
TORSDOF 13
ENDMDL
MODEL 4
REMARK VINA RESULT:    -3.866     11.916     14.576
REMARK INTER + INTRA:          -8.207
REMARK INTER:                  -6.792
REMARK INTRA:                  -1.415
REMARK UNBOUND:                -1.403
REMARK SMILES CCCCCCCCCCCCCCC(=O)[O-]
REMARK SMILES IDX 9 1 10 2 11 3 12 4 13 5 14 6 15 7 16 8 17 9 8 10 7 11 6 12
REMARK SMILES IDX 5 13 4 14 3 15 2 16 1 17
REMARK H PARENT
REMARK Flexibility Score: inf
ROOT
ATOM      1  C   UNL     1     123.514 119.696 131.326  1.00  0.00     0.000 C 
ENDROOT
BRANCH   1   2
ATOM      2  C   UNL     1     123.327 119.129 132.745  1.00  0.00     0.000 C 
BRANCH   2   3
ATOM      3  C   UNL     1     122.535 120.070 133.667  1.00  0.00     0.000 C 
BRANCH   3   4
ATOM      4  C   UNL     1     122.157 121.394 132.982  1.00  0.00     0.000 C 
BRANCH   4   5
ATOM      5  C   UNL     1     122.511 122.645 133.814  1.00  0.00     0.006 C 
BRANCH   5   6
ATOM      6  C   UNL     1     124.002 122.694 134.176  1.00  0.00     0.053 C 
BRANCH   6   7
ATOM      7  C   UNL     1     124.177 122.816 135.657  1.00  0.00     0.041 C 
ATOM      8  O   UNL     1     123.308 123.404 136.352  1.00  0.00    -0.550 OA
ATOM      9  O   UNL     1     125.278 122.236 136.277  1.00  0.00    -0.550 OA
ENDBRANCH   6   7
ENDBRANCH   5   6
ENDBRANCH   4   5
ENDBRANCH   3   4
ENDBRANCH   2   3
ENDBRANCH   1   2
BRANCH   1  10
ATOM     10  C   UNL     1     124.962 119.680 130.791  1.00  0.00     0.000 C 
BRANCH  10  11
ATOM     11  C   UNL     1     125.431 120.991 130.133  1.00  0.00    -0.000 C 
BRANCH  11  12
ATOM     12  C   UNL     1     124.615 122.238 130.525  1.00  0.00    -0.000 C 
BRANCH  12  13
ATOM     13  C   UNL     1     124.359 123.206 129.349  1.00  0.00    -0.000 C 
BRANCH  13  14
ATOM     14  C   UNL     1     125.391 123.041 128.219  1.00  0.00    -0.000 C 
BRANCH  14  15
ATOM     15  C   UNL     1     126.374 124.221 128.138  1.00  0.00    -0.000 C 
BRANCH  15  16
ATOM     16  C   UNL     1     127.684 123.851 127.427  1.00  0.00    -0.003 C 
ATOM     17  C   UNL     1     128.241 122.531 127.955  1.00  0.00     0.004 C 
ENDBRANCH  15  16
ENDBRANCH  14  15
ENDBRANCH  13  14
ENDBRANCH  12  13
ENDBRANCH  11  12
ENDBRANCH  10  11
ENDBRANCH   1  10
TORSDOF 13
ENDMDL
MODEL 5
REMARK VINA RESULT:    -3.780      3.563      6.212
REMARK INTER + INTRA:          -8.055
REMARK INTER:                  -7.207
REMARK INTRA:                  -0.848
REMARK UNBOUND:                -1.403
REMARK SMILES CCCCCCCCCCCCCCC(=O)[O-]
REMARK SMILES IDX 9 1 10 2 11 3 12 4 13 5 14 6 15 7 16 8 17 9 8 10 7 11 6 12
REMARK SMILES IDX 5 13 4 14 3 15 2 16 1 17
REMARK H PARENT
REMARK Flexibility Score: inf
ROOT
ATOM      1  C   UNL     1     132.414 133.865 132.511  1.00  0.00     0.000 C 
ENDROOT
BRANCH   1   2
ATOM      2  C   UNL     1     131.895 134.886 131.480  1.00  0.00     0.000 C 
BRANCH   2   3
ATOM      3  C   UNL     1     130.825 134.302 130.544  1.00  0.00     0.000 C 
BRANCH   3   4
ATOM      4  C   UNL     1     131.345 133.116 129.714  1.00  0.00     0.000 C 
BRANCH   4   5
ATOM      5  C   UNL     1     130.872 133.133 128.245  1.00  0.00     0.006 C 
BRANCH   5   6
ATOM      6  C   UNL     1     129.364 132.873 128.121  1.00  0.00     0.053 C 
BRANCH   6   7
ATOM      7  C   UNL     1     129.111 131.491 127.607  1.00  0.00     0.041 C 
ATOM      8  O   UNL     1     129.213 130.500 128.375  1.00  0.00    -0.550 OA
ATOM      9  O   UNL     1     128.715 131.302 126.288  1.00  0.00    -0.550 OA
ENDBRANCH   6   7
ENDBRANCH   5   6
ENDBRANCH   4   5
ENDBRANCH   3   4
ENDBRANCH   2   3
ENDBRANCH   1   2
BRANCH   1  10
ATOM     10  C   UNL     1     131.327 133.159 133.349  1.00  0.00     0.000 C 
BRANCH  10  11
ATOM     11  C   UNL     1     131.479 133.304 134.874  1.00  0.00    -0.000 C 
BRANCH  11  12
ATOM     12  C   UNL     1     130.455 132.505 135.703  1.00  0.00    -0.000 C 
BRANCH  12  13
ATOM     13  C   UNL     1     129.250 131.999 134.880  1.00  0.00    -0.000 C 
BRANCH  13  14
ATOM     14  C   UNL     1     129.097 130.469 134.944  1.00  0.00    -0.000 C 
BRANCH  14  15
ATOM     15  C   UNL     1     129.719 129.760 133.730  1.00  0.00    -0.000 C 
BRANCH  15  16
ATOM     16  C   UNL     1     130.009 128.275 133.997  1.00  0.00    -0.003 C 
ATOM     17  C   UNL     1     129.568 127.874 135.403  1.00  0.00     0.004 C 
ENDBRANCH  15  16
ENDBRANCH  14  15
ENDBRANCH  13  14
ENDBRANCH  12  13
ENDBRANCH  11  12
ENDBRANCH  10  11
ENDBRANCH   1  10
TORSDOF 13
ENDMDL
MODEL 6
REMARK VINA RESULT:    -3.755     10.851     13.426
REMARK INTER + INTRA:          -8.011
REMARK INTER:                  -6.794
REMARK INTRA:                  -1.217
REMARK UNBOUND:                -1.403
REMARK SMILES CCCCCCCCCCCCCCC(=O)[O-]
REMARK SMILES IDX 9 1 10 2 11 3 12 4 13 5 14 6 15 7 16 8 17 9 8 10 7 11 6 12
REMARK SMILES IDX 5 13 4 14 3 15 2 16 1 17
REMARK H PARENT
REMARK Flexibility Score: inf
ROOT
ATOM      1  C   UNL     1     123.021 120.352 132.782  1.00  0.00     0.000 C 
ENDROOT
BRANCH   1   2
ATOM      2  C   UNL     1     122.000 121.356 133.349  1.00  0.00     0.000 C 
BRANCH   2   3
ATOM      3  C   UNL     1     122.642 122.413 134.262  1.00  0.00     0.000 C 
BRANCH   3   4
ATOM      4  C   UNL     1     124.106 122.091 134.606  1.00  0.00     0.000 C 
BRANCH   4   5
ATOM      5  C   UNL     1     124.833 123.231 135.351  1.00  0.00     0.006 C 
BRANCH   5   6
ATOM      6  C   UNL     1     125.196 124.393 134.416  1.00  0.00     0.053 C 
BRANCH   6   7
ATOM      7  C   UNL     1     126.546 124.939 134.758  1.00  0.00     0.041 C 
ATOM      8  O   UNL     1     127.420 124.193 135.272  1.00  0.00    -0.550 OA
ATOM      9  O   UNL     1     126.856 126.262 134.465  1.00  0.00    -0.550 OA
ENDBRANCH   6   7
ENDBRANCH   5   6
ENDBRANCH   4   5
ENDBRANCH   3   4
ENDBRANCH   2   3
ENDBRANCH   1   2
BRANCH   1  10
ATOM     10  C   UNL     1     123.323 120.493 131.275  1.00  0.00     0.000 C 
BRANCH  10  11
ATOM     11  C   UNL     1     124.637 121.221 130.937  1.00  0.00    -0.000 C 
BRANCH  11  12
ATOM     12  C   UNL     1     124.529 122.758 130.888  1.00  0.00    -0.000 C 
BRANCH  12  13
ATOM     13  C   UNL     1     124.297 123.318 129.468  1.00  0.00    -0.000 C 
BRANCH  13  14
ATOM     14  C   UNL     1     125.467 123.007 128.517  1.00  0.00    -0.000 C 
BRANCH  14  15
ATOM     15  C   UNL     1     126.130 124.277 127.959  1.00  0.00    -0.000 C 
BRANCH  15  16
ATOM     16  C   UNL     1     127.551 124.022 127.437  1.00  0.00    -0.003 C 
ATOM     17  C   UNL     1     128.089 122.684 127.940  1.00  0.00     0.004 C 
ENDBRANCH  15  16
ENDBRANCH  14  15
ENDBRANCH  13  14
ENDBRANCH  12  13
ENDBRANCH  11  12
ENDBRANCH  10  11
ENDBRANCH   1  10
TORSDOF 13
ENDMDL
MODEL 7
REMARK VINA RESULT:    -3.733      1.793      3.136
REMARK INTER + INTRA:          -7.973
REMARK INTER:                  -6.698
REMARK INTRA:                  -1.275
REMARK UNBOUND:                -1.403
REMARK SMILES CCCCCCCCCCCCCCC(=O)[O-]
REMARK SMILES IDX 9 1 10 2 11 3 12 4 13 5 14 6 15 7 16 8 17 9 8 10 7 11 6 12
REMARK SMILES IDX 5 13 4 14 3 15 2 16 1 17
REMARK H PARENT
REMARK Flexibility Score: inf
ROOT
ATOM      1  C   UNL     1     133.035 136.346 133.758  1.00  0.00     0.000 C 
ENDROOT
BRANCH   1   2
ATOM      2  C   UNL     1     133.180 134.958 134.408  1.00  0.00     0.000 C 
BRANCH   2   3
ATOM      3  C   UNL     1     132.536 134.877 135.800  1.00  0.00     0.000 C 
BRANCH   3   4
ATOM      4  C   UNL     1     131.466 133.776 135.897  1.00  0.00     0.000 C 
BRANCH   4   5
ATOM      5  C   UNL     1     131.308 132.949 134.604  1.00  0.00     0.006 C 
BRANCH   5   6
ATOM      6  C   UNL     1     129.957 132.224 134.542  1.00  0.00     0.053 C 
BRANCH   6   7
ATOM      7  C   UNL     1     130.159 130.742 134.512  1.00  0.00     0.041 C 
ATOM      8  O   UNL     1     129.593 130.043 133.631  1.00  0.00    -0.550 OA
ATOM      9  O   UNL     1     131.012 130.137 135.427  1.00  0.00    -0.550 OA
ENDBRANCH   6   7
ENDBRANCH   5   6
ENDBRANCH   4   5
ENDBRANCH   3   4
ENDBRANCH   2   3
ENDBRANCH   1   2
BRANCH   1  10
ATOM     10  C   UNL     1     132.728 136.342 132.245  1.00  0.00     0.000 C 
BRANCH  10  11
ATOM     11  C   UNL     1     132.807 134.962 131.565  1.00  0.00    -0.000 C 
BRANCH  11  12
ATOM     12  C   UNL     1     131.453 134.401 131.088  1.00  0.00    -0.000 C 
BRANCH  12  13
ATOM     13  C   UNL     1     131.456 132.871 130.879  1.00  0.00    -0.000 C 
BRANCH  13  14
ATOM     14  C   UNL     1     131.419 132.482 129.390  1.00  0.00    -0.000 C 
BRANCH  14  15
ATOM     15  C   UNL     1     130.364 133.272 128.598  1.00  0.00    -0.000 C 
BRANCH  15  16
ATOM     16  C   UNL     1     129.348 132.360 127.894  1.00  0.00    -0.003 C 
ATOM     17  C   UNL     1     129.578 130.896 128.260  1.00  0.00     0.004 C 
ENDBRANCH  15  16
ENDBRANCH  14  15
ENDBRANCH  13  14
ENDBRANCH  12  13
ENDBRANCH  11  12
ENDBRANCH  10  11
ENDBRANCH   1  10
TORSDOF 13
ENDMDL
MODEL 8
REMARK VINA RESULT:    -3.726      3.071      6.163
REMARK INTER + INTRA:          -7.961
REMARK INTER:                  -6.844
REMARK INTRA:                  -1.117
REMARK UNBOUND:                -1.403
REMARK SMILES CCCCCCCCCCCCCCC(=O)[O-]
REMARK SMILES IDX 9 1 10 2 11 3 12 4 13 5 14 6 15 7 16 8 17 9 8 10 7 11 6 12
REMARK SMILES IDX 5 13 4 14 3 15 2 16 1 17
REMARK H PARENT
REMARK Flexibility Score: inf
ROOT
ATOM      1  C   UNL     1     131.600 135.921 131.522  1.00  0.00     0.000 C 
ENDROOT
BRANCH   1   2
ATOM      2  C   UNL     1     131.209 134.879 130.458  1.00  0.00     0.000 C 
BRANCH   2   3
ATOM      3  C   UNL     1     131.549 133.440 130.874  1.00  0.00     0.000 C 
BRANCH   3   4
ATOM      4  C   UNL     1     131.514 132.456 129.691  1.00  0.00     0.000 C 
BRANCH   4   5
ATOM      5  C   UNL     1     130.430 132.784 128.643  1.00  0.00     0.006 C 
BRANCH   5   6
ATOM      6  C   UNL     1     129.586 131.555 128.280  1.00  0.00     0.053 C 
BRANCH   6   7
ATOM      7  C   UNL     1     128.511 131.926 127.308  1.00  0.00     0.041 C 
ATOM      8  O   UNL     1     127.685 132.832 127.592  1.00  0.00    -0.550 OA
ATOM      9  O   UNL     1     128.451 131.303 126.067  1.00  0.00    -0.550 OA
ENDBRANCH   6   7
ENDBRANCH   5   6
ENDBRANCH   4   5
ENDBRANCH   3   4
ENDBRANCH   2   3
ENDBRANCH   1   2
BRANCH   1  10
ATOM     10  C   UNL     1     133.072 135.878 131.983  1.00  0.00     0.000 C 
BRANCH  10  11
ATOM     11  C   UNL     1     133.281 135.841 133.508  1.00  0.00    -0.000 C 
BRANCH  11  12
ATOM     12  C   UNL     1     133.443 134.428 134.102  1.00  0.00    -0.000 C 
BRANCH  12  13
ATOM     13  C   UNL     1     132.332 134.045 135.103  1.00  0.00    -0.000 C 
BRANCH  13  14
ATOM     14  C   UNL     1     131.724 132.663 134.805  1.00  0.00    -0.000 C 
BRANCH  14  15
ATOM     15  C   UNL     1     130.252 132.744 134.371  1.00  0.00    -0.000 C 
BRANCH  15  16
ATOM     16  C   UNL     1     129.397 131.614 134.963  1.00  0.00    -0.003 C 
ATOM     17  C   UNL     1     130.251 130.656 135.790  1.00  0.00     0.004 C 
ENDBRANCH  15  16
ENDBRANCH  14  15
ENDBRANCH  13  14
ENDBRANCH  12  13
ENDBRANCH  11  12
ENDBRANCH  10  11
ENDBRANCH   1  10
TORSDOF 13
ENDMDL
MODEL 9
REMARK VINA RESULT:    -3.718     10.211     12.877
REMARK INTER + INTRA:          -7.947
REMARK INTER:                  -6.821
REMARK INTRA:                  -1.127
REMARK UNBOUND:                -1.403
REMARK SMILES CCCCCCCCCCCCCCC(=O)[O-]
REMARK SMILES IDX 9 1 10 2 11 3 12 4 13 5 14 6 15 7 16 8 17 9 8 10 7 11 6 12
REMARK SMILES IDX 5 13 4 14 3 15 2 16 1 17
REMARK H PARENT
REMARK Flexibility Score: inf
ROOT
ATOM      1  C   UNL     1     123.136 121.998 134.083  1.00  0.00     0.000 C 
ENDROOT
BRANCH   1   2
ATOM      2  C   UNL     1     124.524 122.243 134.702  1.00  0.00     0.000 C 
BRANCH   2   3
ATOM      3  C   UNL     1     125.071 123.649 134.410  1.00  0.00     0.000 C 
BRANCH   3   4
ATOM      4  C   UNL     1     126.198 124.060 135.373  1.00  0.00     0.000 C 
BRANCH   4   5
ATOM      5  C   UNL     1     126.927 125.355 134.958  1.00  0.00     0.006 C 
BRANCH   5   6
ATOM      6  C   UNL     1     126.151 126.138 133.889  1.00  0.00     0.053 C 
BRANCH   6   7
ATOM      7  C   UNL     1     125.846 127.521 134.371  1.00  0.00     0.041 C 
ATOM      8  O   UNL     1     126.661 128.128 135.113  1.00  0.00    -0.550 OA
ATOM      9  O   UNL     1     124.682 128.159 133.958  1.00  0.00    -0.550 OA
ENDBRANCH   6   7
ENDBRANCH   5   6
ENDBRANCH   4   5
ENDBRANCH   3   4
ENDBRANCH   2   3
ENDBRANCH   1   2
BRANCH   1  10
ATOM     10  C   UNL     1     122.945 120.624 133.406  1.00  0.00     0.000 C 
BRANCH  10  11
ATOM     11  C   UNL     1     122.884 120.655 131.868  1.00  0.00    -0.000 C 
BRANCH  11  12
ATOM     12  C   UNL     1     124.180 120.211 131.162  1.00  0.00    -0.000 C 
BRANCH  12  13
ATOM     13  C   UNL     1     125.028 121.387 130.628  1.00  0.00    -0.000 C 
BRANCH  13  14
ATOM     14  C   UNL     1     124.228 122.699 130.550  1.00  0.00    -0.000 C 
BRANCH  14  15
ATOM     15  C   UNL     1     124.576 123.531 129.305  1.00  0.00    -0.000 C 
BRANCH  15  16
ATOM     16  C   UNL     1     125.665 122.878 128.442  1.00  0.00    -0.003 C 
ATOM     17  C   UNL     1     126.493 123.933 127.712  1.00  0.00     0.004 C 
ENDBRANCH  15  16
ENDBRANCH  14  15
ENDBRANCH  13  14
ENDBRANCH  12  13
ENDBRANCH  11  12
ENDBRANCH  10  11
ENDBRANCH   1  10
TORSDOF 13
ENDMDL
