MODEL 1
REMARK VINA RESULT:    -6.710      0.000      0.000
REMARK INTER + INTRA:          -9.162
REMARK INTER:                  -8.475
REMARK INTRA:                  -0.688
REMARK UNBOUND:                -0.688
REMARK SMILES O=C(C=Cc1ccc(O)cc1)c1ccc(O)cc1O
REMARK SMILES IDX 4 1 3 2 5 3 6 4 7 5 8 6 11 7 10 8 9 9 2 11 1 12 12 13 18 14
REMARK SMILES IDX 13 15 17 16 14 17 15 18 19 19 16 21
REMARK H PARENT 9 10 19 20 16 22
REMARK Flexibility Score: inf
ROOT
ATOM      1  C   UNL     1      68.318  47.743   7.273  1.00  0.00     0.012 C 
ATOM      2  C   UNL     1      69.330  48.591   7.505  1.00  0.00     0.053 C 
ENDROOT
BRANCH   1   3
ATOM      3  C   UNL     1      67.053  47.742   8.048  1.00  0.00    -0.025 A 
ATOM      4  C   UNL     1      66.986  48.161   9.392  1.00  0.00     0.012 A 
ATOM      5  C   UNL     1      65.767  48.152  10.076  1.00  0.00     0.047 A 
ATOM      6  C   UNL     1      64.598  47.739   9.430  1.00  0.00     0.115 A 
ATOM      7  C   UNL     1      65.869  47.343   7.403  1.00  0.00     0.012 A 
ATOM      8  C   UNL     1      64.653  47.336   8.090  1.00  0.00     0.047 A 
BRANCH   6   9
ATOM      9  O   UNL     1      63.391  47.736  10.125  1.00  0.00    -0.508 OA
ATOM     10  H   UNL     1      62.746  46.956  10.063  1.00  0.00     0.293 HD
ENDBRANCH   6   9
ENDBRANCH   1   3
BRANCH   2  11
ATOM     11  C   UNL     1      70.584  48.553   6.721  1.00  0.00     0.189 C 
ATOM     12  O   UNL     1      71.664  48.211   7.278  1.00  0.00    -0.289 OA
BRANCH  11  13
ATOM     13  C   UNL     1      70.608  48.961   5.297  1.00  0.00     0.064 A 
ATOM     14  C   UNL     1      71.375  48.266   4.335  1.00  0.00     0.130 A 
ATOM     15  C   UNL     1      69.871  50.089   4.897  1.00  0.00     0.020 A 
ATOM     16  C   UNL     1      71.357  48.681   2.995  1.00  0.00     0.093 A 
ATOM     17  C   UNL     1      69.864  50.497   3.561  1.00  0.00     0.047 A 
ATOM     18  C   UNL     1      70.603  49.791   2.606  1.00  0.00     0.119 A 
BRANCH  14  19
ATOM     19  O   UNL     1      72.172  47.184   4.710  1.00  0.00    -0.507 OA
ATOM     20  H   UNL     1      71.771  46.335   5.091  1.00  0.00     0.293 HD
ENDBRANCH  14  19
BRANCH  18  21
ATOM     21  O   UNL     1      70.601  50.188   1.270  1.00  0.00    -0.508 OA
ATOM     22  H   UNL     1      69.919  50.847   0.915  1.00  0.00     0.293 HD
ENDBRANCH  18  21
ENDBRANCH  11  13
ENDBRANCH   2  11
TORSDOF 6
ENDMDL
MODEL 2
REMARK VINA RESULT:    -6.451     11.783     14.988
REMARK INTER + INTRA:          -8.836
REMARK INTER:                  -8.345
REMARK INTRA:                  -0.491
REMARK UNBOUND:                -0.688
REMARK SMILES O=C(C=Cc1ccc(O)cc1)c1ccc(O)cc1O
REMARK SMILES IDX 4 1 3 2 5 3 6 4 7 5 8 6 11 7 10 8 9 9 2 11 1 12 12 13 18 14
REMARK SMILES IDX 13 15 17 16 14 17 15 18 19 19 16 21
REMARK H PARENT 9 10 19 20 16 22
REMARK Flexibility Score: inf
ROOT
ATOM      1  C   UNL     1      73.778  43.275  -5.045  1.00  0.00     0.012 C 
ATOM      2  C   UNL     1      73.567  42.038  -5.518  1.00  0.00     0.053 C 
ENDROOT
BRANCH   1   3
ATOM      3  C   UNL     1      73.335  43.729  -3.704  1.00  0.00    -0.025 A 
ATOM      4  C   UNL     1      73.615  45.019  -3.209  1.00  0.00     0.012 A 
ATOM      5  C   UNL     1      73.165  45.403  -1.942  1.00  0.00     0.047 A 
ATOM      6  C   UNL     1      72.423  44.516  -1.157  1.00  0.00     0.115 A 
ATOM      7  C   UNL     1      72.575  42.850  -2.913  1.00  0.00     0.012 A 
ATOM      8  C   UNL     1      72.127  43.239  -1.647  1.00  0.00     0.047 A 
BRANCH   6   9
ATOM      9  O   UNL     1      71.983  44.914   0.103  1.00  0.00    -0.508 OA
ATOM     10  H   UNL     1      72.635  45.164   0.837  1.00  0.00     0.293 HD
ENDBRANCH   6   9
ENDBRANCH   1   3
BRANCH   2  11
ATOM     11  C   UNL     1      74.009  41.625  -6.867  1.00  0.00     0.189 C 
ATOM     12  O   UNL     1      75.125  42.015  -7.311  1.00  0.00    -0.289 OA
BRANCH  11  13
ATOM     13  C   UNL     1      73.140  40.799  -7.737  1.00  0.00     0.064 A 
ATOM     14  C   UNL     1      73.383  40.663  -9.122  1.00  0.00     0.130 A 
ATOM     15  C   UNL     1      72.024  40.154  -7.174  1.00  0.00     0.020 A 
ATOM     16  C   UNL     1      72.541  39.859  -9.904  1.00  0.00     0.093 A 
ATOM     17  C   UNL     1      71.189  39.360  -7.962  1.00  0.00     0.047 A 
ATOM     18  C   UNL     1      71.448  39.207  -9.329  1.00  0.00     0.119 A 
BRANCH  14  19
ATOM     19  O   UNL     1      74.441  41.344  -9.727  1.00  0.00    -0.507 OA
ATOM     20  H   UNL     1      75.158  40.855 -10.250  1.00  0.00     0.293 HD
ENDBRANCH  14  19
BRANCH  18  21
ATOM     21  O   UNL     1      70.622  38.415 -10.124  1.00  0.00    -0.508 OA
ATOM     22  H   UNL     1      70.938  37.526 -10.494  1.00  0.00     0.293 HD
ENDBRANCH  18  21
ENDBRANCH  11  13
ENDBRANCH   2  11
TORSDOF 6
ENDMDL
MODEL 3
REMARK VINA RESULT:    -6.160      3.454      6.983
REMARK INTER + INTRA:          -8.468
REMARK INTER:                  -7.880
REMARK INTRA:                  -0.588
REMARK UNBOUND:                -0.688
REMARK SMILES O=C(C=Cc1ccc(O)cc1)c1ccc(O)cc1O
REMARK SMILES IDX 4 1 3 2 5 3 6 4 7 5 8 6 11 7 10 8 9 9 2 11 1 12 12 13 18 14
REMARK SMILES IDX 13 15 17 16 14 17 15 18 19 19 16 21
REMARK H PARENT 9 10 19 20 16 22
REMARK Flexibility Score: inf
ROOT
ATOM      1  C   UNL     1      70.991  48.467   6.392  1.00  0.00     0.012 C 
ATOM      2  C   UNL     1      70.289  48.945   7.430  1.00  0.00     0.053 C 
ENDROOT
BRANCH   1   3
ATOM      3  C   UNL     1      70.783  48.901   4.989  1.00  0.00    -0.025 A 
ATOM      4  C   UNL     1      70.023  50.040   4.653  1.00  0.00     0.012 A 
ATOM      5  C   UNL     1      69.866  50.415   3.315  1.00  0.00     0.047 A 
ATOM      6  C   UNL     1      70.470  49.670   2.297  1.00  0.00     0.115 A 
ATOM      7  C   UNL     1      71.398  48.168   3.960  1.00  0.00     0.012 A 
ATOM      8  C   UNL     1      71.238  48.547   2.624  1.00  0.00     0.047 A 
BRANCH   6   9
ATOM      9  O   UNL     1      70.303  50.057   0.970  1.00  0.00    -0.508 OA
ATOM     10  H   UNL     1      69.852  50.931   0.725  1.00  0.00     0.293 HD
ENDBRANCH   6   9
ENDBRANCH   1   3
BRANCH   2  11
ATOM     11  C   UNL     1      70.514  48.477   8.815  1.00  0.00     0.189 C 
ATOM     12  O   UNL     1      69.829  48.956   9.761  1.00  0.00    -0.289 OA
BRANCH  11  13
ATOM     13  C   UNL     1      71.571  47.486   9.124  1.00  0.00     0.064 A 
ATOM     14  C   UNL     1      72.898  47.876   9.411  1.00  0.00     0.130 A 
ATOM     15  C   UNL     1      71.252  46.116   9.104  1.00  0.00     0.020 A 
ATOM     16  C   UNL     1      73.863  46.903   9.712  1.00  0.00     0.093 A 
ATOM     17  C   UNL     1      72.221  45.156   9.400  1.00  0.00     0.047 A 
ATOM     18  C   UNL     1      73.528  45.547   9.708  1.00  0.00     0.119 A 
BRANCH  14  19
ATOM     19  O   UNL     1      73.266  49.222   9.373  1.00  0.00    -0.507 OA
ATOM     20  H   UNL     1      73.942  49.607  10.022  1.00  0.00     0.293 HD
ENDBRANCH  14  19
BRANCH  18  21
ATOM     21  O   UNL     1      74.503  44.597  10.007  1.00  0.00    -0.508 OA
ATOM     22  H   UNL     1      75.391  44.577   9.520  1.00  0.00     0.293 HD
ENDBRANCH  18  21
ENDBRANCH  11  13
ENDBRANCH   2  11
TORSDOF 6
ENDMDL
MODEL 4
REMARK VINA RESULT:    -6.082      4.034      7.150
REMARK INTER + INTRA:          -8.369
REMARK INTER:                  -7.621
REMARK INTRA:                  -0.749
REMARK UNBOUND:                -0.688
REMARK SMILES O=C(C=Cc1ccc(O)cc1)c1ccc(O)cc1O
REMARK SMILES IDX 4 1 3 2 5 3 6 4 7 5 8 6 11 7 10 8 9 9 2 11 1 12 12 13 18 14
REMARK SMILES IDX 13 15 17 16 14 17 15 18 19 19 16 21
REMARK H PARENT 9 10 19 20 16 22
REMARK Flexibility Score: inf
ROOT
ATOM      1  C   UNL     1      71.109  48.371   6.419  1.00  0.00     0.012 C 
ATOM      2  C   UNL     1      71.556  49.155   7.410  1.00  0.00     0.053 C 
ENDROOT
BRANCH   1   3
ATOM      3  C   UNL     1      70.922  48.836   5.023  1.00  0.00    -0.025 A 
ATOM      4  C   UNL     1      71.515  48.186   3.921  1.00  0.00     0.012 A 
ATOM      5  C   UNL     1      71.299  48.657   2.622  1.00  0.00     0.047 A 
ATOM      6  C   UNL     1      70.485  49.772   2.402  1.00  0.00     0.115 A 
ATOM      7  C   UNL     1      70.093  49.947   4.789  1.00  0.00     0.012 A 
ATOM      8  C   UNL     1      69.880  50.414   3.489  1.00  0.00     0.047 A 
BRANCH   6   9
ATOM      9  O   UNL     1      70.280  50.229   1.102  1.00  0.00    -0.508 OA
ATOM     10  H   UNL     1      70.906  49.973   0.346  1.00  0.00     0.293 HD
ENDBRANCH   6   9
ENDBRANCH   1   3
BRANCH   2  11
ATOM     11  C   UNL     1      71.716  48.661   8.795  1.00  0.00     0.189 C 
ATOM     12  O   UNL     1      71.190  49.292   9.753  1.00  0.00    -0.289 OA
BRANCH  11  13
ATOM     13  C   UNL     1      72.530  47.457   9.087  1.00  0.00     0.064 A 
ATOM     14  C   UNL     1      71.978  46.318   9.715  1.00  0.00     0.130 A 
ATOM     15  C   UNL     1      73.897  47.460   8.757  1.00  0.00     0.020 A 
ATOM     16  C   UNL     1      72.784  45.196   9.961  1.00  0.00     0.093 A 
ATOM     17  C   UNL     1      74.691  46.340   9.011  1.00  0.00     0.047 A 
ATOM     18  C   UNL     1      74.136  45.204   9.609  1.00  0.00     0.119 A 
BRANCH  14  19
ATOM     19  O   UNL     1      70.642  46.307  10.118  1.00  0.00    -0.507 OA
ATOM     20  H   UNL     1      70.371  46.029  11.054  1.00  0.00     0.293 HD
ENDBRANCH  14  19
BRANCH  18  21
ATOM     21  O   UNL     1      74.919  44.080   9.864  1.00  0.00    -0.508 OA
ATOM     22  H   UNL     1      75.851  43.985   9.477  1.00  0.00     0.293 HD
ENDBRANCH  18  21
ENDBRANCH  11  13
ENDBRANCH   2  11
TORSDOF 6
ENDMDL
MODEL 5
REMARK VINA RESULT:    -5.880      1.935      3.502
REMARK INTER + INTRA:          -8.115
REMARK INTER:                  -7.417
REMARK INTRA:                  -0.698
REMARK UNBOUND:                -0.688
REMARK SMILES O=C(C=Cc1ccc(O)cc1)c1ccc(O)cc1O
REMARK SMILES IDX 4 1 3 2 5 3 6 4 7 5 8 6 11 7 10 8 9 9 2 11 1 12 12 13 18 14
REMARK SMILES IDX 13 15 17 16 14 17 15 18 19 19 16 21
REMARK H PARENT 9 10 19 20 16 22
REMARK Flexibility Score: inf
ROOT
ATOM      1  C   UNL     1      68.795  47.998   7.430  1.00  0.00     0.012 C 
ATOM      2  C   UNL     1      69.123  48.830   6.432  1.00  0.00     0.053 C 
ENDROOT
BRANCH   1   3
ATOM      3  C   UNL     1      67.446  47.942   8.043  1.00  0.00    -0.025 A 
ATOM      4  C   UNL     1      67.173  48.458   9.326  1.00  0.00     0.012 A 
ATOM      5  C   UNL     1      65.881  48.392   9.855  1.00  0.00     0.047 A 
ATOM      6  C   UNL     1      64.842  47.822   9.113  1.00  0.00     0.115 A 
ATOM      7  C   UNL     1      66.391  47.385   7.298  1.00  0.00     0.012 A 
ATOM      8  C   UNL     1      65.101  47.321   7.832  1.00  0.00     0.047 A 
BRANCH   6   9
ATOM      9  O   UNL     1      63.561  47.763   9.655  1.00  0.00    -0.508 OA
ATOM     10  H   UNL     1      62.769  47.441   9.109  1.00  0.00     0.293 HD
ENDBRANCH   6   9
ENDBRANCH   1   3
BRANCH   2  11
ATOM     11  C   UNL     1      70.485  48.869   5.855  1.00  0.00     0.189 C 
ATOM     12  O   UNL     1      70.650  49.219   4.653  1.00  0.00    -0.289 OA
BRANCH  11  13
ATOM     13  C   UNL     1      71.664  48.452   6.650  1.00  0.00     0.064 A 
ATOM     14  C   UNL     1      72.304  47.210   6.439  1.00  0.00     0.130 A 
ATOM     15  C   UNL     1      72.142  49.303   7.662  1.00  0.00     0.020 A 
ATOM     16  C   UNL     1      73.426  46.863   7.208  1.00  0.00     0.093 A 
ATOM     17  C   UNL     1      73.256  48.946   8.425  1.00  0.00     0.047 A 
ATOM     18  C   UNL     1      73.903  47.726   8.196  1.00  0.00     0.119 A 
BRANCH  14  19
ATOM     19  O   UNL     1      71.815  46.311   5.490  1.00  0.00    -0.507 OA
ATOM     20  H   UNL     1      71.030  46.544   4.893  1.00  0.00     0.293 HD
ENDBRANCH  14  19
BRANCH  18  21
ATOM     21  O   UNL     1      75.017  47.361   8.949  1.00  0.00    -0.508 OA
ATOM     22  H   UNL     1      75.899  47.853   8.863  1.00  0.00     0.293 HD
ENDBRANCH  18  21
ENDBRANCH  11  13
ENDBRANCH   2  11
TORSDOF 6
ENDMDL
MODEL 6
REMARK VINA RESULT:    -5.829      2.615      6.994
REMARK INTER + INTRA:          -8.051
REMARK INTER:                  -7.310
REMARK INTRA:                  -0.741
REMARK UNBOUND:                -0.688
REMARK SMILES O=C(C=Cc1ccc(O)cc1)c1ccc(O)cc1O
REMARK SMILES IDX 4 1 3 2 5 3 6 4 7 5 8 6 11 7 10 8 9 9 2 11 1 12 12 13 18 14
REMARK SMILES IDX 13 15 17 16 14 17 15 18 19 19 16 21
REMARK H PARENT 9 10 19 20 16 22
REMARK Flexibility Score: inf
ROOT
ATOM      1  C   UNL     1      70.609  48.476   6.504  1.00  0.00     0.012 C 
ATOM      2  C   UNL     1      70.277  49.259   7.541  1.00  0.00     0.053 C 
ENDROOT
BRANCH   1   3
ATOM      3  C   UNL     1      70.633  48.943   5.096  1.00  0.00    -0.025 A 
ATOM      4  C   UNL     1      71.358  48.275   4.088  1.00  0.00     0.012 A 
ATOM      5  C   UNL     1      71.340  48.749   2.773  1.00  0.00     0.047 A 
ATOM      6  C   UNL     1      70.594  49.885   2.441  1.00  0.00     0.115 A 
ATOM      7  C   UNL     1      69.874  50.074   4.749  1.00  0.00     0.012 A 
ATOM      8  C   UNL     1      69.859  50.544   3.433  1.00  0.00     0.047 A 
BRANCH   6   9
ATOM      9  O   UNL     1      70.587  50.344   1.127  1.00  0.00    -0.508 OA
ATOM     10  H   UNL     1      70.017  51.133   0.844  1.00  0.00     0.293 HD
ENDBRANCH   6   9
ENDBRANCH   1   3
BRANCH   2  11
ATOM     11  C   UNL     1      70.249  48.754   8.931  1.00  0.00     0.189 C 
ATOM     12  O   UNL     1      70.708  49.463   9.868  1.00  0.00    -0.289 OA
BRANCH  11  13
ATOM     13  C   UNL     1      69.736  47.398   9.241  1.00  0.00     0.064 A 
ATOM     14  C   UNL     1      70.601  46.327   9.557  1.00  0.00     0.130 A 
ATOM     15  C   UNL     1      68.350  47.164   9.192  1.00  0.00     0.020 A 
ATOM     16  C   UNL     1      70.069  45.064   9.857  1.00  0.00     0.093 A 
ATOM     17  C   UNL     1      67.831  45.902   9.488  1.00  0.00     0.047 A 
ATOM     18  C   UNL     1      68.690  44.850   9.825  1.00  0.00     0.119 A 
BRANCH  14  19
ATOM     19  O   UNL     1      71.985  46.507   9.548  1.00  0.00    -0.507 OA
ATOM     20  H   UNL     1      72.486  46.735   8.697  1.00  0.00     0.293 HD
ENDBRANCH  14  19
BRANCH  18  21
ATOM     21  O   UNL     1      68.182  43.587  10.124  1.00  0.00    -0.508 OA
ATOM     22  H   UNL     1      67.658  43.051   9.442  1.00  0.00     0.293 HD
ENDBRANCH  18  21
ENDBRANCH  11  13
ENDBRANCH   2  11
TORSDOF 6
ENDMDL
MODEL 7
REMARK VINA RESULT:    -5.821      2.047      2.510
REMARK INTER + INTRA:          -8.040
REMARK INTER:                  -7.334
REMARK INTRA:                  -0.706
REMARK UNBOUND:                -0.688
REMARK SMILES O=C(C=Cc1ccc(O)cc1)c1ccc(O)cc1O
REMARK SMILES IDX 4 1 3 2 5 3 6 4 7 5 8 6 11 7 10 8 9 9 2 11 1 12 12 13 18 14
REMARK SMILES IDX 13 15 17 16 14 17 15 18 19 19 16 21
REMARK H PARENT 9 10 19 20 16 22
REMARK Flexibility Score: inf
ROOT
ATOM      1  C   UNL     1      69.447  47.916   7.854  1.00  0.00     0.012 C 
ATOM      2  C   UNL     1      70.275  48.913   7.512  1.00  0.00     0.053 C 
ENDROOT
BRANCH   1   3
ATOM      3  C   UNL     1      68.072  48.131   8.368  1.00  0.00    -0.025 A 
ATOM      4  C   UNL     1      67.796  48.959   9.475  1.00  0.00     0.012 A 
ATOM      5  C   UNL     1      66.480  49.139   9.913  1.00  0.00     0.047 A 
ATOM      6  C   UNL     1      65.423  48.506   9.252  1.00  0.00     0.115 A 
ATOM      7  C   UNL     1      67.000  47.512   7.701  1.00  0.00     0.012 A 
ATOM      8  C   UNL     1      65.687  47.694   8.143  1.00  0.00     0.047 A 
BRANCH   6   9
ATOM      9  O   UNL     1      64.119  48.694   9.702  1.00  0.00    -0.508 OA
ATOM     10  H   UNL     1      63.434  49.194   9.146  1.00  0.00     0.293 HD
ENDBRANCH   6   9
ENDBRANCH   1   3
BRANCH   2  11
ATOM     11  C   UNL     1      71.647  48.662   7.017  1.00  0.00     0.189 C 
ATOM     12  O   UNL     1      72.624  49.271   7.533  1.00  0.00    -0.289 OA
BRANCH  11  13
ATOM     13  C   UNL     1      71.893  47.739   5.884  1.00  0.00     0.064 A 
ATOM     14  C   UNL     1      72.454  46.456   6.074  1.00  0.00     0.130 A 
ATOM     15  C   UNL     1      71.587  48.163   4.578  1.00  0.00     0.020 A 
ATOM     16  C   UNL     1      72.657  45.612   4.972  1.00  0.00     0.093 A 
ATOM     17  C   UNL     1      71.798  47.317   3.488  1.00  0.00     0.047 A 
ATOM     18  C   UNL     1      72.330  46.038   3.683  1.00  0.00     0.119 A 
BRANCH  14  19
ATOM     19  O   UNL     1      72.833  46.030   7.347  1.00  0.00    -0.507 OA
ATOM     20  H   UNL     1      73.386  46.615   7.962  1.00  0.00     0.293 HD
ENDBRANCH  14  19
BRANCH  18  21
ATOM     21  O   UNL     1      72.541  45.184   2.602  1.00  0.00    -0.508 OA
ATOM     22  H   UNL     1      73.394  44.644   2.513  1.00  0.00     0.293 HD
ENDBRANCH  18  21
ENDBRANCH  11  13
ENDBRANCH   2  11
TORSDOF 6
ENDMDL
MODEL 8
REMARK VINA RESULT:    -5.745      1.695      2.612
REMARK INTER + INTRA:          -7.944
REMARK INTER:                  -7.419
REMARK INTRA:                  -0.525
REMARK UNBOUND:                -0.688
REMARK SMILES O=C(C=Cc1ccc(O)cc1)c1ccc(O)cc1O
REMARK SMILES IDX 4 1 3 2 5 3 6 4 7 5 8 6 11 7 10 8 9 9 2 11 1 12 12 13 18 14
REMARK SMILES IDX 13 15 17 16 14 17 15 18 19 19 16 21
REMARK H PARENT 9 10 19 20 16 22
REMARK Flexibility Score: inf
ROOT
ATOM      1  C   UNL     1      69.379  47.901   7.829  1.00  0.00     0.012 C 
ATOM      2  C   UNL     1      70.180  48.903   7.438  1.00  0.00     0.053 C 
ENDROOT
BRANCH   1   3
ATOM      3  C   UNL     1      68.006  48.104   8.354  1.00  0.00    -0.025 A 
ATOM      4  C   UNL     1      67.737  48.899   9.487  1.00  0.00     0.012 A 
ATOM      5  C   UNL     1      66.424  49.069   9.936  1.00  0.00     0.047 A 
ATOM      6  C   UNL     1      65.362  48.460   9.260  1.00  0.00     0.115 A 
ATOM      7  C   UNL     1      66.930  47.509   7.672  1.00  0.00     0.012 A 
ATOM      8  C   UNL     1      65.619  47.682   8.125  1.00  0.00     0.047 A 
BRANCH   6   9
ATOM      9  O   UNL     1      64.060  48.639   9.720  1.00  0.00    -0.508 OA
ATOM     10  H   UNL     1      63.750  49.526  10.100  1.00  0.00     0.293 HD
ENDBRANCH   6   9
ENDBRANCH   1   3
BRANCH   2  11
ATOM     11  C   UNL     1      71.550  48.663   6.934  1.00  0.00     0.189 C 
ATOM     12  O   UNL     1      72.526  49.274   7.449  1.00  0.00    -0.289 OA
BRANCH  11  13
ATOM     13  C   UNL     1      71.795  47.752   5.791  1.00  0.00     0.064 A 
ATOM     14  C   UNL     1      71.474  48.118   4.464  1.00  0.00     0.130 A 
ATOM     15  C   UNL     1      72.335  46.477   6.036  1.00  0.00     0.020 A 
ATOM     16  C   UNL     1      71.736  47.227   3.411  1.00  0.00     0.093 A 
ATOM     17  C   UNL     1      72.587  45.597   4.982  1.00  0.00     0.047 A 
ATOM     18  C   UNL     1      72.292  45.972   3.666  1.00  0.00     0.119 A 
BRANCH  14  19
ATOM     19  O   UNL     1      70.874  49.348   4.192  1.00  0.00    -0.507 OA
ATOM     20  H   UNL     1      71.384  50.219   4.276  1.00  0.00     0.293 HD
ENDBRANCH  14  19
BRANCH  18  21
ATOM     21  O   UNL     1      72.542  45.102   2.607  1.00  0.00    -0.508 OA
ATOM     22  H   UNL     1      72.875  45.440   1.712  1.00  0.00     0.293 HD
ENDBRANCH  18  21
ENDBRANCH  11  13
ENDBRANCH   2  11
TORSDOF 6
ENDMDL
MODEL 9
REMARK VINA RESULT:    -5.661      1.727      2.486
REMARK INTER + INTRA:          -7.838
REMARK INTER:                  -7.208
REMARK INTRA:                  -0.629
REMARK UNBOUND:                -0.688
REMARK SMILES O=C(C=Cc1ccc(O)cc1)c1ccc(O)cc1O
REMARK SMILES IDX 4 1 3 2 5 3 6 4 7 5 8 6 11 7 10 8 9 9 2 11 1 12 12 13 18 14
REMARK SMILES IDX 13 15 17 16 14 17 15 18 19 19 16 21
REMARK H PARENT 9 10 19 20 16 22
REMARK Flexibility Score: inf
ROOT
ATOM      1  C   UNL     1      67.621  47.320   7.479  1.00  0.00     0.012 C 
ATOM      2  C   UNL     1      68.091  48.265   8.306  1.00  0.00     0.053 C 
ENDROOT
BRANCH   1   3
ATOM      3  C   UNL     1      66.308  46.653   7.655  1.00  0.00    -0.025 A 
ATOM      4  C   UNL     1      65.086  47.354   7.589  1.00  0.00     0.012 A 
ATOM      5  C   UNL     1      63.873  46.677   7.750  1.00  0.00     0.047 A 
ATOM      6  C   UNL     1      63.859  45.296   7.969  1.00  0.00     0.115 A 
ATOM      7  C   UNL     1      66.281  45.262   7.860  1.00  0.00     0.012 A 
ATOM      8  C   UNL     1      65.067  44.590   8.020  1.00  0.00     0.047 A 
BRANCH   6   9
ATOM      9  O   UNL     1      62.642  44.637   8.128  1.00  0.00    -0.508 OA
ATOM     10  H   UNL     1      61.760  45.105   7.956  1.00  0.00     0.293 HD
ENDBRANCH   6   9
ENDBRANCH   1   3
BRANCH   2  11
ATOM     11  C   UNL     1      69.413  48.898   8.107  1.00  0.00     0.189 C 
ATOM     12  O   UNL     1      69.894  49.647   9.002  1.00  0.00    -0.289 OA
BRANCH  11  13
ATOM     13  C   UNL     1      70.168  48.710   6.846  1.00  0.00     0.064 A 
ATOM     14  C   UNL     1      71.270  47.830   6.760  1.00  0.00     0.130 A 
ATOM     15  C   UNL     1      69.796  49.450   5.709  1.00  0.00     0.020 A 
ATOM     16  C   UNL     1      71.947  47.675   5.541  1.00  0.00     0.093 A 
ATOM     17  C   UNL     1      70.480  49.292   4.502  1.00  0.00     0.047 A 
ATOM     18  C   UNL     1      71.554  48.400   4.414  1.00  0.00     0.119 A 
BRANCH  14  19
ATOM     19  O   UNL     1      71.710  47.132   7.885  1.00  0.00    -0.507 OA
ATOM     20  H   UNL     1      71.235  46.300   8.214  1.00  0.00     0.293 HD
ENDBRANCH  14  19
BRANCH  18  21
ATOM     21  O   UNL     1      72.242  48.232   3.213  1.00  0.00    -0.508 OA
ATOM     22  H   UNL     1      71.777  47.889   2.381  1.00  0.00     0.293 HD
ENDBRANCH  18  21
ENDBRANCH  11  13
ENDBRANCH   2  11
TORSDOF 6
ENDMDL
