MODEL 1
REMARK VINA RESULT:    -0.352      0.000      0.000
REMARK INTER + INTRA:          -0.854
REMARK INTER:                  -0.466
REMARK INTRA:                  -0.389
REMARK UNBOUND:                -0.389
REMARK SMILES CC(C)=CCC[C@H](C(=O)[O-])[C@@H]1CC[C@]2(C)C3=C(CC[C@]12C)[C@]1(C)CC[C@H](O)C(C)(C)[C@H]1CC3
REMARK SMILES IDX 6 1 7 2 8 3 9 4 10 5 11 6 12 7 20 8 13 9 14 10 19 11 21 12
REMARK SMILES IDX 15 13 16 14 18 15 17 16 33 17 22 18 32 19 31 20 24 21 23 22
REMARK SMILES IDX 28 23 25 24 26 25 29 26 30 27 27 28 5 30 4 31 2 32 1 33 3 34
REMARK H PARENT 27 29
REMARK Flexibility Score: inf
ROOT
ATOM      1  C   UNL     1       2.496  40.653  12.686  1.00  0.00     0.014 C 
ENDROOT
BRANCH   1   2
ATOM      2  C   UNL     1       3.874  40.833  11.999  1.00  0.00     0.039 C 
BRANCH   2   3
ATOM      3  C   UNL     1       4.962  40.033  12.693  1.00  0.00     0.045 C 
ATOM      4  O   UNL     1       5.500  40.479  13.740  1.00  0.00    -0.550 OA
ATOM      5  O   UNL     1       5.438  38.843  12.154  1.00  0.00    -0.550 OA
ENDBRANCH   2   3
BRANCH   2   6
ATOM      6  C   UNL     1       4.210  42.341  11.707  1.00  0.00     0.004 C 
ATOM      7  C   UNL     1       4.065  43.248  12.942  1.00  0.00     0.006 C 
ATOM      8  C   UNL     1       3.552  43.117  10.511  1.00  0.00    -0.020 C 
ATOM      9  C   UNL     1       3.574  44.604  12.452  1.00  0.00     0.012 C 
ATOM     10  C   UNL     1       3.729  44.628  10.917  1.00  0.00    -0.006 C 
ATOM     11  C   UNL     1       2.048  42.798  10.392  1.00  0.00     0.012 C 
ATOM     12  C   UNL     1       4.257  42.780   9.161  1.00  0.00     0.012 C 
ATOM     13  C   UNL     1       5.163  45.142  10.578  1.00  0.00     0.017 C 
ATOM     14  C   UNL     1       2.677  45.606  10.326  1.00  0.00    -0.064 C 
ATOM     15  C   UNL     1       1.360  43.694   9.374  1.00  0.00     0.032 C 
ATOM     16  C   UNL     1       1.566  45.174   9.641  1.00  0.00    -0.064 C 
ATOM     17  C   UNL     1       2.934  47.093  10.571  1.00  0.00     0.032 C 
ATOM     18  C   UNL     1       0.431  46.140   9.206  1.00  0.00    -0.008 C 
ATOM     19  C   UNL     1       1.748  48.020  10.320  1.00  0.00     0.009 C 
ATOM     20  C   UNL     1       1.018  47.588   9.038  1.00  0.00     0.007 C 
ATOM     21  C   UNL     1      -0.137  45.708   7.816  1.00  0.00     0.014 C 
ATOM     22  C   UNL     1      -0.692  46.020  10.287  1.00  0.00     0.016 C 
ATOM     23  C   UNL     1       0.049  48.667   8.417  1.00  0.00    -0.006 C 
ATOM     24  C   UNL     1      -1.125  46.718   7.205  1.00  0.00     0.033 C 
ATOM     25  C   UNL     1      -0.521  48.121   7.066  1.00  0.00     0.120 C 
ATOM     26  C   UNL     1       0.831  49.975   8.109  1.00  0.00     0.014 C 
ATOM     27  C   UNL     1      -1.110  49.065   9.366  1.00  0.00     0.014 C 
BRANCH  25  28
ATOM     28  O   UNL     1       0.489  48.066   6.084  1.00  0.00    -0.393 OA
ATOM     29  H   UNL     1       1.178  48.739   6.326  1.00  0.00     0.210 HD
ENDBRANCH  25  28
ENDBRANCH   2   6
ENDBRANCH   1   2
BRANCH   1  30
ATOM     30  C   UNL     1       2.312  39.271  13.340  1.00  0.00     0.028 C 
BRANCH  30  31
ATOM     31  C   UNL     1       0.914  38.732  13.145  1.00  0.00    -0.028 C 
ATOM     32  C   UNL     1       0.610  37.624  12.435  1.00  0.00    -0.080 C 
ATOM     33  C   UNL     1       1.663  36.832  11.693  1.00  0.00     0.039 C 
ATOM     34  C   UNL     1      -0.830  37.185  12.371  1.00  0.00     0.039 C 
ENDBRANCH  30  31
ENDBRANCH   1  30
TORSDOF 6
ENDMDL
MODEL 2
REMARK VINA RESULT:     0.264      2.482      8.335
REMARK INTER + INTRA:          -0.040
REMARK INTER:                  -1.421
REMARK INTRA:                   1.381
REMARK UNBOUND:                -0.389
REMARK SMILES CC(C)=CCC[C@H](C(=O)[O-])[C@@H]1CC[C@]2(C)C3=C(CC[C@]12C)[C@]1(C)CC[C@H](O)C(C)(C)[C@H]1CC3
REMARK SMILES IDX 6 1 7 2 8 3 9 4 10 5 11 6 12 7 20 8 13 9 14 10 19 11 21 12
REMARK SMILES IDX 15 13 16 14 18 15 17 16 33 17 22 18 32 19 31 20 24 21 23 22
REMARK SMILES IDX 28 23 25 24 26 25 29 26 30 27 27 28 5 30 4 31 2 32 1 33 3 34
REMARK H PARENT 27 29
REMARK Flexibility Score: inf
ROOT
ATOM      1  C   UNL     1       4.018  46.976   8.004  1.00  0.00     0.014 C 
ENDROOT
BRANCH   1   2
ATOM      2  C   UNL     1       2.676  47.585   7.525  1.00  0.00     0.039 C 
BRANCH   2   3
ATOM      3  C   UNL     1       2.739  49.100   7.440  1.00  0.00     0.045 C 
ATOM      4  O   UNL     1       3.742  49.660   6.924  1.00  0.00    -0.550 OA
ATOM      5  O   UNL     1       1.743  49.896   7.993  1.00  0.00    -0.550 OA
ENDBRANCH   2   3
BRANCH   2   6
ATOM      6  C   UNL     1       1.436  46.991   8.290  1.00  0.00     0.004 C 
ATOM      7  C   UNL     1       0.981  47.856   9.479  1.00  0.00     0.006 C 
ATOM      8  C   UNL     1       1.413  45.504   8.793  1.00  0.00    -0.020 C 
ATOM      9  C   UNL     1       0.468  46.910  10.556  1.00  0.00     0.012 C 
ATOM     10  C   UNL     1       0.307  45.517   9.914  1.00  0.00    -0.006 C 
ATOM     11  C   UNL     1       2.762  45.100   9.420  1.00  0.00     0.012 C 
ATOM     12  C   UNL     1       1.070  44.518   7.634  1.00  0.00     0.012 C 
ATOM     13  C   UNL     1      -1.125  45.426   9.298  1.00  0.00     0.017 C 
ATOM     14  C   UNL     1       0.462  44.438  11.019  1.00  0.00    -0.064 C 
ATOM     15  C   UNL     1       2.687  43.739  10.093  1.00  0.00     0.032 C 
ATOM     16  C   UNL     1       1.575  43.638  11.123  1.00  0.00    -0.064 C 
ATOM     17  C   UNL     1      -0.692  44.328  12.016  1.00  0.00     0.032 C 
ATOM     18  C   UNL     1       1.805  42.685  12.327  1.00  0.00    -0.008 C 
ATOM     19  C   UNL     1      -0.395  43.545  13.291  1.00  0.00     0.009 C 
ATOM     20  C   UNL     1       0.418  42.286  12.945  1.00  0.00     0.007 C 
ATOM     21  C   UNL     1       2.493  41.368  11.845  1.00  0.00     0.014 C 
ATOM     22  C   UNL     1       2.758  43.439  13.312  1.00  0.00     0.016 C 
ATOM     23  C   UNL     1       0.444  41.173  14.063  1.00  0.00    -0.006 C 
ATOM     24  C   UNL     1       2.579  40.278  12.928  1.00  0.00     0.033 C 
ATOM     25  C   UNL     1       1.207  39.921  13.515  1.00  0.00     0.120 C 
ATOM     26  C   UNL     1      -1.005  40.730  14.413  1.00  0.00     0.014 C 
ATOM     27  C   UNL     1       1.086  41.654  15.389  1.00  0.00     0.014 C 
BRANCH  25  28
ATOM     28  O   UNL     1       0.456  39.279  12.510  1.00  0.00    -0.393 OA
ATOM     29  H   UNL     1       0.817  38.359  12.409  1.00  0.00     0.210 HD
ENDBRANCH  25  28
ENDBRANCH   2   6
ENDBRANCH   1   2
BRANCH   1  30
ATOM     30  C   UNL     1       4.409  47.398   9.432  1.00  0.00     0.028 C 
BRANCH  30  31
ATOM     31  C   UNL     1       5.855  47.092   9.740  1.00  0.00    -0.028 C 
ATOM     32  C   UNL     1       6.890  47.916   9.469  1.00  0.00    -0.080 C 
ATOM     33  C   UNL     1       6.700  49.234   8.752  1.00  0.00     0.039 C 
ATOM     34  C   UNL     1       8.275  47.489   9.880  1.00  0.00     0.039 C 
ENDBRANCH  30  31
ENDBRANCH   1  30
TORSDOF 6
ENDMDL
MODEL 3
REMARK VINA RESULT:     0.523      1.409      2.524
REMARK INTER + INTRA:           0.303
REMARK INTER:                  -0.491
REMARK INTRA:                   0.793
REMARK UNBOUND:                -0.389
REMARK SMILES CC(C)=CCC[C@H](C(=O)[O-])[C@@H]1CC[C@]2(C)C3=C(CC[C@]12C)[C@]1(C)CC[C@H](O)C(C)(C)[C@H]1CC3
REMARK SMILES IDX 6 1 7 2 8 3 9 4 10 5 11 6 12 7 20 8 13 9 14 10 19 11 21 12
REMARK SMILES IDX 15 13 16 14 18 15 17 16 33 17 22 18 32 19 31 20 24 21 23 22
REMARK SMILES IDX 28 23 25 24 26 25 29 26 30 27 27 28 5 30 4 31 2 32 1 33 3 34
REMARK H PARENT 27 29
REMARK Flexibility Score: inf
ROOT
ATOM      1  C   UNL     1       2.625  38.545  12.769  1.00  0.00     0.014 C 
ENDROOT
BRANCH   1   2
ATOM      2  C   UNL     1       3.410  39.841  12.444  1.00  0.00     0.039 C 
BRANCH   2   3
ATOM      3  C   UNL     1       4.847  39.770  12.932  1.00  0.00     0.045 C 
ATOM      4  O   UNL     1       5.607  38.855  12.519  1.00  0.00    -0.550 OA
ATOM      5  O   UNL     1       5.328  40.654  13.891  1.00  0.00    -0.550 OA
ENDBRANCH   2   3
BRANCH   2   6
ATOM      6  C   UNL     1       2.616  41.142  12.834  1.00  0.00     0.004 C 
ATOM      7  C   UNL     1       1.094  40.928  12.909  1.00  0.00     0.006 C 
ATOM      8  C   UNL     1       2.834  42.499  12.075  1.00  0.00    -0.020 C 
ATOM      9  C   UNL     1       0.433  42.219  12.443  1.00  0.00     0.012 C 
ATOM     10  C   UNL     1       1.523  43.309  12.397  1.00  0.00    -0.006 C 
ATOM     11  C   UNL     1       2.932  42.283  10.552  1.00  0.00     0.012 C 
ATOM     12  C   UNL     1       4.119  43.229  12.574  1.00  0.00     0.012 C 
ATOM     13  C   UNL     1       1.603  43.980  13.805  1.00  0.00     0.017 C 
ATOM     14  C   UNL     1       1.118  44.373  11.341  1.00  0.00    -0.064 C 
ATOM     15  C   UNL     1       2.936  43.601   9.794  1.00  0.00     0.032 C 
ATOM     16  C   UNL     1       1.749  44.488  10.125  1.00  0.00    -0.064 C 
ATOM     17  C   UNL     1      -0.052  45.282  11.720  1.00  0.00     0.032 C 
ATOM     18  C   UNL     1       1.230  45.431   9.006  1.00  0.00    -0.008 C 
ATOM     19  C   UNL     1      -0.680  46.066  10.573  1.00  0.00     0.009 C 
ATOM     20  C   UNL     1       0.426  46.614   9.655  1.00  0.00     0.007 C 
ATOM     21  C   UNL     1       2.435  46.060   8.235  1.00  0.00     0.014 C 
ATOM     22  C   UNL     1       0.395  44.541   8.028  1.00  0.00     0.016 C 
ATOM     23  C   UNL     1      -0.017  47.775   8.682  1.00  0.00    -0.006 C 
ATOM     24  C   UNL     1       2.031  47.163   7.241  1.00  0.00     0.033 C 
ATOM     25  C   UNL     1       1.238  48.295   7.908  1.00  0.00     0.120 C 
ATOM     26  C   UNL     1      -0.599  48.964   9.499  1.00  0.00     0.014 C 
ATOM     27  C   UNL     1      -1.123  47.347   7.685  1.00  0.00     0.014 C 
BRANCH  25  28
ATOM     28  O   UNL     1       2.109  48.985   8.775  1.00  0.00    -0.393 OA
ATOM     29  H   UNL     1       1.974  48.619   9.688  1.00  0.00     0.210 HD
ENDBRANCH  25  28
ENDBRANCH   2   6
ENDBRANCH   1   2
BRANCH   1  30
ATOM     30  C   UNL     1       2.824  37.429  11.728  1.00  0.00     0.028 C 
BRANCH  30  31
ATOM     31  C   UNL     1       1.694  36.427  11.745  1.00  0.00    -0.028 C 
ATOM     32  C   UNL     1       0.434  36.697  12.151  1.00  0.00    -0.080 C 
ATOM     33  C   UNL     1       0.040  38.048  12.702  1.00  0.00     0.039 C 
ATOM     34  C   UNL     1      -0.598  35.602  12.065  1.00  0.00     0.039 C 
ENDBRANCH  30  31
ENDBRANCH   1  30
TORSDOF 6
ENDMDL
MODEL 4
REMARK VINA RESULT:     1.925      1.700      2.111
REMARK INTER + INTRA:           2.156
REMARK INTER:                   0.507
REMARK INTRA:                   1.649
REMARK UNBOUND:                -0.389
REMARK SMILES CC(C)=CCC[C@H](C(=O)[O-])[C@@H]1CC[C@]2(C)C3=C(CC[C@]12C)[C@]1(C)CC[C@H](O)C(C)(C)[C@H]1CC3
REMARK SMILES IDX 6 1 7 2 8 3 9 4 10 5 11 6 12 7 20 8 13 9 14 10 19 11 21 12
REMARK SMILES IDX 15 13 16 14 18 15 17 16 33 17 22 18 32 19 31 20 24 21 23 22
REMARK SMILES IDX 28 23 25 24 26 25 29 26 30 27 27 28 5 30 4 31 2 32 1 33 3 34
REMARK H PARENT 27 29
REMARK Flexibility Score: inf
ROOT
ATOM      1  C   UNL     1       2.865  39.597  12.460  1.00  0.00     0.014 C 
ENDROOT
BRANCH   1   2
ATOM      2  C   UNL     1       2.739  41.100  12.813  1.00  0.00     0.039 C 
BRANCH   2   3
ATOM      3  C   UNL     1       1.326  41.468  13.230  1.00  0.00     0.045 C 
ATOM      4  O   UNL     1       1.127  42.474  13.961  1.00  0.00    -0.550 OA
ATOM      5  O   UNL     1       0.241  40.670  12.886  1.00  0.00    -0.550 OA
ENDBRANCH   2   3
BRANCH   2   6
ATOM      6  C   UNL     1       3.399  42.031  11.730  1.00  0.00     0.004 C 
ATOM      7  C   UNL     1       4.463  42.981  12.309  1.00  0.00     0.006 C 
ATOM      8  C   UNL     1       2.533  42.891  10.742  1.00  0.00    -0.020 C 
ATOM      9  C   UNL     1       4.393  44.278  11.513  1.00  0.00     0.012 C 
ATOM     10  C   UNL     1       3.531  44.009  10.262  1.00  0.00    -0.006 C 
ATOM     11  C   UNL     1       1.343  43.553  11.466  1.00  0.00     0.012 C 
ATOM     12  C   UNL     1       1.997  42.027   9.559  1.00  0.00     0.012 C 
ATOM     13  C   UNL     1       4.467  43.485   9.128  1.00  0.00     0.017 C 
ATOM     14  C   UNL     1       2.875  45.344   9.815  1.00  0.00    -0.064 C 
ATOM     15  C   UNL     1       0.620  44.546  10.571  1.00  0.00     0.032 C 
ATOM     16  C   UNL     1       1.537  45.606   9.986  1.00  0.00    -0.064 C 
ATOM     17  C   UNL     1       3.815  46.375   9.187  1.00  0.00     0.032 C 
ATOM     18  C   UNL     1       0.920  47.002   9.700  1.00  0.00    -0.008 C 
ATOM     19  C   UNL     1       3.266  47.794   9.083  1.00  0.00     0.009 C 
ATOM     20  C   UNL     1       1.796  47.747   8.630  1.00  0.00     0.007 C 
ATOM     21  C   UNL     1      -0.511  46.841   9.094  1.00  0.00     0.014 C 
ATOM     22  C   UNL     1       0.822  47.734  11.078  1.00  0.00     0.016 C 
ATOM     23  C   UNL     1       1.218  49.106   8.075  1.00  0.00    -0.006 C 
ATOM     24  C   UNL     1      -1.125  48.159   8.588  1.00  0.00     0.033 C 
ATOM     25  C   UNL     1      -0.237  48.863   7.553  1.00  0.00     0.120 C 
ATOM     26  C   UNL     1       2.075  49.604   6.878  1.00  0.00     0.014 C 
ATOM     27  C   UNL     1       1.227  50.247   9.124  1.00  0.00     0.014 C 
BRANCH  25  28
ATOM     28  O   UNL     1      -0.223  48.077   6.384  1.00  0.00    -0.393 OA
ATOM     29  H   UNL     1      -0.304  48.692   5.608  1.00  0.00     0.210 HD
ENDBRANCH  25  28
ENDBRANCH   2   6
ENDBRANCH   1   2
BRANCH   1  30
ATOM     30  C   UNL     1       1.803  38.715  13.142  1.00  0.00     0.028 C 
BRANCH  30  31
ATOM     31  C   UNL     1       1.581  37.417  12.403  1.00  0.00    -0.028 C 
ATOM     32  C   UNL     1       0.378  36.829  12.226  1.00  0.00    -0.080 C 
ATOM     33  C   UNL     1      -0.889  37.397  12.825  1.00  0.00     0.039 C 
ATOM     34  C   UNL     1       0.312  35.556  11.423  1.00  0.00     0.039 C 
ENDBRANCH  30  31
ENDBRANCH   1  30
TORSDOF 6
ENDMDL
