MODEL 1
REMARK VINA RESULT:    -4.964      0.000      0.000
REMARK INTER + INTRA:          -8.423
REMARK INTER:                  -7.866
REMARK INTRA:                  -0.557
REMARK UNBOUND:                -0.557
REMARK SMILES CCCCCCCCCCCC(=O)[O-]
REMARK SMILES IDX 7 1 8 2 9 3 10 4 11 5 12 6 13 7 14 8 6 9 5 10 4 11 3 12 2 13
REMARK SMILES IDX 1 14
REMARK H PARENT
REMARK Flexibility Score: inf
ROOT
ATOM      1  C   UNL     1      14.557  23.760  29.238  1.00  0.00     0.000 C 
ENDROOT
BRANCH   1   2
ATOM      2  C   UNL     1      13.684  24.419  30.320  1.00  0.00     0.000 C 
BRANCH   2   3
ATOM      3  C   UNL     1      12.182  24.180  30.094  1.00  0.00     0.000 C 
BRANCH   3   4
ATOM      4  C   UNL     1      11.414  23.946  31.407  1.00  0.00     0.006 C 
BRANCH   4   5
ATOM      5  C   UNL     1       9.898  24.082  31.222  1.00  0.00     0.053 C 
BRANCH   5   6
ATOM      6  C   UNL     1       9.236  22.752  31.032  1.00  0.00     0.041 C 
ATOM      7  O   UNL     1       9.574  22.008  30.075  1.00  0.00    -0.550 OA
ATOM      8  O   UNL     1       8.268  22.321  31.931  1.00  0.00    -0.550 OA
ENDBRANCH   5   6
ENDBRANCH   4   5
ENDBRANCH   3   4
ENDBRANCH   2   3
ENDBRANCH   1   2
BRANCH   1   9
ATOM      9  C   UNL     1      15.683  22.898  29.832  1.00  0.00     0.000 C 
BRANCH   9  10
ATOM     10  C   UNL     1      16.868  22.718  28.867  1.00  0.00    -0.000 C 
BRANCH  10  11
ATOM     11  C   UNL     1      16.713  21.462  27.984  1.00  0.00    -0.000 C 
BRANCH  11  12
ATOM     12  C   UNL     1      16.975  21.723  26.490  1.00  0.00    -0.000 C 
BRANCH  12  13
ATOM     13  C   UNL     1      15.726  22.204  25.740  1.00  0.00    -0.003 C 
ATOM     14  C   UNL     1      14.460  21.592  26.331  1.00  0.00     0.004 C 
ENDBRANCH  12  13
ENDBRANCH  11  12
ENDBRANCH  10  11
ENDBRANCH   9  10
ENDBRANCH   1   9
TORSDOF 10
ENDMDL
MODEL 2
REMARK VINA RESULT:    -4.878      3.758      5.703
REMARK INTER + INTRA:          -8.287
REMARK INTER:                  -6.678
REMARK INTRA:                  -1.609
REMARK UNBOUND:                -0.557
REMARK SMILES CCCCCCCCCCCC(=O)[O-]
REMARK SMILES IDX 7 1 8 2 9 3 10 4 11 5 12 6 13 7 14 8 6 9 5 10 4 11 3 12 2 13
REMARK SMILES IDX 1 14
REMARK H PARENT
REMARK Flexibility Score: inf
ROOT
ATOM      1  C   UNL     1      13.946  22.592  29.949  1.00  0.00     0.000 C 
ENDROOT
BRANCH   1   2
ATOM      2  C   UNL     1      14.431  23.900  29.298  1.00  0.00     0.000 C 
BRANCH   2   3
ATOM      3  C   UNL     1      15.827  23.764  28.669  1.00  0.00     0.000 C 
BRANCH   3   4
ATOM      4  C   UNL     1      15.790  23.793  27.131  1.00  0.00     0.006 C 
BRANCH   4   5
ATOM      5  C   UNL     1      16.422  22.539  26.514  1.00  0.00     0.053 C 
BRANCH   5   6
ATOM      6  C   UNL     1      15.657  22.058  25.318  1.00  0.00     0.041 C 
ATOM      7  O   UNL     1      16.163  22.142  24.169  1.00  0.00    -0.550 OA
ATOM      8  O   UNL     1      14.401  21.489  25.479  1.00  0.00    -0.550 OA
ENDBRANCH   5   6
ENDBRANCH   4   5
ENDBRANCH   3   4
ENDBRANCH   2   3
ENDBRANCH   1   2
BRANCH   1   9
ATOM      9  C   UNL     1      13.556  21.527  28.912  1.00  0.00     0.000 C 
BRANCH   9  10
ATOM     10  C   UNL     1      14.516  20.325  28.901  1.00  0.00    -0.000 C 
BRANCH  10  11
ATOM     11  C   UNL     1      15.538  20.386  30.057  1.00  0.00    -0.000 C 
BRANCH  11  12
ATOM     12  C   UNL     1      17.001  20.301  29.590  1.00  0.00    -0.000 C 
BRANCH  12  13
ATOM     13  C   UNL     1      17.916  21.302  30.308  1.00  0.00    -0.003 C 
ATOM     14  C   UNL     1      17.242  21.868  31.555  1.00  0.00     0.004 C 
ENDBRANCH  12  13
ENDBRANCH  11  12
ENDBRANCH  10  11
ENDBRANCH   9  10
ENDBRANCH   1   9
TORSDOF 10
ENDMDL
MODEL 3
REMARK VINA RESULT:    -4.864      2.536      3.516
REMARK INTER + INTRA:          -8.264
REMARK INTER:                  -7.102
REMARK INTRA:                  -1.162
REMARK UNBOUND:                -0.557
REMARK SMILES CCCCCCCCCCCC(=O)[O-]
REMARK SMILES IDX 7 1 8 2 9 3 10 4 11 5 12 6 13 7 14 8 6 9 5 10 4 11 3 12 2 13
REMARK SMILES IDX 1 14
REMARK H PARENT
REMARK Flexibility Score: inf
ROOT
ATOM      1  C   UNL     1      17.194  21.376  29.296  1.00  0.00     0.000 C 
ENDROOT
BRANCH   1   2
ATOM      2  C   UNL     1      16.450  20.051  29.537  1.00  0.00     0.000 C 
BRANCH   2   3
ATOM      3  C   UNL     1      14.984  20.263  29.948  1.00  0.00     0.000 C 
BRANCH   3   4
ATOM      4  C   UNL     1      13.999  19.984  28.800  1.00  0.00     0.006 C 
BRANCH   4   5
ATOM      5  C   UNL     1      13.285  21.257  28.327  1.00  0.00     0.053 C 
BRANCH   5   6
ATOM      6  C   UNL     1      11.999  21.481  29.062  1.00  0.00     0.041 C 
ATOM      7  O   UNL     1      10.899  21.241  28.499  1.00  0.00    -0.550 OA
ATOM      8  O   UNL     1      12.017  21.925  30.378  1.00  0.00    -0.550 OA
ENDBRANCH   5   6
ENDBRANCH   4   5
ENDBRANCH   3   4
ENDBRANCH   2   3
ENDBRANCH   1   2
BRANCH   1   9
ATOM      9  C   UNL     1      16.499  22.574  29.964  1.00  0.00     0.000 C 
BRANCH   9  10
ATOM     10  C   UNL     1      15.972  23.601  28.947  1.00  0.00    -0.000 C 
BRANCH  10  11
ATOM     11  C   UNL     1      16.858  23.677  27.685  1.00  0.00    -0.000 C 
BRANCH  11  12
ATOM     12  C   UNL     1      16.077  23.487  26.372  1.00  0.00    -0.000 C 
BRANCH  12  13
ATOM     13  C   UNL     1      16.261  22.091  25.764  1.00  0.00    -0.003 C 
ATOM     14  C   UNL     1      15.941  22.093  24.273  1.00  0.00     0.004 C 
ENDBRANCH  12  13
ENDBRANCH  11  12
ENDBRANCH  10  11
ENDBRANCH   9  10
ENDBRANCH   1   9
TORSDOF 10
ENDMDL
MODEL 4
REMARK VINA RESULT:    -4.857      1.292      1.957
REMARK INTER + INTRA:          -8.253
REMARK INTER:                  -7.204
REMARK INTRA:                  -1.050
REMARK UNBOUND:                -0.557
REMARK SMILES CCCCCCCCCCCC(=O)[O-]
REMARK SMILES IDX 7 1 8 2 9 3 10 4 11 5 12 6 13 7 14 8 6 9 5 10 4 11 3 12 2 13
REMARK SMILES IDX 1 14
REMARK H PARENT
REMARK Flexibility Score: inf
ROOT
ATOM      1  C   UNL     1      13.656  22.305  30.056  1.00  0.00     0.000 C 
ENDROOT
BRANCH   1   2
ATOM      2  C   UNL     1      13.710  23.833  29.882  1.00  0.00     0.000 C 
BRANCH   2   3
ATOM      3  C   UNL     1      12.351  24.504  30.138  1.00  0.00     0.000 C 
BRANCH   3   4
ATOM      4  C   UNL     1      11.561  23.831  31.273  1.00  0.00     0.006 C 
BRANCH   4   5
ATOM      5  C   UNL     1      10.048  23.854  31.018  1.00  0.00     0.053 C 
BRANCH   5   6
ATOM      6  C   UNL     1       9.534  22.516  30.581  1.00  0.00     0.041 C 
ATOM      7  O   UNL     1      10.248  21.489  30.720  1.00  0.00    -0.550 OA
ATOM      8  O   UNL     1       8.256  22.401  30.050  1.00  0.00    -0.550 OA
ENDBRANCH   5   6
ENDBRANCH   4   5
ENDBRANCH   3   4
ENDBRANCH   2   3
ENDBRANCH   1   2
BRANCH   1   9
ATOM      9  C   UNL     1      13.230  21.579  28.769  1.00  0.00     0.000 C 
BRANCH   9  10
ATOM     10  C   UNL     1      14.426  21.050  27.959  1.00  0.00    -0.000 C 
BRANCH  10  11
ATOM     11  C   UNL     1      14.454  21.618  26.524  1.00  0.00    -0.000 C 
BRANCH  11  12
ATOM     12  C   UNL     1      15.784  22.300  26.157  1.00  0.00    -0.000 C 
BRANCH  12  13
ATOM     13  C   UNL     1      15.890  23.732  26.696  1.00  0.00    -0.003 C 
ATOM     14  C   UNL     1      16.933  23.827  27.805  1.00  0.00     0.004 C 
ENDBRANCH  12  13
ENDBRANCH  11  12
ENDBRANCH  10  11
ENDBRANCH   9  10
ENDBRANCH   1   9
TORSDOF 10
ENDMDL
MODEL 5
REMARK VINA RESULT:    -4.851      1.863      2.456
REMARK INTER + INTRA:          -8.244
REMARK INTER:                  -7.264
REMARK INTRA:                  -0.980
REMARK UNBOUND:                -0.557
REMARK SMILES CCCCCCCCCCCC(=O)[O-]
REMARK SMILES IDX 7 1 8 2 9 3 10 4 11 5 12 6 13 7 14 8 6 9 5 10 4 11 3 12 2 13
REMARK SMILES IDX 1 14
REMARK H PARENT
REMARK Flexibility Score: inf
ROOT
ATOM      1  C   UNL     1      13.996  22.880  29.704  1.00  0.00     0.000 C 
ENDROOT
BRANCH   1   2
ATOM      2  C   UNL     1      14.328  21.391  29.497  1.00  0.00     0.000 C 
BRANCH   2   3
ATOM      3  C   UNL     1      13.411  20.720  28.462  1.00  0.00     0.000 C 
BRANCH   3   4
ATOM      4  C   UNL     1      12.057  20.295  29.056  1.00  0.00     0.006 C 
BRANCH   4   5
ATOM      5  C   UNL     1      10.944  21.301  28.737  1.00  0.00     0.053 C 
BRANCH   5   6
ATOM      6  C   UNL     1      10.254  21.782  29.977  1.00  0.00     0.041 C 
ATOM      7  O   UNL     1      10.895  21.893  31.055  1.00  0.00    -0.550 OA
ATOM      8  O   UNL     1       8.912  22.138  29.934  1.00  0.00    -0.550 OA
ENDBRANCH   5   6
ENDBRANCH   4   5
ENDBRANCH   3   4
ENDBRANCH   2   3
ENDBRANCH   1   2
BRANCH   1   9
ATOM      9  C   UNL     1      15.100  23.810  29.175  1.00  0.00     0.000 C 
BRANCH   9  10
ATOM     10  C   UNL     1      16.431  23.077  28.931  1.00  0.00    -0.000 C 
BRANCH  10  11
ATOM     11  C   UNL     1      16.913  23.218  27.471  1.00  0.00    -0.000 C 
BRANCH  11  12
ATOM     12  C   UNL     1      16.758  21.930  26.645  1.00  0.00    -0.000 C 
BRANCH  12  13
ATOM     13  C   UNL     1      15.527  21.953  25.729  1.00  0.00    -0.003 C 
ATOM     14  C   UNL     1      15.927  22.171  24.273  1.00  0.00     0.004 C 
ENDBRANCH  12  13
ENDBRANCH  11  12
ENDBRANCH  10  11
ENDBRANCH   9  10
ENDBRANCH   1   9
TORSDOF 10
ENDMDL
MODEL 6
REMARK VINA RESULT:    -4.816      1.324      2.002
REMARK INTER + INTRA:          -8.188
REMARK INTER:                  -7.340
REMARK INTRA:                  -0.848
REMARK UNBOUND:                -0.557
REMARK SMILES CCCCCCCCCCCC(=O)[O-]
REMARK SMILES IDX 7 1 8 2 9 3 10 4 11 5 12 6 13 7 14 8 6 9 5 10 4 11 3 12 2 13
REMARK SMILES IDX 1 14
REMARK H PARENT
REMARK Flexibility Score: inf
ROOT
ATOM      1  C   UNL     1      13.567  24.185  30.444  1.00  0.00     0.000 C 
ENDROOT
BRANCH   1   2
ATOM      2  C   UNL     1      12.089  23.803  30.248  1.00  0.00     0.000 C 
BRANCH   2   3
ATOM      3  C   UNL     1      11.897  22.301  29.986  1.00  0.00     0.000 C 
BRANCH   3   4
ATOM      4  C   UNL     1      10.610  21.996  29.202  1.00  0.00     0.006 C 
BRANCH   4   5
ATOM      5  C   UNL     1       9.689  21.028  29.956  1.00  0.00     0.053 C 
BRANCH   5   6
ATOM      6  C   UNL     1       8.539  21.740  30.602  1.00  0.00     0.041 C 
ATOM      7  O   UNL     1       7.357  21.382  30.360  1.00  0.00    -0.550 OA
ATOM      8  O   UNL     1       8.776  22.776  31.496  1.00  0.00    -0.550 OA
ENDBRANCH   5   6
ENDBRANCH   4   5
ENDBRANCH   3   4
ENDBRANCH   2   3
ENDBRANCH   1   2
BRANCH   1   9
ATOM      9  C   UNL     1      14.456  23.724  29.277  1.00  0.00     0.000 C 
BRANCH   9  10
ATOM     10  C   UNL     1      15.534  22.716  29.711  1.00  0.00    -0.000 C 
BRANCH  10  11
ATOM     11  C   UNL     1      15.716  21.580  28.682  1.00  0.00    -0.000 C 
BRANCH  11  12
ATOM     12  C   UNL     1      14.632  21.560  27.589  1.00  0.00    -0.000 C 
BRANCH  12  13
ATOM     13  C   UNL     1      15.181  21.899  26.198  1.00  0.00    -0.003 C 
ATOM     14  C   UNL     1      16.703  21.806  26.168  1.00  0.00     0.004 C 
ENDBRANCH  12  13
ENDBRANCH  11  12
ENDBRANCH  10  11
ENDBRANCH   9  10
ENDBRANCH   1   9
TORSDOF 10
ENDMDL
MODEL 7
REMARK VINA RESULT:    -4.745     22.272     23.291
REMARK INTER + INTRA:          -8.076
REMARK INTER:                  -6.816
REMARK INTRA:                  -1.260
REMARK UNBOUND:                -0.557
REMARK SMILES CCCCCCCCCCCC(=O)[O-]
REMARK SMILES IDX 7 1 8 2 9 3 10 4 11 5 12 6 13 7 14 8 6 9 5 10 4 11 3 12 2 13
REMARK SMILES IDX 1 14
REMARK H PARENT
REMARK Flexibility Score: inf
ROOT
ATOM      1  C   UNL     1       0.518  36.823  11.981  1.00  0.00     0.000 C 
ENDROOT
BRANCH   1   2
ATOM      2  C   UNL     1       0.258  35.331  12.254  1.00  0.00     0.000 C 
BRANCH   2   3
ATOM      3  C   UNL     1       0.228  35.002  13.755  1.00  0.00     0.000 C 
BRANCH   3   4
ATOM      4  C   UNL     1      -0.793  35.855  14.528  1.00  0.00     0.006 C 
BRANCH   4   5
ATOM      5  C   UNL     1      -0.374  36.076  15.988  1.00  0.00     0.053 C 
BRANCH   5   6
ATOM      6  C   UNL     1      -0.300  34.788  16.749  1.00  0.00     0.041 C 
ATOM      7  O   UNL     1      -1.356  34.194  17.091  1.00  0.00    -0.550 OA
ATOM      8  O   UNL     1       0.934  34.228  17.053  1.00  0.00    -0.550 OA
ENDBRANCH   5   6
ENDBRANCH   4   5
ENDBRANCH   3   4
ENDBRANCH   2   3
ENDBRANCH   1   2
BRANCH   1   9
ATOM      9  C   UNL     1       1.933  37.261  12.394  1.00  0.00     0.000 C 
BRANCH   9  10
ATOM     10  C   UNL     1       1.928  38.283  13.546  1.00  0.00    -0.000 C 
BRANCH  10  11
ATOM     11  C   UNL     1       3.152  38.120  14.472  1.00  0.00    -0.000 C 
BRANCH  11  12
ATOM     12  C   UNL     1       2.960  37.055  15.565  1.00  0.00    -0.000 C 
BRANCH  12  13
ATOM     13  C   UNL     1       3.703  35.747  15.262  1.00  0.00    -0.003 C 
ATOM     14  C   UNL     1       5.026  35.678  16.019  1.00  0.00     0.004 C 
ENDBRANCH  12  13
ENDBRANCH  11  12
ENDBRANCH  10  11
ENDBRANCH   9  10
ENDBRANCH   1   9
TORSDOF 10
ENDMDL
MODEL 8
REMARK VINA RESULT:    -4.736     22.279     23.513
REMARK INTER + INTRA:          -8.061
REMARK INTER:                  -6.397
REMARK INTRA:                  -1.664
REMARK UNBOUND:                -0.557
REMARK SMILES CCCCCCCCCCCC(=O)[O-]
REMARK SMILES IDX 7 1 8 2 9 3 10 4 11 5 12 6 13 7 14 8 6 9 5 10 4 11 3 12 2 13
REMARK SMILES IDX 1 14
REMARK H PARENT
REMARK Flexibility Score: inf
ROOT
ATOM      1  C   UNL     1       1.483  38.453  13.247  1.00  0.00     0.000 C 
ENDROOT
BRANCH   1   2
ATOM      2  C   UNL     1       1.150  38.645  14.737  1.00  0.00     0.000 C 
BRANCH   2   3
ATOM      3  C   UNL     1       2.234  38.069  15.663  1.00  0.00     0.000 C 
BRANCH   3   4
ATOM      4  C   UNL     1       3.325  37.305  14.895  1.00  0.00     0.006 C 
BRANCH   4   5
ATOM      5  C   UNL     1       3.671  35.966  15.559  1.00  0.00     0.053 C 
BRANCH   5   6
ATOM      6  C   UNL     1       5.094  35.924  16.026  1.00  0.00     0.041 C 
ATOM      7  O   UNL     1       5.439  35.123  16.934  1.00  0.00    -0.550 OA
ATOM      8  O   UNL     1       6.044  36.748  15.437  1.00  0.00    -0.550 OA
ENDBRANCH   5   6
ENDBRANCH   4   5
ENDBRANCH   3   4
ENDBRANCH   2   3
ENDBRANCH   1   2
BRANCH   1   9
ATOM      9  C   UNL     1       0.501  37.506  12.539  1.00  0.00     0.000 C 
BRANCH   9  10
ATOM     10  C   UNL     1       1.167  36.203  12.063  1.00  0.00    -0.000 C 
BRANCH  10  11
ATOM     11  C   UNL     1       0.909  35.030  13.033  1.00  0.00    -0.000 C 
BRANCH  11  12
ATOM     12  C   UNL     1      -0.250  35.284  14.012  1.00  0.00    -0.000 C 
BRANCH  12  13
ATOM     13  C   UNL     1       0.121  34.982  15.469  1.00  0.00    -0.003 C 
ATOM     14  C   UNL     1      -0.720  35.811  16.435  1.00  0.00     0.004 C 
ENDBRANCH  12  13
ENDBRANCH  11  12
ENDBRANCH  10  11
ENDBRANCH   9  10
ENDBRANCH   1   9
TORSDOF 10
ENDMDL
MODEL 9
REMARK VINA RESULT:    -4.711      3.658      6.565
REMARK INTER + INTRA:          -8.022
REMARK INTER:                  -7.034
REMARK INTRA:                  -0.988
REMARK UNBOUND:                -0.557
REMARK SMILES CCCCCCCCCCCC(=O)[O-]
REMARK SMILES IDX 7 1 8 2 9 3 10 4 11 5 12 6 13 7 14 8 6 9 5 10 4 11 3 12 2 13
REMARK SMILES IDX 1 14
REMARK H PARENT
REMARK Flexibility Score: inf
ROOT
ATOM      1  C   UNL     1      12.173  19.920  29.126  1.00  0.00     0.000 C 
ENDROOT
BRANCH   1   2
ATOM      2  C   UNL     1      13.633  19.953  28.640  1.00  0.00     0.000 C 
BRANCH   2   3
ATOM      3  C   UNL     1      13.923  21.153  27.723  1.00  0.00     0.000 C 
BRANCH   3   4
ATOM      4  C   UNL     1      15.419  21.506  27.664  1.00  0.00     0.006 C 
BRANCH   4   5
ATOM      5  C   UNL     1      15.800  22.189  26.344  1.00  0.00     0.053 C 
BRANCH   5   6
ATOM      6  C   UNL     1      16.232  23.608  26.553  1.00  0.00     0.041 C 
ATOM      7  O   UNL     1      15.882  24.502  25.739  1.00  0.00    -0.550 OA
ATOM      8  O   UNL     1      16.994  23.948  27.663  1.00  0.00    -0.550 OA
ENDBRANCH   5   6
ENDBRANCH   4   5
ENDBRANCH   3   4
ENDBRANCH   2   3
ENDBRANCH   1   2
BRANCH   1   9
ATOM      9  C   UNL     1      11.405  21.205  28.778  1.00  0.00     0.000 C 
BRANCH   9  10
ATOM     10  C   UNL     1      10.496  21.685  29.923  1.00  0.00    -0.000 C 
BRANCH  10  11
ATOM     11  C   UNL     1      11.250  22.582  30.927  1.00  0.00    -0.000 C 
BRANCH  11  12
ATOM     12  C   UNL     1      11.543  23.995  30.392  1.00  0.00    -0.000 C 
BRANCH  12  13
ATOM     13  C   UNL     1      12.920  24.520  30.815  1.00  0.00    -0.003 C 
ATOM     14  C   UNL     1      13.981  24.192  29.769  1.00  0.00     0.004 C 
ENDBRANCH  12  13
ENDBRANCH  11  12
ENDBRANCH  10  11
ENDBRANCH   9  10
ENDBRANCH   1   9
TORSDOF 10
ENDMDL
