MODEL 1
REMARK VINA RESULT:    -4.891      0.000      0.000
REMARK INTER + INTRA:          -6.385
REMARK INTER:                  -5.892
REMARK INTRA:                  -0.493
REMARK UNBOUND:                -0.493
REMARK SMILES CCCCc1oc(O)c2ccccc12
REMARK SMILES IDX 4 1 5 2 7 3 6 4 9 5 14 6 10 7 13 8 11 9 12 10 8 11 3 13 2 14
REMARK SMILES IDX 1 15
REMARK H PARENT 8 12
REMARK Flexibility Score: inf
ROOT
ATOM      1  C   UNL     1     -50.336  27.892   8.813  1.00  0.00     0.076 C 
ENDROOT
BRANCH   1   2
ATOM      2  C   UNL     1     -49.430  26.712   8.636  1.00  0.00     0.116 A 
ATOM      3  C   UNL     1     -48.585  24.934   7.788  1.00  0.00     0.290 A 
ATOM      4  O   UNL     1     -49.507  25.864   7.626  1.00  0.00    -0.430 OA
ATOM      5  C   UNL     1     -47.881  25.174   8.945  1.00  0.00     0.066 A 
ATOM      6  C   UNL     1     -48.419  26.307   9.490  1.00  0.00     0.027 A 
ATOM      7  C   UNL     1     -46.830  24.487   9.550  1.00  0.00     0.016 A 
ATOM      8  C   UNL     1     -47.946  26.839  10.690  1.00  0.00     0.012 A 
ATOM      9  C   UNL     1     -46.330  25.000  10.762  1.00  0.00     0.001 A 
ATOM     10  C   UNL     1     -46.885  26.170  11.329  1.00  0.00     0.001 A 
BRANCH   3  11
ATOM     11  O   UNL     1     -48.375  23.875   6.912  1.00  0.00    -0.480 OA
ATOM     12  H   UNL     1     -48.168  24.051   5.936  1.00  0.00     0.297 HD
ENDBRANCH   3  11
ENDBRANCH   1   2
BRANCH   1  13
ATOM     13  C   UNL     1     -51.801  27.440   8.851  1.00  0.00     0.008 C 
BRANCH  13  14
ATOM     14  C   UNL     1     -52.087  26.463  10.002  1.00  0.00    -0.003 C 
ATOM     15  C   UNL     1     -52.110  27.151  11.367  1.00  0.00     0.004 C 
ENDBRANCH  13  14
ENDBRANCH   1  13
TORSDOF 4
ENDMDL
MODEL 2
REMARK VINA RESULT:    -4.885      1.049      1.663
REMARK INTER + INTRA:          -6.378
REMARK INTER:                  -5.930
REMARK INTRA:                  -0.448
REMARK UNBOUND:                -0.493
REMARK SMILES CCCCc1oc(O)c2ccccc12
REMARK SMILES IDX 4 1 5 2 7 3 6 4 9 5 14 6 10 7 13 8 11 9 12 10 8 11 3 13 2 14
REMARK SMILES IDX 1 15
REMARK H PARENT 8 12
REMARK Flexibility Score: inf
ROOT
ATOM      1  C   UNL     1     -50.963  25.755  10.630  1.00  0.00     0.076 C 
ENDROOT
BRANCH   1   2
ATOM      2  C   UNL     1     -49.791  25.320   9.805  1.00  0.00     0.116 A 
ATOM      3  C   UNL     1     -48.676  24.487   8.174  1.00  0.00     0.290 A 
ATOM      4  O   UNL     1     -49.890  24.773   8.607  1.00  0.00    -0.430 OA
ATOM      5  C   UNL     1     -47.748  24.853   9.121  1.00  0.00     0.066 A 
ATOM      6  C   UNL     1     -48.456  25.383  10.165  1.00  0.00     0.027 A 
ATOM      7  C   UNL     1     -46.358  24.754   9.143  1.00  0.00     0.016 A 
ATOM      8  C   UNL     1     -47.823  25.852  11.316  1.00  0.00     0.012 A 
ATOM      9  C   UNL     1     -45.690  25.221  10.291  1.00  0.00     0.001 A 
ATOM     10  C   UNL     1     -46.419  25.768  11.372  1.00  0.00     0.001 A 
BRANCH   3  11
ATOM     11  O   UNL     1     -48.398  23.900   6.946  1.00  0.00    -0.480 OA
ATOM     12  H   UNL     1     -47.557  23.350   6.819  1.00  0.00     0.297 HD
ENDBRANCH   3  11
ENDBRANCH   1   2
BRANCH   1  13
ATOM     13  C   UNL     1     -51.122  27.279  10.569  1.00  0.00     0.008 C 
BRANCH  13  14
ATOM     14  C   UNL     1     -51.243  27.802   9.129  1.00  0.00    -0.003 C 
ATOM     15  C   UNL     1     -50.157  28.818   8.778  1.00  0.00     0.004 C 
ENDBRANCH  13  14
ENDBRANCH   1  13
TORSDOF 4
ENDMDL
MODEL 3
REMARK VINA RESULT:    -4.701      1.997      4.990
REMARK INTER + INTRA:          -6.156
REMARK INTER:                  -5.977
REMARK INTRA:                  -0.178
REMARK UNBOUND:                -0.493
REMARK SMILES CCCCc1oc(O)c2ccccc12
REMARK SMILES IDX 4 1 5 2 7 3 6 4 9 5 14 6 10 7 13 8 11 9 12 10 8 11 3 13 2 14
REMARK SMILES IDX 1 15
REMARK H PARENT 8 12
REMARK Flexibility Score: inf
ROOT
ATOM      1  C   UNL     1     -45.822  25.337  11.110  1.00  0.00     0.076 C 
ENDROOT
BRANCH   1   2
ATOM      2  C   UNL     1     -47.000  25.094  10.217  1.00  0.00     0.116 A 
ATOM      3  C   UNL     1     -48.127  24.538   8.481  1.00  0.00     0.290 A 
ATOM      4  O   UNL     1     -46.914  24.599   8.995  1.00  0.00    -0.430 OA
ATOM      5  C   UNL     1     -49.042  25.013   9.391  1.00  0.00     0.066 A 
ATOM      6  C   UNL     1     -48.326  25.371  10.501  1.00  0.00     0.027 A 
ATOM      7  C   UNL     1     -50.427  25.160   9.324  1.00  0.00     0.016 A 
ATOM      8  C   UNL     1     -48.944  25.908  11.630  1.00  0.00     0.012 A 
ATOM      9  C   UNL     1     -51.079  25.698  10.450  1.00  0.00     0.001 A 
ATOM     10  C   UNL     1     -50.341  26.071  11.596  1.00  0.00     0.001 A 
BRANCH   3  11
ATOM     11  O   UNL     1     -48.417  24.066   7.206  1.00  0.00    -0.480 OA
ATOM     12  H   UNL     1     -47.767  23.455   6.726  1.00  0.00     0.297 HD
ENDBRANCH   3  11
ENDBRANCH   1   2
BRANCH   1  13
ATOM     13  C   UNL     1     -44.613  25.798  10.287  1.00  0.00     0.008 C 
BRANCH  13  14
ATOM     14  C   UNL     1     -43.288  25.643  11.049  1.00  0.00    -0.003 C 
ATOM     15  C   UNL     1     -42.243  24.855  10.261  1.00  0.00     0.004 C 
ENDBRANCH  13  14
ENDBRANCH   1  13
TORSDOF 4
ENDMDL
MODEL 4
REMARK VINA RESULT:    -4.334      1.749      4.459
REMARK INTER + INTRA:          -5.714
REMARK INTER:                  -5.191
REMARK INTRA:                  -0.523
REMARK UNBOUND:                -0.493
REMARK SMILES CCCCc1oc(O)c2ccccc12
REMARK SMILES IDX 4 1 5 2 7 3 6 4 9 5 14 6 10 7 13 8 11 9 12 10 8 11 3 13 2 14
REMARK SMILES IDX 1 15
REMARK H PARENT 8 12
REMARK Flexibility Score: inf
ROOT
ATOM      1  C   UNL     1     -45.740  25.483   9.693  1.00  0.00     0.076 C 
ENDROOT
BRANCH   1   2
ATOM      2  C   UNL     1     -47.199  25.215   9.486  1.00  0.00     0.116 A 
ATOM      3  C   UNL     1     -49.026  24.128   9.208  1.00  0.00     0.290 A 
ATOM      4  O   UNL     1     -47.729  24.007   9.421  1.00  0.00    -0.430 OA
ATOM      5  C   UNL     1     -49.361  25.459   9.125  1.00  0.00     0.066 A 
ATOM      6  C   UNL     1     -48.197  26.157   9.300  1.00  0.00     0.027 A 
ATOM      7  C   UNL     1     -50.581  26.096   8.905  1.00  0.00     0.016 A 
ATOM      8  C   UNL     1     -48.166  27.551   9.265  1.00  0.00     0.012 A 
ATOM      9  C   UNL     1     -50.582  27.504   8.866  1.00  0.00     0.001 A 
ATOM     10  C   UNL     1     -49.380  28.227   9.045  1.00  0.00     0.001 A 
BRANCH   3  11
ATOM     11  O   UNL     1     -49.905  23.058   9.084  1.00  0.00    -0.480 OA
ATOM     12  H   UNL     1     -50.882  23.220   8.870  1.00  0.00     0.297 HD
ENDBRANCH   3  11
ENDBRANCH   1   2
BRANCH   1  13
ATOM     13  C   UNL     1     -45.433  25.644  11.187  1.00  0.00     0.008 C 
BRANCH  13  14
ATOM     14  C   UNL     1     -45.248  27.114  11.596  1.00  0.00    -0.003 C 
ATOM     15  C   UNL     1     -44.613  27.957  10.490  1.00  0.00     0.004 C 
ENDBRANCH  13  14
ENDBRANCH   1  13
TORSDOF 4
ENDMDL
MODEL 5
REMARK VINA RESULT:    -4.086      1.706      2.201
REMARK INTER + INTRA:          -5.416
REMARK INTER:                  -4.899
REMARK INTRA:                  -0.517
REMARK UNBOUND:                -0.493
REMARK SMILES CCCCc1oc(O)c2ccccc12
REMARK SMILES IDX 4 1 5 2 7 3 6 4 9 5 14 6 10 7 13 8 11 9 12 10 8 11 3 13 2 14
REMARK SMILES IDX 1 15
REMARK H PARENT 8 12
REMARK Flexibility Score: inf
ROOT
ATOM      1  C   UNL     1     -49.917  24.679   9.267  1.00  0.00     0.076 C 
ENDROOT
BRANCH   1   2
ATOM      2  C   UNL     1     -48.821  25.649   8.949  1.00  0.00     0.116 A 
ATOM      3  C   UNL     1     -47.672  27.105   7.874  1.00  0.00     0.290 A 
ATOM      4  O   UNL     1     -48.776  26.383   7.851  1.00  0.00    -0.430 OA
ATOM      5  C   UNL     1     -46.963  26.834   9.021  1.00  0.00     0.066 A 
ATOM      6  C   UNL     1     -47.693  25.903   9.709  1.00  0.00     0.027 A 
ATOM      7  C   UNL     1     -45.749  27.325   9.499  1.00  0.00     0.016 A 
ATOM      8  C   UNL     1     -47.258  25.388  10.931  1.00  0.00     0.012 A 
ATOM      9  C   UNL     1     -45.284  26.825  10.731  1.00  0.00     0.001 A 
ATOM     10  C   UNL     1     -46.035  25.862  11.443  1.00  0.00     0.001 A 
BRANCH   3  11
ATOM     11  O   UNL     1     -47.296  27.997   6.877  1.00  0.00    -0.480 OA
ATOM     12  H   UNL     1     -46.475  27.817   6.311  1.00  0.00     0.297 HD
ENDBRANCH   3  11
ENDBRANCH   1   2
BRANCH   1  13
ATOM     13  C   UNL     1     -51.240  25.421   9.487  1.00  0.00     0.008 C 
BRANCH  13  14
ATOM     14  C   UNL     1     -51.137  26.498  10.578  1.00  0.00    -0.003 C 
ATOM     15  C   UNL     1     -50.852  25.911  11.960  1.00  0.00     0.004 C 
ENDBRANCH  13  14
ENDBRANCH   1  13
TORSDOF 4
ENDMDL
MODEL 6
REMARK VINA RESULT:    -3.917      1.940      2.152
REMARK INTER + INTRA:          -5.212
REMARK INTER:                  -4.654
REMARK INTRA:                  -0.558
REMARK UNBOUND:                -0.493
REMARK SMILES CCCCc1oc(O)c2ccccc12
REMARK SMILES IDX 4 1 5 2 7 3 6 4 9 5 14 6 10 7 13 8 11 9 12 10 8 11 3 13 2 14
REMARK SMILES IDX 1 15
REMARK H PARENT 8 12
REMARK Flexibility Score: inf
ROOT
ATOM      1  C   UNL     1     -50.120  28.888   9.784  1.00  0.00     0.076 C 
ENDROOT
BRANCH   1   2
ATOM      2  C   UNL     1     -48.919  28.254   9.151  1.00  0.00     0.116 A 
ATOM      3  C   UNL     1     -47.315  27.916   7.770  1.00  0.00     0.290 A 
ATOM      4  O   UNL     1     -48.316  28.721   8.073  1.00  0.00    -0.430 OA
ATOM      5  C   UNL     1     -47.260  26.881   8.675  1.00  0.00     0.066 A 
ATOM      6  C   UNL     1     -48.284  27.093   9.558  1.00  0.00     0.027 A 
ATOM      7  C   UNL     1     -46.405  25.786   8.781  1.00  0.00     0.016 A 
ATOM      8  C   UNL     1     -48.532  26.218  10.615  1.00  0.00     0.012 A 
ATOM      9  C   UNL     1     -46.629  24.886   9.840  1.00  0.00     0.001 A 
ATOM     10  C   UNL     1     -47.687  25.101  10.752  1.00  0.00     0.001 A 
BRANCH   3  11
ATOM     11  O   UNL     1     -46.458  28.099   6.691  1.00  0.00    -0.480 OA
ATOM     12  H   UNL     1     -46.583  28.886   6.065  1.00  0.00     0.297 HD
ENDBRANCH   3  11
ENDBRANCH   1   2
BRANCH   1  13
ATOM     13  C   UNL     1     -51.403  28.403   9.098  1.00  0.00     0.008 C 
BRANCH  13  14
ATOM     14  C   UNL     1     -52.125  27.312   9.904  1.00  0.00    -0.003 C 
ATOM     15  C   UNL     1     -52.005  25.929   9.264  1.00  0.00     0.004 C 
ENDBRANCH  13  14
ENDBRANCH   1  13
TORSDOF 4
ENDMDL
MODEL 7
REMARK VINA RESULT:    -3.896      1.993      4.195
REMARK INTER + INTRA:          -5.187
REMARK INTER:                  -4.785
REMARK INTRA:                  -0.402
REMARK UNBOUND:                -0.493
REMARK SMILES CCCCc1oc(O)c2ccccc12
REMARK SMILES IDX 4 1 5 2 7 3 6 4 9 5 14 6 10 7 13 8 11 9 12 10 8 11 3 13 2 14
REMARK SMILES IDX 1 15
REMARK H PARENT 8 12
REMARK Flexibility Score: inf
ROOT
ATOM      1  C   UNL     1     -46.949  26.330  10.036  1.00  0.00     0.076 C 
ENDROOT
BRANCH   1   2
ATOM      2  C   UNL     1     -48.380  25.888  10.026  1.00  0.00     0.116 A 
ATOM      3  C   UNL     1     -50.121  24.718   9.585  1.00  0.00     0.290 A 
ATOM      4  O   UNL     1     -48.815  24.796   9.421  1.00  0.00    -0.430 OA
ATOM      5  C   UNL     1     -50.564  25.794  10.318  1.00  0.00     0.066 A 
ATOM      6  C   UNL     1     -49.454  26.545  10.600  1.00  0.00     0.027 A 
ATOM      7  C   UNL     1     -51.837  26.166  10.745  1.00  0.00     0.016 A 
ATOM      8  C   UNL     1     -49.538  27.731  11.329  1.00  0.00     0.012 A 
ATOM      9  C   UNL     1     -51.954  27.357  11.486  1.00  0.00     0.001 A 
ATOM     10  C   UNL     1     -50.810  28.136  11.776  1.00  0.00     0.001 A 
BRANCH   3  11
ATOM     11  O   UNL     1     -50.916  23.695   9.082  1.00  0.00    -0.480 OA
ATOM     12  H   UNL     1     -50.770  22.738   9.381  1.00  0.00     0.297 HD
ENDBRANCH   3  11
ENDBRANCH   1   2
BRANCH   1  13
ATOM     13  C   UNL     1     -46.539  26.845   8.651  1.00  0.00     0.008 C 
BRANCH  13  14
ATOM     14  C   UNL     1     -47.132  28.228   8.338  1.00  0.00    -0.003 C 
ATOM     15  C   UNL     1     -47.334  28.458   6.841  1.00  0.00     0.004 C 
ENDBRANCH  13  14
ENDBRANCH   1  13
TORSDOF 4
ENDMDL
