MODEL 1
REMARK VINA RESULT:    -4.107      0.000      0.000
REMARK INTER + INTRA:          -9.766
REMARK INTER:                  -7.468
REMARK INTRA:                  -2.299
REMARK UNBOUND:                -2.299
REMARK SMILES CCCCCCCCCCCCCCCC(=O)[O-]
REMARK SMILES IDX 9 1 10 2 11 3 12 4 13 5 14 6 15 7 16 8 17 9 18 10 8 11 7 12
REMARK SMILES IDX 6 13 5 14 4 15 3 16 2 17 1 18
REMARK H PARENT
REMARK Flexibility Score: inf
ROOT
ATOM      1  C   UNL     1      98.976   5.253  22.761  1.00  0.00     0.000 C 
ENDROOT
BRANCH   1   2
ATOM      2  C   UNL     1      99.125   3.970  23.598  1.00  0.00     0.000 C 
BRANCH   2   3
ATOM      3  C   UNL     1     100.135   4.120  24.748  1.00  0.00     0.000 C 
BRANCH   3   4
ATOM      4  C   UNL     1     100.035   2.985  25.782  1.00  0.00     0.000 C 
BRANCH   4   5
ATOM      5  C   UNL     1      99.028   1.867  25.440  1.00  0.00     0.000 C 
BRANCH   5   6
ATOM      6  C   UNL     1      99.657   0.506  25.088  1.00  0.00     0.006 C 
BRANCH   6   7
ATOM      7  C   UNL     1     100.009   0.382  23.600  1.00  0.00     0.053 C 
BRANCH   7   8
ATOM      8  C   UNL     1     101.489   0.486  23.403  1.00  0.00     0.041 C 
ATOM      9  O   UNL     1     102.223  -0.525  23.562  1.00  0.00    -0.550 OA
ATOM     10  O   UNL     1     102.062   1.712  23.093  1.00  0.00    -0.550 OA
ENDBRANCH   7   8
ENDBRANCH   6   7
ENDBRANCH   5   6
ENDBRANCH   4   5
ENDBRANCH   3   4
ENDBRANCH   2   3
ENDBRANCH   1   2
BRANCH   1  11
ATOM     11  C   UNL     1      97.549   5.834  22.694  1.00  0.00     0.000 C 
BRANCH  11  12
ATOM     12  C   UNL     1      96.464   4.986  23.380  1.00  0.00    -0.000 C 
BRANCH  12  13
ATOM     13  C   UNL     1      95.418   5.837  24.119  1.00  0.00    -0.000 C 
BRANCH  13  14
ATOM     14  C   UNL     1      95.350   5.502  25.625  1.00  0.00    -0.000 C 
BRANCH  14  15
ATOM     15  C   UNL     1      96.524   4.633  26.118  1.00  0.00    -0.000 C 
BRANCH  15  16
ATOM     16  C   UNL     1      97.426   5.302  27.173  1.00  0.00    -0.000 C 
BRANCH  16  17
ATOM     17  C   UNL     1      98.179   6.550  26.679  1.00  0.00    -0.003 C 
ATOM     18  C   UNL     1      99.312   6.971  27.613  1.00  0.00     0.004 C 
ENDBRANCH  16  17
ENDBRANCH  15  16
ENDBRANCH  14  15
ENDBRANCH  13  14
ENDBRANCH  12  13
ENDBRANCH  11  12
ENDBRANCH   1  11
TORSDOF 14
ENDMDL
MODEL 2
REMARK VINA RESULT:    -4.018      2.860      6.205
REMARK INTER + INTRA:          -9.605
REMARK INTER:                  -7.443
REMARK INTRA:                  -2.162
REMARK UNBOUND:                -2.299
REMARK SMILES CCCCCCCCCCCCCCCC(=O)[O-]
REMARK SMILES IDX 9 1 10 2 11 3 12 4 13 5 14 6 15 7 16 8 17 9 18 10 8 11 7 12
REMARK SMILES IDX 6 13 5 14 4 15 3 16 2 17 1 18
REMARK H PARENT
REMARK Flexibility Score: inf
ROOT
ATOM      1  C   UNL     1     102.841   3.018  26.767  1.00  0.00     0.000 C 
ENDROOT
BRANCH   1   2
ATOM      2  C   UNL     1     102.217   4.208  26.015  1.00  0.00     0.000 C 
BRANCH   2   3
ATOM      3  C   UNL     1     101.080   4.880  26.802  1.00  0.00     0.000 C 
BRANCH   3   4
ATOM      4  C   UNL     1      99.726   4.810  26.072  1.00  0.00     0.000 C 
BRANCH   4   5
ATOM      5  C   UNL     1      98.531   4.362  26.939  1.00  0.00     0.000 C 
BRANCH   5   6
ATOM      6  C   UNL     1      97.187   4.259  26.195  1.00  0.00     0.006 C 
BRANCH   6   7
ATOM      7  C   UNL     1      96.864   2.829  25.746  1.00  0.00     0.053 C 
BRANCH   7   8
ATOM      8  C   UNL     1      96.552   2.800  24.282  1.00  0.00     0.041 C 
ATOM      9  O   UNL     1      96.373   3.873  23.650  1.00  0.00    -0.550 OA
ATOM     10  O   UNL     1      96.410   1.583  23.628  1.00  0.00    -0.550 OA
ENDBRANCH   7   8
ENDBRANCH   6   7
ENDBRANCH   5   6
ENDBRANCH   4   5
ENDBRANCH   3   4
ENDBRANCH   2   3
ENDBRANCH   1   2
BRANCH   1  11
ATOM     11  C   UNL     1     103.989   2.300  26.027  1.00  0.00     0.000 C 
BRANCH  11  12
ATOM     12  C   UNL     1     103.992   2.475  24.498  1.00  0.00    -0.000 C 
BRANCH  12  13
ATOM     13  C   UNL     1     103.906   1.137  23.744  1.00  0.00    -0.000 C 
BRANCH  13  14
ATOM     14  C   UNL     1     102.467   0.816  23.287  1.00  0.00    -0.000 C 
BRANCH  14  15
ATOM     15  C   UNL     1     101.585   2.066  23.095  1.00  0.00    -0.000 C 
BRANCH  15  16
ATOM     16  C   UNL     1     100.184   1.973  23.730  1.00  0.00    -0.000 C 
BRANCH  16  17
ATOM     17  C   UNL     1     100.141   1.268  25.098  1.00  0.00    -0.003 C 
ATOM     18  C   UNL     1      99.626  -0.167  25.012  1.00  0.00     0.004 C 
ENDBRANCH  16  17
ENDBRANCH  15  16
ENDBRANCH  14  15
ENDBRANCH  13  14
ENDBRANCH  12  13
ENDBRANCH  11  12
ENDBRANCH   1  11
TORSDOF 14
ENDMDL
MODEL 3
REMARK VINA RESULT:    -3.994      1.990      3.436
REMARK INTER + INTRA:          -9.561
REMARK INTER:                  -7.354
REMARK INTRA:                  -2.207
REMARK UNBOUND:                -2.299
REMARK SMILES CCCCCCCCCCCCCCCC(=O)[O-]
REMARK SMILES IDX 9 1 10 2 11 3 12 4 13 5 14 6 15 7 16 8 17 9 18 10 8 11 7 12
REMARK SMILES IDX 6 13 5 14 4 15 3 16 2 17 1 18
REMARK H PARENT
REMARK Flexibility Score: inf
ROOT
ATOM      1  C   UNL     1      99.959   4.894  26.522  1.00  0.00     0.000 C 
ENDROOT
BRANCH   1   2
ATOM      2  C   UNL     1     101.466   4.685  26.283  1.00  0.00     0.000 C 
BRANCH   2   3
ATOM      3  C   UNL     1     101.978   3.346  26.838  1.00  0.00     0.000 C 
BRANCH   3   4
ATOM      4  C   UNL     1     102.831   2.566  25.822  1.00  0.00     0.000 C 
BRANCH   4   5
ATOM      5  C   UNL     1     102.402   2.717  24.347  1.00  0.00     0.000 C 
BRANCH   5   6
ATOM      6  C   UNL     1     101.523   1.576  23.802  1.00  0.00     0.006 C 
BRANCH   6   7
ATOM      7  C   UNL     1     100.058   1.993  23.617  1.00  0.00     0.053 C 
BRANCH   7   8
ATOM      8  C   UNL     1      99.152   1.055  24.352  1.00  0.00     0.041 C 
ATOM      9  O   UNL     1      99.597   0.352  25.297  1.00  0.00    -0.550 OA
ATOM     10  O   UNL     1      97.826   0.922  23.960  1.00  0.00    -0.550 OA
ENDBRANCH   7   8
ENDBRANCH   6   7
ENDBRANCH   5   6
ENDBRANCH   4   5
ENDBRANCH   3   4
ENDBRANCH   2   3
ENDBRANCH   1   2
BRANCH   1  11
ATOM     11  C   UNL     1      99.180   3.635  26.952  1.00  0.00     0.000 C 
BRANCH  11  12
ATOM     12  C   UNL     1      97.669   3.841  27.162  1.00  0.00    -0.000 C 
BRANCH  12  13
ATOM     13  C   UNL     1      97.239   5.309  27.003  1.00  0.00    -0.000 C 
BRANCH  13  14
ATOM     14  C   UNL     1      96.136   5.482  25.936  1.00  0.00    -0.000 C 
BRANCH  14  15
ATOM     15  C   UNL     1      95.921   4.232  25.061  1.00  0.00    -0.000 C 
BRANCH  15  16
ATOM     16  C   UNL     1      96.521   4.321  23.645  1.00  0.00    -0.000 C 
BRANCH  16  17
ATOM     17  C   UNL     1      97.359   5.584  23.378  1.00  0.00    -0.003 C 
ATOM     18  C   UNL     1      98.782   5.270  22.922  1.00  0.00     0.004 C 
ENDBRANCH  16  17
ENDBRANCH  15  16
ENDBRANCH  14  15
ENDBRANCH  13  14
ENDBRANCH  12  13
ENDBRANCH  11  12
ENDBRANCH   1  11
TORSDOF 14
ENDMDL
MODEL 4
REMARK VINA RESULT:    -3.990      3.080      6.290
REMARK INTER + INTRA:          -9.553
REMARK INTER:                  -7.352
REMARK INTRA:                  -2.202
REMARK UNBOUND:                -2.299
REMARK SMILES CCCCCCCCCCCCCCCC(=O)[O-]
REMARK SMILES IDX 9 1 10 2 11 3 12 4 13 5 14 6 15 7 16 8 17 9 18 10 8 11 7 12
REMARK SMILES IDX 6 13 5 14 4 15 3 16 2 17 1 18
REMARK H PARENT
REMARK Flexibility Score: inf
ROOT
ATOM      1  C   UNL     1      98.545   3.201  26.518  1.00  0.00     0.000 C 
ENDROOT
BRANCH   1   2
ATOM      2  C   UNL     1      98.137   4.091  27.705  1.00  0.00     0.000 C 
BRANCH   2   3
ATOM      3  C   UNL     1      97.232   5.263  27.290  1.00  0.00     0.000 C 
BRANCH   3   4
ATOM      4  C   UNL     1      97.994   6.369  26.539  1.00  0.00     0.000 C 
BRANCH   4   5
ATOM      5  C   UNL     1      97.234   7.010  25.359  1.00  0.00     0.000 C 
BRANCH   5   6
ATOM      6  C   UNL     1      95.734   6.670  25.285  1.00  0.00     0.006 C 
BRANCH   6   7
ATOM      7  C   UNL     1      95.371   5.856  24.036  1.00  0.00     0.053 C 
BRANCH   7   8
ATOM      8  C   UNL     1      95.570   6.678  22.802  1.00  0.00     0.041 C 
ATOM      9  O   UNL     1      95.012   7.801  22.690  1.00  0.00    -0.550 OA
ATOM     10  O   UNL     1      96.333   6.181  21.754  1.00  0.00    -0.550 OA
ENDBRANCH   7   8
ENDBRANCH   6   7
ENDBRANCH   5   6
ENDBRANCH   4   5
ENDBRANCH   3   4
ENDBRANCH   2   3
ENDBRANCH   1   2
BRANCH   1  11
ATOM     11  C   UNL     1      97.424   2.904  25.501  1.00  0.00     0.000 C 
BRANCH  11  12
ATOM     12  C   UNL     1      97.795   3.149  24.028  1.00  0.00    -0.000 C 
BRANCH  12  13
ATOM     13  C   UNL     1      99.056   4.014  23.866  1.00  0.00    -0.000 C 
BRANCH  13  14
ATOM     14  C   UNL     1     100.236   3.219  23.266  1.00  0.00    -0.000 C 
BRANCH  14  15
ATOM     15  C   UNL     1     101.441   3.087  24.219  1.00  0.00    -0.000 C 
BRANCH  15  16
ATOM     16  C   UNL     1     101.661   1.675  24.793  1.00  0.00    -0.000 C 
BRANCH  16  17
ATOM     17  C   UNL     1     100.501   0.692  24.551  1.00  0.00    -0.003 C 
ATOM     18  C   UNL     1     100.898  -0.493  23.672  1.00  0.00     0.004 C 
ENDBRANCH  16  17
ENDBRANCH  15  16
ENDBRANCH  14  15
ENDBRANCH  13  14
ENDBRANCH  12  13
ENDBRANCH  11  12
ENDBRANCH   1  11
TORSDOF 14
ENDMDL
MODEL 5
REMARK VINA RESULT:    -3.984      2.870      6.131
REMARK INTER + INTRA:          -9.543
REMARK INTER:                  -7.486
REMARK INTRA:                  -2.057
REMARK UNBOUND:                -2.299
REMARK SMILES CCCCCCCCCCCCCCCC(=O)[O-]
REMARK SMILES IDX 9 1 10 2 11 3 12 4 13 5 14 6 15 7 16 8 17 9 18 10 8 11 7 12
REMARK SMILES IDX 6 13 5 14 4 15 3 16 2 17 1 18
REMARK H PARENT
REMARK Flexibility Score: inf
ROOT
ATOM      1  C   UNL     1      99.497   3.217  23.630  1.00  0.00     0.000 C 
ENDROOT
BRANCH   1   2
ATOM      2  C   UNL     1     100.122   4.206  24.629  1.00  0.00     0.000 C 
BRANCH   2   3
ATOM      3  C   UNL     1      99.777   3.876  26.091  1.00  0.00     0.000 C 
BRANCH   3   4
ATOM      4  C   UNL     1      99.168   5.072  26.845  1.00  0.00     0.000 C 
BRANCH   4   5
ATOM      5  C   UNL     1      97.916   5.695  26.194  1.00  0.00     0.000 C 
BRANCH   5   6
ATOM      6  C   UNL     1      96.685   4.772  26.129  1.00  0.00     0.006 C 
BRANCH   6   7
ATOM      7  C   UNL     1      95.473   5.444  25.471  1.00  0.00     0.053 C 
BRANCH   7   8
ATOM      8  C   UNL     1      95.772   5.777  24.043  1.00  0.00     0.041 C 
ATOM      9  O   UNL     1      96.180   4.885  23.254  1.00  0.00    -0.550 OA
ATOM     10  O   UNL     1      95.647   7.086  23.596  1.00  0.00    -0.550 OA
ENDBRANCH   7   8
ENDBRANCH   6   7
ENDBRANCH   5   6
ENDBRANCH   4   5
ENDBRANCH   3   4
ENDBRANCH   2   3
ENDBRANCH   1   2
BRANCH   1  11
ATOM     11  C   UNL     1      98.439   2.263  24.220  1.00  0.00     0.000 C 
BRANCH  11  12
ATOM     12  C   UNL     1      98.756   0.764  24.075  1.00  0.00    -0.000 C 
BRANCH  12  13
ATOM     13  C   UNL     1      99.931   0.314  24.960  1.00  0.00    -0.000 C 
BRANCH  13  14
ATOM     14  C   UNL     1     100.969  -0.516  24.174  1.00  0.00    -0.000 C 
BRANCH  14  15
ATOM     15  C   UNL     1     101.871   0.332  23.256  1.00  0.00    -0.000 C 
BRANCH  15  16
ATOM     16  C   UNL     1     103.200   0.784  23.892  1.00  0.00    -0.000 C 
BRANCH  16  17
ATOM     17  C   UNL     1     103.247   2.267  24.302  1.00  0.00    -0.003 C 
ATOM     18  C   UNL     1     103.269   2.465  25.817  1.00  0.00     0.004 C 
ENDBRANCH  16  17
ENDBRANCH  15  16
ENDBRANCH  14  15
ENDBRANCH  13  14
ENDBRANCH  12  13
ENDBRANCH  11  12
ENDBRANCH   1  11
TORSDOF 14
ENDMDL
MODEL 6
REMARK VINA RESULT:    -3.983      1.703      3.256
REMARK INTER + INTRA:          -9.542
REMARK INTER:                  -7.174
REMARK INTRA:                  -2.368
REMARK UNBOUND:                -2.299
REMARK SMILES CCCCCCCCCCCCCCCC(=O)[O-]
REMARK SMILES IDX 9 1 10 2 11 3 12 4 13 5 14 6 15 7 16 8 17 9 18 10 8 11 7 12
REMARK SMILES IDX 6 13 5 14 4 15 3 16 2 17 1 18
REMARK H PARENT
REMARK Flexibility Score: inf
ROOT
ATOM      1  C   UNL     1      98.999   4.658  26.216  1.00  0.00     0.000 C 
ENDROOT
BRANCH   1   2
ATOM      2  C   UNL     1     100.322   4.562  26.997  1.00  0.00     0.000 C 
BRANCH   2   3
ATOM      3  C   UNL     1     101.189   3.371  26.558  1.00  0.00     0.000 C 
BRANCH   3   4
ATOM      4  C   UNL     1     102.279   3.768  25.546  1.00  0.00     0.000 C 
BRANCH   4   5
ATOM      5  C   UNL     1     102.862   2.606  24.714  1.00  0.00     0.000 C 
BRANCH   5   6
ATOM      6  C   UNL     1     102.010   1.324  24.694  1.00  0.00     0.006 C 
BRANCH   6   7
ATOM      7  C   UNL     1     101.219   1.157  23.390  1.00  0.00     0.053 C 
BRANCH   7   8
ATOM      8  C   UNL     1     100.224   0.048  23.522  1.00  0.00     0.041 C 
ATOM      9  O   UNL     1     100.147  -0.846  22.639  1.00  0.00    -0.550 OA
ATOM     10  O   UNL     1      99.346   0.029  24.599  1.00  0.00    -0.550 OA
ENDBRANCH   7   8
ENDBRANCH   6   7
ENDBRANCH   5   6
ENDBRANCH   4   5
ENDBRANCH   3   4
ENDBRANCH   2   3
ENDBRANCH   1   2
BRANCH   1  11
ATOM     11  C   UNL     1      98.550   3.359  25.517  1.00  0.00     0.000 C 
BRANCH  11  12
ATOM     12  C   UNL     1      98.403   3.456  23.989  1.00  0.00    -0.000 C 
BRANCH  12  13
ATOM     13  C   UNL     1      99.311   4.532  23.369  1.00  0.00    -0.000 C 
BRANCH  13  14
ATOM     14  C   UNL     1      98.507   5.602  22.600  1.00  0.00    -0.000 C 
BRANCH  14  15
ATOM     15  C   UNL     1      97.087   5.828  23.157  1.00  0.00    -0.000 C 
BRANCH  15  16
ATOM     16  C   UNL     1      96.952   7.024  24.118  1.00  0.00    -0.000 C 
BRANCH  16  17
ATOM     17  C   UNL     1      95.979   6.801  25.291  1.00  0.00    -0.003 C 
ATOM     18  C   UNL     1      95.428   5.377  25.346  1.00  0.00     0.004 C 
ENDBRANCH  16  17
ENDBRANCH  15  16
ENDBRANCH  14  15
ENDBRANCH  13  14
ENDBRANCH  12  13
ENDBRANCH  11  12
ENDBRANCH   1  11
TORSDOF 14
ENDMDL
MODEL 7
REMARK VINA RESULT:    -3.967      3.573      6.490
REMARK INTER + INTRA:          -9.513
REMARK INTER:                  -7.634
REMARK INTRA:                  -1.878
REMARK UNBOUND:                -2.299
REMARK SMILES CCCCCCCCCCCCCCCC(=O)[O-]
REMARK SMILES IDX 9 1 10 2 11 3 12 4 13 5 14 6 15 7 16 8 17 9 18 10 8 11 7 12
REMARK SMILES IDX 6 13 5 14 4 15 3 16 2 17 1 18
REMARK H PARENT
REMARK Flexibility Score: inf
ROOT
ATOM      1  C   UNL     1     100.216   3.822  24.971  1.00  0.00     0.000 C 
ENDROOT
BRANCH   1   2
ATOM      2  C   UNL     1      99.427   2.969  25.980  1.00  0.00     0.000 C 
BRANCH   2   3
ATOM      3  C   UNL     1      97.977   3.448  26.162  1.00  0.00     0.000 C 
BRANCH   3   4
ATOM      4  C   UNL     1      96.966   2.606  25.362  1.00  0.00     0.000 C 
BRANCH   4   5
ATOM      5  C   UNL     1      96.590   3.167  23.975  1.00  0.00     0.000 C 
BRANCH   5   6
ATOM      6  C   UNL     1      96.901   4.661  23.768  1.00  0.00     0.006 C 
BRANCH   6   7
ATOM      7  C   UNL     1      95.643   5.538  23.787  1.00  0.00     0.053 C 
BRANCH   7   8
ATOM      8  C   UNL     1      95.521   6.246  25.100  1.00  0.00     0.041 C 
ATOM      9  O   UNL     1      95.801   7.471  25.190  1.00  0.00    -0.550 OA
ATOM     10  O   UNL     1      95.145   5.541  26.235  1.00  0.00    -0.550 OA
ENDBRANCH   7   8
ENDBRANCH   6   7
ENDBRANCH   5   6
ENDBRANCH   4   5
ENDBRANCH   3   4
ENDBRANCH   2   3
ENDBRANCH   1   2
BRANCH   1  11
ATOM     11  C   UNL     1     100.700   3.073  23.712  1.00  0.00     0.000 C 
BRANCH  11  12
ATOM     12  C   UNL     1     100.594   1.540  23.782  1.00  0.00    -0.000 C 
BRANCH  12  13
ATOM     13  C   UNL     1     101.960   0.853  23.946  1.00  0.00    -0.000 C 
BRANCH  13  14
ATOM     14  C   UNL     1     103.131   1.856  23.869  1.00  0.00    -0.000 C 
BRANCH  14  15
ATOM     15  C   UNL     1     104.355   1.445  24.712  1.00  0.00    -0.000 C 
BRANCH  15  16
ATOM     16  C   UNL     1     104.633   2.344  25.931  1.00  0.00    -0.000 C 
BRANCH  16  17
ATOM     17  C   UNL     1     103.375   2.905  26.619  1.00  0.00    -0.003 C 
ATOM     18  C   UNL     1     103.404   4.425  26.765  1.00  0.00     0.004 C 
ENDBRANCH  16  17
ENDBRANCH  15  16
ENDBRANCH  14  15
ENDBRANCH  13  14
ENDBRANCH  12  13
ENDBRANCH  11  12
ENDBRANCH   1  11
TORSDOF 14
ENDMDL
MODEL 8
REMARK VINA RESULT:    -3.945      2.880      6.393
REMARK INTER + INTRA:          -9.472
REMARK INTER:                  -7.834
REMARK INTRA:                  -1.638
REMARK UNBOUND:                -2.299
REMARK SMILES CCCCCCCCCCCCCCCC(=O)[O-]
REMARK SMILES IDX 9 1 10 2 11 3 12 4 13 5 14 6 15 7 16 8 17 9 18 10 8 11 7 12
REMARK SMILES IDX 6 13 5 14 4 15 3 16 2 17 1 18
REMARK H PARENT
REMARK Flexibility Score: inf
ROOT
ATOM      1  C   UNL     1      99.107   0.475  23.958  1.00  0.00     0.000 C 
ENDROOT
BRANCH   1   2
ATOM      2  C   UNL     1      98.867   1.858  24.591  1.00  0.00     0.000 C 
BRANCH   2   3
ATOM      3  C   UNL     1      99.502   1.995  25.984  1.00  0.00     0.000 C 
BRANCH   3   4
ATOM      4  C   UNL     1      99.290   3.389  26.602  1.00  0.00     0.000 C 
BRANCH   4   5
ATOM      5  C   UNL     1      97.856   3.683  27.090  1.00  0.00     0.000 C 
BRANCH   5   6
ATOM      6  C   UNL     1      97.304   5.067  26.702  1.00  0.00     0.006 C 
BRANCH   6   7
ATOM      7  C   UNL     1      96.118   4.983  25.733  1.00  0.00     0.053 C 
BRANCH   7   8
ATOM      8  C   UNL     1      96.592   4.639  24.356  1.00  0.00     0.041 C 
ATOM      9  O   UNL     1      96.058   3.694  23.718  1.00  0.00    -0.550 OA
ATOM     10  O   UNL     1      97.658   5.332  23.796  1.00  0.00    -0.550 OA
ENDBRANCH   7   8
ENDBRANCH   6   7
ENDBRANCH   5   6
ENDBRANCH   4   5
ENDBRANCH   3   4
ENDBRANCH   2   3
ENDBRANCH   1   2
BRANCH   1  11
ATOM     11  C   UNL     1      99.952  -0.499  24.804  1.00  0.00     0.000 C 
BRANCH  11  12
ATOM     12  C   UNL     1     101.082  -1.215  24.043  1.00  0.00    -0.000 C 
BRANCH  12  13
ATOM     13  C   UNL     1     101.779  -0.307  23.015  1.00  0.00    -0.000 C 
BRANCH  13  14
ATOM     14  C   UNL     1     102.984   0.444  23.621  1.00  0.00    -0.000 C 
BRANCH  14  15
ATOM     15  C   UNL     1     102.675   1.905  24.001  1.00  0.00    -0.000 C 
BRANCH  15  16
ATOM     16  C   UNL     1     103.192   2.337  25.387  1.00  0.00    -0.000 C 
BRANCH  16  17
ATOM     17  C   UNL     1     104.686   2.059  25.633  1.00  0.00    -0.003 C 
ATOM     18  C   UNL     1     105.218   2.738  26.893  1.00  0.00     0.004 C 
ENDBRANCH  16  17
ENDBRANCH  15  16
ENDBRANCH  14  15
ENDBRANCH  13  14
ENDBRANCH  12  13
ENDBRANCH  11  12
ENDBRANCH   1  11
TORSDOF 14
ENDMDL
MODEL 9
REMARK VINA RESULT:    -3.921      3.372      6.480
REMARK INTER + INTRA:          -9.428
REMARK INTER:                  -7.416
REMARK INTRA:                  -2.012
REMARK UNBOUND:                -2.299
REMARK SMILES CCCCCCCCCCCCCCCC(=O)[O-]
REMARK SMILES IDX 9 1 10 2 11 3 12 4 13 5 14 6 15 7 16 8 17 9 18 10 8 11 7 12
REMARK SMILES IDX 6 13 5 14 4 15 3 16 2 17 1 18
REMARK H PARENT
REMARK Flexibility Score: inf
ROOT
ATOM      1  C   UNL     1      99.289   4.654  27.735  1.00  0.00     0.000 C 
ENDROOT
BRANCH   1   2
ATOM      2  C   UNL     1      98.031   3.819  27.439  1.00  0.00     0.000 C 
BRANCH   2   3
ATOM      3  C   UNL     1      98.147   3.003  26.141  1.00  0.00     0.000 C 
BRANCH   3   4
ATOM      4  C   UNL     1      96.846   3.002  25.318  1.00  0.00     0.000 C 
BRANCH   4   5
ATOM      5  C   UNL     1      96.841   3.936  24.091  1.00  0.00     0.000 C 
BRANCH   5   6
ATOM      6  C   UNL     1      95.758   5.031  24.107  1.00  0.00     0.006 C 
BRANCH   6   7
ATOM      7  C   UNL     1      95.635   5.725  25.469  1.00  0.00     0.053 C 
BRANCH   7   8
ATOM      8  C   UNL     1      96.332   7.049  25.445  1.00  0.00     0.041 C 
ATOM      9  O   UNL     1      97.417   7.208  26.065  1.00  0.00    -0.550 OA
ATOM     10  O   UNL     1      95.758   8.123  24.776  1.00  0.00    -0.550 OA
ENDBRANCH   7   8
ENDBRANCH   6   7
ENDBRANCH   5   6
ENDBRANCH   4   5
ENDBRANCH   3   4
ENDBRANCH   2   3
ENDBRANCH   1   2
BRANCH   1  11
ATOM     11  C   UNL     1     100.166   4.982  26.509  1.00  0.00     0.000 C 
BRANCH  11  12
ATOM     12  C   UNL     1     101.676   4.764  26.707  1.00  0.00    -0.000 C 
BRANCH  12  13
ATOM     13  C   UNL     1     102.043   3.285  26.915  1.00  0.00    -0.000 C 
BRANCH  13  14
ATOM     14  C   UNL     1     103.301   2.877  26.119  1.00  0.00    -0.000 C 
BRANCH  14  15
ATOM     15  C   UNL     1     103.030   1.816  25.035  1.00  0.00    -0.000 C 
BRANCH  15  16
ATOM     16  C   UNL     1     101.560   1.708  24.587  1.00  0.00    -0.000 C 
BRANCH  16  17
ATOM     17  C   UNL     1     101.282   2.215  23.160  1.00  0.00    -0.003 C 
ATOM     18  C   UNL     1     100.344   3.420  23.128  1.00  0.00     0.004 C 
ENDBRANCH  16  17
ENDBRANCH  15  16
ENDBRANCH  14  15
ENDBRANCH  13  14
ENDBRANCH  12  13
ENDBRANCH  11  12
ENDBRANCH   1  11
TORSDOF 14
ENDMDL
