MODEL 1
REMARK VINA RESULT:    -4.009      0.000      0.000
REMARK INTER + INTRA:          -8.254
REMARK INTER:                  -6.821
REMARK INTRA:                  -1.434
REMARK UNBOUND:                -1.434
REMARK SMILES CCCCCCCCCCCCCC(=O)[O-]
REMARK SMILES IDX 8 1 9 2 10 3 11 4 12 5 13 6 14 7 15 8 16 9 7 10 6 11 5 12
REMARK SMILES IDX 4 13 3 14 2 15 1 16
REMARK H PARENT
REMARK Flexibility Score: inf
ROOT
ATOM      1  C   UNL     1       0.207   6.597   7.318  1.00  0.00     0.000 C 
ENDROOT
BRANCH   1   2
ATOM      2  C   UNL     1       1.211   5.466   7.054  1.00  0.00     0.000 C 
BRANCH   2   3
ATOM      3  C   UNL     1       2.655   5.862   7.404  1.00  0.00     0.000 C 
BRANCH   3   4
ATOM      4  C   UNL     1       3.359   4.817   8.282  1.00  0.00     0.000 C 
BRANCH   4   5
ATOM      5  C   UNL     1       4.059   3.757   7.419  1.00  0.00     0.006 C 
BRANCH   5   6
ATOM      6  C   UNL     1       5.468   4.191   6.992  1.00  0.00     0.053 C 
BRANCH   6   7
ATOM      7  C   UNL     1       6.101   3.194   6.071  1.00  0.00     0.041 C 
ATOM      8  O   UNL     1       6.759   3.584   5.071  1.00  0.00    -0.550 OA
ATOM      9  O   UNL     1       5.994   1.834   6.336  1.00  0.00    -0.550 OA
ENDBRANCH   6   7
ENDBRANCH   5   6
ENDBRANCH   4   5
ENDBRANCH   3   4
ENDBRANCH   2   3
ENDBRANCH   1   2
BRANCH   1  10
ATOM     10  C   UNL     1       0.877   7.970   7.184  1.00  0.00     0.000 C 
BRANCH  10  11
ATOM     11  C   UNL     1       0.118   8.861   6.195  1.00  0.00    -0.000 C 
BRANCH  11  12
ATOM     12  C   UNL     1      -0.026   8.170   4.831  1.00  0.00    -0.000 C 
BRANCH  12  13
ATOM     13  C   UNL     1       1.321   7.987   4.112  1.00  0.00    -0.000 C 
BRANCH  13  14
ATOM     14  C   UNL     1       1.420   6.639   3.378  1.00  0.00    -0.000 C 
BRANCH  14  15
ATOM     15  C   UNL     1       2.873   6.242   3.069  1.00  0.00    -0.003 C 
ATOM     16  C   UNL     1       3.377   5.102   3.953  1.00  0.00     0.004 C 
ENDBRANCH  14  15
ENDBRANCH  13  14
ENDBRANCH  12  13
ENDBRANCH  11  12
ENDBRANCH  10  11
ENDBRANCH   1  10
TORSDOF 12
ENDMDL
MODEL 2
REMARK VINA RESULT:    -3.985     12.081     14.002
REMARK INTER + INTRA:          -8.215
REMARK INTER:                  -6.925
REMARK INTRA:                  -1.289
REMARK UNBOUND:                -1.434
REMARK SMILES CCCCCCCCCCCCCC(=O)[O-]
REMARK SMILES IDX 8 1 9 2 10 3 11 4 12 5 13 6 14 7 15 8 16 9 7 10 6 11 5 12
REMARK SMILES IDX 4 13 3 14 2 15 1 16
REMARK H PARENT
REMARK Flexibility Score: inf
ROOT
ATOM      1  C   UNL     1      -1.117  -5.347   2.572  1.00  0.00     0.000 C 
ENDROOT
BRANCH   1   2
ATOM      2  C   UNL     1      -2.554  -5.355   2.031  1.00  0.00     0.000 C 
BRANCH   2   3
ATOM      3  C   UNL     1      -3.345  -4.099   2.432  1.00  0.00     0.000 C 
BRANCH   3   4
ATOM      4  C   UNL     1      -3.114  -3.696   3.896  1.00  0.00     0.000 C 
BRANCH   4   5
ATOM      5  C   UNL     1      -4.176  -4.320   4.812  1.00  0.00     0.006 C 
BRANCH   5   6
ATOM      6  C   UNL     1      -4.206  -3.666   6.200  1.00  0.00     0.053 C 
BRANCH   6   7
ATOM      7  C   UNL     1      -5.603  -3.538   6.725  1.00  0.00     0.041 C 
ATOM      8  O   UNL     1      -6.067  -4.408   7.508  1.00  0.00    -0.550 OA
ATOM      9  O   UNL     1      -6.380  -2.440   6.376  1.00  0.00    -0.550 OA
ENDBRANCH   6   7
ENDBRANCH   5   6
ENDBRANCH   4   5
ENDBRANCH   3   4
ENDBRANCH   2   3
ENDBRANCH   1   2
BRANCH   1  10
ATOM     10  C   UNL     1      -0.654  -6.766   2.925  1.00  0.00     0.000 C 
BRANCH  10  11
ATOM     11  C   UNL     1      -1.423  -7.313   4.133  1.00  0.00    -0.000 C 
BRANCH  11  12
ATOM     12  C   UNL     1      -1.007  -6.589   5.423  1.00  0.00    -0.000 C 
BRANCH  12  13
ATOM     13  C   UNL     1      -1.069  -7.498   6.661  1.00  0.00    -0.000 C 
BRANCH  13  14
ATOM     14  C   UNL     1      -0.083  -8.676   6.579  1.00  0.00    -0.000 C 
BRANCH  14  15
ATOM     15  C   UNL     1       1.384  -8.219   6.624  1.00  0.00    -0.003 C 
ATOM     16  C   UNL     1       2.124  -8.471   5.310  1.00  0.00     0.004 C 
ENDBRANCH  14  15
ENDBRANCH  13  14
ENDBRANCH  12  13
ENDBRANCH  11  12
ENDBRANCH  10  11
ENDBRANCH   1  10
TORSDOF 12
ENDMDL
MODEL 3
REMARK VINA RESULT:    -3.972      5.406      8.105
REMARK INTER + INTRA:          -8.191
REMARK INTER:                  -7.311
REMARK INTRA:                  -0.880
REMARK UNBOUND:                -1.434
REMARK SMILES CCCCCCCCCCCCCC(=O)[O-]
REMARK SMILES IDX 8 1 9 2 10 3 11 4 12 5 13 6 14 7 15 8 16 9 7 10 6 11 5 12
REMARK SMILES IDX 4 13 3 14 2 15 1 16
REMARK H PARENT
REMARK Flexibility Score: inf
ROOT
ATOM      1  C   UNL     1       2.248   4.815  -0.716  1.00  0.00     0.000 C 
ENDROOT
BRANCH   1   2
ATOM      2  C   UNL     1       1.999   5.486  -2.075  1.00  0.00     0.000 C 
BRANCH   2   3
ATOM      3  C   UNL     1       3.115   6.471  -2.463  1.00  0.00     0.000 C 
BRANCH   3   4
ATOM      4  C   UNL     1       4.375   6.307  -1.602  1.00  0.00     0.000 C 
BRANCH   4   5
ATOM      5  C   UNL     1       5.631   6.719  -2.383  1.00  0.00     0.006 C 
BRANCH   5   6
ATOM      6  C   UNL     1       6.625   5.561  -2.544  1.00  0.00     0.053 C 
BRANCH   6   7
ATOM      7  C   UNL     1       6.820   5.190  -3.982  1.00  0.00     0.041 C 
ATOM      8  O   UNL     1       6.069   4.336  -4.522  1.00  0.00    -0.550 OA
ATOM      9  O   UNL     1       7.808   5.812  -4.734  1.00  0.00    -0.550 OA
ENDBRANCH   6   7
ENDBRANCH   5   6
ENDBRANCH   4   5
ENDBRANCH   3   4
ENDBRANCH   2   3
ENDBRANCH   1   2
BRANCH   1  10
ATOM     10  C   UNL     1       0.971   4.801   0.132  1.00  0.00     0.000 C 
BRANCH  10  11
ATOM     11  C   UNL     1       1.285   5.068   1.609  1.00  0.00    -0.000 C 
BRANCH  11  12
ATOM     12  C   UNL     1       2.729   5.563   1.783  1.00  0.00    -0.000 C 
BRANCH  12  13
ATOM     13  C   UNL     1       3.057   5.941   3.237  1.00  0.00    -0.000 C 
BRANCH  13  14
ATOM     14  C   UNL     1       1.811   6.363   4.033  1.00  0.00    -0.000 C 
BRANCH  14  15
ATOM     15  C   UNL     1       1.558   7.878   3.970  1.00  0.00    -0.003 C 
ATOM     16  C   UNL     1       0.212   8.281   4.573  1.00  0.00     0.004 C 
ENDBRANCH  14  15
ENDBRANCH  13  14
ENDBRANCH  12  13
ENDBRANCH  11  12
ENDBRANCH  10  11
ENDBRANCH   1  10
TORSDOF 12
ENDMDL
MODEL 4
REMARK VINA RESULT:    -3.958     12.761     13.803
REMARK INTER + INTRA:          -8.169
REMARK INTER:                  -7.081
REMARK INTRA:                  -1.088
REMARK UNBOUND:                -1.434
REMARK SMILES CCCCCCCCCCCCCC(=O)[O-]
REMARK SMILES IDX 8 1 9 2 10 3 11 4 12 5 13 6 14 7 15 8 16 9 7 10 6 11 5 12
REMARK SMILES IDX 4 13 3 14 2 15 1 16
REMARK H PARENT
REMARK Flexibility Score: inf
ROOT
ATOM      1  C   UNL     1      -2.729  -4.938   1.519  1.00  0.00     0.000 C 
ENDROOT
BRANCH   1   2
ATOM      2  C   UNL     1      -3.055  -5.901   2.670  1.00  0.00     0.000 C 
BRANCH   2   3
ATOM      3  C   UNL     1      -2.832  -5.267   4.053  1.00  0.00     0.000 C 
BRANCH   3   4
ATOM      4  C   UNL     1      -1.805  -6.035   4.898  1.00  0.00     0.000 C 
BRANCH   4   5
ATOM      5  C   UNL     1      -1.274  -7.260   4.138  1.00  0.00     0.006 C 
BRANCH   5   6
ATOM      6  C   UNL     1       0.259  -7.307   4.107  1.00  0.00     0.053 C 
BRANCH   6   7
ATOM      7  C   UNL     1       0.804  -8.322   5.065  1.00  0.00     0.041 C 
ATOM      8  O   UNL     1       0.051  -8.847   5.926  1.00  0.00    -0.550 OA
ATOM      9  O   UNL     1       2.135  -8.713   4.983  1.00  0.00    -0.550 OA
ENDBRANCH   6   7
ENDBRANCH   5   6
ENDBRANCH   4   5
ENDBRANCH   3   4
ENDBRANCH   2   3
ENDBRANCH   1   2
BRANCH   1  10
ATOM     10  C   UNL     1      -1.391  -5.297   0.863  1.00  0.00     0.000 C 
BRANCH  10  11
ATOM     11  C   UNL     1      -1.108  -4.397  -0.346  1.00  0.00    -0.000 C 
BRANCH  11  12
ATOM     12  C   UNL     1      -2.352  -4.271  -1.239  1.00  0.00    -0.000 C 
BRANCH  12  13
ATOM     13  C   UNL     1      -2.237  -5.088  -2.536  1.00  0.00    -0.000 C 
BRANCH  13  14
ATOM     14  C   UNL     1      -2.913  -6.466  -2.428  1.00  0.00    -0.000 C 
BRANCH  14  15
ATOM     15  C   UNL     1      -4.369  -6.370  -1.945  1.00  0.00    -0.003 C 
ATOM     16  C   UNL     1      -5.296  -5.726  -2.976  1.00  0.00     0.004 C 
ENDBRANCH  14  15
ENDBRANCH  13  14
ENDBRANCH  12  13
ENDBRANCH  11  12
ENDBRANCH  10  11
ENDBRANCH   1  10
TORSDOF 12
ENDMDL
MODEL 5
REMARK VINA RESULT:    -3.948      1.419      3.517
REMARK INTER + INTRA:          -8.151
REMARK INTER:                  -6.415
REMARK INTRA:                  -1.736
REMARK UNBOUND:                -1.434
REMARK SMILES CCCCCCCCCCCCCC(=O)[O-]
REMARK SMILES IDX 8 1 9 2 10 3 11 4 12 5 13 6 14 7 15 8 16 9 7 10 6 11 5 12
REMARK SMILES IDX 4 13 3 14 2 15 1 16
REMARK H PARENT
REMARK Flexibility Score: inf
ROOT
ATOM      1  C   UNL     1       1.754   7.067   3.639  1.00  0.00     0.000 C 
ENDROOT
BRANCH   1   2
ATOM      2  C   UNL     1       2.998   6.268   3.224  1.00  0.00     0.000 C 
BRANCH   2   3
ATOM      3  C   UNL     1       2.743   4.753   3.186  1.00  0.00     0.000 C 
BRANCH   3   4
ATOM      4  C   UNL     1       2.676   4.129   4.588  1.00  0.00     0.000 C 
BRANCH   4   5
ATOM      5  C   UNL     1       3.833   4.626   5.467  1.00  0.00     0.006 C 
BRANCH   5   6
ATOM      6  C   UNL     1       5.178   4.003   5.068  1.00  0.00     0.053 C 
BRANCH   6   7
ATOM      7  C   UNL     1       5.900   3.435   6.251  1.00  0.00     0.041 C 
ATOM      8  O   UNL     1       6.170   4.167   7.239  1.00  0.00    -0.550 OA
ATOM      9  O   UNL     1       6.244   2.089   6.277  1.00  0.00    -0.550 OA
ENDBRANCH   6   7
ENDBRANCH   5   6
ENDBRANCH   4   5
ENDBRANCH   3   4
ENDBRANCH   2   3
ENDBRANCH   1   2
BRANCH   1  10
ATOM     10  C   UNL     1       0.538   6.670   2.794  1.00  0.00     0.000 C 
BRANCH  10  11
ATOM     11  C   UNL     1      -0.742   6.662   3.638  1.00  0.00    -0.000 C 
BRANCH  11  12
ATOM     12  C   UNL     1      -0.700   5.542   4.689  1.00  0.00    -0.000 C 
BRANCH  12  13
ATOM     13  C   UNL     1      -0.921   6.061   6.120  1.00  0.00    -0.000 C 
BRANCH  13  14
ATOM     14  C   UNL     1       0.215   5.657   7.076  1.00  0.00    -0.000 C 
BRANCH  14  15
ATOM     15  C   UNL     1       1.311   6.730   7.174  1.00  0.00    -0.003 C 
ATOM     16  C   UNL     1       0.751   8.152   7.177  1.00  0.00     0.004 C 
ENDBRANCH  14  15
ENDBRANCH  13  14
ENDBRANCH  12  13
ENDBRANCH  11  12
ENDBRANCH  10  11
ENDBRANCH   1  10
TORSDOF 12
ENDMDL
MODEL 6
REMARK VINA RESULT:    -3.942     13.584     15.377
REMARK INTER + INTRA:          -8.141
REMARK INTER:                  -7.253
REMARK INTRA:                  -0.888
REMARK UNBOUND:                -1.434
REMARK SMILES CCCCCCCCCCCCCC(=O)[O-]
REMARK SMILES IDX 8 1 9 2 10 3 11 4 12 5 13 6 14 7 15 8 16 9 7 10 6 11 5 12
REMARK SMILES IDX 4 13 3 14 2 15 1 16
REMARK H PARENT
REMARK Flexibility Score: inf
ROOT
ATOM      1  C   UNL     1      -3.010  -5.620   2.214  1.00  0.00     0.000 C 
ENDROOT
BRANCH   1   2
ATOM      2  C   UNL     1      -2.407  -4.601   1.236  1.00  0.00     0.000 C 
BRANCH   2   3
ATOM      3  C   UNL     1      -1.743  -5.268   0.020  1.00  0.00     0.000 C 
BRANCH   3   4
ATOM      4  C   UNL     1      -2.363  -4.822  -1.312  1.00  0.00     0.000 C 
BRANCH   4   5
ATOM      5  C   UNL     1      -2.840  -6.033  -2.128  1.00  0.00     0.006 C 
BRANCH   5   6
ATOM      6  C   UNL     1      -4.268  -6.456  -1.763  1.00  0.00     0.053 C 
BRANCH   6   7
ATOM      7  C   UNL     1      -5.221  -6.237  -2.898  1.00  0.00     0.041 C 
ATOM      8  O   UNL     1      -4.925  -5.443  -3.829  1.00  0.00    -0.550 OA
ATOM      9  O   UNL     1      -6.421  -6.936  -2.945  1.00  0.00    -0.550 OA
ENDBRANCH   6   7
ENDBRANCH   5   6
ENDBRANCH   4   5
ENDBRANCH   3   4
ENDBRANCH   2   3
ENDBRANCH   1   2
BRANCH   1  10
ATOM     10  C   UNL     1      -2.187  -5.696   3.505  1.00  0.00     0.000 C 
BRANCH  10  11
ATOM     11  C   UNL     1      -1.391  -7.005   3.576  1.00  0.00    -0.000 C 
BRANCH  11  12
ATOM     12  C   UNL     1       0.116  -6.738   3.449  1.00  0.00    -0.000 C 
BRANCH  12  13
ATOM     13  C   UNL     1       0.937  -7.427   4.552  1.00  0.00    -0.000 C 
BRANCH  13  14
ATOM     14  C   UNL     1       0.204  -8.630   5.170  1.00  0.00    -0.000 C 
BRANCH  14  15
ATOM     15  C   UNL     1       0.123  -8.546   6.703  1.00  0.00    -0.003 C 
ATOM     16  C   UNL     1      -1.021  -7.655   7.188  1.00  0.00     0.004 C 
ENDBRANCH  14  15
ENDBRANCH  13  14
ENDBRANCH  12  13
ENDBRANCH  11  12
ENDBRANCH  10  11
ENDBRANCH   1  10
TORSDOF 12
ENDMDL
MODEL 7
REMARK VINA RESULT:    -3.932     12.556     13.848
REMARK INTER + INTRA:          -8.124
REMARK INTER:                  -7.058
REMARK INTRA:                  -1.066
REMARK UNBOUND:                -1.434
REMARK SMILES CCCCCCCCCCCCCC(=O)[O-]
REMARK SMILES IDX 8 1 9 2 10 3 11 4 12 5 13 6 14 7 15 8 16 9 7 10 6 11 5 12
REMARK SMILES IDX 4 13 3 14 2 15 1 16
REMARK H PARENT
REMARK Flexibility Score: inf
ROOT
ATOM      1  C   UNL     1      -2.053  -4.213   1.443  1.00  0.00     0.000 C 
ENDROOT
BRANCH   1   2
ATOM      2  C   UNL     1      -3.063  -5.217   2.017  1.00  0.00     0.000 C 
BRANCH   2   3
ATOM      3  C   UNL     1      -2.615  -5.803   3.366  1.00  0.00     0.000 C 
BRANCH   3   4
ATOM      4  C   UNL     1      -2.813  -4.825   4.533  1.00  0.00     0.000 C 
BRANCH   4   5
ATOM      5  C   UNL     1      -4.302  -4.517   4.745  1.00  0.00     0.006 C 
BRANCH   5   6
ATOM      6  C   UNL     1      -4.522  -3.292   5.642  1.00  0.00     0.053 C 
BRANCH   6   7
ATOM      7  C   UNL     1      -5.785  -3.407   6.440  1.00  0.00     0.041 C 
ATOM      8  O   UNL     1      -6.747  -2.627   6.217  1.00  0.00    -0.550 OA
ATOM      9  O   UNL     1      -5.910  -4.397   7.407  1.00  0.00    -0.550 OA
ENDBRANCH   6   7
ENDBRANCH   5   6
ENDBRANCH   4   5
ENDBRANCH   3   4
ENDBRANCH   2   3
ENDBRANCH   1   2
BRANCH   1  10
ATOM     10  C   UNL     1      -1.142  -4.882   0.407  1.00  0.00     0.000 C 
BRANCH  10  11
ATOM     11  C   UNL     1      -0.964  -3.992  -0.829  1.00  0.00    -0.000 C 
BRANCH  11  12
ATOM     12  C   UNL     1      -0.967  -4.831  -2.115  1.00  0.00    -0.000 C 
BRANCH  12  13
ATOM     13  C   UNL     1      -2.376  -5.014  -2.703  1.00  0.00    -0.000 C 
BRANCH  13  14
ATOM     14  C   UNL     1      -2.935  -6.429  -2.468  1.00  0.00    -0.000 C 
BRANCH  14  15
ATOM     15  C   UNL     1      -4.351  -6.410  -1.871  1.00  0.00    -0.003 C 
ATOM     16  C   UNL     1      -4.785  -5.017  -1.416  1.00  0.00     0.004 C 
ENDBRANCH  14  15
ENDBRANCH  13  14
ENDBRANCH  12  13
ENDBRANCH  11  12
ENDBRANCH  10  11
ENDBRANCH   1  10
TORSDOF 12
ENDMDL
MODEL 8
REMARK VINA RESULT:    -3.922     13.965     15.672
REMARK INTER + INTRA:          -8.108
REMARK INTER:                  -7.338
REMARK INTRA:                  -0.769
REMARK UNBOUND:                -1.434
REMARK SMILES CCCCCCCCCCCCCC(=O)[O-]
REMARK SMILES IDX 8 1 9 2 10 3 11 4 12 5 13 6 14 7 15 8 16 9 7 10 6 11 5 12
REMARK SMILES IDX 4 13 3 14 2 15 1 16
REMARK H PARENT
REMARK Flexibility Score: inf
ROOT
ATOM      1  C   UNL     1      -1.568  -4.019   0.018  1.00  0.00     0.000 C 
ENDROOT
BRANCH   1   2
ATOM      2  C   UNL     1      -2.675  -4.411  -0.971  1.00  0.00     0.000 C 
BRANCH   2   3
ATOM      3  C   UNL     1      -2.161  -5.299  -2.116  1.00  0.00     0.000 C 
BRANCH   3   4
ATOM      4  C   UNL     1      -3.156  -6.402  -2.504  1.00  0.00     0.000 C 
BRANCH   4   5
ATOM      5  C   UNL     1      -4.470  -6.256  -1.723  1.00  0.00     0.006 C 
BRANCH   5   6
ATOM      6  C   UNL     1      -5.670  -6.829  -2.488  1.00  0.00     0.053 C 
BRANCH   6   7
ATOM      7  C   UNL     1      -6.604  -5.752  -2.946  1.00  0.00     0.041 C 
ATOM      8  O   UNL     1      -6.983  -5.710  -4.146  1.00  0.00    -0.550 OA
ATOM      9  O   UNL     1      -7.083  -4.814  -2.040  1.00  0.00    -0.550 OA
ENDBRANCH   6   7
ENDBRANCH   5   6
ENDBRANCH   4   5
ENDBRANCH   3   4
ENDBRANCH   2   3
ENDBRANCH   1   2
BRANCH   1  10
ATOM     10  C   UNL     1      -1.416  -5.074   1.120  1.00  0.00     0.000 C 
BRANCH  10  11
ATOM     11  C   UNL     1      -2.710  -5.216   1.931  1.00  0.00    -0.000 C 
BRANCH  11  12
ATOM     12  C   UNL     1      -2.483  -6.077   3.182  1.00  0.00    -0.000 C 
BRANCH  12  13
ATOM     13  C   UNL     1      -1.151  -6.844   3.143  1.00  0.00    -0.000 C 
BRANCH  13  14
ATOM     14  C   UNL     1      -1.055  -7.919   4.240  1.00  0.00    -0.000 C 
BRANCH  14  15
ATOM     15  C   UNL     1      -1.066  -7.317   5.654  1.00  0.00    -0.003 C 
ATOM     16  C   UNL     1      -0.435  -8.240   6.697  1.00  0.00     0.004 C 
ENDBRANCH  14  15
ENDBRANCH  13  14
ENDBRANCH  12  13
ENDBRANCH  11  12
ENDBRANCH  10  11
ENDBRANCH   1  10
TORSDOF 12
ENDMDL
MODEL 9
REMARK VINA RESULT:    -3.888      5.048      7.461
REMARK INTER + INTRA:          -8.049
REMARK INTER:                  -7.043
REMARK INTRA:                  -1.006
REMARK UNBOUND:                -1.434
REMARK SMILES CCCCCCCCCCCCCC(=O)[O-]
REMARK SMILES IDX 8 1 9 2 10 3 11 4 12 5 13 6 14 7 15 8 16 9 7 10 6 11 5 12
REMARK SMILES IDX 4 13 3 14 2 15 1 16
REMARK H PARENT
REMARK Flexibility Score: inf
ROOT
ATOM      1  C   UNL     1       2.521   5.243  -0.465  1.00  0.00     0.000 C 
ENDROOT
BRANCH   1   2
ATOM      2  C   UNL     1       1.215   5.055   0.321  1.00  0.00     0.000 C 
BRANCH   2   3
ATOM      3  C   UNL     1       1.457   4.814   1.821  1.00  0.00     0.000 C 
BRANCH   3   4
ATOM      4  C   UNL     1       2.579   5.694   2.389  1.00  0.00     0.000 C 
BRANCH   4   5
ATOM      5  C   UNL     1       2.213   6.218   3.785  1.00  0.00     0.006 C 
BRANCH   5   6
ATOM      6  C   UNL     1       1.550   7.601   3.734  1.00  0.00     0.053 C 
BRANCH   6   7
ATOM      7  C   UNL     1       0.859   7.934   5.020  1.00  0.00     0.041 C 
ATOM      8  O   UNL     1       1.273   7.448   6.105  1.00  0.00    -0.550 OA
ATOM      9  O   UNL     1      -0.222   8.807   5.025  1.00  0.00    -0.550 OA
ENDBRANCH   6   7
ENDBRANCH   5   6
ENDBRANCH   4   5
ENDBRANCH   3   4
ENDBRANCH   2   3
ENDBRANCH   1   2
BRANCH   1  10
ATOM     10  C   UNL     1       2.235   5.545  -1.941  1.00  0.00     0.000 C 
BRANCH  10  11
ATOM     11  C   UNL     1       3.225   6.576  -2.496  1.00  0.00    -0.000 C 
BRANCH  11  12
ATOM     12  C   UNL     1       4.507   6.616  -1.652  1.00  0.00    -0.000 C 
BRANCH  12  13
ATOM     13  C   UNL     1       5.780   6.724  -2.508  1.00  0.00    -0.000 C 
BRANCH  13  14
ATOM     14  C   UNL     1       6.623   5.438  -2.478  1.00  0.00    -0.000 C 
BRANCH  14  15
ATOM     15  C   UNL     1       5.943   4.307  -1.690  1.00  0.00    -0.003 C 
ATOM     16  C   UNL     1       5.478   3.157  -2.584  1.00  0.00     0.004 C 
ENDBRANCH  14  15
ENDBRANCH  13  14
ENDBRANCH  12  13
ENDBRANCH  11  12
ENDBRANCH  10  11
ENDBRANCH   1  10
TORSDOF 12
ENDMDL
