MODEL 1
REMARK VINA RESULT:    20.898      0.000      0.000
REMARK INTER + INTRA:          29.354
REMARK INTER:                  29.450
REMARK INTRA:                  -0.097
REMARK UNBOUND:                -0.097
REMARK SMILES C=C(CC[C@H](C(=O)[O-])[C@H]1[C@H](O)C[C@]2(C)C3=C(CC[C@]12C)[C@@]1(C)CC[C@H](O)C(C)(C)[C@@H]1CC3)C(C)C
REMARK SMILES IDX 4 1 5 2 6 3 7 4 8 5 9 6 10 7 19 8 12 9 13 10 18 11 20 12
REMARK SMILES IDX 14 13 15 14 17 15 16 16 32 17 21 18 31 19 30 20 23 21 22 22
REMARK SMILES IDX 27 23 24 24 25 25 28 26 29 27 11 28 26 30 3 32 2 33 1 34
REMARK SMILES IDX 33 35 34 36 35 37
REMARK H PARENT 11 29 26 31
REMARK Flexibility Score: inf
ROOT
ATOM      1  C   UNL     1       7.819 -34.603  19.293  1.00  0.00     0.014 C 
ENDROOT
BRANCH   1   2
ATOM      2  C   UNL     1       7.286 -35.223  17.977  1.00  0.00     0.042 C 
BRANCH   2   3
ATOM      3  C   UNL     1       7.314 -36.727  18.128  1.00  0.00     0.045 C 
ATOM      4  O   UNL     1       6.714 -37.470  17.304  1.00  0.00    -0.550 OA
ATOM      5  O   UNL     1       8.039 -37.306  19.163  1.00  0.00    -0.550 OA
ENDBRANCH   2   3
BRANCH   2   6
ATOM      6  C   UNL     1       8.081 -34.769  16.694  1.00  0.00     0.033 C 
ATOM      7  C   UNL     1       9.050 -35.890  16.215  1.00  0.00     0.119 C 
ATOM      8  C   UNL     1       7.261 -34.348  15.400  1.00  0.00    -0.017 C 
ATOM      9  C   UNL     1       8.786 -36.105  14.732  1.00  0.00     0.043 C 
ATOM     10  C   UNL     1       8.190 -34.791  14.208  1.00  0.00    -0.003 C 
ATOM     11  C   UNL     1       6.987 -32.826  15.271  1.00  0.00     0.012 C 
ATOM     12  C   UNL     1       5.875 -35.070  15.348  1.00  0.00     0.013 C 
ATOM     13  C   UNL     1       7.426 -35.040  12.876  1.00  0.00     0.017 C 
ATOM     14  C   UNL     1       9.335 -33.782  13.924  1.00  0.00    -0.064 C 
ATOM     15  C   UNL     1       8.252 -31.975  15.305  1.00  0.00     0.032 C 
ATOM     16  C   UNL     1       9.403 -32.535  14.483  1.00  0.00    -0.064 C 
ATOM     17  C   UNL     1      10.383 -34.135  12.875  1.00  0.00     0.032 C 
ATOM     18  C   UNL     1      10.668 -31.661  14.250  1.00  0.00    -0.008 C 
ATOM     19  C   UNL     1      11.816 -33.821  13.327  1.00  0.00     0.009 C 
ATOM     20  C   UNL     1      11.916 -32.620  14.314  1.00  0.00     0.007 C 
ATOM     21  C   UNL     1      10.818 -30.599  15.387  1.00  0.00     0.014 C 
ATOM     22  C   UNL     1      10.508 -30.947  12.876  1.00  0.00     0.016 C 
ATOM     23  C   UNL     1      13.334 -31.919  14.354  1.00  0.00    -0.006 C 
ATOM     24  C   UNL     1      12.172 -29.877  15.395  1.00  0.00     0.033 C 
ATOM     25  C   UNL     1      13.338 -30.865  15.506  1.00  0.00     0.120 C 
ATOM     26  C   UNL     1      14.411 -32.987  14.688  1.00  0.00     0.014 C 
ATOM     27  C   UNL     1      13.748 -31.253  13.011  1.00  0.00     0.014 C 
BRANCH   7  28
ATOM     28  O   UNL     1      10.386 -35.488  16.395  1.00  0.00    -0.393 OA
ATOM     29  H   UNL     1      10.460 -35.139  17.319  1.00  0.00     0.210 HD
ENDBRANCH   7  28
BRANCH  25  30
ATOM     30  O   UNL     1      14.549 -30.142  15.509  1.00  0.00    -0.393 OA
ATOM     31  H   UNL     1      14.326 -29.180  15.400  1.00  0.00     0.210 HD
ENDBRANCH  25  30
ENDBRANCH   2   6
ENDBRANCH   1   2
BRANCH   1  32
ATOM     32  C   UNL     1       7.082 -33.296  19.645  1.00  0.00     0.031 C 
BRANCH  32  33
ATOM     33  C   UNL     1       7.764 -32.095  19.025  1.00  0.00    -0.075 C 
ATOM     34  C   UNL     1       7.011 -31.094  18.525  1.00  0.00     0.008 C 
BRANCH  33  35
ATOM     35  C   UNL     1       9.287 -32.011  19.010  1.00  0.00     0.008 C 
ATOM     36  C   UNL     1       9.823 -31.872  17.579  1.00  0.00     0.012 C 
ATOM     37  C   UNL     1       9.798 -30.875  19.906  1.00  0.00     0.012 C 
ENDBRANCH  33  35
ENDBRANCH  32  33
ENDBRANCH   1  32
TORSDOF 8
ENDMDL
