MODEL 1
REMARK VINA RESULT:    -6.200      0.000      0.000
REMARK INTER + INTRA:          -6.200
REMARK INTER:                  -6.200
REMARK INTRA:                   0.000
REMARK UNBOUND:                 0.000
REMARK SMILES CC1=CC(=O)[C@H]2C[C@@H]1C2(C)C
REMARK SMILES IDX 1 1 2 2 3 3 4 4 5 5 6 6 7 7 8 8 9 9 10 10 11 11
REMARK H PARENT
REMARK Flexibility Score: inf
ROOT
ATOM      1  C   UNL     1      -6.744 -14.397  28.716  1.00  0.00     0.040 C 
ATOM      2  C   UNL     1      -5.327 -13.934  28.839  1.00  0.00    -0.066 C 
ATOM      3  C   UNL     1      -4.700 -13.884  30.047  1.00  0.00     0.047 C 
ATOM      4  C   UNL     1      -3.291 -13.372  30.041  1.00  0.00     0.159 C 
ATOM      5  O   UNL     1      -2.620 -13.242  31.097  1.00  0.00    -0.295 OA
ATOM      6  C   UNL     1      -2.728 -13.020  28.664  1.00  0.00     0.067 C 
ATOM      7  C   UNL     1      -3.136 -14.214  27.772  1.00  0.00     0.021 C 
ATOM      8  C   UNL     1      -4.502 -13.509  27.606  1.00  0.00     0.022 C 
ATOM      9  C   UNL     1      -3.780 -12.163  27.903  1.00  0.00    -0.019 C 
ATOM     10  C   UNL     1      -3.196 -11.511  26.625  1.00  0.00     0.012 C 
ATOM     11  C   UNL     1      -4.556 -11.073  28.696  1.00  0.00     0.012 C 
ENDROOT
TORSDOF 0
ENDMDL
MODEL 2
REMARK VINA RESULT:    -5.879      1.355      2.588
REMARK INTER + INTRA:          -5.879
REMARK INTER:                  -5.879
REMARK INTRA:                   0.000
REMARK UNBOUND:                 0.000
REMARK SMILES CC1=CC(=O)[C@H]2C[C@@H]1C2(C)C
REMARK SMILES IDX 1 1 2 2 3 3 4 4 5 5 6 6 7 7 8 8 9 9 10 10 11 11
REMARK H PARENT
REMARK Flexibility Score: inf
ROOT
ATOM      1  C   UNL     1      -5.244 -10.114  29.478  1.00  0.00     0.040 C 
ATOM      2  C   UNL     1      -4.343 -11.285  29.249  1.00  0.00    -0.066 C 
ATOM      3  C   UNL     1      -3.010 -11.219  29.523  1.00  0.00     0.047 C 
ATOM      4  C   UNL     1      -2.210 -12.450  29.220  1.00  0.00     0.159 C 
ATOM      5  O   UNL     1      -0.964 -12.499  29.393  1.00  0.00    -0.295 OA
ATOM      6  C   UNL     1      -3.011 -13.637  28.687  1.00  0.00     0.067 C 
ATOM      7  C   UNL     1      -4.244 -13.708  29.615  1.00  0.00     0.021 C 
ATOM      8  C   UNL     1      -4.879 -12.628  28.709  1.00  0.00     0.022 C 
ATOM      9  C   UNL     1      -3.957 -13.131  27.560  1.00  0.00    -0.019 C 
ATOM     10  C   UNL     1      -4.594 -14.293  26.759  1.00  0.00     0.012 C 
ATOM     11  C   UNL     1      -3.406 -12.085  26.550  1.00  0.00     0.012 C 
ENDROOT
TORSDOF 0
ENDMDL
MODEL 3
REMARK VINA RESULT:    -5.658      1.814      3.315
REMARK INTER + INTRA:          -5.658
REMARK INTER:                  -5.658
REMARK INTRA:                   0.000
REMARK UNBOUND:                 0.000
REMARK SMILES CC1=CC(=O)[C@H]2C[C@@H]1C2(C)C
REMARK SMILES IDX 1 1 2 2 3 3 4 4 5 5 6 6 7 7 8 8 9 9 10 10 11 11
REMARK H PARENT
REMARK Flexibility Score: inf
ROOT
ATOM      1  C   UNL     1      -0.974 -13.418  29.656  1.00  0.00     0.040 C 
ATOM      2  C   UNL     1      -2.389 -13.371  29.176  1.00  0.00    -0.066 C 
ATOM      3  C   UNL     1      -2.798 -14.097  28.098  1.00  0.00     0.047 C 
ATOM      4  C   UNL     1      -4.234 -13.939  27.699  1.00  0.00     0.159 C 
ATOM      5  O   UNL     1      -4.720 -14.526  26.697  1.00  0.00    -0.295 OA
ATOM      6  C   UNL     1      -5.064 -13.016  28.591  1.00  0.00     0.067 C 
ATOM      7  C   UNL     1      -4.689 -13.441  30.028  1.00  0.00     0.021 C 
ATOM      8  C   UNL     1      -3.460 -12.514  29.886  1.00  0.00     0.022 C 
ATOM      9  C   UNL     1      -4.262 -11.704  28.828  1.00  0.00    -0.019 C 
ATOM     10  C   UNL     1      -5.129 -10.592  29.469  1.00  0.00     0.012 C 
ATOM     11  C   UNL     1      -3.485 -11.088  27.630  1.00  0.00     0.012 C 
ENDROOT
TORSDOF 0
ENDMDL
MODEL 4
REMARK VINA RESULT:    -5.644      1.520      3.237
REMARK INTER + INTRA:          -5.644
REMARK INTER:                  -5.644
REMARK INTRA:                   0.000
REMARK UNBOUND:                 0.000
REMARK SMILES CC1=CC(=O)[C@H]2C[C@@H]1C2(C)C
REMARK SMILES IDX 1 1 2 2 3 3 4 4 5 5 6 6 7 7 8 8 9 9 10 10 11 11
REMARK H PARENT
REMARK Flexibility Score: inf
ROOT
ATOM      1  C   UNL     1      -0.743 -14.373  28.679  1.00  0.00     0.040 C 
ATOM      2  C   UNL     1      -1.939 -13.479  28.608  1.00  0.00    -0.066 C 
ATOM      3  C   UNL     1      -1.915 -12.219  29.127  1.00  0.00     0.047 C 
ATOM      4  C   UNL     1      -3.188 -11.434  29.020  1.00  0.00     0.159 C 
ATOM      5  O   UNL     1      -3.303 -10.275  29.496  1.00  0.00    -0.295 OA
ATOM      6  C   UNL     1      -4.333 -12.140  28.293  1.00  0.00     0.067 C 
ATOM      7  C   UNL     1      -3.669 -12.739  27.034  1.00  0.00     0.021 C 
ATOM      8  C   UNL     1      -3.251 -13.929  27.929  1.00  0.00     0.022 C 
ATOM      9  C   UNL     1      -4.456 -13.587  28.851  1.00  0.00    -0.019 C 
ATOM     10  C   UNL     1      -5.763 -14.284  28.396  1.00  0.00     0.012 C 
ATOM     11  C   UNL     1      -4.295 -13.804  30.382  1.00  0.00     0.012 C 
ENDROOT
TORSDOF 0
ENDMDL
MODEL 5
REMARK VINA RESULT:    -5.638      1.717      2.893
REMARK INTER + INTRA:          -5.638
REMARK INTER:                  -5.638
REMARK INTRA:                   0.000
REMARK UNBOUND:                 0.000
REMARK SMILES CC1=CC(=O)[C@H]2C[C@@H]1C2(C)C
REMARK SMILES IDX 1 1 2 2 3 3 4 4 5 5 6 6 7 7 8 8 9 9 10 10 11 11
REMARK H PARENT
REMARK Flexibility Score: inf
ROOT
ATOM      1  C   UNL     1      -3.409 -13.824  31.777  1.00  0.00     0.040 C 
ATOM      2  C   UNL     1      -3.761 -13.060  30.541  1.00  0.00    -0.066 C 
ATOM      3  C   UNL     1      -4.412 -11.865  30.607  1.00  0.00     0.047 C 
ATOM      4  C   UNL     1      -4.735 -11.214  29.296  1.00  0.00     0.159 C 
ATOM      5  O   UNL     1      -5.368 -10.128  29.224  1.00  0.00    -0.295 OA
ATOM      6  C   UNL     1      -4.243 -11.960  28.055  1.00  0.00     0.067 C 
ATOM      7  C   UNL     1      -2.790 -12.353  28.402  1.00  0.00     0.021 C 
ATOM      8  C   UNL     1      -3.389 -13.576  29.134  1.00  0.00     0.022 C 
ATOM      9  C   UNL     1      -4.626 -13.461  28.196  1.00  0.00    -0.019 C 
ATOM     10  C   UNL     1      -4.437 -14.244  26.873  1.00  0.00     0.012 C 
ATOM     11  C   UNL     1      -6.024 -13.814  28.777  1.00  0.00     0.012 C 
ENDROOT
TORSDOF 0
ENDMDL
MODEL 6
REMARK VINA RESULT:    -5.637      1.577      2.710
REMARK INTER + INTRA:          -5.637
REMARK INTER:                  -5.637
REMARK INTRA:                   0.000
REMARK UNBOUND:                 0.000
REMARK SMILES CC1=CC(=O)[C@H]2C[C@@H]1C2(C)C
REMARK SMILES IDX 1 1 2 2 3 3 4 4 5 5 6 6 7 7 8 8 9 9 10 10 11 11
REMARK H PARENT
REMARK Flexibility Score: inf
ROOT
ATOM      1  C   UNL     1      -6.360 -14.452  28.359  1.00  0.00     0.040 C 
ATOM      2  C   UNL     1      -5.150 -13.622  28.646  1.00  0.00    -0.066 C 
ATOM      3  C   UNL     1      -3.915 -13.993  28.207  1.00  0.00     0.047 C 
ATOM      4  C   UNL     1      -2.778 -13.092  28.587  1.00  0.00     0.159 C 
ATOM      5  O   UNL     1      -1.586 -13.348  28.275  1.00  0.00    -0.295 OA
ATOM      6  C   UNL     1      -3.169 -11.845  29.381  1.00  0.00     0.067 C 
ATOM      7  C   UNL     1      -4.397 -11.287  28.629  1.00  0.00     0.021 C 
ATOM      8  C   UNL     1      -5.241 -12.299  29.437  1.00  0.00     0.022 C 
ATOM      9  C   UNL     1      -4.131 -12.269  30.527  1.00  0.00    -0.019 C 
ATOM     10  C   UNL     1      -4.351 -11.136  31.561  1.00  0.00     0.012 C 
ATOM     11  C   UNL     1      -3.825 -13.583  31.300  1.00  0.00     0.012 C 
ENDROOT
TORSDOF 0
ENDMDL
MODEL 7
REMARK VINA RESULT:    -5.606      1.610      3.076
REMARK INTER + INTRA:          -5.606
REMARK INTER:                  -5.606
REMARK INTRA:                   0.000
REMARK UNBOUND:                 0.000
REMARK SMILES CC1=CC(=O)[C@H]2C[C@@H]1C2(C)C
REMARK SMILES IDX 1 1 2 2 3 3 4 4 5 5 6 6 7 7 8 8 9 9 10 10 11 11
REMARK H PARENT
REMARK Flexibility Score: inf
ROOT
ATOM      1  C   UNL     1      -2.102 -12.337  31.746  1.00  0.00     0.040 C 
ATOM      2  C   UNL     1      -3.188 -12.620  30.757  1.00  0.00    -0.066 C 
ATOM      3  C   UNL     1      -4.077 -13.634  30.951  1.00  0.00     0.047 C 
ATOM      4  C   UNL     1      -5.098 -13.834  29.872  1.00  0.00     0.159 C 
ATOM      5  O   UNL     1      -5.948 -14.761  29.916  1.00  0.00    -0.295 OA
ATOM      6  C   UNL     1      -5.035 -12.835  28.716  1.00  0.00     0.067 C 
ATOM      7  C   UNL     1      -4.881 -11.463  29.411  1.00  0.00     0.021 C 
ATOM      8  C   UNL     1      -3.367 -11.768  29.482  1.00  0.00     0.022 C 
ATOM      9  C   UNL     1      -3.555 -12.706  28.254  1.00  0.00    -0.019 C 
ATOM     10  C   UNL     1      -3.422 -11.950  26.909  1.00  0.00     0.012 C 
ATOM     11  C   UNL     1      -2.691 -13.996  28.177  1.00  0.00     0.012 C 
ENDROOT
TORSDOF 0
ENDMDL
MODEL 8
REMARK VINA RESULT:    -5.581      1.927      3.230
REMARK INTER + INTRA:          -5.581
REMARK INTER:                  -5.581
REMARK INTRA:                   0.000
REMARK UNBOUND:                 0.000
REMARK SMILES CC1=CC(=O)[C@H]2C[C@@H]1C2(C)C
REMARK SMILES IDX 1 1 2 2 3 3 4 4 5 5 6 6 7 7 8 8 9 9 10 10 11 11
REMARK H PARENT
REMARK Flexibility Score: inf
ROOT
ATOM      1  C   UNL     1      -6.209 -14.754  29.677  1.00  0.00     0.040 C 
ATOM      2  C   UNL     1      -5.287 -13.600  29.913  1.00  0.00    -0.066 C 
ATOM      3  C   UNL     1      -5.364 -12.465  29.163  1.00  0.00     0.047 C 
ATOM      4  C   UNL     1      -4.364 -11.394  29.478  1.00  0.00     0.159 C 
ATOM      5  O   UNL     1      -4.308 -10.317  28.829  1.00  0.00    -0.295 OA
ATOM      6  C   UNL     1      -3.418 -11.703  30.638  1.00  0.00     0.067 C 
ATOM      7  C   UNL     1      -4.342 -12.265  31.741  1.00  0.00     0.021 C 
ATOM      8  C   UNL     1      -4.218 -13.630  31.026  1.00  0.00     0.022 C 
ATOM      9  C   UNL     1      -2.857 -13.142  30.451  1.00  0.00    -0.019 C 
ATOM     10  C   UNL     1      -1.672 -13.441  31.404  1.00  0.00     0.012 C 
ATOM     11  C   UNL     1      -2.458 -13.598  29.019  1.00  0.00     0.012 C 
ENDROOT
TORSDOF 0
ENDMDL
MODEL 9
REMARK VINA RESULT:    -5.349      1.628      3.678
REMARK INTER + INTRA:          -5.349
REMARK INTER:                  -5.349
REMARK INTRA:                   0.000
REMARK UNBOUND:                 0.000
REMARK SMILES CC1=CC(=O)[C@H]2C[C@@H]1C2(C)C
REMARK SMILES IDX 1 1 2 2 3 3 4 4 5 5 6 6 7 7 8 8 9 9 10 10 11 11
REMARK H PARENT
REMARK Flexibility Score: inf
ROOT
ATOM      1  C   UNL     1      -5.298 -10.170  29.511  1.00  0.00     0.040 C 
ATOM      2  C   UNL     1      -4.479 -11.385  29.807  1.00  0.00    -0.066 C 
ATOM      3  C   UNL     1      -3.652 -11.929  28.870  1.00  0.00     0.047 C 
ATOM      4  C   UNL     1      -2.909 -13.165  29.281  1.00  0.00     0.159 C 
ATOM      5  O   UNL     1      -2.146 -13.782  28.492  1.00  0.00    -0.295 OA
ATOM      6  C   UNL     1      -3.144 -13.623  30.720  1.00  0.00     0.067 C 
ATOM      7  C   UNL     1      -3.035 -12.326  31.552  1.00  0.00     0.021 C 
ATOM      8  C   UNL     1      -4.516 -12.073  31.189  1.00  0.00     0.022 C 
ATOM      9  C   UNL     1      -4.674 -13.609  31.001  1.00  0.00    -0.019 C 
ATOM     10  C   UNL     1      -5.038 -14.331  32.322  1.00  0.00     0.012 C 
ATOM     11  C   UNL     1      -5.633 -14.117  29.887  1.00  0.00     0.012 C 
ENDROOT
TORSDOF 0
ENDMDL
