MODEL 1
REMARK VINA RESULT:    -7.813      0.000      0.000
REMARK INTER + INTRA:          -9.734
REMARK INTER:                  -9.640
REMARK INTRA:                  -0.093
REMARK UNBOUND:                -0.093
REMARK SMILES CC(C)=CCC[C@H](C)c1ccc(C)cc1
REMARK SMILES IDX 6 1 7 2 8 3 9 4 13 5 12 6 11 7 14 8 10 9 15 10 5 11 4 12
REMARK SMILES IDX 2 13 1 14 3 15
REMARK H PARENT
REMARK Flexibility Score: inf
ROOT
ATOM      1  C   UNL     1      25.660 -39.118   1.595  1.00  0.00     0.012 C 
ENDROOT
BRANCH   1   2
ATOM      2  C   UNL     1      25.988 -40.524   1.033  1.00  0.00     0.016 C 
ATOM      3  C   UNL     1      27.492 -40.833   1.078  1.00  0.00     0.013 C 
BRANCH   2   4
ATOM      4  C   UNL     1      25.466 -40.660  -0.386  1.00  0.00    -0.045 A 
ATOM      5  C   UNL     1      24.011 -41.063  -4.433  1.00  0.00     0.044 C 
ATOM      6  C   UNL     1      24.490 -40.935  -3.017  1.00  0.00    -0.051 A 
ATOM      7  C   UNL     1      24.206 -39.780  -2.276  1.00  0.00     0.004 A 
ATOM      8  C   UNL     1      25.284 -41.942  -2.448  1.00  0.00     0.004 A 
ATOM      9  C   UNL     1      24.683 -39.645  -0.970  1.00  0.00     0.004 A 
ATOM     10  C   UNL     1      25.762 -41.808  -1.140  1.00  0.00     0.004 A 
ENDBRANCH   2   4
ENDBRANCH   1   2
BRANCH   1  11
ATOM     11  C   UNL     1      24.260 -39.011   2.221  1.00  0.00     0.028 C 
BRANCH  11  12
ATOM     12  C   UNL     1      23.315 -38.184   1.379  1.00  0.00    -0.028 C 
ATOM     13  C   UNL     1      22.503 -37.238   1.899  1.00  0.00    -0.080 C 
ATOM     14  C   UNL     1      22.481 -36.939   3.378  1.00  0.00     0.039 C 
ATOM     15  C   UNL     1      21.592 -36.445   0.998  1.00  0.00     0.039 C 
ENDBRANCH  11  12
ENDBRANCH   1  11
TORSDOF 4
ENDMDL
MODEL 2
REMARK VINA RESULT:    -7.609      1.623      4.601
REMARK INTER + INTRA:          -9.482
REMARK INTER:                  -8.808
REMARK INTRA:                  -0.674
REMARK UNBOUND:                -0.093
REMARK SMILES CC(C)=CCC[C@H](C)c1ccc(C)cc1
REMARK SMILES IDX 6 1 7 2 8 3 9 4 13 5 12 6 11 7 14 8 10 9 15 10 5 11 4 12
REMARK SMILES IDX 2 13 1 14 3 15
REMARK H PARENT
REMARK Flexibility Score: inf
ROOT
ATOM      1  C   UNL     1      26.194 -40.033   2.116  1.00  0.00     0.012 C 
ENDROOT
BRANCH   1   2
ATOM      2  C   UNL     1      25.274 -39.161   1.224  1.00  0.00     0.016 C 
ATOM      3  C   UNL     1      23.916 -38.882   1.886  1.00  0.00     0.013 C 
BRANCH   2   4
ATOM      4  C   UNL     1      25.073 -39.819  -0.128  1.00  0.00    -0.045 A 
ATOM      5  C   UNL     1      24.534 -41.706  -3.977  1.00  0.00     0.044 C 
ATOM      6  C   UNL     1      24.697 -41.067  -2.629  1.00  0.00    -0.051 A 
ATOM      7  C   UNL     1      24.041 -39.864  -2.334  1.00  0.00     0.004 A 
ATOM      8  C   UNL     1      25.560 -41.632  -1.680  1.00  0.00     0.004 A 
ATOM      9  C   UNL     1      24.221 -39.248  -1.094  1.00  0.00     0.004 A 
ATOM     10  C   UNL     1      25.741 -41.017  -0.437  1.00  0.00     0.004 A 
ENDBRANCH   2   4
ENDBRANCH   1   2
BRANCH   1  11
ATOM     11  C   UNL     1      27.560 -39.391   2.412  1.00  0.00     0.028 C 
BRANCH  11  12
ATOM     12  C   UNL     1      28.456 -40.294   3.229  1.00  0.00    -0.028 C 
ATOM     13  C   UNL     1      29.320 -41.170   2.672  1.00  0.00    -0.080 C 
ATOM     14  C   UNL     1      29.451 -41.311   1.176  1.00  0.00     0.039 C 
ATOM     15  C   UNL     1      30.190 -42.034   3.548  1.00  0.00     0.039 C 
ENDBRANCH  11  12
ENDBRANCH   1  11
TORSDOF 4
ENDMDL
MODEL 3
REMARK VINA RESULT:    -7.346      1.820      5.951
REMARK INTER + INTRA:          -9.157
REMARK INTER:                  -8.872
REMARK INTRA:                  -0.285
REMARK UNBOUND:                -0.093
REMARK SMILES CC(C)=CCC[C@H](C)c1ccc(C)cc1
REMARK SMILES IDX 6 1 7 2 8 3 9 4 13 5 12 6 11 7 14 8 10 9 15 10 5 11 4 12
REMARK SMILES IDX 2 13 1 14 3 15
REMARK H PARENT
REMARK Flexibility Score: inf
ROOT
ATOM      1  C   UNL     1      25.510 -40.167  -0.756  1.00  0.00     0.012 C 
ENDROOT
BRANCH   1   2
ATOM      2  C   UNL     1      25.258 -40.263   0.770  1.00  0.00     0.016 C 
ATOM      3  C   UNL     1      24.570 -39.006   1.326  1.00  0.00     0.013 C 
BRANCH   2   4
ATOM      4  C   UNL     1      26.562 -40.515   1.505  1.00  0.00    -0.045 A 
ATOM      5  C   UNL     1      30.269 -41.270   3.591  1.00  0.00     0.044 C 
ATOM      6  C   UNL     1      28.996 -40.989   2.847  1.00  0.00    -0.051 A 
ATOM      7  C   UNL     1      28.176 -39.919   3.229  1.00  0.00     0.004 A 
ATOM      8  C   UNL     1      28.585 -41.837   1.809  1.00  0.00     0.004 A 
ATOM      9  C   UNL     1      26.973 -39.678   2.561  1.00  0.00     0.004 A 
ATOM     10  C   UNL     1      27.381 -41.597   1.138  1.00  0.00     0.004 A 
ENDBRANCH   2   4
ENDBRANCH   1   2
BRANCH   1  11
ATOM     11  C   UNL     1      25.480 -41.525  -1.477  1.00  0.00     0.028 C 
BRANCH  11  12
ATOM     12  C   UNL     1      25.741 -41.396  -2.960  1.00  0.00    -0.028 C 
ATOM     13  C   UNL     1      24.759 -41.184  -3.863  1.00  0.00    -0.080 C 
ATOM     14  C   UNL     1      23.315 -41.062  -3.448  1.00  0.00     0.039 C 
ATOM     15  C   UNL     1      25.094 -41.057  -5.327  1.00  0.00     0.039 C 
ENDBRANCH  11  12
ENDBRANCH   1  11
TORSDOF 4
ENDMDL
MODEL 4
REMARK VINA RESULT:    -7.136      1.845      4.677
REMARK INTER + INTRA:          -8.898
REMARK INTER:                  -8.350
REMARK INTRA:                  -0.549
REMARK UNBOUND:                -0.093
REMARK SMILES CC(C)=CCC[C@H](C)c1ccc(C)cc1
REMARK SMILES IDX 6 1 7 2 8 3 9 4 13 5 12 6 11 7 14 8 10 9 15 10 5 11 4 12
REMARK SMILES IDX 2 13 1 14 3 15
REMARK H PARENT
REMARK Flexibility Score: inf
ROOT
ATOM      1  C   UNL     1      24.845 -40.120   1.111  1.00  0.00     0.012 C 
ENDROOT
BRANCH   1   2
ATOM      2  C   UNL     1      26.208 -40.218   0.379  1.00  0.00     0.016 C 
ATOM      3  C   UNL     1      26.198 -41.281  -0.730  1.00  0.00     0.013 C 
BRANCH   2   4
ATOM      4  C   UNL     1      27.320 -40.506   1.372  1.00  0.00    -0.045 A 
ATOM      5  C   UNL     1      30.485 -41.361   4.185  1.00  0.00     0.044 C 
ATOM      6  C   UNL     1      29.402 -41.040   3.197  1.00  0.00    -0.051 A 
ATOM      7  C   UNL     1      28.380 -40.143   3.535  1.00  0.00     0.004 A 
ATOM      8  C   UNL     1      29.367 -41.689   1.954  1.00  0.00     0.004 A 
ATOM      9  C   UNL     1      27.351 -39.872   2.629  1.00  0.00     0.004 A 
ATOM     10  C   UNL     1      28.338 -41.418   1.046  1.00  0.00     0.004 A 
ENDBRANCH   2   4
ENDBRANCH   1   2
BRANCH   1  11
ATOM     11  C   UNL     1      24.156 -38.753   0.957  1.00  0.00     0.028 C 
BRANCH  11  12
ATOM     12  C   UNL     1      23.573 -38.253   2.259  1.00  0.00    -0.028 C 
ATOM     13  C   UNL     1      22.602 -37.316   2.317  1.00  0.00    -0.080 C 
ATOM     14  C   UNL     1      22.027 -36.693   1.070  1.00  0.00     0.039 C 
ATOM     15  C   UNL     1      22.061 -36.871   3.651  1.00  0.00     0.039 C 
ENDBRANCH  11  12
ENDBRANCH   1  11
TORSDOF 4
ENDMDL
MODEL 5
REMARK VINA RESULT:    -6.935      1.004      5.685
REMARK INTER + INTRA:          -8.650
REMARK INTER:                  -8.042
REMARK INTRA:                  -0.608
REMARK UNBOUND:                -0.093
REMARK SMILES CC(C)=CCC[C@H](C)c1ccc(C)cc1
REMARK SMILES IDX 6 1 7 2 8 3 9 4 13 5 12 6 11 7 14 8 10 9 15 10 5 11 4 12
REMARK SMILES IDX 2 13 1 14 3 15
REMARK H PARENT
REMARK Flexibility Score: inf
ROOT
ATOM      1  C   UNL     1      25.495 -41.648  -1.144  1.00  0.00     0.012 C 
ENDROOT
BRANCH   1   2
ATOM      2  C   UNL     1      26.179 -40.643  -0.182  1.00  0.00     0.016 C 
ATOM      3  C   UNL     1      26.999 -41.348   0.909  1.00  0.00     0.013 C 
BRANCH   2   4
ATOM      4  C   UNL     1      25.144 -39.729   0.448  1.00  0.00    -0.045 A 
ATOM      5  C   UNL     1      22.201 -37.105   2.214  1.00  0.00     0.044 C 
ATOM      6  C   UNL     1      23.203 -38.040   1.602  1.00  0.00    -0.051 A 
ATOM      7  C   UNL     1      24.078 -38.771   2.418  1.00  0.00     0.004 A 
ATOM      8  C   UNL     1      23.317 -38.138   0.208  1.00  0.00     0.004 A 
ATOM      9  C   UNL     1      25.035 -39.613   1.848  1.00  0.00     0.004 A 
ATOM     10  C   UNL     1      24.275 -38.981  -0.364  1.00  0.00     0.004 A 
ENDBRANCH   2   4
ENDBRANCH   1   2
BRANCH   1  11
ATOM     11  C   UNL     1      25.865 -41.441  -2.622  1.00  0.00     0.028 C 
BRANCH  11  12
ATOM     12  C   UNL     1      24.658 -41.144  -3.482  1.00  0.00    -0.028 C 
ATOM     13  C   UNL     1      24.731 -40.978  -4.820  1.00  0.00    -0.080 C 
ATOM     14  C   UNL     1      26.043 -41.076  -5.559  1.00  0.00     0.039 C 
ATOM     15  C   UNL     1      23.484 -40.694  -5.616  1.00  0.00     0.039 C 
ENDBRANCH  11  12
ENDBRANCH   1  11
TORSDOF 4
ENDMDL
MODEL 6
REMARK VINA RESULT:    -6.420      2.161      5.483
REMARK INTER + INTRA:          -8.014
REMARK INTER:                  -7.384
REMARK INTRA:                  -0.630
REMARK UNBOUND:                -0.093
REMARK SMILES CC(C)=CCC[C@H](C)c1ccc(C)cc1
REMARK SMILES IDX 6 1 7 2 8 3 9 4 13 5 12 6 11 7 14 8 10 9 15 10 5 11 4 12
REMARK SMILES IDX 2 13 1 14 3 15
REMARK H PARENT
REMARK Flexibility Score: inf
ROOT
ATOM      1  C   UNL     1      27.584 -40.306   0.935  1.00  0.00     0.012 C 
ENDROOT
BRANCH   1   2
ATOM      2  C   UNL     1      26.180 -40.872   0.599  1.00  0.00     0.016 C 
ATOM      3  C   UNL     1      26.088 -41.378  -0.849  1.00  0.00     0.013 C 
BRANCH   2   4
ATOM      4  C   UNL     1      25.114 -39.823   0.858  1.00  0.00    -0.045 A 
ATOM      5  C   UNL     1      22.089 -36.821   1.564  1.00  0.00     0.044 C 
ATOM      6  C   UNL     1      23.118 -37.885   1.320  1.00  0.00    -0.051 A 
ATOM      7  C   UNL     1      23.756 -38.513   2.398  1.00  0.00     0.004 A 
ATOM      8  C   UNL     1      23.497 -38.212   0.010  1.00  0.00     0.004 A 
ATOM      9  C   UNL     1      24.740 -39.478   2.172  1.00  0.00     0.004 A 
ATOM     10  C   UNL     1      24.482 -39.178  -0.219  1.00  0.00     0.004 A 
ENDBRANCH   2   4
ENDBRANCH   1   2
BRANCH   1  11
ATOM     11  C   UNL     1      28.319 -41.087   2.037  1.00  0.00     0.028 C 
BRANCH  11  12
ATOM     12  C   UNL     1      28.154 -40.454   3.400  1.00  0.00    -0.028 C 
ATOM     13  C   UNL     1      29.058 -40.600   4.393  1.00  0.00    -0.080 C 
ATOM     14  C   UNL     1      30.311 -41.420   4.208  1.00  0.00     0.039 C 
ATOM     15  C   UNL     1      28.833 -39.933   5.724  1.00  0.00     0.039 C 
ENDBRANCH  11  12
ENDBRANCH   1  11
TORSDOF 4
ENDMDL
MODEL 7
REMARK VINA RESULT:    -6.365      2.049      5.866
REMARK INTER + INTRA:          -7.946
REMARK INTER:                  -7.384
REMARK INTRA:                  -0.562
REMARK UNBOUND:                -0.093
REMARK SMILES CC(C)=CCC[C@H](C)c1ccc(C)cc1
REMARK SMILES IDX 6 1 7 2 8 3 9 4 13 5 12 6 11 7 14 8 10 9 15 10 5 11 4 12
REMARK SMILES IDX 2 13 1 14 3 15
REMARK H PARENT
REMARK Flexibility Score: inf
ROOT
ATOM      1  C   UNL     1      27.541 -40.550   0.770  1.00  0.00     0.012 C 
ENDROOT
BRANCH   1   2
ATOM      2  C   UNL     1      26.109 -41.005   0.393  1.00  0.00     0.016 C 
ATOM      3  C   UNL     1      25.983 -41.357  -1.098  1.00  0.00     0.013 C 
BRANCH   2   4
ATOM      4  C   UNL     1      25.100 -39.933   0.765  1.00  0.00    -0.045 A 
ATOM      5  C   UNL     1      22.221 -36.902   1.854  1.00  0.00     0.044 C 
ATOM      6  C   UNL     1      23.243 -37.933   1.474  1.00  0.00    -0.051 A 
ATOM      7  C   UNL     1      23.480 -38.230   0.125  1.00  0.00     0.004 A 
ATOM      8  C   UNL     1      23.919 -38.655   2.468  1.00  0.00     0.004 A 
ATOM      9  C   UNL     1      24.404 -39.216  -0.228  1.00  0.00     0.004 A 
ATOM     10  C   UNL     1      24.845 -39.642   2.116  1.00  0.00     0.004 A 
ENDBRANCH   2   4
ENDBRANCH   1   2
BRANCH   1  11
ATOM     11  C   UNL     1      28.364 -41.628   1.494  1.00  0.00     0.028 C 
BRANCH  11  12
ATOM     12  C   UNL     1      28.626 -41.278   2.941  1.00  0.00    -0.028 C 
ATOM     13  C   UNL     1      29.812 -41.500   3.548  1.00  0.00    -0.080 C 
ATOM     14  C   UNL     1      30.972 -42.125   2.814  1.00  0.00     0.039 C 
ATOM     15  C   UNL     1      30.005 -41.117   4.993  1.00  0.00     0.039 C 
ENDBRANCH  11  12
ENDBRANCH   1  11
TORSDOF 4
ENDMDL
MODEL 8
REMARK VINA RESULT:    -5.906      3.456      6.032
REMARK INTER + INTRA:          -7.380
REMARK INTER:                  -6.797
REMARK INTRA:                  -0.583
REMARK UNBOUND:                -0.093
REMARK SMILES CC(C)=CCC[C@H](C)c1ccc(C)cc1
REMARK SMILES IDX 6 1 7 2 8 3 9 4 13 5 12 6 11 7 14 8 10 9 15 10 5 11 4 12
REMARK SMILES IDX 2 13 1 14 3 15
REMARK H PARENT
REMARK Flexibility Score: inf
ROOT
ATOM      1  C   UNL     1      28.691 -42.092   3.324  1.00  0.00     0.012 C 
ENDROOT
BRANCH   1   2
ATOM      2  C   UNL     1      28.515 -42.017   1.786  1.00  0.00     0.016 C 
ATOM      3  C   UNL     1      29.783 -41.516   1.079  1.00  0.00     0.013 C 
BRANCH   2   4
ATOM      4  C   UNL     1      27.333 -41.132   1.433  1.00  0.00    -0.045 A 
ATOM      5  C   UNL     1      23.977 -38.618   0.393  1.00  0.00     0.044 C 
ATOM      6  C   UNL     1      25.123 -39.510   0.770  1.00  0.00    -0.051 A 
ATOM      7  C   UNL     1      25.835 -39.284   1.956  1.00  0.00     0.004 A 
ATOM      8  C   UNL     1      25.534 -40.534  -0.096  1.00  0.00     0.004 A 
ATOM      9  C   UNL     1      26.926 -40.091   2.289  1.00  0.00     0.004 A 
ATOM     10  C   UNL     1      26.625 -41.343   0.237  1.00  0.00     0.004 A 
ENDBRANCH   2   4
ENDBRANCH   1   2
BRANCH   1  11
ATOM     11  C   UNL     1      29.917 -41.325   3.846  1.00  0.00     0.028 C 
BRANCH  11  12
ATOM     12  C   UNL     1      30.298 -41.734   5.250  1.00  0.00    -0.028 C 
ATOM     13  C   UNL     1      29.837 -41.101   6.351  1.00  0.00    -0.080 C 
ATOM     14  C   UNL     1      28.900 -39.923   6.252  1.00  0.00     0.039 C 
ATOM     15  C   UNL     1      30.251 -41.570   7.721  1.00  0.00     0.039 C 
ENDBRANCH  11  12
ENDBRANCH   1  11
TORSDOF 4
ENDMDL
