MODEL 1
REMARK VINA RESULT:    -3.647      0.000      0.000
REMARK INTER + INTRA:          -4.737
REMARK INTER:                  -4.499
REMARK INTRA:                  -0.238
REMARK UNBOUND:                -0.238
REMARK SMILES CCCCCC(C)=O
REMARK SMILES IDX 4 1 3 2 2 3 1 4 5 5 6 6 8 7 7 8
REMARK H PARENT
REMARK Flexibility Score: inf
ROOT
ATOM      1  C   UNL     1     118.155 118.205 117.435  1.00  0.00     0.008 C 
ENDROOT
BRANCH   1   2
ATOM      2  C   UNL     1     119.677 117.989 117.420  1.00  0.00     0.000 C 
BRANCH   2   3
ATOM      3  C   UNL     1     120.341 118.373 118.750  1.00  0.00    -0.003 C 
ATOM      4  C   UNL     1     121.380 117.336 119.165  1.00  0.00     0.004 C 
ENDBRANCH   2   3
ENDBRANCH   1   2
BRANCH   1   5
ATOM      5  C   UNL     1     117.764 119.627 117.860  1.00  0.00     0.075 C 
BRANCH   5   6
ATOM      6  C   UNL     1     116.687 119.590 118.909  1.00  0.00     0.129 C 
ATOM      7  O   UNL     1     115.845 120.475 118.945  1.00  0.00    -0.300 OA
ATOM      8  C   UNL     1     116.624 118.464 119.897  1.00  0.00     0.087 C 
ENDBRANCH   5   6
ENDBRANCH   1   5
TORSDOF 4
ENDMDL
MODEL 2
REMARK VINA RESULT:    -3.618      2.583      4.259
REMARK INTER + INTRA:          -4.702
REMARK INTER:                  -4.448
REMARK INTRA:                  -0.254
REMARK UNBOUND:                -0.238
REMARK SMILES CCCCCC(C)=O
REMARK SMILES IDX 4 1 3 2 2 3 1 4 5 5 6 6 8 7 7 8
REMARK H PARENT
REMARK Flexibility Score: inf
ROOT
ATOM      1  C   UNL     1     119.484 119.319 117.372  1.00  0.00     0.008 C 
ENDROOT
BRANCH   1   2
ATOM      2  C   UNL     1     117.976 119.606 117.442  1.00  0.00     0.000 C 
BRANCH   2   3
ATOM      3  C   UNL     1     117.311 118.970 118.671  1.00  0.00    -0.003 C 
ATOM      4  C   UNL     1     116.296 119.920 119.301  1.00  0.00     0.004 C 
ENDBRANCH   2   3
ENDBRANCH   1   2
BRANCH   1   5
ATOM      5  C   UNL     1     119.836 117.894 117.819  1.00  0.00     0.075 C 
BRANCH   5   6
ATOM      6  C   UNL     1     120.929 117.916 118.852  1.00  0.00     0.129 C 
ATOM      7  O   UNL     1     121.793 117.052 118.839  1.00  0.00    -0.300 OA
ATOM      8  C   UNL     1     120.981 119.004 119.883  1.00  0.00     0.087 C 
ENDBRANCH   5   6
ENDBRANCH   1   5
TORSDOF 4
ENDMDL
MODEL 3
REMARK VINA RESULT:    -3.598      2.227      3.759
REMARK INTER + INTRA:          -4.678
REMARK INTER:                  -4.310
REMARK INTRA:                  -0.368
REMARK UNBOUND:                -0.238
REMARK SMILES CCCCCC(C)=O
REMARK SMILES IDX 4 1 3 2 2 3 1 4 5 5 6 6 8 7 7 8
REMARK H PARENT
REMARK Flexibility Score: inf
ROOT
ATOM      1  C   UNL     1     117.943 118.022 117.678  1.00  0.00     0.008 C 
ENDROOT
BRANCH   1   2
ATOM      2  C   UNL     1     117.668 117.155 118.916  1.00  0.00     0.000 C 
BRANCH   2   3
ATOM      3  C   UNL     1     116.762 117.856 119.939  1.00  0.00    -0.003 C 
ATOM      4  C   UNL     1     116.422 119.275 119.491  1.00  0.00     0.004 C 
ENDBRANCH   2   3
ENDBRANCH   1   2
BRANCH   1   5
ATOM      5  C   UNL     1     119.441 118.170 117.381  1.00  0.00     0.075 C 
BRANCH   5   6
ATOM      6  C   UNL     1     120.101 119.055 118.404  1.00  0.00     0.129 C 
ATOM      7  O   UNL     1     120.917 118.580 119.180  1.00  0.00    -0.300 OA
ATOM      8  C   UNL     1     119.782 120.518 118.463  1.00  0.00     0.087 C 
ENDBRANCH   5   6
ENDBRANCH   1   5
TORSDOF 4
ENDMDL
MODEL 4
REMARK VINA RESULT:    -3.591      1.572      1.880
REMARK INTER + INTRA:          -4.668
REMARK INTER:                  -4.292
REMARK INTRA:                  -0.376
REMARK UNBOUND:                -0.238
REMARK SMILES CCCCCC(C)=O
REMARK SMILES IDX 4 1 3 2 2 3 1 4 5 5 6 6 8 7 7 8
REMARK H PARENT
REMARK Flexibility Score: inf
ROOT
ATOM      1  C   UNL     1     119.659 119.582 117.621  1.00  0.00     0.008 C 
ENDROOT
BRANCH   1   2
ATOM      2  C   UNL     1     119.942 120.543 118.786  1.00  0.00     0.000 C 
BRANCH   2   3
ATOM      3  C   UNL     1     120.744 119.882 119.915  1.00  0.00    -0.003 C 
ATOM      4  C   UNL     1     121.177 118.470 119.530  1.00  0.00     0.004 C 
ENDBRANCH   2   3
ENDBRANCH   1   2
BRANCH   1   5
ATOM      5  C   UNL     1     118.159 119.412 117.346  1.00  0.00     0.075 C 
BRANCH   5   6
ATOM      6  C   UNL     1     117.514 118.571 118.412  1.00  0.00     0.129 C 
ATOM      7  O   UNL     1     116.705 119.076 119.177  1.00  0.00    -0.300 OA
ATOM      8  C   UNL     1     117.838 117.112 118.530  1.00  0.00     0.087 C 
ENDBRANCH   5   6
ENDBRANCH   1   5
TORSDOF 4
ENDMDL
MODEL 5
REMARK VINA RESULT:    -3.588      2.095      3.541
REMARK INTER + INTRA:          -4.665
REMARK INTER:                  -4.292
REMARK INTRA:                  -0.372
REMARK UNBOUND:                -0.238
REMARK SMILES CCCCCC(C)=O
REMARK SMILES IDX 4 1 3 2 2 3 1 4 5 5 6 6 8 7 7 8
REMARK H PARENT
REMARK Flexibility Score: inf
ROOT
ATOM      1  C   UNL     1     118.027 119.660 117.668  1.00  0.00     0.008 C 
ENDROOT
BRANCH   1   2
ATOM      2  C   UNL     1     117.096 119.942 118.857  1.00  0.00     0.000 C 
BRANCH   2   3
ATOM      3  C   UNL     1     117.762 120.805 119.937  1.00  0.00    -0.003 C 
ATOM      4  C   UNL     1     119.181 121.195 119.533  1.00  0.00     0.004 C 
ENDBRANCH   2   3
ENDBRANCH   1   2
BRANCH   1   5
ATOM      5  C   UNL     1     118.183 118.160 117.382  1.00  0.00     0.075 C 
BRANCH   5   6
ATOM      6  C   UNL     1     119.044 117.507 118.428  1.00  0.00     0.129 C 
ATOM      7  O   UNL     1     118.555 116.687 119.192  1.00  0.00    -0.300 OA
ATOM      8  C   UNL     1     120.504 117.835 118.527  1.00  0.00     0.087 C 
ENDBRANCH   5   6
ENDBRANCH   1   5
TORSDOF 4
ENDMDL
MODEL 6
REMARK VINA RESULT:    -3.587      2.528      3.092
REMARK INTER + INTRA:          -4.663
REMARK INTER:                  -4.349
REMARK INTRA:                  -0.315
REMARK UNBOUND:                -0.238
REMARK SMILES CCCCCC(C)=O
REMARK SMILES IDX 4 1 3 2 2 3 1 4 5 5 6 6 8 7 7 8
REMARK H PARENT
REMARK Flexibility Score: inf
ROOT
ATOM      1  C   UNL     1     119.374 118.236 117.537  1.00  0.00     0.008 C 
ENDROOT
BRANCH   1   2
ATOM      2  C   UNL     1     117.892 117.931 117.802  1.00  0.00     0.000 C 
BRANCH   2   3
ATOM      3  C   UNL     1     117.695 116.773 118.791  1.00  0.00    -0.003 C 
ATOM      4  C   UNL     1     118.904 116.624 119.711  1.00  0.00     0.004 C 
ENDBRANCH   2   3
ENDBRANCH   1   2
BRANCH   1   5
ATOM      5  C   UNL     1     119.689 119.737 117.604  1.00  0.00     0.075 C 
BRANCH   5   6
ATOM      6  C   UNL     1     119.953 120.161 119.023  1.00  0.00     0.129 C 
ATOM      7  O   UNL     1     120.858 119.636 119.655  1.00  0.00    -0.300 OA
ATOM      8  C   UNL     1     119.130 121.239 119.660  1.00  0.00     0.087 C 
ENDBRANCH   5   6
ENDBRANCH   1   5
TORSDOF 4
ENDMDL
MODEL 7
REMARK VINA RESULT:    -3.583      1.802      2.279
REMARK INTER + INTRA:          -4.658
REMARK INTER:                  -4.291
REMARK INTRA:                  -0.368
REMARK UNBOUND:                -0.238
REMARK SMILES CCCCCC(C)=O
REMARK SMILES IDX 4 1 3 2 2 3 1 4 5 5 6 6 8 7 7 8
REMARK H PARENT
REMARK Flexibility Score: inf
ROOT
ATOM      1  C   UNL     1     119.621 117.911 117.686  1.00  0.00     0.008 C 
ENDROOT
BRANCH   1   2
ATOM      2  C   UNL     1     120.526 117.685 118.907  1.00  0.00     0.000 C 
BRANCH   2   3
ATOM      3  C   UNL     1     119.876 116.779 119.964  1.00  0.00    -0.003 C 
ATOM      4  C   UNL     1     118.445 116.420 119.575  1.00  0.00     0.004 C 
ENDBRANCH   2   3
ENDBRANCH   1   2
BRANCH   1   5
ATOM      5  C   UNL     1     119.460 119.397 117.338  1.00  0.00     0.075 C 
BRANCH   5   6
ATOM      6  C   UNL     1     118.611 120.094 118.365  1.00  0.00     0.129 C 
ATOM      7  O   UNL     1     119.112 120.938 119.094  1.00  0.00    -0.300 OA
ATOM      8  C   UNL     1     117.150 119.780 118.486  1.00  0.00     0.087 C 
ENDBRANCH   5   6
ENDBRANCH   1   5
TORSDOF 4
ENDMDL
MODEL 8
REMARK VINA RESULT:    -3.527      2.234      3.572
REMARK INTER + INTRA:          -4.590
REMARK INTER:                  -4.208
REMARK INTRA:                  -0.382
REMARK UNBOUND:                -0.238
REMARK SMILES CCCCCC(C)=O
REMARK SMILES IDX 4 1 3 2 2 3 1 4 5 5 6 6 8 7 7 8
REMARK H PARENT
REMARK Flexibility Score: inf
ROOT
ATOM      1  C   UNL     1     119.647 120.070 117.828  1.00  0.00     0.008 C 
ENDROOT
BRANCH   1   2
ATOM      2  C   UNL     1     118.203 119.545 117.842  1.00  0.00     0.000 C 
BRANCH   2   3
ATOM      3  C   UNL     1     118.098 118.093 117.356  1.00  0.00    -0.003 C 
ATOM      4  C   UNL     1     117.849 117.139 118.522  1.00  0.00     0.004 C 
ENDBRANCH   2   3
ENDBRANCH   1   2
BRANCH   1   5
ATOM      5  C   UNL     1     120.119 120.537 119.212  1.00  0.00     0.075 C 
BRANCH   5   6
ATOM      6  C   UNL     1     120.506 119.362 120.067  1.00  0.00     0.129 C 
ATOM      7  O   UNL     1     120.127 119.305 121.228  1.00  0.00    -0.300 OA
ATOM      8  C   UNL     1     121.332 118.248 119.499  1.00  0.00     0.087 C 
ENDBRANCH   5   6
ENDBRANCH   1   5
TORSDOF 4
ENDMDL
MODEL 9
REMARK VINA RESULT:    -3.505      1.846      2.354
REMARK INTER + INTRA:          -4.563
REMARK INTER:                  -4.188
REMARK INTRA:                  -0.375
REMARK UNBOUND:                -0.238
REMARK SMILES CCCCCC(C)=O
REMARK SMILES IDX 4 1 3 2 2 3 1 4 5 5 6 6 8 7 7 8
REMARK H PARENT
REMARK Flexibility Score: inf
ROOT
ATOM      1  C   UNL     1     117.899 117.506 117.856  1.00  0.00     0.008 C 
ENDROOT
BRANCH   1   2
ATOM      2  C   UNL     1     119.342 118.025 117.754  1.00  0.00     0.000 C 
BRANCH   2   3
ATOM      3  C   UNL     1     119.412 119.492 117.308  1.00  0.00    -0.003 C 
ATOM      4  C   UNL     1     119.804 120.402 118.469  1.00  0.00     0.004 C 
ENDBRANCH   2   3
ENDBRANCH   1   2
BRANCH   1   5
ATOM      5  C   UNL     1     117.536 117.041 119.273  1.00  0.00     0.075 C 
BRANCH   5   6
ATOM      6  C   UNL     1     117.180 118.215 120.143  1.00  0.00     0.129 C 
ATOM      7  O   UNL     1     117.575 118.256 121.299  1.00  0.00    -0.300 OA
ATOM      8  C   UNL     1     116.363 119.347 119.596  1.00  0.00     0.087 C 
ENDBRANCH   5   6
ENDBRANCH   1   5
TORSDOF 4
ENDMDL
