MODEL 1
REMARK VINA RESULT:    -1.520      0.000      0.000
REMARK INTER + INTRA:          -5.201
REMARK INTER:                  -2.764
REMARK INTRA:                  -2.437
REMARK UNBOUND:                -2.437
REMARK SMILES CCCCCCCCCCCCCC[C@@H](C)C(=O)[O-]
REMARK SMILES IDX 9 1 10 2 11 3 12 4 13 5 14 6 15 7 16 8 17 9 18 10 19 11 8 12
REMARK SMILES IDX 7 13 6 14 5 15 4 16 3 17 2 18 1 19
REMARK H PARENT
REMARK Flexibility Score: inf
ROOT
ATOM      1  C   UNL     1     172.972 177.716 197.738  1.00  0.00     0.000 C 
ENDROOT
BRANCH   1   2
ATOM      2  C   UNL     1     173.056 176.875 196.455  1.00  0.00     0.000 C 
BRANCH   2   3
ATOM      3  C   UNL     1     173.123 177.777 195.213  1.00  0.00     0.000 C 
BRANCH   3   4
ATOM      4  C   UNL     1     173.161 179.275 195.565  1.00  0.00     0.000 C 
BRANCH   4   5
ATOM      5  C   UNL     1     174.447 180.011 195.141  1.00  0.00     0.001 C 
BRANCH   5   6
ATOM      6  C   UNL     1     175.485 180.223 196.262  1.00  0.00     0.009 C 
BRANCH   6   7
ATOM      7  C   UNL     1     176.263 178.954 196.680  1.00  0.00     0.032 C 
ATOM      8  C   UNL     1     177.383 178.605 195.691  1.00  0.00     0.014 C 
BRANCH   7   9
ATOM      9  C   UNL     1     176.844 179.152 198.053  1.00  0.00     0.044 C 
ATOM     10  O   UNL     1     176.208 179.809 198.920  1.00  0.00    -0.550 OA
ATOM     11  O   UNL     1     178.092 178.630 198.370  1.00  0.00    -0.550 OA
ENDBRANCH   7   9
ENDBRANCH   6   7
ENDBRANCH   5   6
ENDBRANCH   4   5
ENDBRANCH   3   4
ENDBRANCH   2   3
ENDBRANCH   1   2
BRANCH   1  12
ATOM     12  C   UNL     1     173.810 177.131 198.886  1.00  0.00     0.000 C 
BRANCH  12  13
ATOM     13  C   UNL     1     173.119 177.264 200.252  1.00  0.00    -0.000 C 
BRANCH  13  14
ATOM     14  C   UNL     1     171.596 177.373 200.088  1.00  0.00    -0.000 C 
BRANCH  14  15
ATOM     15  C   UNL     1     170.988 178.487 200.956  1.00  0.00    -0.000 C 
BRANCH  15  16
ATOM     16  C   UNL     1     171.816 179.782 200.918  1.00  0.00    -0.000 C 
BRANCH  16  17
ATOM     17  C   UNL     1     171.567 180.595 199.629  1.00  0.00    -0.000 C 
BRANCH  17  18
ATOM     18  C   UNL     1     172.857 181.108 198.966  1.00  0.00    -0.003 C 
ATOM     19  C   UNL     1     172.596 182.119 197.852  1.00  0.00     0.004 C 
ENDBRANCH  17  18
ENDBRANCH  16  17
ENDBRANCH  15  16
ENDBRANCH  14  15
ENDBRANCH  13  14
ENDBRANCH  12  13
ENDBRANCH   1  12
TORSDOF 14
ENDMDL
MODEL 2
REMARK VINA RESULT:    -1.511      2.470      4.154
REMARK INTER + INTRA:          -5.185
REMARK INTER:                  -2.777
REMARK INTRA:                  -2.409
REMARK UNBOUND:                -2.437
REMARK SMILES CCCCCCCCCCCCCC[C@@H](C)C(=O)[O-]
REMARK SMILES IDX 9 1 10 2 11 3 12 4 13 5 14 6 15 7 16 8 17 9 18 10 19 11 8 12
REMARK SMILES IDX 7 13 6 14 5 15 4 16 3 17 2 18 1 19
REMARK H PARENT
REMARK Flexibility Score: inf
ROOT
ATOM      1  C   UNL     1     173.962 179.800 196.217  1.00  0.00     0.000 C 
ENDROOT
BRANCH   1   2
ATOM      2  C   UNL     1     174.796 178.646 196.793  1.00  0.00     0.000 C 
BRANCH   2   3
ATOM      3  C   UNL     1     174.435 177.317 196.113  1.00  0.00     0.000 C 
BRANCH   3   4
ATOM      4  C   UNL     1     172.916 177.099 195.996  1.00  0.00     0.000 C 
BRANCH   4   5
ATOM      5  C   UNL     1     172.394 176.902 194.559  1.00  0.00     0.001 C 
BRANCH   5   6
ATOM      6  C   UNL     1     173.476 176.898 193.459  1.00  0.00     0.009 C 
BRANCH   6   7
ATOM      7  C   UNL     1     173.505 178.161 192.568  1.00  0.00     0.032 C 
ATOM      8  C   UNL     1     172.351 179.123 192.881  1.00  0.00     0.014 C 
BRANCH   7   9
ATOM      9  C   UNL     1     174.818 178.871 192.748  1.00  0.00     0.044 C 
ATOM     10  O   UNL     1     174.874 180.128 192.673  1.00  0.00    -0.550 OA
ATOM     11  O   UNL     1     175.982 178.148 192.978  1.00  0.00    -0.550 OA
ENDBRANCH   7   9
ENDBRANCH   6   7
ENDBRANCH   5   6
ENDBRANCH   4   5
ENDBRANCH   3   4
ENDBRANCH   2   3
ENDBRANCH   1   2
BRANCH   1  12
ATOM     12  C   UNL     1     173.024 180.433 197.258  1.00  0.00     0.000 C 
BRANCH  12  13
ATOM     13  C   UNL     1     173.762 180.868 198.533  1.00  0.00    -0.000 C 
BRANCH  13  14
ATOM     14  C   UNL     1     172.768 181.315 199.616  1.00  0.00    -0.000 C 
BRANCH  14  15
ATOM     15  C   UNL     1     171.515 180.426 199.667  1.00  0.00    -0.000 C 
BRANCH  15  16
ATOM     16  C   UNL     1     171.556 179.414 200.825  1.00  0.00    -0.000 C 
BRANCH  16  17
ATOM     17  C   UNL     1     171.373 177.962 200.335  1.00  0.00    -0.000 C 
BRANCH  17  18
ATOM     18  C   UNL     1     172.572 177.426 199.533  1.00  0.00    -0.003 C 
ATOM     19  C   UNL     1     173.898 177.558 200.281  1.00  0.00     0.004 C 
ENDBRANCH  17  18
ENDBRANCH  16  17
ENDBRANCH  15  16
ENDBRANCH  14  15
ENDBRANCH  13  14
ENDBRANCH  12  13
ENDBRANCH   1  12
TORSDOF 14
ENDMDL
MODEL 3
REMARK VINA RESULT:    -1.501      3.649      4.751
REMARK INTER + INTRA:          -5.168
REMARK INTER:                  -2.821
REMARK INTRA:                  -2.347
REMARK UNBOUND:                -2.437
REMARK SMILES CCCCCCCCCCCCCC[C@@H](C)C(=O)[O-]
REMARK SMILES IDX 9 1 10 2 11 3 12 4 13 5 14 6 15 7 16 8 17 9 18 10 19 11 8 12
REMARK SMILES IDX 7 13 6 14 5 15 4 16 3 17 2 18 1 19
REMARK H PARENT
REMARK Flexibility Score: inf
ROOT
ATOM      1  C   UNL     1     174.505 178.853 195.908  1.00  0.00     0.000 C 
ENDROOT
BRANCH   1   2
ATOM      2  C   UNL     1     173.128 179.528 195.997  1.00  0.00     0.000 C 
BRANCH   2   3
ATOM      3  C   UNL     1     173.194 180.976 195.488  1.00  0.00     0.000 C 
BRANCH   3   4
ATOM      4  C   UNL     1     172.400 181.188 194.187  1.00  0.00     0.000 C 
BRANCH   4   5
ATOM      5  C   UNL     1     172.918 180.396 192.970  1.00  0.00     0.001 C 
BRANCH   5   6
ATOM      6  C   UNL     1     172.001 179.252 192.488  1.00  0.00     0.009 C 
BRANCH   6   7
ATOM      7  C   UNL     1     172.618 177.838 192.582  1.00  0.00     0.032 C 
ATOM      8  C   UNL     1     171.746 176.875 193.400  1.00  0.00     0.014 C 
BRANCH   7   9
ATOM      9  C   UNL     1     172.821 177.286 191.198  1.00  0.00     0.044 C 
ATOM     10  O   UNL     1     173.971 176.944 190.816  1.00  0.00    -0.550 OA
ATOM     11  O   UNL     1     171.747 177.169 190.325  1.00  0.00    -0.550 OA
ENDBRANCH   7   9
ENDBRANCH   6   7
ENDBRANCH   5   6
ENDBRANCH   4   5
ENDBRANCH   3   4
ENDBRANCH   2   3
ENDBRANCH   1   2
BRANCH   1  12
ATOM     12  C   UNL     1     174.619 177.615 196.812  1.00  0.00     0.000 C 
BRANCH  12  13
ATOM     13  C   UNL     1     173.273 177.208 197.432  1.00  0.00    -0.000 C 
BRANCH  13  14
ATOM     14  C   UNL     1     173.318 177.326 198.963  1.00  0.00    -0.000 C 
BRANCH  14  15
ATOM     15  C   UNL     1     172.073 178.022 199.537  1.00  0.00    -0.000 C 
BRANCH  15  16
ATOM     16  C   UNL     1     172.240 179.548 199.629  1.00  0.00    -0.000 C 
BRANCH  16  17
ATOM     17  C   UNL     1     173.701 179.956 199.917  1.00  0.00    -0.000 C 
BRANCH  17  18
ATOM     18  C   UNL     1     174.143 181.228 199.173  1.00  0.00    -0.003 C 
ATOM     19  C   UNL     1     175.545 181.116 198.576  1.00  0.00     0.004 C 
ENDBRANCH  17  18
ENDBRANCH  16  17
ENDBRANCH  15  16
ENDBRANCH  14  15
ENDBRANCH  13  14
ENDBRANCH  12  13
ENDBRANCH   1  12
TORSDOF 14
ENDMDL
MODEL 4
REMARK VINA RESULT:    -1.498      3.818      5.217
REMARK INTER + INTRA:          -5.161
REMARK INTER:                  -2.974
REMARK INTRA:                  -2.187
REMARK UNBOUND:                -2.437
REMARK SMILES CCCCCCCCCCCCCC[C@@H](C)C(=O)[O-]
REMARK SMILES IDX 9 1 10 2 11 3 12 4 13 5 14 6 15 7 16 8 17 9 18 10 19 11 8 12
REMARK SMILES IDX 7 13 6 14 5 15 4 16 3 17 2 18 1 19
REMARK H PARENT
REMARK Flexibility Score: inf
ROOT
ATOM      1  C   UNL     1     174.608 179.506 196.208  1.00  0.00     0.000 C 
ENDROOT
BRANCH   1   2
ATOM      2  C   UNL     1     173.171 179.062 195.894  1.00  0.00     0.000 C 
BRANCH   2   3
ATOM      3  C   UNL     1     173.016 177.544 196.069  1.00  0.00     0.000 C 
BRANCH   3   4
ATOM      4  C   UNL     1     172.299 176.876 194.883  1.00  0.00     0.000 C 
BRANCH   4   5
ATOM      5  C   UNL     1     172.742 177.371 193.492  1.00  0.00     0.001 C 
BRANCH   5   6
ATOM      6  C   UNL     1     171.600 177.600 192.479  1.00  0.00     0.009 C 
BRANCH   6   7
ATOM      7  C   UNL     1     171.611 178.981 191.784  1.00  0.00     0.032 C 
ATOM      8  C   UNL     1     172.372 180.037 192.597  1.00  0.00     0.014 C 
BRANCH   7   9
ATOM      9  C   UNL     1     172.230 178.851 190.420  1.00  0.00     0.044 C 
ATOM     10  O   UNL     1     172.858 177.804 190.108  1.00  0.00    -0.550 OA
ATOM     11  O   UNL     1     172.132 179.889 189.502  1.00  0.00    -0.550 OA
ENDBRANCH   7   9
ENDBRANCH   6   7
ENDBRANCH   5   6
ENDBRANCH   4   5
ENDBRANCH   3   4
ENDBRANCH   2   3
ENDBRANCH   1   2
BRANCH   1  12
ATOM     12  C   UNL     1     175.353 178.509 197.109  1.00  0.00     0.000 C 
BRANCH  12  13
ATOM     13  C   UNL     1     175.958 179.173 198.355  1.00  0.00    -0.000 C 
BRANCH  13  14
ATOM     14  C   UNL     1     175.459 178.492 199.638  1.00  0.00    -0.000 C 
BRANCH  14  15
ATOM     15  C   UNL     1     174.616 177.239 199.349  1.00  0.00    -0.000 C 
BRANCH  15  16
ATOM     16  C   UNL     1     173.147 177.404 199.775  1.00  0.00    -0.000 C 
BRANCH  16  17
ATOM     17  C   UNL     1     172.865 178.804 200.359  1.00  0.00    -0.000 C 
BRANCH  17  18
ATOM     18  C   UNL     1     171.908 179.649 199.500  1.00  0.00    -0.003 C 
ATOM     19  C   UNL     1     172.548 180.935 198.980  1.00  0.00     0.004 C 
ENDBRANCH  17  18
ENDBRANCH  16  17
ENDBRANCH  15  16
ENDBRANCH  14  15
ENDBRANCH  13  14
ENDBRANCH  12  13
ENDBRANCH   1  12
TORSDOF 14
ENDMDL
MODEL 5
REMARK VINA RESULT:    -1.441      3.318      4.212
REMARK INTER + INTRA:          -5.057
REMARK INTER:                  -3.093
REMARK INTRA:                  -1.964
REMARK UNBOUND:                -2.437
REMARK SMILES CCCCCCCCCCCCCC[C@@H](C)C(=O)[O-]
REMARK SMILES IDX 9 1 10 2 11 3 12 4 13 5 14 6 15 7 16 8 17 9 18 10 19 11 8 12
REMARK SMILES IDX 7 13 6 14 5 15 4 16 3 17 2 18 1 19
REMARK H PARENT
REMARK Flexibility Score: inf
ROOT
ATOM      1  C   UNL     1     173.050 177.205 197.563  1.00  0.00     0.000 C 
ENDROOT
BRANCH   1   2
ATOM      2  C   UNL     1     173.652 176.924 196.178  1.00  0.00     0.000 C 
BRANCH   2   3
ATOM      3  C   UNL     1     175.052 177.545 196.054  1.00  0.00     0.000 C 
BRANCH   3   4
ATOM      4  C   UNL     1     175.106 178.696 195.034  1.00  0.00     0.000 C 
BRANCH   4   5
ATOM      5  C   UNL     1     174.250 178.487 193.769  1.00  0.00     0.001 C 
BRANCH   5   6
ATOM      6  C   UNL     1     172.953 179.319 193.706  1.00  0.00     0.009 C 
BRANCH   6   7
ATOM      7  C   UNL     1     172.087 179.083 192.447  1.00  0.00     0.032 C 
ATOM      8  C   UNL     1     172.740 179.645 191.177  1.00  0.00     0.014 C 
BRANCH   7   9
ATOM      9  C   UNL     1     171.837 177.610 192.278  1.00  0.00     0.044 C 
ATOM     10  O   UNL     1     172.144 177.036 191.200  1.00  0.00    -0.550 OA
ATOM     11  O   UNL     1     171.249 176.876 193.300  1.00  0.00    -0.550 OA
ENDBRANCH   7   9
ENDBRANCH   6   7
ENDBRANCH   5   6
ENDBRANCH   4   5
ENDBRANCH   3   4
ENDBRANCH   2   3
ENDBRANCH   1   2
BRANCH   1  12
ATOM     12  C   UNL     1     174.110 177.238 198.676  1.00  0.00     0.000 C 
BRANCH  12  13
ATOM     13  C   UNL     1     173.496 177.173 200.082  1.00  0.00    -0.000 C 
BRANCH  13  14
ATOM     14  C   UNL     1     172.020 177.596 200.056  1.00  0.00    -0.000 C 
BRANCH  14  15
ATOM     15  C   UNL     1     171.791 178.973 200.701  1.00  0.00    -0.000 C 
BRANCH  15  16
ATOM     16  C   UNL     1     171.279 180.018 199.695  1.00  0.00    -0.000 C 
BRANCH  16  17
ATOM     17  C   UNL     1     172.360 181.062 199.341  1.00  0.00    -0.000 C 
BRANCH  17  18
ATOM     18  C   UNL     1     172.994 180.845 197.956  1.00  0.00    -0.003 C 
ATOM     19  C   UNL     1     174.521 180.806 197.996  1.00  0.00     0.004 C 
ENDBRANCH  17  18
ENDBRANCH  16  17
ENDBRANCH  15  16
ENDBRANCH  14  15
ENDBRANCH  13  14
ENDBRANCH  12  13
ENDBRANCH   1  12
TORSDOF 14
ENDMDL
MODEL 6
REMARK VINA RESULT:    -1.425      2.906      6.016
REMARK INTER + INTRA:          -5.029
REMARK INTER:                  -2.415
REMARK INTRA:                  -2.614
REMARK UNBOUND:                -2.437
REMARK SMILES CCCCCCCCCCCCCC[C@@H](C)C(=O)[O-]
REMARK SMILES IDX 9 1 10 2 11 3 12 4 13 5 14 6 15 7 16 8 17 9 18 10 19 11 8 12
REMARK SMILES IDX 7 13 6 14 5 15 4 16 3 17 2 18 1 19
REMARK H PARENT
REMARK Flexibility Score: inf
ROOT
ATOM      1  C   UNL     1     172.519 180.350 192.247  1.00  0.00     0.000 C 
ENDROOT
BRANCH   1   2
ATOM      2  C   UNL     1     171.634 181.322 193.041  1.00  0.00     0.000 C 
BRANCH   2   3
ATOM      3  C   UNL     1     172.228 181.592 194.432  1.00  0.00     0.000 C 
BRANCH   3   4
ATOM      4  C   UNL     1     173.742 181.326 194.497  1.00  0.00     0.000 C 
BRANCH   4   5
ATOM      5  C   UNL     1     174.249 180.761 195.838  1.00  0.00     0.001 C 
BRANCH   5   6
ATOM      6  C   UNL     1     173.152 180.240 196.791  1.00  0.00     0.009 C 
BRANCH   6   7
ATOM      7  C   UNL     1     173.219 178.727 197.099  1.00  0.00     0.032 C 
ATOM      8  C   UNL     1     174.610 178.138 196.828  1.00  0.00     0.014 C 
BRANCH   7   9
ATOM      9  C   UNL     1     172.841 178.491 198.535  1.00  0.00     0.044 C 
ATOM     10  O   UNL     1     172.535 177.333 198.926  1.00  0.00    -0.550 OA
ATOM     11  O   UNL     1     172.806 179.548 199.435  1.00  0.00    -0.550 OA
ENDBRANCH   7   9
ENDBRANCH   6   7
ENDBRANCH   5   6
ENDBRANCH   4   5
ENDBRANCH   3   4
ENDBRANCH   2   3
ENDBRANCH   1   2
BRANCH   1  12
ATOM     12  C   UNL     1     171.718 179.199 191.617  1.00  0.00     0.000 C 
BRANCH  12  13
ATOM     13  C   UNL     1     171.685 177.945 192.504  1.00  0.00    -0.000 C 
BRANCH  13  14
ATOM     14  C   UNL     1     172.837 177.961 193.520  1.00  0.00    -0.000 C 
BRANCH  14  15
ATOM     15  C   UNL     1     173.967 176.988 193.144  1.00  0.00    -0.000 C 
BRANCH  15  16
ATOM     16  C   UNL     1     175.363 177.616 193.300  1.00  0.00    -0.000 C 
BRANCH  16  17
ATOM     17  C   UNL     1     175.727 178.529 192.109  1.00  0.00    -0.000 C 
BRANCH  17  18
ATOM     18  C   UNL     1     176.420 179.838 192.526  1.00  0.00    -0.003 C 
ATOM     19  C   UNL     1     176.133 180.996 191.573  1.00  0.00     0.004 C 
ENDBRANCH  17  18
ENDBRANCH  16  17
ENDBRANCH  15  16
ENDBRANCH  14  15
ENDBRANCH  13  14
ENDBRANCH  12  13
ENDBRANCH   1  12
TORSDOF 14
ENDMDL
MODEL 7
REMARK VINA RESULT:    -1.422      2.566      3.607
REMARK INTER + INTRA:          -5.023
REMARK INTER:                  -2.268
REMARK INTRA:                  -2.755
REMARK UNBOUND:                -2.437
REMARK SMILES CCCCCCCCCCCCCC[C@@H](C)C(=O)[O-]
REMARK SMILES IDX 9 1 10 2 11 3 12 4 13 5 14 6 15 7 16 8 17 9 18 10 19 11 8 12
REMARK SMILES IDX 7 13 6 14 5 15 4 16 3 17 2 18 1 19
REMARK H PARENT
REMARK Flexibility Score: inf
ROOT
ATOM      1  C   UNL     1     175.875 178.648 198.820  1.00  0.00     0.000 C 
ENDROOT
BRANCH   1   2
ATOM      2  C   UNL     1     176.516 177.738 197.761  1.00  0.00     0.000 C 
BRANCH   2   3
ATOM      3  C   UNL     1     175.495 177.356 196.678  1.00  0.00     0.000 C 
BRANCH   3   4
ATOM      4  C   UNL     1     174.038 177.518 197.147  1.00  0.00     0.000 C 
BRANCH   4   5
ATOM      5  C   UNL     1     173.086 178.148 196.111  1.00  0.00     0.001 C 
BRANCH   5   6
ATOM      6  C   UNL     1     173.652 179.364 195.349  1.00  0.00     0.009 C 
BRANCH   6   7
ATOM      7  C   UNL     1     173.316 180.739 195.972  1.00  0.00     0.032 C 
ATOM      8  C   UNL     1     174.554 181.435 196.552  1.00  0.00     0.014 C 
BRANCH   7   9
ATOM      9  C   UNL     1     172.681 181.619 194.931  1.00  0.00     0.044 C 
ATOM     10  O   UNL     1     172.828 182.869 194.985  1.00  0.00    -0.550 OA
ATOM     11  O   UNL     1     171.914 181.064 193.914  1.00  0.00    -0.550 OA
ENDBRANCH   7   9
ENDBRANCH   6   7
ENDBRANCH   5   6
ENDBRANCH   4   5
ENDBRANCH   3   4
ENDBRANCH   2   3
ENDBRANCH   1   2
BRANCH   1  12
ATOM     12  C   UNL     1     176.170 178.185 200.256  1.00  0.00     0.000 C 
BRANCH  12  13
ATOM     13  C   UNL     1     174.905 178.105 201.125  1.00  0.00    -0.000 C 
BRANCH  13  14
ATOM     14  C   UNL     1     174.049 176.891 200.736  1.00  0.00    -0.000 C 
BRANCH  14  15
ATOM     15  C   UNL     1     172.605 177.279 200.380  1.00  0.00    -0.000 C 
BRANCH  15  16
ATOM     16  C   UNL     1     172.299 178.756 200.680  1.00  0.00    -0.000 C 
BRANCH  16  17
ATOM     17  C   UNL     1     172.016 179.564 199.396  1.00  0.00    -0.000 C 
BRANCH  17  18
ATOM     18  C   UNL     1     172.266 181.074 199.551  1.00  0.00    -0.003 C 
ATOM     19  C   UNL     1     173.659 181.398 200.090  1.00  0.00     0.004 C 
ENDBRANCH  17  18
ENDBRANCH  16  17
ENDBRANCH  15  16
ENDBRANCH  14  15
ENDBRANCH  13  14
ENDBRANCH  12  13
ENDBRANCH   1  12
TORSDOF 14
ENDMDL
MODEL 8
REMARK VINA RESULT:    -1.371      3.601      5.953
REMARK INTER + INTRA:          -4.930
REMARK INTER:                  -2.062
REMARK INTRA:                  -2.868
REMARK UNBOUND:                -2.437
REMARK SMILES CCCCCCCCCCCCCC[C@@H](C)C(=O)[O-]
REMARK SMILES IDX 9 1 10 2 11 3 12 4 13 5 14 6 15 7 16 8 17 9 18 10 19 11 8 12
REMARK SMILES IDX 7 13 6 14 5 15 4 16 3 17 2 18 1 19
REMARK H PARENT
REMARK Flexibility Score: inf
ROOT
ATOM      1  C   UNL     1     176.272 180.245 195.229  1.00  0.00     0.000 C 
ENDROOT
BRANCH   1   2
ATOM      2  C   UNL     1     175.563 181.491 195.781  1.00  0.00     0.000 C 
BRANCH   2   3
ATOM      3  C   UNL     1     174.578 181.110 196.897  1.00  0.00     0.000 C 
BRANCH   3   4
ATOM      4  C   UNL     1     173.109 181.168 196.442  1.00  0.00     0.000 C 
BRANCH   4   5
ATOM      5  C   UNL     1     172.875 181.854 195.081  1.00  0.00     0.001 C 
BRANCH   5   6
ATOM      6  C   UNL     1     172.343 180.935 193.962  1.00  0.00     0.009 C 
BRANCH   6   7
ATOM      7  C   UNL     1     172.364 181.552 192.545  1.00  0.00     0.032 C 
ATOM      8  C   UNL     1     173.663 182.320 192.263  1.00  0.00     0.014 C 
BRANCH   7   9
ATOM      9  C   UNL     1     172.187 180.465 191.522  1.00  0.00     0.044 C 
ATOM     10  O   UNL     1     172.014 179.272 191.889  1.00  0.00    -0.550 OA
ATOM     11  O   UNL     1     172.234 180.762 190.165  1.00  0.00    -0.550 OA
ENDBRANCH   7   9
ENDBRANCH   6   7
ENDBRANCH   5   6
ENDBRANCH   4   5
ENDBRANCH   3   4
ENDBRANCH   2   3
ENDBRANCH   1   2
BRANCH   1  12
ATOM     12  C   UNL     1     176.027 180.042 193.725  1.00  0.00     0.000 C 
BRANCH  12  13
ATOM     13  C   UNL     1     175.338 178.705 193.412  1.00  0.00    -0.000 C 
BRANCH  13  14
ATOM     14  C   UNL     1     174.846 178.027 194.700  1.00  0.00    -0.000 C 
BRANCH  14  15
ATOM     15  C   UNL     1     173.416 177.477 194.565  1.00  0.00    -0.000 C 
BRANCH  15  16
ATOM     16  C   UNL     1     172.743 177.244 195.929  1.00  0.00    -0.000 C 
BRANCH  16  17
ATOM     17  C   UNL     1     173.699 177.532 197.106  1.00  0.00    -0.000 C 
BRANCH  17  18
ATOM     18  C   UNL     1     173.042 177.369 198.487  1.00  0.00    -0.003 C 
ATOM     19  C   UNL     1     172.619 178.698 199.110  1.00  0.00     0.004 C 
ENDBRANCH  17  18
ENDBRANCH  16  17
ENDBRANCH  15  16
ENDBRANCH  14  15
ENDBRANCH  13  14
ENDBRANCH  12  13
ENDBRANCH   1  12
TORSDOF 14
ENDMDL
