MODEL 1
REMARK VINA RESULT:    -4.556      0.000      0.000
REMARK INTER + INTRA:          -4.556
REMARK INTER:                  -4.556
REMARK INTRA:                   0.000
REMARK UNBOUND:                 0.000
REMARK SMILES c1ccc2ccccc2c1
REMARK SMILES IDX 2 1 1 2 10 3 9 4 8 5 7 6 6 7 5 8 4 9 3 10
REMARK H PARENT
REMARK Flexibility Score: inf
ROOT
ATOM      1  C   UNL     1      -7.088   2.594  -3.746  1.00  0.00     0.001 A 
ATOM      2  C   UNL     1      -7.414   2.088  -2.485  1.00  0.00     0.001 A 
ATOM      3  C   UNL     1      -7.804   0.753  -2.341  1.00  0.00     0.009 A 
ATOM      4  C   UNL     1      -7.871  -0.086  -3.465  1.00  0.00    -0.018 A 
ATOM      5  C   UNL     1      -8.262  -1.428  -3.334  1.00  0.00     0.009 A 
ATOM      6  C   UNL     1      -8.325  -2.252  -4.462  1.00  0.00     0.001 A 
ATOM      7  C   UNL     1      -7.999  -1.746  -5.723  1.00  0.00     0.001 A 
ATOM      8  C   UNL     1      -7.609  -0.411  -5.867  1.00  0.00     0.009 A 
ATOM      9  C   UNL     1      -7.541   0.428  -4.743  1.00  0.00    -0.018 A 
ATOM     10  C   UNL     1      -7.151   1.770  -4.874  1.00  0.00     0.009 A 
ENDROOT
TORSDOF 0
ENDMDL
MODEL 2
REMARK VINA RESULT:    -4.514      0.169      2.085
REMARK INTER + INTRA:          -4.514
REMARK INTER:                  -4.514
REMARK INTRA:                   0.000
REMARK UNBOUND:                 0.000
REMARK SMILES c1ccc2ccccc2c1
REMARK SMILES IDX 2 1 1 2 10 3 9 4 8 5 7 6 6 7 5 8 4 9 3 10
REMARK H PARENT
REMARK Flexibility Score: inf
ROOT
ATOM      1  C   UNL     1      -7.428   1.896  -2.350  1.00  0.00     0.001 A 
ATOM      2  C   UNL     1      -7.057   2.487  -3.561  1.00  0.00     0.001 A 
ATOM      3  C   UNL     1      -7.093   1.745  -4.746  1.00  0.00     0.009 A 
ATOM      4  C   UNL     1      -7.500   0.401  -4.724  1.00  0.00    -0.018 A 
ATOM      5  C   UNL     1      -7.540  -0.354  -5.906  1.00  0.00     0.009 A 
ATOM      6  C   UNL     1      -7.948  -1.691  -5.869  1.00  0.00     0.001 A 
ATOM      7  C   UNL     1      -8.318  -2.282  -4.658  1.00  0.00     0.001 A 
ATOM      8  C   UNL     1      -8.283  -1.540  -3.473  1.00  0.00     0.009 A 
ATOM      9  C   UNL     1      -7.876  -0.197  -3.495  1.00  0.00    -0.018 A 
ATOM     10  C   UNL     1      -7.836   0.559  -2.313  1.00  0.00     0.009 A 
ENDROOT
TORSDOF 0
ENDMDL
MODEL 3
REMARK VINA RESULT:    -4.491      0.186      4.014
REMARK INTER + INTRA:          -4.491
REMARK INTER:                  -4.491
REMARK INTRA:                   0.000
REMARK UNBOUND:                 0.000
REMARK SMILES c1ccc2ccccc2c1
REMARK SMILES IDX 2 1 1 2 10 3 9 4 8 5 7 6 6 7 5 8 4 9 3 10
REMARK H PARENT
REMARK Flexibility Score: inf
ROOT
ATOM      1  C   UNL     1      -8.285  -2.234  -4.721  1.00  0.00     0.001 A 
ATOM      2  C   UNL     1      -7.877  -1.644  -5.920  1.00  0.00     0.001 A 
ATOM      3  C   UNL     1      -7.467  -0.307  -5.943  1.00  0.00     0.009 A 
ATOM      4  C   UNL     1      -7.463   0.449  -4.761  1.00  0.00    -0.018 A 
ATOM      5  C   UNL     1      -7.054   1.791  -4.770  1.00  0.00     0.009 A 
ATOM      6  C   UNL     1      -7.055   2.532  -3.585  1.00  0.00     0.001 A 
ATOM      7  C   UNL     1      -7.463   1.942  -2.385  1.00  0.00     0.001 A 
ATOM      8  C   UNL     1      -7.873   0.606  -2.362  1.00  0.00     0.009 A 
ATOM      9  C   UNL     1      -7.877  -0.150  -3.545  1.00  0.00    -0.018 A 
ATOM     10  C   UNL     1      -8.287  -1.493  -3.535  1.00  0.00     0.009 A 
ENDROOT
TORSDOF 0
ENDMDL
MODEL 4
REMARK VINA RESULT:    -4.471      1.625      2.429
REMARK INTER + INTRA:          -4.471
REMARK INTER:                  -4.471
REMARK INTRA:                   0.000
REMARK UNBOUND:                 0.000
REMARK SMILES c1ccc2ccccc2c1
REMARK SMILES IDX 2 1 1 2 10 3 9 4 8 5 7 6 6 7 5 8 4 9 3 10
REMARK H PARENT
REMARK Flexibility Score: inf
ROOT
ATOM      1  C   UNL     1      -9.016   3.810  -3.236  1.00  0.00     0.001 A 
ATOM      2  C   UNL     1      -7.703   3.761  -3.712  1.00  0.00     0.001 A 
ATOM      3  C   UNL     1      -7.137   2.540  -4.092  1.00  0.00     0.009 A 
ATOM      4  C   UNL     1      -7.886   1.357  -3.995  1.00  0.00    -0.018 A 
ATOM      5  C   UNL     1      -7.330   0.124  -4.372  1.00  0.00     0.009 A 
ATOM      6  C   UNL     1      -8.088  -1.047  -4.270  1.00  0.00     0.001 A 
ATOM      7  C   UNL     1      -9.401  -0.997  -3.794  1.00  0.00     0.001 A 
ATOM      8  C   UNL     1      -9.967   0.224  -3.415  1.00  0.00     0.009 A 
ATOM      9  C   UNL     1      -9.217   1.407  -3.512  1.00  0.00    -0.018 A 
ATOM     10  C   UNL     1      -9.774   2.640  -3.134  1.00  0.00     0.009 A 
ENDROOT
TORSDOF 0
ENDMDL
MODEL 5
REMARK VINA RESULT:    -4.462      1.614      1.898
REMARK INTER + INTRA:          -4.462
REMARK INTER:                  -4.462
REMARK INTRA:                   0.000
REMARK UNBOUND:                 0.000
REMARK SMILES c1ccc2ccccc2c1
REMARK SMILES IDX 2 1 1 2 10 3 9 4 8 5 7 6 6 7 5 8 4 9 3 10
REMARK H PARENT
REMARK Flexibility Score: inf
ROOT
ATOM      1  C   UNL     1      -7.703   3.742  -3.733  1.00  0.00     0.001 A 
ATOM      2  C   UNL     1      -9.013   3.790  -3.250  1.00  0.00     0.001 A 
ATOM      3  C   UNL     1      -9.766   2.617  -3.140  1.00  0.00     0.009 A 
ATOM      4  C   UNL     1      -9.208   1.385  -3.515  1.00  0.00    -0.018 A 
ATOM      5  C   UNL     1      -9.953   0.200  -3.410  1.00  0.00     0.009 A 
ATOM      6  C   UNL     1      -9.385  -1.021  -3.787  1.00  0.00     0.001 A 
ATOM      7  C   UNL     1      -8.075  -1.069  -4.270  1.00  0.00     0.001 A 
ATOM      8  C   UNL     1      -7.322   0.105  -4.380  1.00  0.00     0.009 A 
ATOM      9  C   UNL     1      -7.880   1.337  -4.005  1.00  0.00    -0.018 A 
ATOM     10  C   UNL     1      -7.135   2.522  -4.110  1.00  0.00     0.009 A 
ENDROOT
TORSDOF 0
ENDMDL
MODEL 6
REMARK VINA RESULT:    -4.439      1.717      4.170
REMARK INTER + INTRA:          -4.439
REMARK INTER:                  -4.439
REMARK INTRA:                   0.000
REMARK UNBOUND:                 0.000
REMARK SMILES c1ccc2ccccc2c1
REMARK SMILES IDX 2 1 1 2 10 3 9 4 8 5 7 6 6 7 5 8 4 9 3 10
REMARK H PARENT
REMARK Flexibility Score: inf
ROOT
ATOM      1  C   UNL     1      -9.143  -1.086  -4.069  1.00  0.00     0.001 A 
ATOM      2  C   UNL     1      -7.875  -0.903  -4.626  1.00  0.00     0.001 A 
ATOM      3  C   UNL     1      -7.303   0.373  -4.668  1.00  0.00     0.009 A 
ATOM      4  C   UNL     1      -8.001   1.475  -4.150  1.00  0.00    -0.018 A 
ATOM      5  C   UNL     1      -7.438   2.760  -4.186  1.00  0.00     0.009 A 
ATOM      6  C   UNL     1      -8.144   3.849  -3.666  1.00  0.00     0.001 A 
ATOM      7  C   UNL     1      -9.413   3.665  -3.109  1.00  0.00     0.001 A 
ATOM      8  C   UNL     1      -9.985   2.390  -3.068  1.00  0.00     0.009 A 
ATOM      9  C   UNL     1      -9.287   1.288  -3.585  1.00  0.00    -0.018 A 
ATOM     10  C   UNL     1      -9.850   0.003  -3.550  1.00  0.00     0.009 A 
ENDROOT
TORSDOF 0
ENDMDL
MODEL 7
REMARK VINA RESULT:    -4.366      2.002      3.726
REMARK INTER + INTRA:          -4.366
REMARK INTER:                  -4.366
REMARK INTRA:                   0.000
REMARK UNBOUND:                 0.000
REMARK SMILES c1ccc2ccccc2c1
REMARK SMILES IDX 2 1 1 2 10 3 9 4 8 5 7 6 6 7 5 8 4 9 3 10
REMARK H PARENT
REMARK Flexibility Score: inf
ROOT
ATOM      1  C   UNL     1      -7.753  -0.421  -3.548  1.00  0.00     0.001 A 
ATOM      2  C   UNL     1      -7.348   0.338  -2.447  1.00  0.00     0.001 A 
ATOM      3  C   UNL     1      -7.729   1.679  -2.338  1.00  0.00     0.009 A 
ATOM      4  C   UNL     1      -8.521   2.269  -3.335  1.00  0.00    -0.018 A 
ATOM      5  C   UNL     1      -8.911   3.614  -3.237  1.00  0.00     0.009 A 
ATOM      6  C   UNL     1      -9.700   4.189  -4.238  1.00  0.00     0.001 A 
ATOM      7  C   UNL     1     -10.106   3.430  -5.339  1.00  0.00     0.001 A 
ATOM      8  C   UNL     1      -9.724   2.089  -5.449  1.00  0.00     0.009 A 
ATOM      9  C   UNL     1      -8.932   1.499  -4.451  1.00  0.00    -0.018 A 
ATOM     10  C   UNL     1      -8.542   0.154  -4.549  1.00  0.00     0.009 A 
ENDROOT
TORSDOF 0
ENDMDL
MODEL 8
REMARK VINA RESULT:    -4.338      0.994      3.552
REMARK INTER + INTRA:          -4.338
REMARK INTER:                  -4.338
REMARK INTRA:                   0.000
REMARK UNBOUND:                 0.000
REMARK SMILES c1ccc2ccccc2c1
REMARK SMILES IDX 2 1 1 2 10 3 9 4 8 5 7 6 6 7 5 8 4 9 3 10
REMARK H PARENT
REMARK Flexibility Score: inf
ROOT
ATOM      1  C   UNL     1      -9.414  -1.639  -5.369  1.00  0.00     0.001 A 
ATOM      2  C   UNL     1      -8.871  -2.192  -4.207  1.00  0.00     0.001 A 
ATOM      3  C   UNL     1      -8.220  -1.375  -3.276  1.00  0.00     0.009 A 
ATOM      4  C   UNL     1      -8.109   0.005  -3.508  1.00  0.00    -0.018 A 
ATOM      5  C   UNL     1      -7.458   0.835  -2.582  1.00  0.00     0.009 A 
ATOM      6  C   UNL     1      -7.354   2.208  -2.825  1.00  0.00     0.001 A 
ATOM      7  C   UNL     1      -7.898   2.761  -3.987  1.00  0.00     0.001 A 
ATOM      8  C   UNL     1      -8.549   1.945  -4.918  1.00  0.00     0.009 A 
ATOM      9  C   UNL     1      -8.660   0.565  -4.686  1.00  0.00    -0.018 A 
ATOM     10  C   UNL     1      -9.311  -0.266  -5.612  1.00  0.00     0.009 A 
ENDROOT
TORSDOF 0
ENDMDL
MODEL 9
REMARK VINA RESULT:    -4.336      1.144      2.045
REMARK INTER + INTRA:          -4.336
REMARK INTER:                  -4.336
REMARK INTRA:                   0.000
REMARK UNBOUND:                 0.000
REMARK SMILES c1ccc2ccccc2c1
REMARK SMILES IDX 2 1 1 2 10 3 9 4 8 5 7 6 6 7 5 8 4 9 3 10
REMARK H PARENT
REMARK Flexibility Score: inf
ROOT
ATOM      1  C   UNL     1      -7.184   0.626  -4.770  1.00  0.00     0.001 A 
ATOM      2  C   UNL     1      -7.473   0.434  -3.417  1.00  0.00     0.001 A 
ATOM      3  C   UNL     1      -8.040  -0.768  -2.981  1.00  0.00     0.009 A 
ATOM      4  C   UNL     1      -8.323  -1.788  -3.903  1.00  0.00    -0.018 A 
ATOM      5  C   UNL     1      -8.892  -2.999  -3.479  1.00  0.00     0.009 A 
ATOM      6  C   UNL     1      -9.168  -4.006  -4.409  1.00  0.00     0.001 A 
ATOM      7  C   UNL     1      -8.880  -3.814  -5.762  1.00  0.00     0.001 A 
ATOM      8  C   UNL     1      -8.312  -2.612  -6.198  1.00  0.00     0.009 A 
ATOM      9  C   UNL     1      -8.030  -1.593  -5.276  1.00  0.00    -0.018 A 
ATOM     10  C   UNL     1      -7.461  -0.382  -5.700  1.00  0.00     0.009 A 
ENDROOT
TORSDOF 0
ENDMDL
