MODEL 1
REMARK VINA RESULT:    -5.712      0.000      0.000
REMARK INTER + INTRA:          -9.640
REMARK INTER:                  -8.884
REMARK INTRA:                  -0.756
REMARK UNBOUND:                -0.756
REMARK SMILES C[C@@]12C[C@H](O)[C@H]3C[C@]1(O[C@H]1O[C@H](CO)[C@H](O)[C@H](O)[C@@H]1O)[C@@]3(COC(=O)c1ccccc1)C(=O)O2
REMARK SMILES IDX 1 1 2 2 3 3 4 4 6 5 7 6 8 7 21 8 32 9 33 10 34 11 9 12 10 13
REMARK SMILES IDX 19 14 11 15 17 16 12 17 15 18 20 19 18 21 13 23 14 24 16 26
REMARK SMILES IDX 5 28 22 30 23 31 24 32 25 33 26 34 27 35 31 36 28 37 30 38
REMARK SMILES IDX 29 39
REMARK H PARENT 20 20 18 22 14 25 16 27 5 29
REMARK Flexibility Score: inf
ROOT
ATOM      1  C   UNL     1       3.353  -7.050  37.362  1.00  0.00     0.060 C 
ATOM      2  C   UNL     1       3.280  -6.276  36.042  1.00  0.00     0.142 C 
ATOM      3  C   UNL     1       1.877  -5.586  35.870  1.00  0.00     0.083 C 
ATOM      4  C   UNL     1       1.900  -4.510  34.723  1.00  0.00     0.123 C 
ATOM      5  C   UNL     1       3.352  -3.964  34.504  1.00  0.00     0.045 C 
ATOM      6  C   UNL     1       3.941  -3.769  35.902  1.00  0.00     0.049 C 
ATOM      7  C   UNL     1       4.444  -5.212  35.801  1.00  0.00     0.131 C 
ATOM      8  C   UNL     1       4.401  -5.101  34.261  1.00  0.00     0.140 C 
ATOM      9  C   UNL     1       3.891  -6.448  33.850  1.00  0.00     0.319 C 
ATOM     10  O   UNL     1       3.796  -6.862  32.664  1.00  0.00    -0.251 OA
ATOM     11  O   UNL     1       3.394  -7.151  34.930  1.00  0.00    -0.456 OA
ENDROOT
BRANCH   7  12
ATOM     12  O   UNL     1       5.692  -5.363  36.479  1.00  0.00    -0.338 OA
BRANCH  12  13
ATOM     13  C   UNL     1       5.895  -4.499  37.589  1.00  0.00     0.282 C 
ATOM     14  C   UNL     1       7.270  -3.797  37.462  1.00  0.00     0.202 C 
ATOM     15  O   UNL     1       5.821  -5.217  38.813  1.00  0.00    -0.341 OA
ATOM     16  C   UNL     1       8.418  -4.809  37.649  1.00  0.00     0.179 C 
ATOM     17  C   UNL     1       6.791  -6.248  38.888  1.00  0.00     0.178 C 
ATOM     18  C   UNL     1       8.211  -5.644  38.920  1.00  0.00     0.177 C 
BRANCH  14  19
ATOM     19  O   UNL     1       7.373  -2.773  38.420  1.00  0.00    -0.385 OA
ATOM     20  H   UNL     1       7.927  -2.056  38.017  1.00  0.00     0.211 HD
ENDBRANCH  14  19
BRANCH  16  21
ATOM     21  O   UNL     1       9.654  -4.145  37.714  1.00  0.00    -0.387 OA
ATOM     22  H   UNL     1       9.455  -3.174  37.738  1.00  0.00     0.211 HD
ENDBRANCH  16  21
BRANCH  17  23
ATOM     23  C   UNL     1       6.505  -7.101  40.131  1.00  0.00     0.191 C 
BRANCH  23  24
ATOM     24  O   UNL     1       5.880  -6.327  41.120  1.00  0.00    -0.394 OA
ATOM     25  H   UNL     1       6.359  -5.459  41.163  1.00  0.00     0.210 HD
ENDBRANCH  23  24
ENDBRANCH  17  23
BRANCH  18  26
ATOM     26  O   UNL     1       8.373  -4.829  40.056  1.00  0.00    -0.387 OA
ATOM     27  H   UNL     1       7.518  -4.850  40.559  1.00  0.00     0.211 HD
ENDBRANCH  18  26
ENDBRANCH  12  13
ENDBRANCH   7  12
BRANCH   4  28
ATOM     28  O   UNL     1       1.393  -5.058  33.534  1.00  0.00    -0.393 OA
ATOM     29  H   UNL     1       2.176  -5.332  32.989  1.00  0.00     0.210 HD
ENDBRANCH   4  28
BRANCH   8  30
ATOM     30  C   UNL     1       5.671  -4.583  33.528  1.00  0.00     0.255 C 
BRANCH  30  31
ATOM     31  O   UNL     1       5.578  -4.719  32.109  1.00  0.00    -0.461 OA
BRANCH  31  32
ATOM     32  C   UNL     1       5.234  -3.675  31.239  1.00  0.00     0.338 C 
ATOM     33  O   UNL     1       4.822  -3.928  30.073  1.00  0.00    -0.246 OA
BRANCH  32  34
ATOM     34  C   UNL     1       5.371  -2.272  31.688  1.00  0.00     0.060 A 
ATOM     35  C   UNL     1       4.241  -1.543  32.101  1.00  0.00     0.015 A 
ATOM     36  C   UNL     1       6.633  -1.646  31.707  1.00  0.00     0.015 A 
ATOM     37  C   UNL     1       4.370  -0.214  32.519  1.00  0.00     0.001 A 
ATOM     38  C   UNL     1       6.757  -0.318  32.130  1.00  0.00     0.001 A 
ATOM     39  C   UNL     1       5.627   0.397  32.537  1.00  0.00     0.000 A 
ENDBRANCH  32  34
ENDBRANCH  31  32
ENDBRANCH  30  31
ENDBRANCH   8  30
TORSDOF 12
ENDMDL
MODEL 2
REMARK VINA RESULT:    -5.675      1.149      1.482
REMARK INTER + INTRA:          -9.583
REMARK INTER:                  -8.574
REMARK INTRA:                  -1.009
REMARK UNBOUND:                -0.756
REMARK SMILES C[C@@]12C[C@H](O)[C@H]3C[C@]1(O[C@H]1O[C@H](CO)[C@H](O)[C@H](O)[C@@H]1O)[C@@]3(COC(=O)c1ccccc1)C(=O)O2
REMARK SMILES IDX 1 1 2 2 3 3 4 4 6 5 7 6 8 7 21 8 32 9 33 10 34 11 9 12 10 13
REMARK SMILES IDX 19 14 11 15 17 16 12 17 15 18 20 19 18 21 13 23 14 24 16 26
REMARK SMILES IDX 5 28 22 30 23 31 24 32 25 33 26 34 27 35 31 36 28 37 30 38
REMARK SMILES IDX 29 39
REMARK H PARENT 20 20 18 22 14 25 16 27 5 29
REMARK Flexibility Score: inf
ROOT
ATOM      1  C   UNL     1       3.574  -6.840  36.965  1.00  0.00     0.060 C 
ATOM      2  C   UNL     1       3.844  -5.847  35.829  1.00  0.00     0.142 C 
ATOM      3  C   UNL     1       2.590  -4.935  35.569  1.00  0.00     0.083 C 
ATOM      4  C   UNL     1       2.954  -3.693  34.675  1.00  0.00     0.123 C 
ATOM      5  C   UNL     1       4.475  -3.341  34.811  1.00  0.00     0.045 C 
ATOM      6  C   UNL     1       4.807  -3.481  36.298  1.00  0.00     0.049 C 
ATOM      7  C   UNL     1       5.149  -4.944  35.998  1.00  0.00     0.131 C 
ATOM      8  C   UNL     1       5.412  -4.563  34.524  1.00  0.00     0.140 C 
ATOM      9  C   UNL     1       4.836  -5.727  33.778  1.00  0.00     0.319 C 
ATOM     10  O   UNL     1       4.921  -5.911  32.535  1.00  0.00    -0.251 OA
ATOM     11  O   UNL     1       4.065  -6.523  34.601  1.00  0.00    -0.456 OA
ENDROOT
BRANCH   7  12
ATOM     12  O   UNL     1       6.218  -5.394  36.829  1.00  0.00    -0.338 OA
BRANCH  12  13
ATOM     13  C   UNL     1       6.430  -4.643  38.017  1.00  0.00     0.282 C 
ATOM     14  C   UNL     1       7.946  -4.387  38.211  1.00  0.00     0.202 C 
ATOM     15  O   UNL     1       5.897  -5.319  39.148  1.00  0.00    -0.341 OA
ATOM     16  C   UNL     1       8.683  -5.700  38.545  1.00  0.00     0.179 C 
ATOM     17  C   UNL     1       6.486  -6.595  39.336  1.00  0.00     0.178 C 
ATOM     18  C   UNL     1       7.982  -6.447  39.688  1.00  0.00     0.177 C 
BRANCH  14  19
ATOM     19  O   UNL     1       8.143  -3.452  39.243  1.00  0.00    -0.385 OA
ATOM     20  H   UNL     1       7.487  -3.665  39.955  1.00  0.00     0.211 HD
ENDBRANCH  14  19
BRANCH  16  21
ATOM     21  O   UNL     1      10.017  -5.440  38.897  1.00  0.00    -0.387 OA
ATOM     22  H   UNL     1      10.584  -5.948  38.262  1.00  0.00     0.211 HD
ENDBRANCH  16  21
BRANCH  17  23
ATOM     23  C   UNL     1       5.711  -7.335  40.434  1.00  0.00     0.191 C 
BRANCH  23  24
ATOM     24  O   UNL     1       5.337  -6.444  41.451  1.00  0.00    -0.394 OA
ATOM     25  H   UNL     1       6.019  -5.725  41.481  1.00  0.00     0.210 HD
ENDBRANCH  23  24
ENDBRANCH  17  23
BRANCH  18  26
ATOM     26  O   UNL     1       8.135  -5.731  40.889  1.00  0.00    -0.387 OA
ATOM     27  H   UNL     1       7.364  -5.957  41.469  1.00  0.00     0.211 HD
ENDBRANCH  18  26
ENDBRANCH  12  13
ENDBRANCH   7  12
BRANCH   4  28
ATOM     28  O   UNL     1       2.622  -3.944  33.335  1.00  0.00    -0.393 OA
ATOM     29  H   UNL     1       2.470  -4.922  33.257  1.00  0.00     0.210 HD
ENDBRANCH   4  28
BRANCH   8  30
ATOM     30  C   UNL     1       6.849  -4.122  34.128  1.00  0.00     0.255 C 
BRANCH  30  31
ATOM     31  O   UNL     1       7.090  -4.240  32.724  1.00  0.00    -0.461 OA
BRANCH  31  32
ATOM     32  C   UNL     1       7.232  -3.150  31.855  1.00  0.00     0.338 C 
ATOM     33  O   UNL     1       8.210  -3.094  31.060  1.00  0.00    -0.246 OA
BRANCH  32  34
ATOM     34  C   UNL     1       6.237  -2.056  31.884  1.00  0.00     0.060 A 
ATOM     35  C   UNL     1       6.557  -0.817  32.470  1.00  0.00     0.015 A 
ATOM     36  C   UNL     1       4.956  -2.237  31.327  1.00  0.00     0.015 A 
ATOM     37  C   UNL     1       5.613   0.216  32.504  1.00  0.00     0.001 A 
ATOM     38  C   UNL     1       4.017  -1.201  31.359  1.00  0.00     0.001 A 
ATOM     39  C   UNL     1       4.346   0.025  31.945  1.00  0.00     0.000 A 
ENDBRANCH  32  34
ENDBRANCH  31  32
ENDBRANCH  30  31
ENDBRANCH   8  30
TORSDOF 12
ENDMDL
MODEL 3
REMARK VINA RESULT:    -5.160      1.527      2.023
REMARK INTER + INTRA:          -8.781
REMARK INTER:                  -8.212
REMARK INTRA:                  -0.570
REMARK UNBOUND:                -0.756
REMARK SMILES C[C@@]12C[C@H](O)[C@H]3C[C@]1(O[C@H]1O[C@H](CO)[C@H](O)[C@H](O)[C@@H]1O)[C@@]3(COC(=O)c1ccccc1)C(=O)O2
REMARK SMILES IDX 1 1 2 2 3 3 4 4 6 5 7 6 8 7 21 8 32 9 33 10 34 11 9 12 10 13
REMARK SMILES IDX 19 14 11 15 17 16 12 17 15 18 20 19 18 21 13 23 14 24 16 26
REMARK SMILES IDX 5 28 22 30 23 31 24 32 25 33 26 34 27 35 31 36 28 37 30 38
REMARK SMILES IDX 29 39
REMARK H PARENT 20 20 18 22 14 25 16 27 5 29
REMARK Flexibility Score: inf
ROOT
ATOM      1  C   UNL     1       6.016  -8.106  35.558  1.00  0.00     0.060 C 
ATOM      2  C   UNL     1       4.817  -7.237  35.164  1.00  0.00     0.142 C 
ATOM      3  C   UNL     1       3.469  -8.033  35.316  1.00  0.00     0.083 C 
ATOM      4  C   UNL     1       2.224  -7.074  35.268  1.00  0.00     0.123 C 
ATOM      5  C   UNL     1       2.622  -5.626  35.716  1.00  0.00     0.045 C 
ATOM      6  C   UNL     1       3.551  -5.800  36.919  1.00  0.00     0.049 C 
ATOM      7  C   UNL     1       4.708  -5.833  35.915  1.00  0.00     0.131 C 
ATOM      8  C   UNL     1       3.834  -5.050  34.909  1.00  0.00     0.140 C 
ATOM      9  C   UNL     1       4.178  -5.700  33.603  1.00  0.00     0.319 C 
ATOM     10  O   UNL     1       3.786  -5.313  32.471  1.00  0.00    -0.251 OA
ATOM     11  O   UNL     1       4.876  -6.876  33.793  1.00  0.00    -0.456 OA
ENDROOT
BRANCH   7  12
ATOM     12  O   UNL     1       5.878  -5.235  36.471  1.00  0.00    -0.338 OA
BRANCH  12  13
ATOM     13  C   UNL     1       5.786  -4.863  37.840  1.00  0.00     0.282 C 
ATOM     14  C   UNL     1       6.320  -3.422  38.029  1.00  0.00     0.202 C 
ATOM     15  O   UNL     1       6.511  -5.767  38.663  1.00  0.00    -0.341 OA
ATOM     16  C   UNL     1       7.844  -3.370  37.801  1.00  0.00     0.179 C 
ATOM     17  C   UNL     1       7.887  -5.815  38.323  1.00  0.00     0.178 C 
ATOM     18  C   UNL     1       8.557  -4.456  38.617  1.00  0.00     0.177 C 
BRANCH  14  19
ATOM     19  O   UNL     1       6.013  -2.965  39.324  1.00  0.00    -0.385 OA
ATOM     20  H   UNL     1       5.973  -1.975  39.279  1.00  0.00     0.211 HD
ENDBRANCH  14  19
BRANCH  16  21
ATOM     21  O   UNL     1       8.350  -2.107  38.148  1.00  0.00    -0.387 OA
ATOM     22  H   UNL     1       9.031  -1.874  37.465  1.00  0.00     0.211 HD
ENDBRANCH  16  21
BRANCH  17  23
ATOM     23  C   UNL     1       8.546  -6.959  39.105  1.00  0.00     0.191 C 
BRANCH  23  24
ATOM     24  O   UNL     1       8.076  -6.980  40.426  1.00  0.00    -0.394 OA
ATOM     25  H   UNL     1       7.279  -7.570  40.447  1.00  0.00     0.210 HD
ENDBRANCH  23  24
ENDBRANCH  17  23
BRANCH  18  26
ATOM     26  O   UNL     1       8.472  -4.154  39.989  1.00  0.00    -0.387 OA
ATOM     27  H   UNL     1       7.545  -3.849  40.168  1.00  0.00     0.211 HD
ENDBRANCH  18  26
ENDBRANCH  12  13
ENDBRANCH   7  12
BRANCH   4  28
ATOM     28  O   UNL     1       1.671  -7.059  33.978  1.00  0.00    -0.393 OA
ATOM     29  H   UNL     1       1.863  -6.163  33.596  1.00  0.00     0.210 HD
ENDBRANCH   4  28
BRANCH   8  30
ATOM     30  C   UNL     1       3.883  -3.497  34.950  1.00  0.00     0.255 C 
BRANCH  30  31
ATOM     31  O   UNL     1       4.917  -2.960  34.122  1.00  0.00    -0.461 OA
BRANCH  31  32
ATOM     32  C   UNL     1       4.712  -1.974  33.147  1.00  0.00     0.338 C 
ATOM     33  O   UNL     1       3.590  -1.864  32.581  1.00  0.00    -0.246 OA
BRANCH  32  34
ATOM     34  C   UNL     1       5.823  -1.071  32.774  1.00  0.00     0.060 A 
ATOM     35  C   UNL     1       5.564   0.259  32.396  1.00  0.00     0.015 A 
ATOM     36  C   UNL     1       7.155  -1.529  32.790  1.00  0.00     0.015 A 
ATOM     37  C   UNL     1       6.614   1.111  32.036  1.00  0.00     0.001 A 
ATOM     38  C   UNL     1       8.202  -0.673  32.433  1.00  0.00     0.001 A 
ATOM     39  C   UNL     1       7.932   0.646  32.058  1.00  0.00     0.000 A 
ENDBRANCH  32  34
ENDBRANCH  31  32
ENDBRANCH  30  31
ENDBRANCH   8  30
TORSDOF 12
ENDMDL
MODEL 4
REMARK VINA RESULT:    -5.103      2.063      5.521
REMARK INTER + INTRA:          -8.692
REMARK INTER:                  -7.933
REMARK INTRA:                  -0.759
REMARK UNBOUND:                -0.756
REMARK SMILES C[C@@]12C[C@H](O)[C@H]3C[C@]1(O[C@H]1O[C@H](CO)[C@H](O)[C@H](O)[C@@H]1O)[C@@]3(COC(=O)c1ccccc1)C(=O)O2
REMARK SMILES IDX 1 1 2 2 3 3 4 4 6 5 7 6 8 7 21 8 32 9 33 10 34 11 9 12 10 13
REMARK SMILES IDX 19 14 11 15 17 16 12 17 15 18 20 19 18 21 13 23 14 24 16 26
REMARK SMILES IDX 5 28 22 30 23 31 24 32 25 33 26 34 27 35 31 36 28 37 30 38
REMARK SMILES IDX 29 39
REMARK H PARENT 20 20 18 22 14 25 16 27 5 29
REMARK Flexibility Score: inf
ROOT
ATOM      1  C   UNL     1       4.974  -7.799  38.919  1.00  0.00     0.060 C 
ATOM      2  C   UNL     1       5.805  -6.964  37.939  1.00  0.00     0.142 C 
ATOM      3  C   UNL     1       7.343  -7.222  38.143  1.00  0.00     0.083 C 
ATOM      4  C   UNL     1       8.186  -6.667  36.938  1.00  0.00     0.123 C 
ATOM      5  C   UNL     1       7.316  -6.601  35.636  1.00  0.00     0.045 C 
ATOM      6  C   UNL     1       6.496  -7.893  35.614  1.00  0.00     0.049 C 
ATOM      7  C   UNL     1       5.425  -7.128  36.398  1.00  0.00     0.131 C 
ATOM      8  C   UNL     1       5.983  -5.803  35.834  1.00  0.00     0.140 C 
ATOM      9  C   UNL     1       5.887  -4.881  37.012  1.00  0.00     0.319 C 
ATOM     10  O   UNL     1       6.129  -3.645  36.992  1.00  0.00    -0.251 OA
ATOM     11  O   UNL     1       5.633  -5.576  38.178  1.00  0.00    -0.456 OA
ENDROOT
BRANCH   7  12
ATOM     12  O   UNL     1       4.118  -7.573  36.035  1.00  0.00    -0.338 OA
BRANCH  12  13
ATOM     13  C   UNL     1       3.041  -6.888  36.660  1.00  0.00     0.282 C 
ATOM     14  C   UNL     1       1.960  -7.905  37.102  1.00  0.00     0.202 C 
ATOM     15  O   UNL     1       2.477  -5.921  35.784  1.00  0.00    -0.341 OA
ATOM     16  C   UNL     1       1.257  -8.523  35.876  1.00  0.00     0.179 C 
ATOM     17  C   UNL     1       1.980  -6.504  34.591  1.00  0.00     0.178 C 
ATOM     18  C   UNL     1       0.787  -7.431  34.905  1.00  0.00     0.177 C 
BRANCH  14  19
ATOM     19  O   UNL     1       1.013  -7.267  37.925  1.00  0.00    -0.385 OA
ATOM     20  H   UNL     1       1.240  -6.302  37.931  1.00  0.00     0.211 HD
ENDBRANCH  14  19
BRANCH  16  21
ATOM     21  O   UNL     1       0.162  -9.304  36.278  1.00  0.00    -0.387 OA
ATOM     22  H   UNL     1       0.521 -10.024  36.858  1.00  0.00     0.211 HD
ENDBRANCH  16  21
BRANCH  17  23
ATOM     23  C   UNL     1       1.590  -5.380  33.621  1.00  0.00     0.191 C 
BRANCH  23  24
ATOM     24  O   UNL     1       1.372  -4.185  34.324  1.00  0.00    -0.394 OA
ATOM     25  H   UNL     1       1.623  -4.347  35.269  1.00  0.00     0.210 HD
ENDBRANCH  23  24
ENDBRANCH  17  23
BRANCH  18  26
ATOM     26  O   UNL     1      -0.264  -6.699  35.486  1.00  0.00    -0.387 OA
ATOM     27  H   UNL     1      -1.113  -7.131  35.212  1.00  0.00     0.211 HD
ENDBRANCH  18  26
ENDBRANCH  12  13
ENDBRANCH   7  12
BRANCH   4  28
ATOM     28  O   UNL     1       8.706  -5.401  37.250  1.00  0.00    -0.393 OA
ATOM     29  H   UNL     1       9.320  -5.154  36.510  1.00  0.00     0.210 HD
ENDBRANCH   4  28
BRANCH   8  30
ATOM     30  C   UNL     1       5.406  -5.279  34.489  1.00  0.00     0.255 C 
BRANCH  30  31
ATOM     31  O   UNL     1       5.760  -3.917  34.235  1.00  0.00    -0.461 OA
BRANCH  31  32
ATOM     32  C   UNL     1       4.833  -2.874  34.109  1.00  0.00     0.338 C 
ATOM     33  O   UNL     1       3.785  -2.865  34.812  1.00  0.00    -0.246 OA
BRANCH  32  34
ATOM     34  C   UNL     1       5.081  -1.788  33.135  1.00  0.00     0.060 A 
ATOM     35  C   UNL     1       4.004  -1.100  32.546  1.00  0.00     0.015 A 
ATOM     36  C   UNL     1       6.396  -1.428  32.783  1.00  0.00     0.015 A 
ATOM     37  C   UNL     1       4.238  -0.077  31.620  1.00  0.00     0.001 A 
ATOM     38  C   UNL     1       6.626  -0.402  31.860  1.00  0.00     0.001 A 
ATOM     39  C   UNL     1       5.548   0.274  31.280  1.00  0.00     0.000 A 
ENDBRANCH  32  34
ENDBRANCH  31  32
ENDBRANCH  30  31
ENDBRANCH   8  30
TORSDOF 12
ENDMDL
MODEL 5
REMARK VINA RESULT:    -5.085      2.783      6.572
REMARK INTER + INTRA:          -8.665
REMARK INTER:                  -7.917
REMARK INTRA:                  -0.747
REMARK UNBOUND:                -0.756
REMARK SMILES C[C@@]12C[C@H](O)[C@H]3C[C@]1(O[C@H]1O[C@H](CO)[C@H](O)[C@H](O)[C@@H]1O)[C@@]3(COC(=O)c1ccccc1)C(=O)O2
REMARK SMILES IDX 1 1 2 2 3 3 4 4 6 5 7 6 8 7 21 8 32 9 33 10 34 11 9 12 10 13
REMARK SMILES IDX 19 14 11 15 17 16 12 17 15 18 20 19 18 21 13 23 14 24 16 26
REMARK SMILES IDX 5 28 22 30 23 31 24 32 25 33 26 34 27 35 31 36 28 37 30 38
REMARK SMILES IDX 29 39
REMARK H PARENT 20 20 18 22 14 25 16 27 5 29
REMARK Flexibility Score: inf
ROOT
ATOM      1  C   UNL     1       3.459  -3.710  34.887  1.00  0.00     0.060 C 
ATOM      2  C   UNL     1       3.038  -5.172  35.068  1.00  0.00     0.142 C 
ATOM      3  C   UNL     1       2.239  -5.687  33.815  1.00  0.00     0.083 C 
ATOM      4  C   UNL     1       2.111  -7.254  33.817  1.00  0.00     0.123 C 
ATOM      5  C   UNL     1       3.280  -7.905  34.634  1.00  0.00     0.045 C 
ATOM      6  C   UNL     1       4.541  -7.126  34.253  1.00  0.00     0.049 C 
ATOM      7  C   UNL     1       4.215  -6.190  35.420  1.00  0.00     0.131 C 
ATOM      8  C   UNL     1       3.406  -7.327  36.084  1.00  0.00     0.140 C 
ATOM      9  C   UNL     1       2.226  -6.599  36.652  1.00  0.00     0.319 C 
ATOM     10  O   UNL     1       1.339  -7.109  37.388  1.00  0.00    -0.251 OA
ATOM     11  O   UNL     1       2.139  -5.313  36.158  1.00  0.00    -0.456 OA
ENDROOT
BRANCH   7  12
ATOM     12  O   UNL     1       5.411  -5.705  36.030  1.00  0.00    -0.338 OA
BRANCH  12  13
ATOM     13  C   UNL     1       5.248  -5.104  37.308  1.00  0.00     0.282 C 
ATOM     14  C   UNL     1       5.924  -3.710  37.320  1.00  0.00     0.202 C 
ATOM     15  O   UNL     1       5.797  -5.925  38.329  1.00  0.00    -0.341 OA
ATOM     16  C   UNL     1       7.458  -3.846  37.240  1.00  0.00     0.179 C 
ATOM     17  C   UNL     1       7.182  -6.163  38.140  1.00  0.00     0.178 C 
ATOM     18  C   UNL     1       7.975  -4.846  38.283  1.00  0.00     0.177 C 
BRANCH  14  19
ATOM     19  O   UNL     1       5.565  -3.017  38.491  1.00  0.00    -0.385 OA
ATOM     20  H   UNL     1       5.176  -2.151  38.205  1.00  0.00     0.211 HD
ENDBRANCH  14  19
BRANCH  16  21
ATOM     21  O   UNL     1       8.073  -2.598  37.433  1.00  0.00    -0.387 OA
ATOM     22  H   UNL     1       7.840  -2.041  36.647  1.00  0.00     0.211 HD
ENDBRANCH  16  21
BRANCH  17  23
ATOM     23  C   UNL     1       7.642  -7.220  39.153  1.00  0.00     0.191 C 
BRANCH  23  24
ATOM     24  O   UNL     1       6.991  -7.032  40.381  1.00  0.00    -0.394 OA
ATOM     25  H   UNL     1       6.125  -7.512  40.333  1.00  0.00     0.210 HD
ENDBRANCH  23  24
ENDBRANCH  17  23
BRANCH  18  26
ATOM     26  O   UNL     1       7.811  -4.313  39.575  1.00  0.00    -0.387 OA
ATOM     27  H   UNL     1       7.627  -5.071  40.187  1.00  0.00     0.211 HD
ENDBRANCH  18  26
ENDBRANCH  12  13
ENDBRANCH   7  12
BRANCH   4  28
ATOM     28  O   UNL     1       0.867  -7.640  34.340  1.00  0.00    -0.393 OA
ATOM     29  H   UNL     1       0.403  -6.807  34.616  1.00  0.00     0.210 HD
ENDBRANCH   4  28
BRANCH   8  30
ATOM     30  C   UNL     1       4.155  -8.296  37.040  1.00  0.00     0.255 C 
BRANCH  30  31
ATOM     31  O   UNL     1       3.279  -8.923  37.980  1.00  0.00    -0.461 OA
BRANCH  31  32
ATOM     32  C   UNL     1       3.433  -8.847  39.371  1.00  0.00     0.338 C 
ATOM     33  O   UNL     1       4.576  -8.670  39.876  1.00  0.00    -0.246 OA
BRANCH  32  34
ATOM     34  C   UNL     1       2.250  -8.991  40.248  1.00  0.00     0.060 A 
ATOM     35  C   UNL     1       1.201  -9.860  39.893  1.00  0.00     0.015 A 
ATOM     36  C   UNL     1       2.154  -8.260  41.449  1.00  0.00     0.015 A 
ATOM     37  C   UNL     1       0.079  -9.990  40.719  1.00  0.00     0.001 A 
ATOM     38  C   UNL     1       1.033  -8.397  42.273  1.00  0.00     0.001 A 
ATOM     39  C   UNL     1      -0.003  -9.262  41.909  1.00  0.00     0.000 A 
ENDBRANCH  32  34
ENDBRANCH  31  32
ENDBRANCH  30  31
ENDBRANCH   8  30
TORSDOF 12
ENDMDL
MODEL 6
REMARK VINA RESULT:    -5.024      1.566      2.702
REMARK INTER + INTRA:          -8.570
REMARK INTER:                  -7.891
REMARK INTRA:                  -0.679
REMARK UNBOUND:                -0.756
REMARK SMILES C[C@@]12C[C@H](O)[C@H]3C[C@]1(O[C@H]1O[C@H](CO)[C@H](O)[C@H](O)[C@@H]1O)[C@@]3(COC(=O)c1ccccc1)C(=O)O2
REMARK SMILES IDX 1 1 2 2 3 3 4 4 6 5 7 6 8 7 21 8 32 9 33 10 34 11 9 12 10 13
REMARK SMILES IDX 19 14 11 15 17 16 12 17 15 18 20 19 18 21 13 23 14 24 16 26
REMARK SMILES IDX 5 28 22 30 23 31 24 32 25 33 26 34 27 35 31 36 28 37 30 38
REMARK SMILES IDX 29 39
REMARK H PARENT 20 20 18 22 14 25 16 27 5 29
REMARK Flexibility Score: inf
ROOT
ATOM      1  C   UNL     1       3.775  -8.399  35.934  1.00  0.00     0.060 C 
ATOM      2  C   UNL     1       3.212  -7.180  35.197  1.00  0.00     0.142 C 
ATOM      3  C   UNL     1       1.729  -7.433  34.739  1.00  0.00     0.083 C 
ATOM      4  C   UNL     1       1.021  -6.096  34.309  1.00  0.00     0.123 C 
ATOM      5  C   UNL     1       1.687  -4.865  35.016  1.00  0.00     0.045 C 
ATOM      6  C   UNL     1       1.943  -5.299  36.460  1.00  0.00     0.049 C 
ATOM      7  C   UNL     1       3.311  -5.794  35.981  1.00  0.00     0.131 C 
ATOM      8  C   UNL     1       3.237  -4.802  34.799  1.00  0.00     0.140 C 
ATOM      9  C   UNL     1       3.818  -5.597  33.670  1.00  0.00     0.319 C 
ATOM     10  O   UNL     1       4.065  -5.153  32.517  1.00  0.00    -0.251 OA
ATOM     11  O   UNL     1       3.928  -6.934  33.996  1.00  0.00    -0.456 OA
ENDROOT
BRANCH   7  12
ATOM     12  O   UNL     1       4.295  -5.627  37.002  1.00  0.00    -0.338 OA
BRANCH  12  13
ATOM     13  C   UNL     1       5.527  -6.301  36.782  1.00  0.00     0.282 C 
ATOM     14  C   UNL     1       6.075  -6.840  38.127  1.00  0.00     0.202 C 
ATOM     15  O   UNL     1       6.478  -5.439  36.174  1.00  0.00    -0.341 OA
ATOM     16  C   UNL     1       6.522  -5.679  39.039  1.00  0.00     0.179 C 
ATOM     17  C   UNL     1       6.751  -4.296  36.969  1.00  0.00     0.178 C 
ATOM     18  C   UNL     1       7.443  -4.712  38.284  1.00  0.00     0.177 C 
BRANCH  14  19
ATOM     19  O   UNL     1       7.159  -7.705  37.888  1.00  0.00    -0.385 OA
ATOM     20  H   UNL     1       7.912  -7.144  37.571  1.00  0.00     0.211 HD
ENDBRANCH  14  19
BRANCH  16  21
ATOM     21  O   UNL     1       7.182  -6.173  40.176  1.00  0.00    -0.387 OA
ATOM     22  H   UNL     1       6.485  -6.568  40.762  1.00  0.00     0.211 HD
ENDBRANCH  16  21
BRANCH  17  23
ATOM     23  C   UNL     1       7.612  -3.324  36.152  1.00  0.00     0.191 C 
BRANCH  23  24
ATOM     24  O   UNL     1       8.386  -2.524  37.006  1.00  0.00    -0.394 OA
ATOM     25  H   UNL     1       8.985  -3.128  37.516  1.00  0.00     0.210 HD
ENDBRANCH  23  24
ENDBRANCH  17  23
BRANCH  18  26
ATOM     26  O   UNL     1       8.673  -5.340  38.013  1.00  0.00    -0.387 OA
ATOM     27  H   UNL     1       9.345  -4.955  38.632  1.00  0.00     0.211 HD
ENDBRANCH  18  26
ENDBRANCH  12  13
ENDBRANCH   7  12
BRANCH   4  28
ATOM     28  O   UNL     1       1.065  -5.949  32.915  1.00  0.00    -0.393 OA
ATOM     29  H   UNL     1       0.130  -6.020  32.590  1.00  0.00     0.210 HD
ENDBRANCH   4  28
BRANCH   8  30
ATOM     30  C   UNL     1       3.802  -3.369  35.008  1.00  0.00     0.255 C 
BRANCH  30  31
ATOM     31  O   UNL     1       4.757  -3.006  34.008  1.00  0.00    -0.461 OA
BRANCH  31  32
ATOM     32  C   UNL     1       4.603  -1.926  33.129  1.00  0.00     0.338 C 
ATOM     33  O   UNL     1       3.490  -1.709  32.575  1.00  0.00    -0.246 OA
BRANCH  32  34
ATOM     34  C   UNL     1       5.758  -1.046  32.841  1.00  0.00     0.060 A 
ATOM     35  C   UNL     1       5.555   0.287  32.439  1.00  0.00     0.015 A 
ATOM     36  C   UNL     1       7.075  -1.530  32.963  1.00  0.00     0.015 A 
ATOM     37  C   UNL     1       6.647   1.116  32.159  1.00  0.00     0.001 A 
ATOM     38  C   UNL     1       8.164  -0.696  32.686  1.00  0.00     0.001 A 
ATOM     39  C   UNL     1       7.950   0.626  32.286  1.00  0.00     0.000 A 
ENDBRANCH  32  34
ENDBRANCH  31  32
ENDBRANCH  30  31
ENDBRANCH   8  30
TORSDOF 12
ENDMDL
MODEL 7
REMARK VINA RESULT:    -4.930      1.971      5.332
REMARK INTER + INTRA:          -8.424
REMARK INTER:                  -7.585
REMARK INTRA:                  -0.839
REMARK UNBOUND:                -0.756
REMARK SMILES C[C@@]12C[C@H](O)[C@H]3C[C@]1(O[C@H]1O[C@H](CO)[C@H](O)[C@H](O)[C@@H]1O)[C@@]3(COC(=O)c1ccccc1)C(=O)O2
REMARK SMILES IDX 1 1 2 2 3 3 4 4 6 5 7 6 8 7 21 8 32 9 33 10 34 11 9 12 10 13
REMARK SMILES IDX 19 14 11 15 17 16 12 17 15 18 20 19 18 21 13 23 14 24 16 26
REMARK SMILES IDX 5 28 22 30 23 31 24 32 25 33 26 34 27 35 31 36 28 37 30 38
REMARK SMILES IDX 29 39
REMARK H PARENT 20 20 18 22 14 25 16 27 5 29
REMARK Flexibility Score: inf
ROOT
ATOM      1  C   UNL     1       5.004  -6.949  38.770  1.00  0.00     0.060 C 
ATOM      2  C   UNL     1       5.753  -6.380  37.561  1.00  0.00     0.142 C 
ATOM      3  C   UNL     1       7.309  -6.503  37.753  1.00  0.00     0.083 C 
ATOM      4  C   UNL     1       8.079  -6.265  36.403  1.00  0.00     0.123 C 
ATOM      5  C   UNL     1       7.162  -6.599  35.176  1.00  0.00     0.045 C 
ATOM      6  C   UNL     1       6.416  -7.882  35.548  1.00  0.00     0.049 C 
ATOM      7  C   UNL     1       5.330  -6.979  36.144  1.00  0.00     0.131 C 
ATOM      8  C   UNL     1       5.794  -5.837  35.213  1.00  0.00     0.140 C 
ATOM      9  C   UNL     1       5.687  -4.632  36.097  1.00  0.00     0.319 C 
ATOM     10  O   UNL     1       5.859  -3.439  35.728  1.00  0.00    -0.251 OA
ATOM     11  O   UNL     1       5.512  -4.989  37.419  1.00  0.00    -0.456 OA
ENDROOT
BRANCH   7  12
ATOM     12  O   UNL     1       4.039  -7.565  35.979  1.00  0.00    -0.338 OA
BRANCH  12  13
ATOM     13  C   UNL     1       2.973  -6.895  36.640  1.00  0.00     0.282 C 
ATOM     14  C   UNL     1       1.951  -7.931  37.169  1.00  0.00     0.202 C 
ATOM     15  O   UNL     1       2.332  -5.975  35.766  1.00  0.00    -0.341 OA
ATOM     16  C   UNL     1       1.207  -8.611  36.001  1.00  0.00     0.179 C 
ATOM     17  C   UNL     1       1.794  -6.611  34.619  1.00  0.00     0.178 C 
ATOM     18  C   UNL     1       0.651  -7.566  35.024  1.00  0.00     0.177 C 
BRANCH  14  19
ATOM     19  O   UNL     1       1.028  -7.299  38.021  1.00  0.00    -0.385 OA
ATOM     20  H   UNL     1       0.563  -8.015  38.525  1.00  0.00     0.211 HD
ENDBRANCH  14  19
BRANCH  16  21
ATOM     21  O   UNL     1       0.161  -9.413  36.485  1.00  0.00    -0.387 OA
ATOM     22  H   UNL     1      -0.644  -8.836  36.531  1.00  0.00     0.211 HD
ENDBRANCH  16  21
BRANCH  17  23
ATOM     23  C   UNL     1       1.316  -5.532  33.638  1.00  0.00     0.191 C 
BRANCH  23  24
ATOM     24  O   UNL     1       1.653  -4.257  34.116  1.00  0.00    -0.394 OA
ATOM     25  H   UNL     1       1.041  -3.607  33.684  1.00  0.00     0.210 HD
ENDBRANCH  23  24
ENDBRANCH  17  23
BRANCH  18  26
ATOM     26  O   UNL     1      -0.393  -6.850  35.638  1.00  0.00    -0.387 OA
ATOM     27  H   UNL     1      -0.351  -5.918  35.301  1.00  0.00     0.211 HD
ENDBRANCH  18  26
ENDBRANCH  12  13
ENDBRANCH   7  12
BRANCH   4  28
ATOM     28  O   UNL     1       8.537  -4.941  36.332  1.00  0.00    -0.393 OA
ATOM     29  H   UNL     1       7.799  -4.365  36.663  1.00  0.00     0.210 HD
ENDBRANCH   4  28
BRANCH   8  30
ATOM     30  C   UNL     1       5.143  -5.730  33.805  1.00  0.00     0.255 C 
BRANCH  30  31
ATOM     31  O   UNL     1       4.660  -4.414  33.524  1.00  0.00    -0.461 OA
BRANCH  31  32
ATOM     32  C   UNL     1       4.824  -3.762  32.294  1.00  0.00     0.338 C 
ATOM     33  O   UNL     1       4.721  -4.406  31.214  1.00  0.00    -0.246 OA
BRANCH  32  34
ATOM     34  C   UNL     1       5.133  -2.315  32.268  1.00  0.00     0.060 A 
ATOM     35  C   UNL     1       4.121  -1.375  31.997  1.00  0.00     0.015 A 
ATOM     36  C   UNL     1       6.443  -1.858  32.513  1.00  0.00     0.015 A 
ATOM     37  C   UNL     1       4.415  -0.008  31.965  1.00  0.00     0.001 A 
ATOM     38  C   UNL     1       6.731  -0.489  32.485  1.00  0.00     0.001 A 
ATOM     39  C   UNL     1       5.718   0.435  32.213  1.00  0.00     0.000 A 
ENDBRANCH  32  34
ENDBRANCH  31  32
ENDBRANCH  30  31
ENDBRANCH   8  30
TORSDOF 12
ENDMDL
MODEL 8
REMARK VINA RESULT:    -4.904      2.222      7.541
REMARK INTER + INTRA:          -8.384
REMARK INTER:                  -7.720
REMARK INTRA:                  -0.664
REMARK UNBOUND:                -0.756
REMARK SMILES C[C@@]12C[C@H](O)[C@H]3C[C@]1(O[C@H]1O[C@H](CO)[C@H](O)[C@H](O)[C@@H]1O)[C@@]3(COC(=O)c1ccccc1)C(=O)O2
REMARK SMILES IDX 1 1 2 2 3 3 4 4 6 5 7 6 8 7 21 8 32 9 33 10 34 11 9 12 10 13
REMARK SMILES IDX 19 14 11 15 17 16 12 17 15 18 20 19 18 21 13 23 14 24 16 26
REMARK SMILES IDX 5 28 22 30 23 31 24 32 25 33 26 34 27 35 31 36 28 37 30 38
REMARK SMILES IDX 29 39
REMARK H PARENT 20 20 18 22 14 25 16 27 5 29
REMARK Flexibility Score: inf
ROOT
ATOM      1  C   UNL     1       8.520  -2.777  35.705  1.00  0.00     0.060 C 
ATOM      2  C   UNL     1       7.580  -3.780  36.380  1.00  0.00     0.142 C 
ATOM      3  C   UNL     1       7.341  -3.403  37.888  1.00  0.00     0.083 C 
ATOM      4  C   UNL     1       6.121  -4.190  38.493  1.00  0.00     0.123 C 
ATOM      5  C   UNL     1       5.120  -4.614  37.365  1.00  0.00     0.045 C 
ATOM      6  C   UNL     1       5.010  -3.409  36.428  1.00  0.00     0.049 C 
ATOM      7  C   UNL     1       6.182  -4.014  35.648  1.00  0.00     0.131 C 
ATOM      8  C   UNL     1       5.809  -5.407  36.204  1.00  0.00     0.140 C 
ATOM      9  C   UNL     1       7.150  -6.019  36.475  1.00  0.00     0.319 C 
ATOM     10  O   UNL     1       7.349  -7.209  36.837  1.00  0.00    -0.251 OA
ATOM     11  O   UNL     1       8.157  -5.077  36.415  1.00  0.00    -0.456 OA
ENDROOT
BRANCH   7  12
ATOM     12  O   UNL     1       6.058  -3.738  34.253  1.00  0.00    -0.338 OA
BRANCH  12  13
ATOM     13  C   UNL     1       5.146  -2.702  33.912  1.00  0.00     0.282 C 
ATOM     14  C   UNL     1       4.301  -3.131  32.686  1.00  0.00     0.202 C 
ATOM     15  O   UNL     1       5.834  -1.490  33.634  1.00  0.00    -0.341 OA
ATOM     16  C   UNL     1       5.175  -3.199  31.417  1.00  0.00     0.179 C 
ATOM     17  C   UNL     1       6.749  -1.628  32.560  1.00  0.00     0.178 C 
ATOM     18  C   UNL     1       5.992  -1.911  31.245  1.00  0.00     0.177 C 
BRANCH  14  19
ATOM     19  O   UNL     1       3.246  -2.222  32.492  1.00  0.00    -0.385 OA
ATOM     20  H   UNL     1       3.480  -1.398  32.990  1.00  0.00     0.211 HD
ENDBRANCH  14  19
BRANCH  16  21
ATOM     21  O   UNL     1       4.378  -3.410  30.281  1.00  0.00    -0.387 OA
ATOM     22  H   UNL     1       4.141  -2.515  29.927  1.00  0.00     0.211 HD
ENDBRANCH  16  21
BRANCH  17  23
ATOM     23  C   UNL     1       7.594  -0.350  32.469  1.00  0.00     0.191 C 
BRANCH  23  24
ATOM     24  O   UNL     1       6.844   0.760  32.884  1.00  0.00    -0.394 OA
ATOM     25  H   UNL     1       7.191   1.551  32.397  1.00  0.00     0.210 HD
ENDBRANCH  23  24
ENDBRANCH  17  23
BRANCH  18  26
ATOM     26  O   UNL     1       5.133  -0.842  30.933  1.00  0.00    -0.387 OA
ATOM     27  H   UNL     1       4.282  -1.231  30.604  1.00  0.00     0.211 HD
ENDBRANCH  18  26
ENDBRANCH  12  13
ENDBRANCH   7  12
BRANCH   4  28
ATOM     28  O   UNL     1       6.572  -5.314  39.202  1.00  0.00    -0.393 OA
ATOM     29  H   UNL     1       6.546  -6.079  38.571  1.00  0.00     0.210 HD
ENDBRANCH   4  28
BRANCH   8  30
ATOM     30  C   UNL     1       4.797  -6.270  35.400  1.00  0.00     0.255 C 
BRANCH  30  31
ATOM     31  O   UNL     1       4.370  -7.428  36.121  1.00  0.00    -0.461 OA
BRANCH  31  32
ATOM     32  C   UNL     1       3.170  -7.508  36.840  1.00  0.00     0.338 C 
ATOM     33  O   UNL     1       2.076  -7.209  36.288  1.00  0.00    -0.246 OA
BRANCH  32  34
ATOM     34  C   UNL     1       3.193  -7.932  38.258  1.00  0.00     0.060 A 
ATOM     35  C   UNL     1       4.405  -7.964  38.973  1.00  0.00     0.015 A 
ATOM     36  C   UNL     1       2.004  -8.312  38.911  1.00  0.00     0.015 A 
ATOM     37  C   UNL     1       4.427  -8.371  40.311  1.00  0.00     0.001 A 
ATOM     38  C   UNL     1       2.031  -8.715  40.250  1.00  0.00     0.001 A 
ATOM     39  C   UNL     1       3.240  -8.744  40.950  1.00  0.00     0.000 A 
ENDBRANCH  32  34
ENDBRANCH  31  32
ENDBRANCH  30  31
ENDBRANCH   8  30
TORSDOF 12
ENDMDL
