MODEL 1
REMARK VINA RESULT:    -5.805      0.000      0.000
REMARK INTER + INTRA:          -5.975
REMARK INTER:                  -5.975
REMARK INTRA:                   0.000
REMARK UNBOUND:                 0.000
REMARK SMILES O=c1ccc2ccc(O)cc2o1
REMARK SMILES IDX 6 1 7 2 8 3 10 4 11 5 5 6 4 7 3 8 2 9 1 10 12 11 9 12
REMARK H PARENT 9 13
REMARK Flexibility Score: inf
ROOT
ATOM      1  C   UNL     1     -38.294  -9.090 -14.135  1.00  0.00     0.016 A 
ATOM      2  C   UNL     1     -39.691  -9.125 -14.182  1.00  0.00     0.047 A 
ATOM      3  C   UNL     1     -40.434  -7.945 -14.058  1.00  0.00     0.119 A 
ATOM      4  C   UNL     1     -39.775  -6.718 -13.886  1.00  0.00     0.094 A 
ATOM      5  C   UNL     1     -38.378  -6.673 -13.838  1.00  0.00     0.142 A 
ATOM      6  C   UNL     1     -37.632  -7.866 -13.963  1.00  0.00     0.018 A 
ATOM      7  C   UNL     1     -36.236  -7.789 -13.911  1.00  0.00     0.019 A 
ATOM      8  C   UNL     1     -35.626  -6.547 -13.738  1.00  0.00     0.094 A 
ATOM      9  C   UNL     1     -36.429  -5.407 -13.621  1.00  0.00     0.336 A 
ATOM     10  O   UNL     1     -35.896  -4.277 -13.464  1.00  0.00    -0.246 OA
ATOM     11  O   UNL     1     -37.754  -5.508 -13.674  1.00  0.00    -0.423 OA
ENDROOT
BRANCH   3  12
ATOM     12  O   UNL     1     -41.825  -8.001 -14.107  1.00  0.00    -0.508 OA
ATOM     13  H   UNL     1     -42.396  -7.695 -13.328  1.00  0.00     0.293 HD
ENDBRANCH   3  12
TORSDOF 1
ENDMDL
MODEL 2
REMARK VINA RESULT:    -5.773      7.544      9.672
REMARK INTER + INTRA:          -5.942
REMARK INTER:                  -5.942
REMARK INTRA:                   0.000
REMARK UNBOUND:                 0.000
REMARK SMILES O=c1ccc2ccc(O)cc2o1
REMARK SMILES IDX 6 1 7 2 8 3 10 4 11 5 5 6 4 7 3 8 2 9 1 10 12 11 9 12
REMARK H PARENT 9 13
REMARK Flexibility Score: inf
ROOT
ATOM      1  C   UNL     1     -31.079  -2.894 -18.691  1.00  0.00     0.016 A 
ATOM      2  C   UNL     1     -30.431  -2.480 -19.859  1.00  0.00     0.047 A 
ATOM      3  C   UNL     1     -31.138  -2.376 -21.063  1.00  0.00     0.119 A 
ATOM      4  C   UNL     1     -32.505  -2.688 -21.100  1.00  0.00     0.094 A 
ATOM      5  C   UNL     1     -33.163  -3.103 -19.937  1.00  0.00     0.142 A 
ATOM      6  C   UNL     1     -32.446  -3.207 -18.725  1.00  0.00     0.018 A 
ATOM      7  C   UNL     1     -33.130  -3.624 -17.579  1.00  0.00     0.019 A 
ATOM      8  C   UNL     1     -34.489  -3.923 -17.665  1.00  0.00     0.094 A 
ATOM      9  C   UNL     1     -35.135  -3.797 -18.900  1.00  0.00     0.336 A 
ATOM     10  O   UNL     1     -36.361  -4.064 -18.998  1.00  0.00    -0.246 OA
ATOM     11  O   UNL     1     -34.460  -3.398 -19.975  1.00  0.00    -0.423 OA
ENDROOT
BRANCH   3  12
ATOM     12  O   UNL     1     -30.474  -1.961 -22.216  1.00  0.00    -0.508 OA
ATOM     13  H   UNL     1     -29.583  -2.361 -22.486  1.00  0.00     0.293 HD
ENDBRANCH   3  12
TORSDOF 1
ENDMDL
MODEL 3
REMARK VINA RESULT:    -5.645      1.907      3.144
REMARK INTER + INTRA:          -5.810
REMARK INTER:                  -5.810
REMARK INTRA:                   0.000
REMARK UNBOUND:                 0.000
REMARK SMILES O=c1ccc2ccc(O)cc2o1
REMARK SMILES IDX 6 1 7 2 8 3 10 4 11 5 5 6 4 7 3 8 2 9 1 10 12 11 9 12
REMARK H PARENT 9 13
REMARK Flexibility Score: inf
ROOT
ATOM      1  C   UNL     1     -39.239  -8.448 -14.104  1.00  0.00     0.016 A 
ATOM      2  C   UNL     1     -38.227  -9.095 -14.819  1.00  0.00     0.047 A 
ATOM      3  C   UNL     1     -36.996  -8.463 -15.034  1.00  0.00     0.119 A 
ATOM      4  C   UNL     1     -36.775  -7.173 -14.530  1.00  0.00     0.094 A 
ATOM      5  C   UNL     1     -37.781  -6.517 -13.812  1.00  0.00     0.142 A 
ATOM      6  C   UNL     1     -39.021  -7.158 -13.598  1.00  0.00     0.018 A 
ATOM      7  C   UNL     1     -40.008  -6.477 -12.877  1.00  0.00     0.019 A 
ATOM      8  C   UNL     1     -39.742  -5.196 -12.396  1.00  0.00     0.094 A 
ATOM      9  C   UNL     1     -38.489  -4.623 -12.646  1.00  0.00     0.336 A 
ATOM     10  O   UNL     1     -38.231  -3.468 -12.220  1.00  0.00    -0.246 OA
ATOM     11  O   UNL     1     -37.569  -5.293 -13.335  1.00  0.00    -0.423 OA
ENDROOT
BRANCH   3  12
ATOM     12  O   UNL     1     -36.000  -9.125 -15.749  1.00  0.00    -0.508 OA
ATOM     13  H   UNL     1     -35.019  -9.003 -15.528  1.00  0.00     0.293 HD
ENDBRANCH   3  12
TORSDOF 1
ENDMDL
MODEL 4
REMARK VINA RESULT:    -5.475      1.574      2.187
REMARK INTER + INTRA:          -5.635
REMARK INTER:                  -5.635
REMARK INTRA:                   0.000
REMARK UNBOUND:                 0.000
REMARK SMILES O=c1ccc2ccc(O)cc2o1
REMARK SMILES IDX 6 1 7 2 8 3 10 4 11 5 5 6 4 7 3 8 2 9 1 10 12 11 9 12
REMARK H PARENT 9 13
REMARK Flexibility Score: inf
ROOT
ATOM      1  C   UNL     1     -36.128  -7.603 -14.577  1.00  0.00     0.016 A 
ATOM      2  C   UNL     1     -37.077  -8.488 -15.098  1.00  0.00     0.047 A 
ATOM      3  C   UNL     1     -38.444  -8.228 -14.950  1.00  0.00     0.119 A 
ATOM      4  C   UNL     1     -38.868  -7.073 -14.276  1.00  0.00     0.094 A 
ATOM      5  C   UNL     1     -37.926  -6.181 -13.752  1.00  0.00     0.142 A 
ATOM      6  C   UNL     1     -36.547  -6.447 -13.903  1.00  0.00     0.018 A 
ATOM      7  C   UNL     1     -35.630  -5.537 -13.368  1.00  0.00     0.019 A 
ATOM      8  C   UNL     1     -36.098  -4.403 -12.706  1.00  0.00     0.094 A 
ATOM      9  C   UNL     1     -37.479  -4.203 -12.595  1.00  0.00     0.336 A 
ATOM     10  O   UNL     1     -37.921  -3.186 -12.000  1.00  0.00    -0.246 OA
ATOM     11  O   UNL     1     -38.330  -5.085 -13.113  1.00  0.00    -0.423 OA
ENDROOT
BRANCH   3  12
ATOM     12  O   UNL     1     -39.374  -9.122 -15.476  1.00  0.00    -0.508 OA
ATOM     13  H   UNL     1     -39.316  -9.444 -16.435  1.00  0.00     0.293 HD
ENDBRANCH   3  12
TORSDOF 1
ENDMDL
MODEL 5
REMARK VINA RESULT:    -5.465      2.699      3.863
REMARK INTER + INTRA:          -5.625
REMARK INTER:                  -5.625
REMARK INTRA:                   0.000
REMARK UNBOUND:                 0.000
REMARK SMILES O=c1ccc2ccc(O)cc2o1
REMARK SMILES IDX 6 1 7 2 8 3 10 4 11 5 5 6 4 7 3 8 2 9 1 10 12 11 9 12
REMARK H PARENT 9 13
REMARK Flexibility Score: inf
ROOT
ATOM      1  C   UNL     1     -36.562  -8.542 -15.100  1.00  0.00     0.016 A 
ATOM      2  C   UNL     1     -35.693  -8.764 -14.027  1.00  0.00     0.047 A 
ATOM      3  C   UNL     1     -35.262  -7.696 -13.232  1.00  0.00     0.119 A 
ATOM      4  C   UNL     1     -35.704  -6.394 -13.510  1.00  0.00     0.094 A 
ATOM      5  C   UNL     1     -36.574  -6.162 -14.580  1.00  0.00     0.142 A 
ATOM      6  C   UNL     1     -37.006  -7.242 -15.381  1.00  0.00     0.018 A 
ATOM      7  C   UNL     1     -37.876  -6.979 -16.444  1.00  0.00     0.019 A 
ATOM      8  C   UNL     1     -38.288  -5.668 -16.681  1.00  0.00     0.094 A 
ATOM      9  C   UNL     1     -37.819  -4.647 -15.846  1.00  0.00     0.336 A 
ATOM     10  O   UNL     1     -38.180  -3.458 -16.046  1.00  0.00    -0.246 OA
ATOM     11  O   UNL     1     -36.992  -4.925 -14.842  1.00  0.00    -0.423 OA
ENDROOT
BRANCH   3  12
ATOM     12  O   UNL     1     -34.395  -7.938 -12.168  1.00  0.00    -0.508 OA
ATOM     13  H   UNL     1     -34.121  -7.201 -11.529  1.00  0.00     0.293 HD
ENDBRANCH   3  12
TORSDOF 1
ENDMDL
MODEL 6
REMARK VINA RESULT:    -5.264      2.022      3.811
REMARK INTER + INTRA:          -5.418
REMARK INTER:                  -5.418
REMARK INTRA:                   0.000
REMARK UNBOUND:                 0.000
REMARK SMILES O=c1ccc2ccc(O)cc2o1
REMARK SMILES IDX 6 1 7 2 8 3 10 4 11 5 5 6 4 7 3 8 2 9 1 10 12 11 9 12
REMARK H PARENT 9 13
REMARK Flexibility Score: inf
ROOT
ATOM      1  C   UNL     1     -40.085  -6.267 -12.636  1.00  0.00     0.016 A 
ATOM      2  C   UNL     1     -39.744  -4.961 -12.273  1.00  0.00     0.047 A 
ATOM      3  C   UNL     1     -38.508  -4.421 -12.648  1.00  0.00     0.119 A 
ATOM      4  C   UNL     1     -37.604  -5.194 -13.392  1.00  0.00     0.094 A 
ATOM      5  C   UNL     1     -37.936  -6.502 -13.761  1.00  0.00     0.142 A 
ATOM      6  C   UNL     1     -39.184  -7.043 -13.380  1.00  0.00     0.018 A 
ATOM      7  C   UNL     1     -39.489  -8.353 -13.763  1.00  0.00     0.019 A 
ATOM      8  C   UNL     1     -38.558  -9.083 -14.503  1.00  0.00     0.094 A 
ATOM      9  C   UNL     1     -37.341  -8.482 -14.844  1.00  0.00     0.336 A 
ATOM     10  O   UNL     1     -36.489  -9.125 -15.511  1.00  0.00    -0.246 OA
ATOM     11  O   UNL     1     -37.077  -7.234 -14.467  1.00  0.00    -0.423 OA
ENDROOT
BRANCH   3  12
ATOM     12  O   UNL     1     -38.186  -3.117 -12.276  1.00  0.00    -0.508 OA
ATOM     13  H   UNL     1     -38.228  -2.817 -11.310  1.00  0.00     0.293 HD
ENDBRANCH   3  12
TORSDOF 1
ENDMDL
MODEL 7
REMARK VINA RESULT:    -5.231      1.912      4.056
REMARK INTER + INTRA:          -5.384
REMARK INTER:                  -5.384
REMARK INTRA:                   0.000
REMARK UNBOUND:                 0.000
REMARK SMILES O=c1ccc2ccc(O)cc2o1
REMARK SMILES IDX 6 1 7 2 8 3 10 4 11 5 5 6 4 7 3 8 2 9 1 10 12 11 9 12
REMARK H PARENT 9 13
REMARK Flexibility Score: inf
ROOT
ATOM      1  C   UNL     1     -36.999  -7.997 -15.971  1.00  0.00     0.016 A 
ATOM      2  C   UNL     1     -36.079  -7.072 -16.474  1.00  0.00     0.047 A 
ATOM      3  C   UNL     1     -36.071  -5.754 -16.003  1.00  0.00     0.119 A 
ATOM      4  C   UNL     1     -36.991  -5.356 -15.021  1.00  0.00     0.094 A 
ATOM      5  C   UNL     1     -37.915  -6.274 -14.512  1.00  0.00     0.142 A 
ATOM      6  C   UNL     1     -37.920  -7.603 -14.990  1.00  0.00     0.018 A 
ATOM      7  C   UNL     1     -38.855  -8.499 -14.462  1.00  0.00     0.019 A 
ATOM      8  C   UNL     1     -39.749  -8.057 -13.487  1.00  0.00     0.094 A 
ATOM      9  C   UNL     1     -39.686  -6.726 -13.061  1.00  0.00     0.336 A 
ATOM     10  O   UNL     1     -40.486  -6.309 -12.183  1.00  0.00    -0.246 OA
ATOM     11  O   UNL     1     -38.786  -5.895 -13.580  1.00  0.00    -0.423 OA
ENDROOT
BRANCH   3  12
ATOM     12  O   UNL     1     -35.146  -4.846 -16.517  1.00  0.00    -0.508 OA
ATOM     13  H   UNL     1     -34.294  -5.157 -16.968  1.00  0.00     0.293 HD
ENDBRANCH   3  12
TORSDOF 1
ENDMDL
MODEL 8
REMARK VINA RESULT:    -5.200      3.983      5.799
REMARK INTER + INTRA:          -5.352
REMARK INTER:                  -5.352
REMARK INTRA:                   0.000
REMARK UNBOUND:                 0.000
REMARK SMILES O=c1ccc2ccc(O)cc2o1
REMARK SMILES IDX 6 1 7 2 8 3 10 4 11 5 5 6 4 7 3 8 2 9 1 10 12 11 9 12
REMARK H PARENT 9 13
REMARK Flexibility Score: inf
ROOT
ATOM      1  C   UNL     1     -35.753  -3.284 -16.314  1.00  0.00     0.016 A 
ATOM      2  C   UNL     1     -35.658  -2.797 -17.621  1.00  0.00     0.047 A 
ATOM      3  C   UNL     1     -35.715  -3.676 -18.709  1.00  0.00     0.119 A 
ATOM      4  C   UNL     1     -35.868  -5.053 -18.490  1.00  0.00     0.094 A 
ATOM      5  C   UNL     1     -35.965  -5.549 -17.185  1.00  0.00     0.142 A 
ATOM      6  C   UNL     1     -35.906  -4.659 -16.090  1.00  0.00     0.018 A 
ATOM      7  C   UNL     1     -36.006  -5.185 -14.797  1.00  0.00     0.019 A 
ATOM      8  C   UNL     1     -36.157  -6.561 -14.629  1.00  0.00     0.094 A 
ATOM      9  C   UNL     1     -36.207  -7.382 -15.761  1.00  0.00     0.336 A 
ATOM     10  O   UNL     1     -36.343  -8.626 -15.628  1.00  0.00    -0.246 OA
ATOM     11  O   UNL     1     -36.110  -6.856 -16.979  1.00  0.00    -0.423 OA
ENDROOT
BRANCH   3  12
ATOM     12  O   UNL     1     -35.618  -3.171 -20.005  1.00  0.00    -0.508 OA
ATOM     13  H   UNL     1     -35.328  -2.217 -20.181  1.00  0.00     0.293 HD
ENDBRANCH   3  12
TORSDOF 1
ENDMDL
MODEL 9
REMARK VINA RESULT:    -5.188      1.990      2.082
REMARK INTER + INTRA:          -5.340
REMARK INTER:                  -5.340
REMARK INTRA:                   0.000
REMARK UNBOUND:                 0.000
REMARK SMILES O=c1ccc2ccc(O)cc2o1
REMARK SMILES IDX 6 1 7 2 8 3 10 4 11 5 5 6 4 7 3 8 2 9 1 10 12 11 9 12
REMARK H PARENT 9 13
REMARK Flexibility Score: inf
ROOT
ATOM      1  C   UNL     1     -38.733  -8.337 -14.721  1.00  0.00     0.016 A 
ATOM      2  C   UNL     1     -39.590  -8.044 -13.656  1.00  0.00     0.047 A 
ATOM      3  C   UNL     1     -39.565  -6.780 -13.054  1.00  0.00     0.119 A 
ATOM      4  C   UNL     1     -38.676  -5.801 -13.520  1.00  0.00     0.094 A 
ATOM      5  C   UNL     1     -37.815  -6.084 -14.586  1.00  0.00     0.142 A 
ATOM      6  C   UNL     1     -37.843  -7.360 -15.191  1.00  0.00     0.018 A 
ATOM      7  C   UNL     1     -36.971  -7.614 -16.254  1.00  0.00     0.019 A 
ATOM      8  C   UNL     1     -36.105  -6.609 -16.683  1.00  0.00     0.094 A 
ATOM      9  C   UNL     1     -36.133  -5.368 -16.037  1.00  0.00     0.336 A 
ATOM     10  O   UNL     1     -35.358  -4.449 -16.409  1.00  0.00    -0.246 OA
ATOM     11  O   UNL     1     -36.972  -5.153 -15.028  1.00  0.00    -0.423 OA
ENDROOT
BRANCH   3  12
ATOM     12  O   UNL     1     -40.427  -6.508 -11.993  1.00  0.00    -0.508 OA
ATOM     13  H   UNL     1     -41.180  -5.836 -12.081  1.00  0.00     0.293 HD
ENDBRANCH   3  12
TORSDOF 1
ENDMDL
