MODEL 1
REMARK VINA RESULT:    -3.785      0.000      0.000
REMARK INTER + INTRA:          -5.668
REMARK INTER:                  -5.335
REMARK INTRA:                  -0.333
REMARK UNBOUND:                -0.333
REMARK SMILES CCCCCCCCC(=O)[O-]
REMARK SMILES IDX 6 1 7 2 8 3 9 4 10 5 11 6 5 7 4 8 3 9 2 10 1 11
REMARK H PARENT
REMARK Flexibility Score: inf
ROOT
ATOM      1  C   UNL     1      -9.856   8.396 -18.536  1.00  0.00     0.000 C 
ENDROOT
BRANCH   1   2
ATOM      2  C   UNL     1      -9.063   8.838 -17.294  1.00  0.00     0.006 C 
BRANCH   2   3
ATOM      3  C   UNL     1      -8.842  10.356 -17.261  1.00  0.00     0.053 C 
BRANCH   3   4
ATOM      4  C   UNL     1      -8.367  10.817 -15.917  1.00  0.00     0.041 C 
ATOM      5  O   UNL     1      -7.622  11.829 -15.821  1.00  0.00    -0.550 OA
ATOM      6  O   UNL     1      -8.716  10.109 -14.774  1.00  0.00    -0.550 OA
ENDBRANCH   3   4
ENDBRANCH   2   3
ENDBRANCH   1   2
BRANCH   1   7
ATOM      7  C   UNL     1     -11.069   9.298 -18.819  1.00  0.00     0.000 C 
BRANCH   7   8
ATOM      8  C   UNL     1     -12.261   8.588 -19.491  1.00  0.00    -0.000 C 
BRANCH   8   9
ATOM      9  C   UNL     1     -12.129   7.050 -19.528  1.00  0.00    -0.000 C 
BRANCH   9  10
ATOM     10  C   UNL     1     -12.362   6.479 -20.935  1.00  0.00    -0.003 C 
ATOM     11  C   UNL     1     -13.175   7.443 -21.793  1.00  0.00     0.004 C 
ENDBRANCH   9  10
ENDBRANCH   8   9
ENDBRANCH   7   8
ENDBRANCH   1   7
TORSDOF 7
ENDMDL
MODEL 2
REMARK VINA RESULT:    -3.667      1.849      2.938
REMARK INTER + INTRA:          -5.501
REMARK INTER:                  -4.890
REMARK INTRA:                  -0.611
REMARK UNBOUND:                -0.333
REMARK SMILES CCCCCCCCC(=O)[O-]
REMARK SMILES IDX 6 1 7 2 8 3 9 4 10 5 11 6 5 7 4 8 3 9 2 10 1 11
REMARK H PARENT
REMARK Flexibility Score: inf
ROOT
ATOM      1  C   UNL     1     -11.718   9.216 -20.208  1.00  0.00     0.000 C 
ENDROOT
BRANCH   1   2
ATOM      2  C   UNL     1     -11.050   9.161 -18.823  1.00  0.00     0.006 C 
BRANCH   2   3
ATOM      3  C   UNL     1     -10.107   7.959 -18.685  1.00  0.00     0.053 C 
BRANCH   3   4
ATOM      4  C   UNL     1      -8.892   8.298 -17.875  1.00  0.00     0.041 C 
ATOM      5  O   UNL     1      -8.972   9.129 -16.932  1.00  0.00    -0.550 OA
ATOM      6  O   UNL     1      -7.666   7.724 -18.184  1.00  0.00    -0.550 OA
ENDBRANCH   3   4
ENDBRANCH   2   3
ENDBRANCH   1   2
BRANCH   1   7
ATOM      7  C   UNL     1     -13.054   8.456 -20.254  1.00  0.00     0.000 C 
BRANCH   7   8
ATOM      8  C   UNL     1     -13.304   7.665 -21.553  1.00  0.00    -0.000 C 
BRANCH   8   9
ATOM      9  C   UNL     1     -12.231   6.592 -21.844  1.00  0.00    -0.000 C 
BRANCH   9  10
ATOM     10  C   UNL     1     -12.156   5.529 -20.738  1.00  0.00    -0.003 C 
ATOM     11  C   UNL     1     -10.775   4.882 -20.689  1.00  0.00     0.004 C 
ENDBRANCH   9  10
ENDBRANCH   8   9
ENDBRANCH   7   8
ENDBRANCH   1   7
TORSDOF 7
ENDMDL
MODEL 3
REMARK VINA RESULT:    -3.581      3.882      5.649
REMARK INTER + INTRA:          -5.380
REMARK INTER:                  -4.770
REMARK INTRA:                  -0.611
REMARK UNBOUND:                -0.333
REMARK SMILES CCCCCCCCC(=O)[O-]
REMARK SMILES IDX 6 1 7 2 8 3 9 4 10 5 11 6 5 7 4 8 3 9 2 10 1 11
REMARK H PARENT
REMARK Flexibility Score: inf
ROOT
ATOM      1  C   UNL     1     -10.844   9.379 -19.473  1.00  0.00     0.000 C 
ENDROOT
BRANCH   1   2
ATOM      2  C   UNL     1     -12.232   8.745 -19.274  1.00  0.00     0.006 C 
BRANCH   2   3
ATOM      3  C   UNL     1     -12.217   7.232 -19.531  1.00  0.00     0.053 C 
BRANCH   3   4
ATOM      4  C   UNL     1     -12.328   6.918 -20.992  1.00  0.00     0.041 C 
ATOM      5  O   UNL     1     -11.507   6.133 -21.535  1.00  0.00    -0.550 OA
ATOM      6  O   UNL     1     -13.316   7.519 -21.761  1.00  0.00    -0.550 OA
ENDBRANCH   3   4
ENDBRANCH   2   3
ENDBRANCH   1   2
BRANCH   1   7
ATOM      7  C   UNL     1     -10.102   9.613 -18.148  1.00  0.00     0.000 C 
BRANCH   7   8
ATOM      8  C   UNL     1      -9.241   8.426 -17.670  1.00  0.00    -0.000 C 
BRANCH   8   9
ATOM      9  C   UNL     1      -7.790   8.458 -18.197  1.00  0.00    -0.000 C 
BRANCH   9  10
ATOM     10  C   UNL     1      -7.382   7.134 -18.860  1.00  0.00    -0.003 C 
ATOM     11  C   UNL     1      -8.606   6.338 -19.300  1.00  0.00     0.004 C 
ENDBRANCH   9  10
ENDBRANCH   8   9
ENDBRANCH   7   8
ENDBRANCH   1   7
TORSDOF 7
ENDMDL
MODEL 4
REMARK VINA RESULT:    -3.566      3.435      4.041
REMARK INTER + INTRA:          -5.359
REMARK INTER:                  -4.834
REMARK INTRA:                  -0.525
REMARK UNBOUND:                -0.333
REMARK SMILES CCCCCCCCC(=O)[O-]
REMARK SMILES IDX 6 1 7 2 8 3 9 4 10 5 11 6 5 7 4 8 3 9 2 10 1 11
REMARK H PARENT
REMARK Flexibility Score: inf
ROOT
ATOM      1  C   UNL     1     -10.119   8.903 -18.437  1.00  0.00     0.000 C 
ENDROOT
BRANCH   1   2
ATOM      2  C   UNL     1      -9.729   7.418 -18.535  1.00  0.00     0.006 C 
BRANCH   2   3
ATOM      3  C   UNL     1      -8.243   7.233 -18.870  1.00  0.00     0.053 C 
BRANCH   3   4
ATOM      4  C   UNL     1      -7.988   5.925 -19.556  1.00  0.00     0.041 C 
ATOM      5  O   UNL     1      -8.642   4.900 -19.228  1.00  0.00    -0.550 OA
ATOM      6  O   UNL     1      -7.004   5.831 -20.532  1.00  0.00    -0.550 OA
ENDBRANCH   3   4
ENDBRANCH   2   3
ENDBRANCH   1   2
BRANCH   1   7
ATOM      7  C   UNL     1     -11.410   9.230 -19.205  1.00  0.00     0.000 C 
BRANCH   7   8
ATOM      8  C   UNL     1     -12.359   8.033 -19.415  1.00  0.00    -0.000 C 
BRANCH   8   9
ATOM      9  C   UNL     1     -12.927   7.934 -20.848  1.00  0.00    -0.000 C 
BRANCH   9  10
ATOM     10  C   UNL     1     -12.383   6.714 -21.607  1.00  0.00    -0.003 C 
ATOM     11  C   UNL     1     -12.109   5.552 -20.658  1.00  0.00     0.004 C 
ENDBRANCH   9  10
ENDBRANCH   8   9
ENDBRANCH   7   8
ENDBRANCH   1   7
TORSDOF 7
ENDMDL
MODEL 5
REMARK VINA RESULT:    -3.559      1.204      1.845
REMARK INTER + INTRA:          -5.349
REMARK INTER:                  -4.764
REMARK INTRA:                  -0.585
REMARK UNBOUND:                -0.333
REMARK SMILES CCCCCCCCC(=O)[O-]
REMARK SMILES IDX 6 1 7 2 8 3 9 4 10 5 11 6 5 7 4 8 3 9 2 10 1 11
REMARK H PARENT
REMARK Flexibility Score: inf
ROOT
ATOM      1  C   UNL     1      -9.343   8.450 -19.347  1.00  0.00     0.000 C 
ENDROOT
BRANCH   1   2
ATOM      2  C   UNL     1      -9.808   9.474 -18.297  1.00  0.00     0.006 C 
BRANCH   2   3
ATOM      3  C   UNL     1      -9.136   9.249 -16.936  1.00  0.00     0.053 C 
BRANCH   3   4
ATOM      4  C   UNL     1      -8.040  10.241 -16.688  1.00  0.00     0.041 C 
ATOM      5  O   UNL     1      -8.298  11.345 -16.138  1.00  0.00    -0.550 OA
ATOM      6  O   UNL     1      -6.742   9.962 -17.097  1.00  0.00    -0.550 OA
ENDBRANCH   3   4
ENDBRANCH   2   3
ENDBRANCH   1   2
BRANCH   1   7
ATOM      7  C   UNL     1      -9.884   7.037 -19.080  1.00  0.00     0.000 C 
BRANCH   7   8
ATOM      8  C   UNL     1     -11.416   6.899 -19.191  1.00  0.00    -0.000 C 
BRANCH   8   9
ATOM      9  C   UNL     1     -11.947   7.011 -20.637  1.00  0.00    -0.000 C 
BRANCH   9  10
ATOM     10  C   UNL     1     -13.016   8.105 -20.782  1.00  0.00    -0.003 C 
ATOM     11  C   UNL     1     -13.236   8.838 -19.462  1.00  0.00     0.004 C 
ENDBRANCH   9  10
ENDBRANCH   8   9
ENDBRANCH   7   8
ENDBRANCH   1   7
TORSDOF 7
ENDMDL
MODEL 6
REMARK VINA RESULT:    -3.535      3.843      4.591
REMARK INTER + INTRA:          -5.316
REMARK INTER:                  -4.717
REMARK INTRA:                  -0.599
REMARK UNBOUND:                -0.333
REMARK SMILES CCCCCCCCC(=O)[O-]
REMARK SMILES IDX 6 1 7 2 8 3 9 4 10 5 11 6 5 7 4 8 3 9 2 10 1 11
REMARK H PARENT
REMARK Flexibility Score: inf
ROOT
ATOM      1  C   UNL     1      -9.915   7.336 -18.507  1.00  0.00     0.000 C 
ENDROOT
BRANCH   1   2
ATOM      2  C   UNL     1      -8.921   6.815 -19.561  1.00  0.00     0.006 C 
BRANCH   2   3
ATOM      3  C   UNL     1      -8.981   5.289 -19.705  1.00  0.00     0.053 C 
BRANCH   3   4
ATOM      4  C   UNL     1      -7.612   4.681 -19.728  1.00  0.00     0.041 C 
ATOM      5  O   UNL     1      -6.893   4.779 -20.757  1.00  0.00    -0.550 OA
ATOM      6  O   UNL     1      -7.145   3.975 -18.627  1.00  0.00    -0.550 OA
ENDBRANCH   3   4
ENDBRANCH   2   3
ENDBRANCH   1   2
BRANCH   1   7
ATOM      7  C   UNL     1     -10.125   8.857 -18.588  1.00  0.00     0.000 C 
BRANCH   7   8
ATOM      8  C   UNL     1     -11.527   9.292 -19.059  1.00  0.00    -0.000 C 
BRANCH   8   9
ATOM      9  C   UNL     1     -12.479   8.111 -19.351  1.00  0.00    -0.000 C 
BRANCH   9  10
ATOM     10  C   UNL     1     -12.781   7.964 -20.850  1.00  0.00    -0.003 C 
ATOM     11  C   UNL     1     -12.430   6.565 -21.347  1.00  0.00     0.004 C 
ENDBRANCH   9  10
ENDBRANCH   8   9
ENDBRANCH   7   8
ENDBRANCH   1   7
TORSDOF 7
ENDMDL
MODEL 7
REMARK VINA RESULT:    -3.517      3.331      5.559
REMARK INTER + INTRA:          -5.289
REMARK INTER:                  -4.664
REMARK INTRA:                  -0.625
REMARK UNBOUND:                -0.333
REMARK SMILES CCCCCCCCC(=O)[O-]
REMARK SMILES IDX 6 1 7 2 8 3 9 4 10 5 11 6 5 7 4 8 3 9 2 10 1 11
REMARK H PARENT
REMARK Flexibility Score: inf
ROOT
ATOM      1  C   UNL     1     -12.900   7.246 -21.565  1.00  0.00     0.000 C 
ENDROOT
BRANCH   1   2
ATOM      2  C   UNL     1     -12.410   5.935 -20.925  1.00  0.00     0.006 C 
BRANCH   2   3
ATOM      3  C   UNL     1     -11.192   5.356 -21.658  1.00  0.00     0.053 C 
BRANCH   3   4
ATOM      4  C   UNL     1      -9.907   5.757 -21.000  1.00  0.00     0.041 C 
ATOM      5  O   UNL     1      -9.266   6.757 -21.419  1.00  0.00    -0.550 OA
ATOM      6  O   UNL     1      -9.400   5.006 -19.947  1.00  0.00    -0.550 OA
ENDBRANCH   3   4
ENDBRANCH   2   3
ENDBRANCH   1   2
BRANCH   1   7
ATOM      7  C   UNL     1     -12.795   8.448 -20.612  1.00  0.00     0.000 C 
BRANCH   7   8
ATOM      8  C   UNL     1     -12.124   8.144 -19.258  1.00  0.00    -0.000 C 
BRANCH   8   9
ATOM      9  C   UNL     1     -10.868   8.999 -18.981  1.00  0.00    -0.000 C 
BRANCH   9  10
ATOM     10  C   UNL     1      -9.793   8.221 -18.206  1.00  0.00    -0.003 C 
ATOM     11  C   UNL     1      -9.097   9.113 -17.183  1.00  0.00     0.004 C 
ENDBRANCH   9  10
ENDBRANCH   8   9
ENDBRANCH   7   8
ENDBRANCH   1   7
TORSDOF 7
ENDMDL
MODEL 8
REMARK VINA RESULT:    -3.495      4.037      5.650
REMARK INTER + INTRA:          -5.258
REMARK INTER:                  -4.782
REMARK INTRA:                  -0.476
REMARK UNBOUND:                -0.333
REMARK SMILES CCCCCCCCC(=O)[O-]
REMARK SMILES IDX 6 1 7 2 8 3 9 4 10 5 11 6 5 7 4 8 3 9 2 10 1 11
REMARK H PARENT
REMARK Flexibility Score: inf
ROOT
ATOM      1  C   UNL     1     -10.503   9.252 -18.966  1.00  0.00     0.000 C 
ENDROOT
BRANCH   1   2
ATOM      2  C   UNL     1     -11.949   8.824 -19.269  1.00  0.00     0.006 C 
BRANCH   2   3
ATOM      3  C   UNL     1     -12.090   7.299 -19.369  1.00  0.00     0.053 C 
BRANCH   3   4
ATOM      4  C   UNL     1     -12.447   6.865 -20.758  1.00  0.00     0.041 C 
ATOM      5  O   UNL     1     -13.016   7.667 -21.545  1.00  0.00    -0.550 OA
ATOM      6  O   UNL     1     -12.185   5.565 -21.171  1.00  0.00    -0.550 OA
ENDBRANCH   3   4
ENDBRANCH   2   3
ENDBRANCH   1   2
BRANCH   1   7
ATOM      7  C   UNL     1      -9.748   8.227 -18.105  1.00  0.00     0.000 C 
BRANCH   7   8
ATOM      8  C   UNL     1      -8.215   8.398 -18.090  1.00  0.00    -0.000 C 
BRANCH   8   9
ATOM      9  C   UNL     1      -7.456   7.263 -18.812  1.00  0.00    -0.000 C 
BRANCH   9  10
ATOM     10  C   UNL     1      -8.404   6.187 -19.364  1.00  0.00    -0.003 C 
ATOM     11  C   UNL     1      -7.749   4.809 -19.335  1.00  0.00     0.004 C 
ENDBRANCH   9  10
ENDBRANCH   8   9
ENDBRANCH   7   8
ENDBRANCH   1   7
TORSDOF 7
ENDMDL
MODEL 9
REMARK VINA RESULT:    -3.466      3.913      6.128
REMARK INTER + INTRA:          -5.218
REMARK INTER:                  -4.745
REMARK INTRA:                  -0.473
REMARK UNBOUND:                -0.333
REMARK SMILES CCCCCCCCC(=O)[O-]
REMARK SMILES IDX 6 1 7 2 8 3 9 4 10 5 11 6 5 7 4 8 3 9 2 10 1 11
REMARK H PARENT
REMARK Flexibility Score: inf
ROOT
ATOM      1  C   UNL     1     -12.715   8.856 -19.587  1.00  0.00     0.000 C 
ENDROOT
BRANCH   1   2
ATOM      2  C   UNL     1     -12.759   7.495 -20.304  1.00  0.00     0.006 C 
BRANCH   2   3
ATOM      3  C   UNL     1     -12.978   7.646 -21.815  1.00  0.00     0.053 C 
BRANCH   3   4
ATOM      4  C   UNL     1     -11.689   7.551 -22.573  1.00  0.00     0.041 C 
ATOM      5  O   UNL     1     -10.884   8.520 -22.578  1.00  0.00    -0.550 OA
ATOM      6  O   UNL     1     -11.393   6.407 -23.304  1.00  0.00    -0.550 OA
ENDBRANCH   3   4
ENDBRANCH   2   3
ENDBRANCH   1   2
BRANCH   1   7
ATOM      7  C   UNL     1     -11.324   9.186 -19.022  1.00  0.00     0.000 C 
BRANCH   7   8
ATOM      8  C   UNL     1     -10.366   7.982 -18.919  1.00  0.00    -0.000 C 
BRANCH   8   9
ATOM      9  C   UNL     1      -9.235   8.175 -17.885  1.00  0.00    -0.000 C 
BRANCH   9  10
ATOM     10  C   UNL     1      -9.254   9.575 -17.254  1.00  0.00    -0.003 C 
ATOM     11  C   UNL     1      -7.843  10.139 -17.120  1.00  0.00     0.004 C 
ENDBRANCH   9  10
ENDBRANCH   8   9
ENDBRANCH   7   8
ENDBRANCH   1   7
TORSDOF 7
ENDMDL
