MODEL 1
REMARK VINA RESULT:    -3.344      0.000      0.000
REMARK INTER + INTRA:          -3.995
REMARK INTER:                  -3.931
REMARK INTRA:                  -0.064
REMARK UNBOUND:                -0.064
REMARK SMILES CCCCC(=O)[O-]
REMARK SMILES IDX 4 1 5 2 6 3 7 4 3 5 2 6 1 7
REMARK H PARENT
REMARK Flexibility Score: inf
ROOT
ATOM      1  C   UNL     1      -9.186   1.485 -22.215  1.00  0.00     0.053 C 
ENDROOT
BRANCH   1   2
ATOM      2  C   UNL     1     -10.145   0.547 -22.877  1.00  0.00     0.041 C 
ATOM      3  O   UNL     1      -9.996   0.238 -24.088  1.00  0.00    -0.550 OA
ATOM      4  O   UNL     1     -11.233   0.051 -22.169  1.00  0.00    -0.550 OA
ENDBRANCH   1   2
BRANCH   1   5
ATOM      5  C   UNL     1      -9.873   2.234 -21.068  1.00  0.00     0.006 C 
BRANCH   5   6
ATOM      6  C   UNL     1      -8.936   2.369 -19.862  1.00  0.00    -0.003 C 
ATOM      7  C   UNL     1      -7.664   1.550 -20.058  1.00  0.00     0.004 C 
ENDBRANCH   5   6
ENDBRANCH   1   5
TORSDOF 3
ENDMDL
MODEL 2
REMARK VINA RESULT:    -3.298     12.279     13.280
REMARK INTER + INTRA:          -3.940
REMARK INTER:                  -3.837
REMARK INTRA:                  -0.103
REMARK UNBOUND:                -0.064
REMARK SMILES CCCCC(=O)[O-]
REMARK SMILES IDX 4 1 5 2 6 3 7 4 3 5 2 6 1 7
REMARK H PARENT
REMARK Flexibility Score: inf
ROOT
ATOM      1  C   UNL     1      -7.868   5.536 -32.699  1.00  0.00     0.053 C 
ENDROOT
BRANCH   1   2
ATOM      2  C   UNL     1      -6.874   6.647 -32.822  1.00  0.00     0.041 C 
ATOM      3  O   UNL     1      -6.885   7.601 -32.000  1.00  0.00    -0.550 OA
ATOM      4  O   UNL     1      -5.965   6.653 -33.873  1.00  0.00    -0.550 OA
ENDBRANCH   1   2
BRANCH   1   5
ATOM      5  C   UNL     1      -8.244   4.996 -34.082  1.00  0.00     0.006 C 
BRANCH   5   6
ATOM      6  C   UNL     1      -7.822   3.531 -34.234  1.00  0.00    -0.003 C 
ATOM      7  C   UNL     1      -6.728   3.378 -35.286  1.00  0.00     0.004 C 
ENDBRANCH   5   6
ENDBRANCH   1   5
TORSDOF 3
ENDMDL
MODEL 3
REMARK VINA RESULT:    -3.267     12.343     12.939
REMARK INTER + INTRA:          -3.904
REMARK INTER:                  -3.833
REMARK INTRA:                  -0.071
REMARK UNBOUND:                -0.064
REMARK SMILES CCCCC(=O)[O-]
REMARK SMILES IDX 4 1 5 2 6 3 7 4 3 5 2 6 1 7
REMARK H PARENT
REMARK Flexibility Score: inf
ROOT
ATOM      1  C   UNL     1      -8.085   5.430 -34.240  1.00  0.00     0.053 C 
ENDROOT
BRANCH   1   2
ATOM      2  C   UNL     1      -8.191   3.991 -34.635  1.00  0.00     0.041 C 
ATOM      3  O   UNL     1      -9.309   3.498 -34.938  1.00  0.00    -0.550 OA
ATOM      4  O   UNL     1      -7.062   3.181 -34.620  1.00  0.00    -0.550 OA
ENDBRANCH   1   2
BRANCH   1   5
ATOM      5  C   UNL     1      -7.911   5.559 -32.724  1.00  0.00     0.006 C 
BRANCH   5   6
ATOM      6  C   UNL     1      -6.854   6.615 -32.380  1.00  0.00    -0.003 C 
ATOM      7  C   UNL     1      -6.029   6.988 -33.607  1.00  0.00     0.004 C 
ENDBRANCH   5   6
ENDBRANCH   1   5
TORSDOF 3
ENDMDL
MODEL 4
REMARK VINA RESULT:    -3.220      6.330      7.263
REMARK INTER + INTRA:          -3.848
REMARK INTER:                  -3.755
REMARK INTRA:                  -0.094
REMARK UNBOUND:                -0.064
REMARK SMILES CCCCC(=O)[O-]
REMARK SMILES IDX 4 1 5 2 6 3 7 4 3 5 2 6 1 7
REMARK H PARENT
REMARK Flexibility Score: inf
ROOT
ATOM      1  C   UNL     1     -14.118   5.239 -23.208  1.00  0.00     0.053 C 
ENDROOT
BRANCH   1   2
ATOM      2  C   UNL     1     -14.228   3.916 -22.519  1.00  0.00     0.041 C 
ATOM      3  O   UNL     1     -13.202   3.209 -22.335  1.00  0.00    -0.550 OA
ATOM      4  O   UNL     1     -15.472   3.440 -22.123  1.00  0.00    -0.550 OA
ENDBRANCH   1   2
BRANCH   1   5
ATOM      5  C   UNL     1     -14.805   5.190 -24.577  1.00  0.00     0.006 C 
BRANCH   5   6
ATOM      6  C   UNL     1     -15.771   6.368 -24.748  1.00  0.00    -0.003 C 
ATOM      7  C   UNL     1     -16.690   6.507 -23.538  1.00  0.00     0.004 C 
ENDBRANCH   5   6
ENDBRANCH   1   5
TORSDOF 3
ENDMDL
MODEL 5
REMARK VINA RESULT:    -3.218     12.442     13.115
REMARK INTER + INTRA:          -3.846
REMARK INTER:                  -3.828
REMARK INTRA:                  -0.017
REMARK UNBOUND:                -0.064
REMARK SMILES CCCCC(=O)[O-]
REMARK SMILES IDX 4 1 5 2 6 3 7 4 3 5 2 6 1 7
REMARK H PARENT
REMARK Flexibility Score: inf
ROOT
ATOM      1  C   UNL     1      -7.984   3.695 -34.121  1.00  0.00     0.053 C 
ENDROOT
BRANCH   1   2
ATOM      2  C   UNL     1      -8.656   3.225 -35.372  1.00  0.00     0.041 C 
ATOM      3  O   UNL     1      -8.174   3.519 -36.498  1.00  0.00    -0.550 OA
ATOM      4  O   UNL     1      -9.841   2.504 -35.297  1.00  0.00    -0.550 OA
ENDBRANCH   1   2
BRANCH   1   5
ATOM      5  C   UNL     1      -7.785   5.213 -34.156  1.00  0.00     0.006 C 
BRANCH   5   6
ATOM      6  C   UNL     1      -7.943   5.821 -32.758  1.00  0.00    -0.003 C 
ATOM      7  C   UNL     1      -6.711   6.633 -32.368  1.00  0.00     0.004 C 
ENDBRANCH   5   6
ENDBRANCH   1   5
TORSDOF 3
ENDMDL
MODEL 6
REMARK VINA RESULT:    -3.106      7.053      7.642
REMARK INTER + INTRA:          -3.715
REMARK INTER:                  -3.624
REMARK INTRA:                  -0.091
REMARK UNBOUND:                -0.064
REMARK SMILES CCCCC(=O)[O-]
REMARK SMILES IDX 4 1 5 2 6 3 7 4 3 5 2 6 1 7
REMARK H PARENT
REMARK Flexibility Score: inf
ROOT
ATOM      1  C   UNL     1     -14.869   5.267 -24.536  1.00  0.00     0.053 C 
ENDROOT
BRANCH   1   2
ATOM      2  C   UNL     1     -15.901   6.344 -24.420  1.00  0.00     0.041 C 
ATOM      3  O   UNL     1     -15.796   7.399 -25.098  1.00  0.00    -0.550 OA
ATOM      4  O   UNL     1     -16.955   6.203 -23.525  1.00  0.00    -0.550 OA
ENDBRANCH   1   2
BRANCH   1   5
ATOM      5  C   UNL     1     -13.951   5.269 -23.310  1.00  0.00     0.006 C 
BRANCH   5   6
ATOM      6  C   UNL     1     -14.311   4.127 -22.352  1.00  0.00    -0.003 C 
ATOM      7  C   UNL     1     -14.676   2.860 -23.119  1.00  0.00     0.004 C 
ENDBRANCH   5   6
ENDBRANCH   1   5
TORSDOF 3
ENDMDL
MODEL 7
REMARK VINA RESULT:    -3.051     13.194     14.149
REMARK INTER + INTRA:          -3.650
REMARK INTER:                  -3.583
REMARK INTRA:                  -0.067
REMARK UNBOUND:                -0.064
REMARK SMILES CCCCC(=O)[O-]
REMARK SMILES IDX 4 1 5 2 6 3 7 4 3 5 2 6 1 7
REMARK H PARENT
REMARK Flexibility Score: inf
ROOT
ATOM      1  C   UNL     1      -6.917   5.381 -34.840  1.00  0.00     0.053 C 
ENDROOT
BRANCH   1   2
ATOM      2  C   UNL     1      -6.980   6.356 -35.973  1.00  0.00     0.041 C 
ATOM      3  O   UNL     1      -6.127   7.278 -36.064  1.00  0.00    -0.550 OA
ATOM      4  O   UNL     1      -8.010   6.276 -36.902  1.00  0.00    -0.550 OA
ENDBRANCH   1   2
BRANCH   1   5
ATOM      5  C   UNL     1      -8.162   5.504 -33.956  1.00  0.00     0.006 C 
BRANCH   5   6
ATOM      6  C   UNL     1      -7.774   5.726 -32.490  1.00  0.00    -0.003 C 
ATOM      7  C   UNL     1      -6.845   6.927 -32.341  1.00  0.00     0.004 C 
ENDBRANCH   5   6
ENDBRANCH   1   5
TORSDOF 3
ENDMDL
MODEL 8
REMARK VINA RESULT:    -3.050      2.599      3.610
REMARK INTER + INTRA:          -3.649
REMARK INTER:                  -3.540
REMARK INTRA:                  -0.109
REMARK UNBOUND:                -0.064
REMARK SMILES CCCCC(=O)[O-]
REMARK SMILES IDX 4 1 5 2 6 3 7 4 3 5 2 6 1 7
REMARK H PARENT
REMARK Flexibility Score: inf
ROOT
ATOM      1  C   UNL     1      -9.223   2.225 -20.123  1.00  0.00     0.053 C 
ENDROOT
BRANCH   1   2
ATOM      2  C   UNL     1      -8.137   1.197 -20.093  1.00  0.00     0.041 C 
ATOM      3  O   UNL     1      -8.422  -0.027 -20.163  1.00  0.00    -0.550 OA
ATOM      4  O   UNL     1      -6.813   1.589 -19.938  1.00  0.00    -0.550 OA
ENDBRANCH   1   2
BRANCH   1   5
ATOM      5  C   UNL     1     -10.060   2.084 -21.398  1.00  0.00     0.006 C 
BRANCH   5   6
ATOM      6  C   UNL     1     -11.504   1.691 -21.067  1.00  0.00    -0.003 C 
ATOM      7  C   UNL     1     -11.781   0.240 -21.449  1.00  0.00     0.004 C 
ENDBRANCH   5   6
ENDBRANCH   1   5
TORSDOF 3
ENDMDL
MODEL 9
REMARK VINA RESULT:    -3.006     12.403     13.526
REMARK INTER + INTRA:          -3.597
REMARK INTER:                  -3.541
REMARK INTRA:                  -0.056
REMARK UNBOUND:                -0.064
REMARK SMILES CCCCC(=O)[O-]
REMARK SMILES IDX 4 1 5 2 6 3 7 4 3 5 2 6 1 7
REMARK H PARENT
REMARK Flexibility Score: inf
ROOT
ATOM      1  C   UNL     1      -8.043   3.591 -34.357  1.00  0.00     0.053 C 
ENDROOT
BRANCH   1   2
ATOM      2  C   UNL     1      -8.875   3.029 -35.466  1.00  0.00     0.041 C 
ATOM      3  O   UNL     1      -9.894   2.336 -35.204  1.00  0.00    -0.550 OA
ATOM      4  O   UNL     1      -8.499   3.229 -36.788  1.00  0.00    -0.550 OA
ENDBRANCH   1   2
BRANCH   1   5
ATOM      5  C   UNL     1      -7.032   4.603 -34.906  1.00  0.00     0.006 C 
BRANCH   5   6
ATOM      6  C   UNL     1      -7.062   5.904 -34.096  1.00  0.00    -0.003 C 
ATOM      7  C   UNL     1      -7.748   5.698 -32.749  1.00  0.00     0.004 C 
ENDBRANCH   5   6
ENDBRANCH   1   5
TORSDOF 3
ENDMDL
