MODEL 1
REMARK VINA RESULT:    -7.178      0.000      0.000
REMARK INTER + INTRA:          -8.716
REMARK INTER:                  -8.436
REMARK INTRA:                  -0.280
REMARK UNBOUND:                -0.280
REMARK SMILES O=c1c(O)c(-c2ccc(O)cc2)oc2cc(O)cc(O)c12
REMARK SMILES IDX 5 1 3 2 2 3 1 4 21 5 19 6 18 7 16 8 15 9 14 10 13 11 6 12
REMARK SMILES IDX 7 13 8 14 9 15 12 16 11 17 10 18 4 20 20 22 17 24
REMARK H PARENT 10 19 4 21 20 23 17 25
REMARK Flexibility Score: inf
ROOT
ATOM      1  C   UNL     1      23.315  63.508  31.039  1.00  0.00     0.180 A 
ATOM      2  C   UNL     1      22.370  63.657  32.069  1.00  0.00     0.208 A 
ATOM      3  C   UNL     1      22.725  63.290  33.377  1.00  0.00     0.238 A 
ATOM      4  O   UNL     1      21.858  63.374  34.285  1.00  0.00    -0.285 OA
ATOM      5  C   UNL     1      24.024  62.794  33.641  1.00  0.00     0.111 A 
ATOM      6  C   UNL     1      24.506  62.429  34.935  1.00  0.00     0.134 A 
ATOM      7  C   UNL     1      25.763  61.827  35.059  1.00  0.00     0.093 A 
ATOM      8  C   UNL     1      26.584  61.637  33.946  1.00  0.00     0.123 A 
ATOM      9  C   UNL     1      26.148  62.044  32.687  1.00  0.00     0.094 A 
ATOM     10  C   UNL     1      24.884  62.614  32.526  1.00  0.00     0.146 A 
ATOM     11  O   UNL     1      24.503  62.978  31.307  1.00  0.00    -0.452 OA
ENDROOT
BRANCH   1  12
ATOM     12  C   UNL     1      23.022  63.897  29.640  1.00  0.00     0.021 A 
ATOM     13  C   UNL     1      22.709  62.902  28.698  1.00  0.00     0.016 A 
ATOM     14  C   UNL     1      22.452  63.245  27.367  1.00  0.00     0.047 A 
ATOM     15  C   UNL     1      22.520  64.580  26.957  1.00  0.00     0.115 A 
ATOM     16  C   UNL     1      23.109  65.236  29.218  1.00  0.00     0.016 A 
ATOM     17  C   UNL     1      22.852  65.574  27.885  1.00  0.00     0.047 A 
BRANCH  15  18
ATOM     18  O   UNL     1      22.261  64.906  25.628  1.00  0.00    -0.508 OA
ATOM     19  H   UNL     1      21.563  65.596  25.378  1.00  0.00     0.293 HD
ENDBRANCH  15  18
ENDBRANCH   1  12
BRANCH   2  20
ATOM     20  O   UNL     1      21.086  64.128  31.783  1.00  0.00    -0.502 OA
ATOM     21  H   UNL     1      20.273  63.523  31.777  1.00  0.00     0.293 HD
ENDBRANCH   2  20
BRANCH   6  22
ATOM     22  O   UNL     1      23.804  62.660  36.122  1.00  0.00    -0.507 OA
ATOM     23  H   UNL     1      22.810  62.533  36.236  1.00  0.00     0.293 HD
ENDBRANCH   6  22
BRANCH   8  24
ATOM     24  O   UNL     1      27.842  61.051  34.081  1.00  0.00    -0.508 OA
ATOM     25  H   UNL     1      28.617  61.552  34.498  1.00  0.00     0.293 HD
ENDBRANCH   8  24
TORSDOF 5
ENDMDL
MODEL 2
REMARK VINA RESULT:    -7.074      1.435      3.096
REMARK INTER + INTRA:          -8.594
REMARK INTER:                  -8.393
REMARK INTRA:                  -0.201
REMARK UNBOUND:                -0.280
REMARK SMILES O=c1c(O)c(-c2ccc(O)cc2)oc2cc(O)cc(O)c12
REMARK SMILES IDX 5 1 3 2 2 3 1 4 21 5 19 6 18 7 16 8 15 9 14 10 13 11 6 12
REMARK SMILES IDX 7 13 8 14 9 15 12 16 11 17 10 18 4 20 20 22 17 24
REMARK H PARENT 10 19 4 21 20 23 17 25
REMARK Flexibility Score: inf
ROOT
ATOM      1  C   UNL     1      23.562  62.968  30.561  1.00  0.00     0.180 A 
ATOM      2  C   UNL     1      24.547  61.971  30.673  1.00  0.00     0.208 A 
ATOM      3  C   UNL     1      24.862  61.465  31.944  1.00  0.00     0.238 A 
ATOM      4  O   UNL     1      25.782  60.612  32.044  1.00  0.00    -0.285 OA
ATOM      5  C   UNL     1      24.177  61.948  33.084  1.00  0.00     0.111 A 
ATOM      6  C   UNL     1      24.385  61.478  34.416  1.00  0.00     0.134 A 
ATOM      7  C   UNL     1      23.747  62.119  35.483  1.00  0.00     0.093 A 
ATOM      8  C   UNL     1      22.855  63.172  35.262  1.00  0.00     0.123 A 
ATOM      9  C   UNL     1      22.599  63.600  33.962  1.00  0.00     0.094 A 
ATOM     10  C   UNL     1      23.249  63.003  32.879  1.00  0.00     0.146 A 
ATOM     11  O   UNL     1      22.984  63.448  31.656  1.00  0.00    -0.452 OA
ENDROOT
BRANCH   1  12
ATOM     12  C   UNL     1      23.159  63.533  29.253  1.00  0.00     0.021 A 
ATOM     13  C   UNL     1      23.431  64.883  28.970  1.00  0.00     0.016 A 
ATOM     14  C   UNL     1      23.038  65.442  27.750  1.00  0.00     0.047 A 
ATOM     15  C   UNL     1      22.357  64.668  26.806  1.00  0.00     0.115 A 
ATOM     16  C   UNL     1      22.454  62.765  28.309  1.00  0.00     0.016 A 
ATOM     17  C   UNL     1      22.063  63.329  27.089  1.00  0.00     0.047 A 
BRANCH  15  18
ATOM     18  O   UNL     1      21.972  65.240  25.596  1.00  0.00    -0.508 OA
ATOM     19  H   UNL     1      22.656  65.586  24.933  1.00  0.00     0.293 HD
ENDBRANCH  15  18
ENDBRANCH   1  12
BRANCH   2  20
ATOM     20  O   UNL     1      25.226  61.524  29.537  1.00  0.00    -0.502 OA
ATOM     21  H   UNL     1      25.869  60.741  29.560  1.00  0.00     0.293 HD
ENDBRANCH   2  20
BRANCH   6  22
ATOM     22  O   UNL     1      25.183  60.375  34.738  1.00  0.00    -0.507 OA
ATOM     23  H   UNL     1      25.239  59.528  34.194  1.00  0.00     0.293 HD
ENDBRANCH   6  22
BRANCH   8  24
ATOM     24  O   UNL     1      22.211  63.795  36.330  1.00  0.00    -0.508 OA
ATOM     25  H   UNL     1      22.020  64.789  36.326  1.00  0.00     0.293 HD
ENDBRANCH   8  24
TORSDOF 5
ENDMDL
MODEL 3
REMARK VINA RESULT:    -7.052      2.258      3.178
REMARK INTER + INTRA:          -8.569
REMARK INTER:                  -8.322
REMARK INTRA:                  -0.247
REMARK UNBOUND:                -0.280
REMARK SMILES O=c1c(O)c(-c2ccc(O)cc2)oc2cc(O)cc(O)c12
REMARK SMILES IDX 5 1 3 2 2 3 1 4 21 5 19 6 18 7 16 8 15 9 14 10 13 11 6 12
REMARK SMILES IDX 7 13 8 14 9 15 12 16 11 17 10 18 4 20 20 22 17 24
REMARK H PARENT 10 19 4 21 20 23 17 25
REMARK Flexibility Score: inf
ROOT
ATOM      1  C   UNL     1      23.058  62.906  32.477  1.00  0.00     0.180 A 
ATOM      2  C   UNL     1      23.456  63.143  33.805  1.00  0.00     0.208 A 
ATOM      3  C   UNL     1      24.366  62.261  34.410  1.00  0.00     0.238 A 
ATOM      4  O   UNL     1      24.677  62.447  35.616  1.00  0.00    -0.285 OA
ATOM      5  C   UNL     1      24.878  61.164  33.677  1.00  0.00     0.111 A 
ATOM      6  C   UNL     1      25.836  60.230  34.176  1.00  0.00     0.134 A 
ATOM      7  C   UNL     1      26.172  59.109  33.409  1.00  0.00     0.093 A 
ATOM      8  C   UNL     1      25.637  58.923  32.132  1.00  0.00     0.123 A 
ATOM      9  C   UNL     1      24.747  59.859  31.611  1.00  0.00     0.094 A 
ATOM     10  C   UNL     1      24.364  60.969  32.368  1.00  0.00     0.146 A 
ATOM     11  O   UNL     1      23.505  61.832  31.838  1.00  0.00    -0.452 OA
ENDROOT
BRANCH   1  12
ATOM     12  C   UNL     1      22.122  63.806  31.764  1.00  0.00     0.021 A 
ATOM     13  C   UNL     1      20.742  63.700  32.008  1.00  0.00     0.016 A 
ATOM     14  C   UNL     1      19.839  64.523  31.328  1.00  0.00     0.047 A 
ATOM     15  C   UNL     1      20.300  65.450  30.388  1.00  0.00     0.115 A 
ATOM     16  C   UNL     1      22.579  64.725  30.802  1.00  0.00     0.016 A 
ATOM     17  C   UNL     1      21.672  65.547  30.124  1.00  0.00     0.047 A 
BRANCH  15  18
ATOM     18  O   UNL     1      19.388  66.263  29.719  1.00  0.00    -0.508 OA
ATOM     19  H   UNL     1      19.380  66.328  28.708  1.00  0.00     0.293 HD
ENDBRANCH  15  18
ENDBRANCH   1  12
BRANCH   2  20
ATOM     20  O   UNL     1      22.922  64.219  34.518  1.00  0.00    -0.502 OA
ATOM     21  H   UNL     1      22.312  64.093  35.318  1.00  0.00     0.293 HD
ENDBRANCH   2  20
BRANCH   6  22
ATOM     22  O   UNL     1      26.499  60.372  35.399  1.00  0.00    -0.507 OA
ATOM     23  H   UNL     1      27.499  60.330  35.518  1.00  0.00     0.293 HD
ENDBRANCH   6  22
BRANCH   8  24
ATOM     24  O   UNL     1      25.990  57.812  31.368  1.00  0.00    -0.508 OA
ATOM     25  H   UNL     1      25.437  57.518  30.572  1.00  0.00     0.293 HD
ENDBRANCH   8  24
TORSDOF 5
ENDMDL
MODEL 4
REMARK VINA RESULT:    -7.045      1.433      6.506
REMARK INTER + INTRA:          -8.560
REMARK INTER:                  -8.794
REMARK INTRA:                   0.234
REMARK UNBOUND:                -0.280
REMARK SMILES O=c1c(O)c(-c2ccc(O)cc2)oc2cc(O)cc(O)c12
REMARK SMILES IDX 5 1 3 2 2 3 1 4 21 5 19 6 18 7 16 8 15 9 14 10 13 11 6 12
REMARK SMILES IDX 7 13 8 14 9 15 12 16 11 17 10 18 4 20 20 22 17 24
REMARK H PARENT 10 19 4 21 20 23 17 25
REMARK Flexibility Score: inf
ROOT
ATOM      1  C   UNL     1      23.593  62.933  31.679  1.00  0.00     0.180 A 
ATOM      2  C   UNL     1      22.322  63.483  31.926  1.00  0.00     0.208 A 
ATOM      3  C   UNL     1      21.513  63.844  30.838  1.00  0.00     0.238 A 
ATOM      4  O   UNL     1      20.400  64.386  31.065  1.00  0.00    -0.285 OA
ATOM      5  C   UNL     1      21.977  63.637  29.516  1.00  0.00     0.111 A 
ATOM      6  C   UNL     1      21.225  63.929  28.338  1.00  0.00     0.134 A 
ATOM      7  C   UNL     1      21.833  63.807  27.083  1.00  0.00     0.093 A 
ATOM      8  C   UNL     1      23.144  63.340  26.960  1.00  0.00     0.123 A 
ATOM      9  C   UNL     1      23.866  62.996  28.101  1.00  0.00     0.094 A 
ATOM     10  C   UNL     1      23.299  63.142  29.368  1.00  0.00     0.146 A 
ATOM     11  O   UNL     1      24.026  62.813  30.430  1.00  0.00    -0.452 OA
ENDROOT
BRANCH   1  12
ATOM     12  C   UNL     1      24.492  62.505  32.775  1.00  0.00     0.021 A 
ATOM     13  C   UNL     1      25.884  62.572  32.593  1.00  0.00     0.016 A 
ATOM     14  C   UNL     1      26.751  62.151  33.606  1.00  0.00     0.047 A 
ATOM     15  C   UNL     1      26.241  61.645  34.806  1.00  0.00     0.115 A 
ATOM     16  C   UNL     1      23.984  61.976  33.976  1.00  0.00     0.016 A 
ATOM     17  C   UNL     1      24.855  61.556  34.987  1.00  0.00     0.047 A 
BRANCH  15  18
ATOM     18  O   UNL     1      27.117  61.230  35.805  1.00  0.00    -0.508 OA
ATOM     19  H   UNL     1      27.566  61.894  36.425  1.00  0.00     0.293 HD
ENDBRANCH  15  18
ENDBRANCH   1  12
BRANCH   2  20
ATOM     20  O   UNL     1      21.893  63.699  33.238  1.00  0.00    -0.502 OA
ATOM     21  H   UNL     1      22.044  64.576  33.723  1.00  0.00     0.293 HD
ENDBRANCH   2  20
BRANCH   6  22
ATOM     22  O   UNL     1      19.881  64.313  28.346  1.00  0.00    -0.507 OA
ATOM     23  H   UNL     1      19.154  63.870  27.805  1.00  0.00     0.293 HD
ENDBRANCH   6  22
BRANCH   8  24
ATOM     24  O   UNL     1      23.737  63.206  25.706  1.00  0.00    -0.508 OA
ATOM     25  H   UNL     1      23.845  62.301  25.265  1.00  0.00     0.293 HD
ENDBRANCH   8  24
TORSDOF 5
ENDMDL
MODEL 5
REMARK VINA RESULT:    -7.020      1.523      1.773
REMARK INTER + INTRA:          -8.531
REMARK INTER:                  -8.239
REMARK INTRA:                  -0.292
REMARK UNBOUND:                -0.280
REMARK SMILES O=c1c(O)c(-c2ccc(O)cc2)oc2cc(O)cc(O)c12
REMARK SMILES IDX 5 1 3 2 2 3 1 4 21 5 19 6 18 7 16 8 15 9 14 10 13 11 6 12
REMARK SMILES IDX 7 13 8 14 9 15 12 16 11 17 10 18 4 20 20 22 17 24
REMARK H PARENT 10 19 4 21 20 23 17 25
REMARK Flexibility Score: inf
ROOT
ATOM      1  C   UNL     1      23.111  62.917  32.068  1.00  0.00     0.180 A 
ATOM      2  C   UNL     1      22.717  63.237  33.380  1.00  0.00     0.208 A 
ATOM      3  C   UNL     1      23.600  62.975  34.439  1.00  0.00     0.238 A 
ATOM      4  O   UNL     1      23.221  63.214  35.615  1.00  0.00    -0.285 OA
ATOM      5  C   UNL     1      24.871  62.411  34.173  1.00  0.00     0.111 A 
ATOM      6  C   UNL     1      25.862  62.140  35.165  1.00  0.00     0.134 A 
ATOM      7  C   UNL     1      27.031  61.461  34.806  1.00  0.00     0.093 A 
ATOM      8  C   UNL     1      27.276  61.101  33.478  1.00  0.00     0.123 A 
ATOM      9  C   UNL     1      26.343  61.413  32.493  1.00  0.00     0.094 A 
ATOM     10  C   UNL     1      25.150  62.058  32.827  1.00  0.00     0.146 A 
ATOM     11  O   UNL     1      24.282  62.328  31.859  1.00  0.00    -0.452 OA
ENDROOT
BRANCH   1  12
ATOM     12  C   UNL     1      22.244  63.186  30.898  1.00  0.00     0.021 A 
ATOM     13  C   UNL     1      21.473  62.145  30.354  1.00  0.00     0.016 A 
ATOM     14  C   UNL     1      20.666  62.372  29.236  1.00  0.00     0.047 A 
ATOM     15  C   UNL     1      20.630  63.635  28.637  1.00  0.00     0.115 A 
ATOM     16  C   UNL     1      22.220  64.450  30.280  1.00  0.00     0.016 A 
ATOM     17  C   UNL     1      21.411  64.673  29.160  1.00  0.00     0.047 A 
BRANCH  15  18
ATOM     18  O   UNL     1      19.821  63.846  27.523  1.00  0.00    -0.508 OA
ATOM     19  H   UNL     1      20.189  63.778  26.582  1.00  0.00     0.293 HD
ENDBRANCH  15  18
ENDBRANCH   1  12
BRANCH   2  20
ATOM     20  O   UNL     1      21.450  63.773  33.622  1.00  0.00    -0.502 OA
ATOM     21  H   UNL     1      20.625  63.194  33.729  1.00  0.00     0.293 HD
ENDBRANCH   2  20
BRANCH   6  22
ATOM     22  O   UNL     1      25.757  62.540  36.501  1.00  0.00    -0.507 OA
ATOM     23  H   UNL     1      25.054  62.212  37.145  1.00  0.00     0.293 HD
ENDBRANCH   6  22
BRANCH   8  24
ATOM     24  O   UNL     1      28.451  60.438  33.127  1.00  0.00    -0.508 OA
ATOM     25  H   UNL     1      29.212  60.324  33.784  1.00  0.00     0.293 HD
ENDBRANCH   8  24
TORSDOF 5
ENDMDL
MODEL 6
REMARK VINA RESULT:    -7.010     10.034     12.219
REMARK INTER + INTRA:          -8.519
REMARK INTER:                  -8.219
REMARK INTRA:                  -0.300
REMARK UNBOUND:                -0.280
REMARK SMILES O=c1c(O)c(-c2ccc(O)cc2)oc2cc(O)cc(O)c12
REMARK SMILES IDX 5 1 3 2 2 3 1 4 21 5 19 6 18 7 16 8 15 9 14 10 13 11 6 12
REMARK SMILES IDX 7 13 8 14 9 15 12 16 11 17 10 18 4 20 20 22 17 24
REMARK H PARENT 10 19 4 21 20 23 17 25
REMARK Flexibility Score: inf
ROOT
ATOM      1  C   UNL     1      17.338  56.356  27.315  1.00  0.00     0.180 A 
ATOM      2  C   UNL     1      17.972  56.497  26.067  1.00  0.00     0.208 A 
ATOM      3  C   UNL     1      17.661  57.609  25.268  1.00  0.00     0.238 A 
ATOM      4  O   UNL     1      18.190  57.701  24.129  1.00  0.00    -0.285 OA
ATOM      5  C   UNL     1      16.735  58.573  25.732  1.00  0.00     0.111 A 
ATOM      6  C   UNL     1      16.375  59.760  25.023  1.00  0.00     0.134 A 
ATOM      7  C   UNL     1      15.351  60.575  25.517  1.00  0.00     0.093 A 
ATOM      8  C   UNL     1      14.718  60.284  26.728  1.00  0.00     0.123 A 
ATOM      9  C   UNL     1      15.103  59.161  27.457  1.00  0.00     0.094 A 
ATOM     10  C   UNL     1      16.096  58.308  26.972  1.00  0.00     0.146 A 
ATOM     11  O   UNL     1      16.425  57.243  27.693  1.00  0.00    -0.452 OA
ENDROOT
BRANCH   1  12
ATOM     12  C   UNL     1      17.633  55.225  28.223  1.00  0.00     0.021 A 
ATOM     13  C   UNL     1      16.833  54.070  28.172  1.00  0.00     0.016 A 
ATOM     14  C   UNL     1      17.078  53.000  29.036  1.00  0.00     0.047 A 
ATOM     15  C   UNL     1      18.114  53.073  29.972  1.00  0.00     0.115 A 
ATOM     16  C   UNL     1      18.660  55.302  29.181  1.00  0.00     0.016 A 
ATOM     17  C   UNL     1      18.903  54.228  30.045  1.00  0.00     0.047 A 
BRANCH  15  18
ATOM     18  O   UNL     1      18.347  51.999  30.827  1.00  0.00    -0.508 OA
ATOM     19  H   UNL     1      18.228  51.041  30.518  1.00  0.00     0.293 HD
ENDBRANCH  15  18
ENDBRANCH   1  12
BRANCH   2  20
ATOM     20  O   UNL     1      18.866  55.522  25.619  1.00  0.00    -0.502 OA
ATOM     21  H   UNL     1      18.579  54.748  25.032  1.00  0.00     0.293 HD
ENDBRANCH   2  20
BRANCH   6  22
ATOM     22  O   UNL     1      17.008  60.191  23.853  1.00  0.00    -0.507 OA
ATOM     23  H   UNL     1      18.002  60.327  23.754  1.00  0.00     0.293 HD
ENDBRANCH   6  22
BRANCH   8  24
ATOM     24  O   UNL     1      13.711  61.111  27.221  1.00  0.00    -0.508 OA
ATOM     25  H   UNL     1      13.921  61.996  27.666  1.00  0.00     0.293 HD
ENDBRANCH   8  24
TORSDOF 5
ENDMDL
MODEL 7
REMARK VINA RESULT:    -6.994     10.719     12.647
REMARK INTER + INTRA:          -8.501
REMARK INTER:                  -8.208
REMARK INTRA:                  -0.293
REMARK UNBOUND:                -0.280
REMARK SMILES O=c1c(O)c(-c2ccc(O)cc2)oc2cc(O)cc(O)c12
REMARK SMILES IDX 5 1 3 2 2 3 1 4 21 5 19 6 18 7 16 8 15 9 14 10 13 11 6 12
REMARK SMILES IDX 7 13 8 14 9 15 12 16 11 17 10 18 4 20 20 22 17 24
REMARK H PARENT 10 19 4 21 20 23 17 25
REMARK Flexibility Score: inf
ROOT
ATOM      1  C   UNL     1      16.674  56.478  26.242  1.00  0.00     0.180 A 
ATOM      2  C   UNL     1      17.382  57.346  25.392  1.00  0.00     0.208 A 
ATOM      3  C   UNL     1      16.926  58.663  25.229  1.00  0.00     0.238 A 
ATOM      4  O   UNL     1      17.532  59.418  24.425  1.00  0.00    -0.285 OA
ATOM      5  C   UNL     1      15.777  59.102  25.931  1.00  0.00     0.111 A 
ATOM      6  C   UNL     1      15.249  60.427  25.873  1.00  0.00     0.134 A 
ATOM      7  C   UNL     1      14.033  60.714  26.505  1.00  0.00     0.093 A 
ATOM      8  C   UNL     1      13.360  59.741  27.248  1.00  0.00     0.123 A 
ATOM      9  C   UNL     1      13.898  58.461  27.360  1.00  0.00     0.094 A 
ATOM     10  C   UNL     1      15.090  58.135  26.710  1.00  0.00     0.146 A 
ATOM     11  O   UNL     1      15.563  56.900  26.834  1.00  0.00    -0.452 OA
ENDROOT
BRANCH   1  12
ATOM     12  C   UNL     1      17.108  55.083  26.482  1.00  0.00     0.021 A 
ATOM     13  C   UNL     1      16.625  54.056  25.653  1.00  0.00     0.016 A 
ATOM     14  C   UNL     1      17.004  52.729  25.877  1.00  0.00     0.047 A 
ATOM     15  C   UNL     1      17.855  52.409  26.938  1.00  0.00     0.115 A 
ATOM     16  C   UNL     1      17.948  54.753  27.561  1.00  0.00     0.016 A 
ATOM     17  C   UNL     1      18.324  53.423  27.782  1.00  0.00     0.047 A 
BRANCH  15  18
ATOM     18  O   UNL     1      18.224  51.082  27.149  1.00  0.00    -0.508 OA
ATOM     19  H   UNL     1      19.137  50.838  27.515  1.00  0.00     0.293 HD
ENDBRANCH  15  18
ENDBRANCH   1  12
BRANCH   2  20
ATOM     20  O   UNL     1      18.500  56.885  24.692  1.00  0.00    -0.502 OA
ATOM     21  H   UNL     1      19.445  57.164  24.931  1.00  0.00     0.293 HD
ENDBRANCH   2  20
BRANCH   6  22
ATOM     22  O   UNL     1      15.889  61.495  25.236  1.00  0.00    -0.507 OA
ATOM     23  H   UNL     1      15.795  61.720  24.258  1.00  0.00     0.293 HD
ENDBRANCH   6  22
BRANCH   8  24
ATOM     24  O   UNL     1      12.158  60.040  27.887  1.00  0.00    -0.508 OA
ATOM     25  H   UNL     1      11.858  60.996  28.030  1.00  0.00     0.293 HD
ENDBRANCH   8  24
TORSDOF 5
ENDMDL
MODEL 8
REMARK VINA RESULT:    -6.944      1.743      3.352
REMARK INTER + INTRA:          -8.441
REMARK INTER:                  -8.190
REMARK INTRA:                  -0.251
REMARK UNBOUND:                -0.280
REMARK SMILES O=c1c(O)c(-c2ccc(O)cc2)oc2cc(O)cc(O)c12
REMARK SMILES IDX 5 1 3 2 2 3 1 4 21 5 19 6 18 7 16 8 15 9 14 10 13 11 6 12
REMARK SMILES IDX 7 13 8 14 9 15 12 16 11 17 10 18 4 20 20 22 17 24
REMARK H PARENT 10 19 4 21 20 23 17 25
REMARK Flexibility Score: inf
ROOT
ATOM      1  C   UNL     1      23.705  62.119  31.382  1.00  0.00     0.180 A 
ATOM      2  C   UNL     1      25.016  61.658  31.596  1.00  0.00     0.208 A 
ATOM      3  C   UNL     1      25.552  61.708  32.892  1.00  0.00     0.238 A 
ATOM      4  O   UNL     1      26.745  61.344  33.067  1.00  0.00    -0.285 OA
ATOM      5  C   UNL     1      24.767  62.202  33.961  1.00  0.00     0.111 A 
ATOM      6  C   UNL     1      25.194  62.260  35.322  1.00  0.00     0.134 A 
ATOM      7  C   UNL     1      24.383  62.889  36.274  1.00  0.00     0.093 A 
ATOM      8  C   UNL     1      23.131  63.403  35.928  1.00  0.00     0.123 A 
ATOM      9  C   UNL     1      22.680  63.298  34.614  1.00  0.00     0.094 A 
ATOM     10  C   UNL     1      23.482  62.709  33.635  1.00  0.00     0.146 A 
ATOM     11  O   UNL     1      23.017  62.638  32.393  1.00  0.00    -0.452 OA
ENDROOT
BRANCH   1  12
ATOM     12  C   UNL     1      23.063  62.076  30.049  1.00  0.00     0.021 A 
ATOM     13  C   UNL     1      22.179  61.028  29.740  1.00  0.00     0.016 A 
ATOM     14  C   UNL     1      21.580  60.955  28.479  1.00  0.00     0.047 A 
ATOM     15  C   UNL     1      21.867  61.917  27.506  1.00  0.00     0.115 A 
ATOM     16  C   UNL     1      23.363  63.030  29.059  1.00  0.00     0.016 A 
ATOM     17  C   UNL     1      22.762  62.954  27.798  1.00  0.00     0.047 A 
BRANCH  15  18
ATOM     18  O   UNL     1      21.262  61.832  26.254  1.00  0.00    -0.508 OA
ATOM     19  H   UNL     1      20.317  61.483  26.146  1.00  0.00     0.293 HD
ENDBRANCH  15  18
ENDBRANCH   1  12
BRANCH   2  20
ATOM     20  O   UNL     1      25.782  61.195  30.523  1.00  0.00    -0.502 OA
ATOM     21  H   UNL     1      26.063  61.794  29.756  1.00  0.00     0.293 HD
ENDBRANCH   2  20
BRANCH   6  22
ATOM     22  O   UNL     1      26.385  61.695  35.791  1.00  0.00    -0.507 OA
ATOM     23  H   UNL     1      26.924  62.052  36.564  1.00  0.00     0.293 HD
ENDBRANCH   6  22
BRANCH   8  24
ATOM     24  O   UNL     1      22.324  64.013  36.886  1.00  0.00    -0.508 OA
ATOM     25  H   UNL     1      21.314  63.998  36.814  1.00  0.00     0.293 HD
ENDBRANCH   8  24
TORSDOF 5
ENDMDL
MODEL 9
REMARK VINA RESULT:    -6.830      1.690      6.970
REMARK INTER + INTRA:          -8.308
REMARK INTER:                  -8.167
REMARK INTRA:                  -0.140
REMARK UNBOUND:                -0.280
REMARK SMILES O=c1c(O)c(-c2ccc(O)cc2)oc2cc(O)cc(O)c12
REMARK SMILES IDX 5 1 3 2 2 3 1 4 21 5 19 6 18 7 16 8 15 9 14 10 13 11 6 12
REMARK SMILES IDX 7 13 8 14 9 15 12 16 11 17 10 18 4 20 20 22 17 24
REMARK H PARENT 10 19 4 21 20 23 17 25
REMARK Flexibility Score: inf
ROOT
ATOM      1  C   UNL     1      23.762  62.662  31.375  1.00  0.00     0.180 A 
ATOM      2  C   UNL     1      23.777  61.507  30.572  1.00  0.00     0.208 A 
ATOM      3  C   UNL     1      23.442  61.619  29.213  1.00  0.00     0.238 A 
ATOM      4  O   UNL     1      23.404  60.575  28.512  1.00  0.00    -0.285 OA
ATOM      5  C   UNL     1      23.113  62.885  28.671  1.00  0.00     0.111 A 
ATOM      6  C   UNL     1      22.796  63.122  27.299  1.00  0.00     0.134 A 
ATOM      7  C   UNL     1      22.358  64.390  26.901  1.00  0.00     0.093 A 
ATOM      8  C   UNL     1      22.288  65.447  27.811  1.00  0.00     0.123 A 
ATOM      9  C   UNL     1      22.651  65.241  29.140  1.00  0.00     0.094 A 
ATOM     10  C   UNL     1      23.058  63.978  29.575  1.00  0.00     0.146 A 
ATOM     11  O   UNL     1      23.385  63.822  30.853  1.00  0.00    -0.452 OA
ENDROOT
BRANCH   1  12
ATOM     12  C   UNL     1      24.128  62.626  32.810  1.00  0.00     0.021 A 
ATOM     13  C   UNL     1      23.186  63.027  33.773  1.00  0.00     0.016 A 
ATOM     14  C   UNL     1      23.517  63.023  35.131  1.00  0.00     0.047 A 
ATOM     15  C   UNL     1      24.796  62.636  35.544  1.00  0.00     0.115 A 
ATOM     16  C   UNL     1      25.419  62.258  33.229  1.00  0.00     0.016 A 
ATOM     17  C   UNL     1      25.747  62.256  34.589  1.00  0.00     0.047 A 
BRANCH  15  18
ATOM     18  O   UNL     1      25.112  62.638  36.900  1.00  0.00    -0.508 OA
ATOM     19  H   UNL     1      26.069  62.549  37.221  1.00  0.00     0.293 HD
ENDBRANCH  15  18
ENDBRANCH   1  12
BRANCH   2  20
ATOM     20  O   UNL     1      24.084  60.265  31.132  1.00  0.00    -0.502 OA
ATOM     21  H   UNL     1      23.597  59.897  31.941  1.00  0.00     0.293 HD
ENDBRANCH   2  20
BRANCH   6  22
ATOM     22  O   UNL     1      22.921  62.159  26.292  1.00  0.00    -0.507 OA
ATOM     23  H   UNL     1      23.768  61.974  25.777  1.00  0.00     0.293 HD
ENDBRANCH   6  22
BRANCH   8  24
ATOM     24  O   UNL     1      21.866  66.711  27.402  1.00  0.00    -0.508 OA
ATOM     25  H   UNL     1      21.739  66.936  26.423  1.00  0.00     0.293 HD
ENDBRANCH   8  24
TORSDOF 5
ENDMDL
