MODEL 1
REMARK VINA RESULT:    -6.793      0.000      0.000
REMARK INTER + INTRA:          -7.178
REMARK INTER:                  -7.389
REMARK INTRA:                   0.211
REMARK UNBOUND:                 0.211
REMARK SMILES C[C@H]1[C@@H](C)CC[C@]2(C(=O)[O-])CC[C@]3(C)C(=CC[C@H]4[C@@]5(C)CC[C@H](O)C(C)(C)[C@H]5CC[C@]43C)[C@@H]12
REMARK SMILES IDX 7 1 6 2 11 3 33 4 5 5 12 6 15 7 2 8 3 9 13 10 16 11 1 12
REMARK SMILES IDX 4 13 14 14 31 15 17 16 18 17 30 18 32 19 19 20 29 21 28 22
REMARK SMILES IDX 21 23 20 24 25 25 22 26 23 27 26 28 27 29 8 30 9 31 10 32
REMARK SMILES IDX 24 33
REMARK H PARENT 24 34
REMARK Flexibility Score: inf
ROOT
ATOM      1  C   UNL     1     152.502 157.992 140.354  1.00  0.00     0.017 C 
ATOM      2  C   UNL     1     152.612 159.465 140.896  1.00  0.00     0.014 C 
ATOM      3  C   UNL     1     153.358 157.072 141.263  1.00  0.00     0.014 C 
ATOM      4  C   UNL     1     153.061 157.959 138.896  1.00  0.00     0.030 C 
ATOM      5  C   UNL     1     152.623 160.573 139.817  1.00  0.00     0.004 C 
ATOM      6  C   UNL     1     153.411 155.632 140.737  1.00  0.00     0.013 C 
ATOM      7  C   UNL     1     153.499 156.567 138.369  1.00  0.00    -0.063 C 
ATOM      8  C   UNL     1     152.223 158.880 137.916  1.00  0.00    -0.003 C 
ATOM      9  C   UNL     1     151.782 160.245 138.568  1.00  0.00    -0.011 C 
ATOM     10  C   UNL     1     154.078 155.500 139.322  1.00  0.00    -0.006 C 
ATOM     11  C   UNL     1     153.777 156.435 137.053  1.00  0.00    -0.027 C 
ATOM     12  C   UNL     1     151.111 158.153 137.102  1.00  0.00     0.008 C 
ATOM     13  C   UNL     1     150.279 160.428 138.863  1.00  0.00     0.008 C 
ATOM     14  C   UNL     1     155.588 155.844 139.521  1.00  0.00     0.017 C 
ATOM     15  C   UNL     1     153.875 154.010 138.698  1.00  0.00    -0.020 C 
ATOM     16  C   UNL     1     154.553 155.284 136.505  1.00  0.00     0.032 C 
ATOM     17  C   UNL     1     154.084 153.940 137.118  1.00  0.00     0.006 C 
ATOM     18  C   UNL     1     154.841 153.016 139.387  1.00  0.00     0.008 C 
ATOM     19  C   UNL     1     152.415 153.510 138.977  1.00  0.00     0.012 C 
ATOM     20  C   UNL     1     154.877 152.666 136.540  1.00  0.00    -0.025 C 
ATOM     21  C   UNL     1     154.706 151.571 138.915  1.00  0.00     0.005 C 
ATOM     22  C   UNL     1     154.553 151.349 137.368  1.00  0.00     0.003 C 
ATOM     23  C   UNL     1     156.430 152.900 136.502  1.00  0.00     0.010 C 
ATOM     24  C   UNL     1     154.366 152.485 135.070  1.00  0.00     0.012 C 
ATOM     25  C   UNL     1     155.310 150.024 136.844  1.00  0.00    -0.006 C 
ATOM     26  C   UNL     1     157.297 151.669 136.840  1.00  0.00     0.033 C 
ATOM     27  C   UNL     1     156.739 150.354 136.258  1.00  0.00     0.120 C 
ATOM     28  C   UNL     1     154.433 149.287 135.787  1.00  0.00     0.014 C 
ATOM     29  C   UNL     1     155.497 148.959 137.971  1.00  0.00     0.014 C 
ENDROOT
BRANCH   1  30
ATOM     30  C   UNL     1     151.057 157.500 140.432  1.00  0.00     0.048 C 
ATOM     31  O   UNL     1     150.243 158.038 141.229  1.00  0.00    -0.550 OA
ATOM     32  O   UNL     1     150.644 156.374 139.736  1.00  0.00    -0.550 OA
ENDBRANCH   1  30
BRANCH  27  33
ATOM     33  O   UNL     1     156.741 150.379 134.851  1.00  0.00    -0.393 OA
ATOM     34  H   UNL     1     156.919 149.452 134.517  1.00  0.00     0.210 HD
ENDBRANCH  27  33
TORSDOF 2
ENDMDL
MODEL 2
REMARK VINA RESULT:    -6.541     11.331     13.934
REMARK INTER + INTRA:          -6.903
REMARK INTER:                  -7.125
REMARK INTRA:                   0.222
REMARK UNBOUND:                 0.211
REMARK SMILES C[C@H]1[C@@H](C)CC[C@]2(C(=O)[O-])CC[C@]3(C)C(=CC[C@H]4[C@@]5(C)CC[C@H](O)C(C)(C)[C@H]5CC[C@]43C)[C@@H]12
REMARK SMILES IDX 7 1 6 2 11 3 33 4 5 5 12 6 15 7 2 8 3 9 13 10 16 11 1 12
REMARK SMILES IDX 4 13 14 14 31 15 17 16 18 17 30 18 32 19 19 20 29 21 28 22
REMARK SMILES IDX 21 23 20 24 25 25 22 26 23 27 26 28 27 29 8 30 9 31 10 32
REMARK SMILES IDX 24 33
REMARK H PARENT 24 34
REMARK Flexibility Score: inf
ROOT
ATOM      1  C   UNL     1     154.731 156.531 127.857  1.00  0.00     0.017 C 
ATOM      2  C   UNL     1     153.573 155.488 128.080  1.00  0.00     0.014 C 
ATOM      3  C   UNL     1     154.668 157.023 126.388  1.00  0.00     0.014 C 
ATOM      4  C   UNL     1     156.095 155.815 128.116  1.00  0.00     0.030 C 
ATOM      5  C   UNL     1     153.907 154.311 129.025  1.00  0.00     0.004 C 
ATOM      6  C   UNL     1     155.839 157.953 126.044  1.00  0.00     0.013 C 
ATOM      7  C   UNL     1     157.343 156.490 127.489  1.00  0.00    -0.063 C 
ATOM      8  C   UNL     1     156.219 155.291 129.605  1.00  0.00    -0.003 C 
ATOM      9  C   UNL     1     154.881 154.676 130.164  1.00  0.00    -0.011 C 
ATOM     10  C   UNL     1     157.247 157.266 126.158  1.00  0.00    -0.006 C 
ATOM     11  C   UNL     1     158.567 156.052 127.860  1.00  0.00    -0.027 C 
ATOM     12  C   UNL     1     156.963 156.243 130.590  1.00  0.00     0.008 C 
ATOM     13  C   UNL     1     154.151 155.468 131.269  1.00  0.00     0.008 C 
ATOM     14  C   UNL     1     157.306 156.206 125.012  1.00  0.00     0.017 C 
ATOM     15  C   UNL     1     158.456 158.349 126.043  1.00  0.00    -0.020 C 
ATOM     16  C   UNL     1     159.800 156.343 127.072  1.00  0.00     0.032 C 
ATOM     17  C   UNL     1     159.847 157.825 126.619  1.00  0.00     0.006 C 
ATOM     18  C   UNL     1     158.642 158.773 124.565  1.00  0.00     0.008 C 
ATOM     19  C   UNL     1     158.094 159.640 126.855  1.00  0.00     0.012 C 
ATOM     20  C   UNL     1     161.172 158.194 125.785  1.00  0.00    -0.025 C 
ATOM     21  C   UNL     1     159.722 159.828 124.339  1.00  0.00     0.005 C 
ATOM     22  C   UNL     1     161.066 159.635 125.125  1.00  0.00     0.003 C 
ATOM     23  C   UNL     1     161.493 157.125 124.679  1.00  0.00     0.010 C 
ATOM     24  C   UNL     1     162.340 158.193 126.830  1.00  0.00     0.012 C 
ATOM     25  C   UNL     1     162.363 160.079 124.272  1.00  0.00    -0.006 C 
ATOM     26  C   UNL     1     162.061 157.686 123.358  1.00  0.00     0.033 C 
ATOM     27  C   UNL     1     163.055 158.846 123.567  1.00  0.00     0.120 C 
ATOM     28  C   UNL     1     163.374 160.835 125.187  1.00  0.00     0.014 C 
ATOM     29  C   UNL     1     162.019 161.125 123.166  1.00  0.00     0.014 C 
ENDROOT
BRANCH   1  30
ATOM     30  C   UNL     1     154.534 157.748 128.760  1.00  0.00     0.048 C 
ATOM     31  O   UNL     1     153.378 158.092 129.124  1.00  0.00    -0.550 OA
ATOM     32  O   UNL     1     155.597 158.578 129.086  1.00  0.00    -0.550 OA
ENDBRANCH   1  30
BRANCH  27  33
ATOM     33  O   UNL     1     164.201 158.416 124.259  1.00  0.00    -0.393 OA
ATOM     34  H   UNL     1     164.468 159.131 124.909  1.00  0.00     0.210 HD
ENDBRANCH  27  33
TORSDOF 2
ENDMDL
MODEL 3
REMARK VINA RESULT:    -6.278      4.415      8.538
REMARK INTER + INTRA:          -6.618
REMARK INTER:                  -6.827
REMARK INTRA:                   0.209
REMARK UNBOUND:                 0.211
REMARK SMILES C[C@H]1[C@@H](C)CC[C@]2(C(=O)[O-])CC[C@]3(C)C(=CC[C@H]4[C@@]5(C)CC[C@H](O)C(C)(C)[C@H]5CC[C@]43C)[C@@H]12
REMARK SMILES IDX 7 1 6 2 11 3 33 4 5 5 12 6 15 7 2 8 3 9 13 10 16 11 1 12
REMARK SMILES IDX 4 13 14 14 31 15 17 16 18 17 30 18 32 19 19 20 29 21 28 22
REMARK SMILES IDX 21 23 20 24 25 25 22 26 23 27 26 28 27 29 8 30 9 31 10 32
REMARK SMILES IDX 24 33
REMARK H PARENT 24 34
REMARK Flexibility Score: inf
ROOT
ATOM      1  C   UNL     1     155.149 158.276 132.181  1.00  0.00     0.017 C 
ATOM      2  C   UNL     1     155.069 158.431 130.617  1.00  0.00     0.014 C 
ATOM      3  C   UNL     1     154.118 157.202 132.618  1.00  0.00     0.014 C 
ATOM      4  C   UNL     1     154.786 159.650 132.832  1.00  0.00     0.030 C 
ATOM      5  C   UNL     1     155.276 159.865 130.077  1.00  0.00     0.004 C 
ATOM      6  C   UNL     1     154.037 157.072 134.145  1.00  0.00     0.013 C 
ATOM      7  C   UNL     1     154.327 159.597 134.313  1.00  0.00    -0.063 C 
ATOM      8  C   UNL     1     155.807 160.790 132.423  1.00  0.00    -0.003 C 
ATOM      9  C   UNL     1     156.251 160.718 130.914  1.00  0.00    -0.011 C 
ATOM     10  C   UNL     1     153.555 158.381 134.866  1.00  0.00    -0.006 C 
ATOM     11  C   UNL     1     154.216 160.760 134.994  1.00  0.00    -0.027 C 
ATOM     12  C   UNL     1     156.964 161.045 133.435  1.00  0.00     0.008 C 
ATOM     13  C   UNL     1     157.711 160.308 130.630  1.00  0.00     0.008 C 
ATOM     14  C   UNL     1     152.059 158.573 134.462  1.00  0.00     0.017 C 
ATOM     15  C   UNL     1     153.736 158.279 136.481  1.00  0.00    -0.020 C 
ATOM     16  C   UNL     1     153.443 160.879 136.264  1.00  0.00     0.032 C 
ATOM     17  C   UNL     1     153.733 159.693 137.219  1.00  0.00     0.006 C 
ATOM     18  C   UNL     1     152.621 157.387 137.079  1.00  0.00     0.008 C 
ATOM     19  C   UNL     1     155.108 157.601 136.821  1.00  0.00     0.012 C 
ATOM     20  C   UNL     1     152.937 159.790 138.614  1.00  0.00    -0.025 C 
ATOM     21  C   UNL     1     152.718 157.178 138.588  1.00  0.00     0.005 C 
ATOM     22  C   UNL     1     153.058 158.444 139.451  1.00  0.00     0.003 C 
ATOM     23  C   UNL     1     151.423 160.154 138.409  1.00  0.00     0.010 C 
ATOM     24  C   UNL     1     153.625 160.951 139.409  1.00  0.00     0.012 C 
ATOM     25  C   UNL     1     152.287 158.466 140.869  1.00  0.00    -0.006 C 
ATOM     26  C   UNL     1     150.436 159.460 139.372  1.00  0.00     0.033 C 
ATOM     27  C   UNL     1     150.974 159.342 140.813  1.00  0.00     0.120 C 
ATOM     28  C   UNL     1     153.244 158.969 141.993  1.00  0.00     0.014 C 
ATOM     29  C   UNL     1     151.881 157.036 141.348  1.00  0.00     0.014 C 
ENDROOT
BRANCH   1  30
ATOM     30  C   UNL     1     156.533 157.784 132.600  1.00  0.00     0.048 C 
ATOM     31  O   UNL     1     157.252 157.138 131.792  1.00  0.00    -0.550 OA
ATOM     32  O   UNL     1     156.975 157.914 133.909  1.00  0.00    -0.550 OA
ENDBRANCH   1  30
BRANCH  27  33
ATOM     33  O   UNL     1     151.160 160.611 141.392  1.00  0.00    -0.393 OA
ATOM     34  H   UNL     1     151.773 161.142 140.805  1.00  0.00     0.210 HD
ENDBRANCH  27  33
TORSDOF 2
ENDMDL
MODEL 4
REMARK VINA RESULT:    -6.256      9.769     13.216
REMARK INTER + INTRA:          -6.594
REMARK INTER:                  -6.799
REMARK INTRA:                   0.205
REMARK UNBOUND:                 0.211
REMARK SMILES C[C@H]1[C@@H](C)CC[C@]2(C(=O)[O-])CC[C@]3(C)C(=CC[C@H]4[C@@]5(C)CC[C@H](O)C(C)(C)[C@H]5CC[C@]43C)[C@@H]12
REMARK SMILES IDX 7 1 6 2 11 3 33 4 5 5 12 6 15 7 2 8 3 9 13 10 16 11 1 12
REMARK SMILES IDX 4 13 14 14 31 15 17 16 18 17 30 18 32 19 19 20 29 21 28 22
REMARK SMILES IDX 21 23 20 24 25 25 22 26 23 27 26 28 27 29 8 30 9 31 10 32
REMARK SMILES IDX 24 33
REMARK H PARENT 24 34
REMARK Flexibility Score: inf
ROOT
ATOM      1  C   UNL     1     161.142 151.421 126.316  1.00  0.00     0.017 C 
ATOM      2  C   UNL     1     161.477 152.206 124.994  1.00  0.00     0.014 C 
ATOM      3  C   UNL     1     160.978 149.919 125.963  1.00  0.00     0.014 C 
ATOM      4  C   UNL     1     159.801 151.976 126.893  1.00  0.00     0.030 C 
ATOM      5  C   UNL     1     160.867 153.623 124.887  1.00  0.00     0.004 C 
ATOM      6  C   UNL     1     160.527 149.091 127.173  1.00  0.00     0.013 C 
ATOM      7  C   UNL     1     159.050 151.043 127.879  1.00  0.00    -0.063 C 
ATOM      8  C   UNL     1     159.907 153.509 127.276  1.00  0.00    -0.003 C 
ATOM      9  C   UNL     1     160.737 154.356 126.237  1.00  0.00    -0.011 C 
ATOM     10  C   UNL     1     159.122 149.508 127.736  1.00  0.00    -0.006 C 
ATOM     11  C   UNL     1     158.011 151.549 128.580  1.00  0.00    -0.027 C 
ATOM     12  C   UNL     1     160.234 153.805 128.770  1.00  0.00     0.008 C 
ATOM     13  C   UNL     1     162.108 154.888 126.701  1.00  0.00     0.008 C 
ATOM     14  C   UNL     1     158.080 149.107 126.643  1.00  0.00     0.017 C 
ATOM     15  C   UNL     1     158.808 148.789 129.162  1.00  0.00    -0.020 C 
ATOM     16  C   UNL     1     156.996 150.687 129.253  1.00  0.00     0.032 C 
ATOM     17  C   UNL     1     157.663 149.509 130.008  1.00  0.00     0.006 C 
ATOM     18  C   UNL     1     158.417 147.309 128.929  1.00  0.00     0.008 C 
ATOM     19  C   UNL     1     160.095 148.795 130.056  1.00  0.00     0.012 C 
ATOM     20  C   UNL     1     156.609 148.563 130.770  1.00  0.00    -0.025 C 
ATOM     21  C   UNL     1     158.146 146.516 130.205  1.00  0.00     0.005 C 
ATOM     22  C   UNL     1     157.298 147.237 131.312  1.00  0.00     0.003 C 
ATOM     23  C   UNL     1     155.382 148.191 129.863  1.00  0.00     0.010 C 
ATOM     24  C   UNL     1     156.092 149.405 131.986  1.00  0.00     0.012 C 
ATOM     25  C   UNL     1     156.302 146.236 132.094  1.00  0.00    -0.006 C 
ATOM     26  C   UNL     1     154.838 146.757 130.034  1.00  0.00     0.033 C 
ATOM     27  C   UNL     1     154.838 146.278 131.500  1.00  0.00     0.120 C 
ATOM     28  C   UNL     1     156.293 146.568 133.617  1.00  0.00     0.014 C 
ATOM     29  C   UNL     1     156.789 144.753 132.046  1.00  0.00     0.014 C 
ENDROOT
BRANCH   1  30
ATOM     30  C   UNL     1     162.294 151.536 127.313  1.00  0.00     0.048 C 
ATOM     31  O   UNL     1     163.465 151.771 126.910  1.00  0.00    -0.550 OA
ATOM     32  O   UNL     1     162.110 151.254 128.658  1.00  0.00    -0.550 OA
ENDBRANCH   1  30
BRANCH  27  33
ATOM     33  O   UNL     1     153.970 147.054 132.289  1.00  0.00    -0.393 OA
ATOM     34  H   UNL     1     153.535 147.740 131.703  1.00  0.00     0.210 HD
ENDBRANCH  27  33
TORSDOF 2
ENDMDL
MODEL 5
REMARK VINA RESULT:    -6.217      6.009      7.704
REMARK INTER + INTRA:          -6.550
REMARK INTER:                  -6.774
REMARK INTRA:                   0.223
REMARK UNBOUND:                 0.211
REMARK SMILES C[C@H]1[C@@H](C)CC[C@]2(C(=O)[O-])CC[C@]3(C)C(=CC[C@H]4[C@@]5(C)CC[C@H](O)C(C)(C)[C@H]5CC[C@]43C)[C@@H]12
REMARK SMILES IDX 7 1 6 2 11 3 33 4 5 5 12 6 15 7 2 8 3 9 13 10 16 11 1 12
REMARK SMILES IDX 4 13 14 14 31 15 17 16 18 17 30 18 32 19 19 20 29 21 28 22
REMARK SMILES IDX 21 23 20 24 25 25 22 26 23 27 26 28 27 29 8 30 9 31 10 32
REMARK SMILES IDX 24 33
REMARK H PARENT 24 34
REMARK Flexibility Score: inf
ROOT
ATOM      1  C   UNL     1     156.001 158.202 135.078  1.00  0.00     0.017 C 
ATOM      2  C   UNL     1     156.432 159.391 136.014  1.00  0.00     0.014 C 
ATOM      3  C   UNL     1     157.282 157.470 134.599  1.00  0.00     0.014 C 
ATOM      4  C   UNL     1     155.240 158.794 133.848  1.00  0.00     0.030 C 
ATOM      5  C   UNL     1     155.570 160.671 135.908  1.00  0.00     0.004 C 
ATOM      6  C   UNL     1     156.965 156.368 133.579  1.00  0.00     0.013 C 
ATOM      7  C   UNL     1     155.169 157.883 132.595  1.00  0.00    -0.063 C 
ATOM      8  C   UNL     1     153.918 159.554 134.275  1.00  0.00    -0.003 C 
ATOM      9  C   UNL     1     154.085 160.405 135.591  1.00  0.00    -0.011 C 
ATOM     10  C   UNL     1     156.310 156.901 132.255  1.00  0.00    -0.006 C 
ATOM     11  C   UNL     1     154.341 158.238 131.586  1.00  0.00    -0.027 C 
ATOM     12  C   UNL     1     152.609 158.712 134.201  1.00  0.00     0.008 C 
ATOM     13  C   UNL     1     153.342 159.906 136.848  1.00  0.00     0.008 C 
ATOM     14  C   UNL     1     157.417 157.730 131.528  1.00  0.00     0.017 C 
ATOM     15  C   UNL     1     155.757 155.685 131.326  1.00  0.00    -0.020 C 
ATOM     16  C   UNL     1     154.460 157.676 130.210  1.00  0.00     0.032 C 
ATOM     17  C   UNL     1     154.682 156.142 130.240  1.00  0.00     0.006 C 
ATOM     18  C   UNL     1     156.942 154.990 130.610  1.00  0.00     0.008 C 
ATOM     19  C   UNL     1     155.057 154.606 132.222  1.00  0.00     0.012 C 
ATOM     20  C   UNL     1     154.793 155.485 128.776  1.00  0.00    -0.025 C 
ATOM     21  C   UNL     1     156.548 153.797 129.744  1.00  0.00     0.005 C 
ATOM     22  C   UNL     1     155.271 153.972 128.848  1.00  0.00     0.003 C 
ATOM     23  C   UNL     1     155.749 156.300 127.832  1.00  0.00     0.010 C 
ATOM     24  C   UNL     1     153.344 155.537 128.182  1.00  0.00     0.012 C 
ATOM     25  C   UNL     1     155.403 153.242 127.415  1.00  0.00    -0.006 C 
ATOM     26  C   UNL     1     156.609 155.456 126.868  1.00  0.00     0.033 C 
ATOM     27  C   UNL     1     155.855 154.245 126.281  1.00  0.00     0.120 C 
ATOM     28  C   UNL     1     154.058 152.549 127.039  1.00  0.00     0.014 C 
ATOM     29  C   UNL     1     156.427 152.063 127.438  1.00  0.00     0.014 C 
ENDROOT
BRANCH   1  30
ATOM     30  C   UNL     1     155.155 157.193 135.852  1.00  0.00     0.048 C 
ATOM     31  O   UNL     1     155.195 157.158 137.111  1.00  0.00    -0.550 OA
ATOM     32  O   UNL     1     154.433 156.207 135.194  1.00  0.00    -0.550 OA
ENDBRANCH   1  30
BRANCH  27  33
ATOM     33  O   UNL     1     154.775 154.658 125.480  1.00  0.00    -0.393 OA
ATOM     34  H   UNL     1     154.171 155.236 126.032  1.00  0.00     0.210 HD
ENDBRANCH  27  33
TORSDOF 2
ENDMDL
MODEL 6
REMARK VINA RESULT:    -6.216      4.293      7.986
REMARK INTER + INTRA:          -6.550
REMARK INTER:                  -6.757
REMARK INTRA:                   0.206
REMARK UNBOUND:                 0.211
REMARK SMILES C[C@H]1[C@@H](C)CC[C@]2(C(=O)[O-])CC[C@]3(C)C(=CC[C@H]4[C@@]5(C)CC[C@H](O)C(C)(C)[C@H]5CC[C@]43C)[C@@H]12
REMARK SMILES IDX 7 1 6 2 11 3 33 4 5 5 12 6 15 7 2 8 3 9 13 10 16 11 1 12
REMARK SMILES IDX 4 13 14 14 31 15 17 16 18 17 30 18 32 19 19 20 29 21 28 22
REMARK SMILES IDX 21 23 20 24 25 25 22 26 23 27 26 28 27 29 8 30 9 31 10 32
REMARK SMILES IDX 24 33
REMARK H PARENT 24 34
REMARK Flexibility Score: inf
ROOT
ATOM      1  C   UNL     1     154.715 152.422 136.623  1.00  0.00     0.017 C 
ATOM      2  C   UNL     1     153.651 153.172 137.508  1.00  0.00     0.014 C 
ATOM      3  C   UNL     1     154.301 152.568 135.135  1.00  0.00     0.014 C 
ATOM      4  C   UNL     1     154.715 150.913 137.024  1.00  0.00     0.030 C 
ATOM      5  C   UNL     1     153.332 152.512 138.870  1.00  0.00     0.004 C 
ATOM      6  C   UNL     1     155.215 151.762 134.203  1.00  0.00     0.013 C 
ATOM      7  C   UNL     1     155.302 149.933 135.974  1.00  0.00    -0.063 C 
ATOM      8  C   UNL     1     155.134 150.699 138.536  1.00  0.00    -0.003 C 
ATOM      9  C   UNL     1     154.529 151.780 139.510  1.00  0.00    -0.011 C 
ATOM     10  C   UNL     1     155.174 150.214 134.462  1.00  0.00    -0.006 C 
ATOM     11  C   UNL     1     155.536 148.654 136.346  1.00  0.00    -0.027 C 
ATOM     12  C   UNL     1     156.639 150.373 138.774  1.00  0.00     0.008 C 
ATOM     13  C   UNL     1     155.513 152.792 140.134  1.00  0.00     0.008 C 
ATOM     14  C   UNL     1     153.749 149.740 134.033  1.00  0.00     0.017 C 
ATOM     15  C   UNL     1     156.343 149.435 133.638  1.00  0.00    -0.020 C 
ATOM     16  C   UNL     1     155.731 147.551 135.361  1.00  0.00     0.032 C 
ATOM     17  C   UNL     1     156.671 147.981 134.206  1.00  0.00     0.006 C 
ATOM     18  C   UNL     1     155.948 149.325 132.145  1.00  0.00     0.008 C 
ATOM     19  C   UNL     1     157.678 150.254 133.707  1.00  0.00     0.012 C 
ATOM     20  C   UNL     1     156.931 146.816 133.129  1.00  0.00    -0.025 C 
ATOM     21  C   UNL     1     156.995 148.653 131.261  1.00  0.00     0.005 C 
ATOM     22  C   UNL     1     157.681 147.365 131.840  1.00  0.00     0.003 C 
ATOM     23  C   UNL     1     155.601 146.095 132.702  1.00  0.00     0.010 C 
ATOM     24  C   UNL     1     157.851 145.774 133.852  1.00  0.00     0.012 C 
ATOM     25  C   UNL     1     157.981 146.250 130.713  1.00  0.00    -0.006 C 
ATOM     26  C   UNL     1     155.517 145.680 131.219  1.00  0.00     0.033 C 
ATOM     27  C   UNL     1     156.852 145.147 130.659  1.00  0.00     0.120 C 
ATOM     28  C   UNL     1     159.378 145.602 130.956  1.00  0.00     0.014 C 
ATOM     29  C   UNL     1     158.108 146.866 129.284  1.00  0.00     0.014 C 
ENDROOT
BRANCH   1  30
ATOM     30  C   UNL     1     156.091 153.065 136.783  1.00  0.00     0.048 C 
ATOM     31  O   UNL     1     156.196 154.267 137.147  1.00  0.00    -0.550 OA
ATOM     32  O   UNL     1     157.245 152.394 136.405  1.00  0.00    -0.550 OA
ENDBRANCH   1  30
BRANCH  27  33
ATOM     33  O   UNL     1     157.239 143.961 131.309  1.00  0.00    -0.393 OA
ATOM     34  H   UNL     1     157.984 144.175 131.944  1.00  0.00     0.210 HD
ENDBRANCH  27  33
TORSDOF 2
ENDMDL
MODEL 7
REMARK VINA RESULT:    -6.088      6.270      9.329
REMARK INTER + INTRA:          -6.411
REMARK INTER:                  -6.650
REMARK INTRA:                   0.239
REMARK UNBOUND:                 0.211
REMARK SMILES C[C@H]1[C@@H](C)CC[C@]2(C(=O)[O-])CC[C@]3(C)C(=CC[C@H]4[C@@]5(C)CC[C@H](O)C(C)(C)[C@H]5CC[C@]43C)[C@@H]12
REMARK SMILES IDX 7 1 6 2 11 3 33 4 5 5 12 6 15 7 2 8 3 9 13 10 16 11 1 12
REMARK SMILES IDX 4 13 14 14 31 15 17 16 18 17 30 18 32 19 19 20 29 21 28 22
REMARK SMILES IDX 21 23 20 24 25 25 22 26 23 27 26 28 27 29 8 30 9 31 10 32
REMARK SMILES IDX 24 33
REMARK H PARENT 24 34
REMARK Flexibility Score: inf
ROOT
ATOM      1  C   UNL     1     155.199 156.573 127.999  1.00  0.00     0.017 C 
ATOM      2  C   UNL     1     155.755 157.348 126.747  1.00  0.00     0.014 C 
ATOM      3  C   UNL     1     155.558 157.382 129.273  1.00  0.00     0.014 C 
ATOM      4  C   UNL     1     155.885 155.170 128.055  1.00  0.00     0.030 C 
ATOM      5  C   UNL     1     156.289 156.462 125.597  1.00  0.00     0.004 C 
ATOM      6  C   UNL     1     155.162 156.639 130.555  1.00  0.00     0.013 C 
ATOM      7  C   UNL     1     155.864 154.461 129.435  1.00  0.00    -0.063 C 
ATOM      8  C   UNL     1     155.553 154.293 126.779  1.00  0.00    -0.003 C 
ATOM      9  C   UNL     1     155.545 155.121 125.438  1.00  0.00    -0.011 C 
ATOM     10  C   UNL     1     155.907 155.270 130.749  1.00  0.00    -0.006 C 
ATOM     11  C   UNL     1     156.236 153.163 129.498  1.00  0.00    -0.027 C 
ATOM     12  C   UNL     1     154.364 153.299 126.941  1.00  0.00     0.008 C 
ATOM     13  C   UNL     1     154.180 155.336 124.753  1.00  0.00     0.008 C 
ATOM     14  C   UNL     1     157.406 155.626 131.010  1.00  0.00     0.017 C 
ATOM     15  C   UNL     1     155.269 154.405 131.971  1.00  0.00    -0.020 C 
ATOM     16  C   UNL     1     156.617 152.495 130.776  1.00  0.00     0.032 C 
ATOM     17  C   UNL     1     155.632 152.853 131.919  1.00  0.00     0.006 C 
ATOM     18  C   UNL     1     155.731 154.994 133.327  1.00  0.00     0.008 C 
ATOM     19  C   UNL     1     153.705 154.500 131.930  1.00  0.00     0.012 C 
ATOM     20  C   UNL     1     155.988 152.137 133.314  1.00  0.00    -0.025 C 
ATOM     21  C   UNL     1     155.153 154.290 134.552  1.00  0.00     0.005 C 
ATOM     22  C   UNL     1     155.122 152.721 134.511  1.00  0.00     0.003 C 
ATOM     23  C   UNL     1     157.517 152.244 133.663  1.00  0.00     0.010 C 
ATOM     24  C   UNL     1     155.630 150.625 133.113  1.00  0.00     0.012 C 
ATOM     25  C   UNL     1     155.420 152.047 135.947  1.00  0.00    -0.006 C 
ATOM     26  C   UNL     1     157.845 152.442 135.158  1.00  0.00     0.033 C 
ATOM     27  C   UNL     1     156.934 151.622 136.095  1.00  0.00     0.120 C 
ATOM     28  C   UNL     1     154.476 150.828 136.175  1.00  0.00     0.014 C 
ATOM     29  C   UNL     1     155.079 153.001 137.135  1.00  0.00     0.014 C 
ENDROOT
BRANCH   1  30
ATOM     30  C   UNL     1     153.676 156.471 127.931  1.00  0.00     0.048 C 
ATOM     31  O   UNL     1     153.000 157.378 127.376  1.00  0.00    -0.550 OA
ATOM     32  O   UNL     1     152.994 155.459 128.591  1.00  0.00    -0.550 OA
ENDBRANCH   1  30
BRANCH  27  33
ATOM     33  O   UNL     1     157.117 150.240 135.900  1.00  0.00    -0.393 OA
ATOM     34  H   UNL     1     156.285 149.765 136.194  1.00  0.00     0.210 HD
ENDBRANCH  27  33
TORSDOF 2
ENDMDL
MODEL 8
REMARK VINA RESULT:    -6.076      8.704     11.861
REMARK INTER + INTRA:          -6.397
REMARK INTER:                  -6.608
REMARK INTRA:                   0.211
REMARK UNBOUND:                 0.211
REMARK SMILES C[C@H]1[C@@H](C)CC[C@]2(C(=O)[O-])CC[C@]3(C)C(=CC[C@H]4[C@@]5(C)CC[C@H](O)C(C)(C)[C@H]5CC[C@]43C)[C@@H]12
REMARK SMILES IDX 7 1 6 2 11 3 33 4 5 5 12 6 15 7 2 8 3 9 13 10 16 11 1 12
REMARK SMILES IDX 4 13 14 14 31 15 17 16 18 17 30 18 32 19 19 20 29 21 28 22
REMARK SMILES IDX 21 23 20 24 25 25 22 26 23 27 26 28 27 29 8 30 9 31 10 32
REMARK SMILES IDX 24 33
REMARK H PARENT 24 34
REMARK Flexibility Score: inf
ROOT
ATOM      1  C   UNL     1     155.553 156.820 124.994  1.00  0.00     0.017 C 
ATOM      2  C   UNL     1     155.084 157.408 123.612  1.00  0.00     0.014 C 
ATOM      3  C   UNL     1     154.406 155.949 125.569  1.00  0.00     0.014 C 
ATOM      4  C   UNL     1     155.847 158.011 125.962  1.00  0.00     0.030 C 
ATOM      5  C   UNL     1     155.572 158.841 123.296  1.00  0.00     0.004 C 
ATOM      6  C   UNL     1     154.727 155.433 126.977  1.00  0.00     0.013 C 
ATOM      7  C   UNL     1     155.839 157.670 127.475  1.00  0.00    -0.063 C 
ATOM      8  C   UNL     1     157.015 158.937 125.428  1.00  0.00    -0.003 C 
ATOM      9  C   UNL     1     156.963 159.173 123.871  1.00  0.00    -0.011 C 
ATOM     10  C   UNL     1     154.913 156.573 128.041  1.00  0.00    -0.006 C 
ATOM     11  C   UNL     1     156.302 158.595 128.346  1.00  0.00    -0.027 C 
ATOM     12  C   UNL     1     158.432 158.621 125.995  1.00  0.00     0.008 C 
ATOM     13  C   UNL     1     158.072 158.517 123.024  1.00  0.00     0.008 C 
ATOM     14  C   UNL     1     153.505 157.222 128.231  1.00  0.00     0.017 C 
ATOM     15  C   UNL     1     155.506 155.996 129.443  1.00  0.00    -0.020 C 
ATOM     16  C   UNL     1     156.004 158.548 129.807  1.00  0.00     0.032 C 
ATOM     17  C   UNL     1     156.163 157.113 130.373  1.00  0.00     0.006 C 
ATOM     18  C   UNL     1     154.385 155.271 130.228  1.00  0.00     0.008 C 
ATOM     19  C   UNL     1     156.628 154.940 129.153  1.00  0.00     0.012 C 
ATOM     20  C   UNL     1     155.873 157.016 131.952  1.00  0.00    -0.025 C 
ATOM     21  C   UNL     1     154.838 154.643 131.544  1.00  0.00     0.005 C 
ATOM     22  C   UNL     1     155.794 155.506 132.441  1.00  0.00     0.003 C 
ATOM     23  C   UNL     1     154.560 157.776 132.362  1.00  0.00     0.010 C 
ATOM     24  C   UNL     1     157.090 157.716 132.646  1.00  0.00     0.012 C 
ATOM     25  C   UNL     1     155.509 155.327 134.019  1.00  0.00    -0.006 C 
ATOM     26  C   UNL     1     153.724 157.106 133.472  1.00  0.00     0.033 C 
ATOM     27  C   UNL     1     154.584 156.475 134.586  1.00  0.00     0.120 C 
ATOM     28  C   UNL     1     156.855 155.260 134.804  1.00  0.00     0.014 C 
ATOM     29  C   UNL     1     154.825 153.963 134.350  1.00  0.00     0.014 C 
ENDROOT
BRANCH   1  30
ATOM     30  C   UNL     1     156.769 155.914 124.804  1.00  0.00     0.048 C 
ATOM     31  O   UNL     1     156.990 155.370 123.689  1.00  0.00    -0.550 OA
ATOM     32  O   UNL     1     157.575 155.560 125.876  1.00  0.00    -0.550 OA
ENDBRANCH   1  30
BRANCH  27  33
ATOM     33  O   UNL     1     155.321 157.455 135.277  1.00  0.00    -0.393 OA
ATOM     34  H   UNL     1     155.334 158.291 134.725  1.00  0.00     0.210 HD
ENDBRANCH  27  33
TORSDOF 2
ENDMDL
MODEL 9
REMARK VINA RESULT:    -6.054      6.546      8.568
REMARK INTER + INTRA:          -6.374
REMARK INTER:                  -6.579
REMARK INTRA:                   0.205
REMARK UNBOUND:                 0.211
REMARK SMILES C[C@H]1[C@@H](C)CC[C@]2(C(=O)[O-])CC[C@]3(C)C(=CC[C@H]4[C@@]5(C)CC[C@H](O)C(C)(C)[C@H]5CC[C@]43C)[C@@H]12
REMARK SMILES IDX 7 1 6 2 11 3 33 4 5 5 12 6 15 7 2 8 3 9 13 10 16 11 1 12
REMARK SMILES IDX 4 13 14 14 31 15 17 16 18 17 30 18 32 19 19 20 29 21 28 22
REMARK SMILES IDX 21 23 20 24 25 25 22 26 23 27 26 28 27 29 8 30 9 31 10 32
REMARK SMILES IDX 24 33
REMARK H PARENT 24 34
REMARK Flexibility Score: inf
ROOT
ATOM      1  C   UNL     1     155.143 159.654 134.367  1.00  0.00     0.017 C 
ATOM      2  C   UNL     1     154.357 160.519 135.420  1.00  0.00     0.014 C 
ATOM      3  C   UNL     1     155.223 160.454 133.040  1.00  0.00     0.014 C 
ATOM      4  C   UNL     1     154.357 158.325 134.133  1.00  0.00     0.030 C 
ATOM      5  C   UNL     1     153.447 159.727 136.388  1.00  0.00     0.004 C 
ATOM      6  C   UNL     1     155.868 159.636 131.914  1.00  0.00     0.013 C 
ATOM      7  C   UNL     1     154.671 157.574 132.813  1.00  0.00    -0.063 C 
ATOM      8  C   UNL     1     154.244 157.460 135.456  1.00  0.00    -0.003 C 
ATOM      9  C   UNL     1     153.979 158.325 136.746  1.00  0.00    -0.011 C 
ATOM     10  C   UNL     1     155.064 158.342 131.533  1.00  0.00    -0.006 C 
ATOM     11  C   UNL     1     154.197 156.318 132.657  1.00  0.00    -0.027 C 
ATOM     12  C   UNL     1     155.323 156.349 135.623  1.00  0.00     0.008 C 
ATOM     13  C   UNL     1     155.127 158.426 137.772  1.00  0.00     0.008 C 
ATOM     14  C   UNL     1     153.735 158.835 130.877  1.00  0.00     0.017 C 
ATOM     15  C   UNL     1     155.912 157.380 130.530  1.00  0.00    -0.020 C 
ATOM     16  C   UNL     1     154.105 155.650 131.326  1.00  0.00     0.032 C 
ATOM     17  C   UNL     1     155.389 155.874 130.489  1.00  0.00     0.006 C 
ATOM     18  C   UNL     1     155.892 157.968 129.098  1.00  0.00     0.008 C 
ATOM     19  C   UNL     1     157.410 157.322 130.989  1.00  0.00     0.012 C 
ATOM     20  C   UNL     1     155.347 155.152 129.052  1.00  0.00    -0.025 C 
ATOM     21  C   UNL     1     156.700 157.173 128.075  1.00  0.00     0.005 C 
ATOM     22  C   UNL     1     156.557 155.611 128.130  1.00  0.00     0.003 C 
ATOM     23  C   UNL     1     153.987 155.399 128.305  1.00  0.00     0.010 C 
ATOM     24  C   UNL     1     155.480 153.619 129.347  1.00  0.00     0.012 C 
ATOM     25  C   UNL     1     156.584 154.925 126.669  1.00  0.00    -0.006 C 
ATOM     26  C   UNL     1     154.091 155.581 126.776  1.00  0.00     0.033 C 
ATOM     27  C   UNL     1     155.129 154.646 126.122  1.00  0.00     0.120 C 
ATOM     28  C   UNL     1     157.424 153.612 126.708  1.00  0.00     0.014 C 
ATOM     29  C   UNL     1     157.326 155.802 125.612  1.00  0.00     0.014 C 
ENDROOT
BRANCH   1  30
ATOM     30  C   UNL     1     156.574 159.405 134.841  1.00  0.00     0.048 C 
ATOM     31  O   UNL     1     157.126 160.201 135.647  1.00  0.00    -0.550 OA
ATOM     32  O   UNL     1     157.343 158.385 134.299  1.00  0.00    -0.550 OA
ENDBRANCH   1  30
BRANCH  27  33
ATOM     33  O   UNL     1     154.759 153.296 126.266  1.00  0.00    -0.393 OA
ATOM     34  H   UNL     1     153.771 153.220 126.121  1.00  0.00     0.210 HD
ENDBRANCH  27  33
TORSDOF 2
ENDMDL
