MODEL 1
REMARK VINA RESULT:    -5.120      0.000      0.000
REMARK INTER + INTRA:         -11.479
REMARK INTER:                  -9.908
REMARK INTRA:                  -1.570
REMARK UNBOUND:                -1.570
REMARK SMILES CCCCCCCCCCCCCCCCCC(=O)[O-]
REMARK SMILES IDX 10 1 11 2 12 3 13 4 14 5 15 6 16 7 17 8 18 9 19 10 20 11
REMARK SMILES IDX 9 12 8 13 7 14 6 15 5 16 4 17 3 18 2 19 1 20
REMARK H PARENT
REMARK Flexibility Score: inf
ROOT
ATOM      1  C   UNL     1       1.737 -37.053  19.899  1.00  0.00     0.000 C 
ENDROOT
BRANCH   1   2
ATOM      2  C   UNL     1       1.150 -37.854  21.076  1.00  0.00     0.000 C 
BRANCH   2   3
ATOM      3  C   UNL     1      -0.387 -37.851  21.099  1.00  0.00     0.000 C 
BRANCH   3   4
ATOM      4  C   UNL     1      -0.989 -36.490  20.699  1.00  0.00     0.000 C 
BRANCH   4   5
ATOM      5  C   UNL     1      -2.489 -36.321  21.008  1.00  0.00     0.000 C 
BRANCH   5   6
ATOM      6  C   UNL     1      -2.810 -35.451  22.239  1.00  0.00     0.000 C 
BRANCH   6   7
ATOM      7  C   UNL     1      -1.754 -34.362  22.524  1.00  0.00     0.006 C 
BRANCH   7   8
ATOM      8  C   UNL     1      -2.347 -33.141  23.240  1.00  0.00     0.053 C 
BRANCH   8   9
ATOM      9  C   UNL     1      -1.432 -32.679  24.329  1.00  0.00     0.041 C 
ATOM     10  O   UNL     1      -0.486 -31.889  24.071  1.00  0.00    -0.550 OA
ATOM     11  O   UNL     1      -1.596 -33.158  25.623  1.00  0.00    -0.550 OA
ENDBRANCH   8   9
ENDBRANCH   7   8
ENDBRANCH   6   7
ENDBRANCH   5   6
ENDBRANCH   4   5
ENDBRANCH   3   4
ENDBRANCH   2   3
ENDBRANCH   1   2
BRANCH   1  12
ATOM     12  C   UNL     1       2.019 -37.865  18.621  1.00  0.00     0.000 C 
BRANCH  12  13
ATOM     13  C   UNL     1       2.790 -37.064  17.559  1.00  0.00    -0.000 C 
BRANCH  13  14
ATOM     14  C   UNL     1       4.106 -36.469  18.095  1.00  0.00    -0.000 C 
BRANCH  14  15
ATOM     15  C   UNL     1       5.179 -37.502  18.498  1.00  0.00    -0.000 C 
BRANCH  15  16
ATOM     16  C   UNL     1       5.987 -37.149  19.763  1.00  0.00    -0.000 C 
BRANCH  16  17
ATOM     17  C   UNL     1       5.221 -37.317  21.087  1.00  0.00    -0.000 C 
BRANCH  17  18
ATOM     18  C   UNL     1       5.433 -36.135  22.049  1.00  0.00    -0.000 C 
BRANCH  18  19
ATOM     19  C   UNL     1       4.304 -36.010  23.083  1.00  0.00    -0.003 C 
ATOM     20  C   UNL     1       3.171 -35.098  22.611  1.00  0.00     0.004 C 
ENDBRANCH  18  19
ENDBRANCH  17  18
ENDBRANCH  16  17
ENDBRANCH  15  16
ENDBRANCH  14  15
ENDBRANCH  13  14
ENDBRANCH  12  13
ENDBRANCH   1  12
TORSDOF 16
ENDMDL
MODEL 2
REMARK VINA RESULT:    -4.837      1.083      1.922
REMARK INTER + INTRA:         -10.932
REMARK INTER:                  -9.183
REMARK INTRA:                  -1.749
REMARK UNBOUND:                -1.570
REMARK SMILES CCCCCCCCCCCCCCCCCC(=O)[O-]
REMARK SMILES IDX 10 1 11 2 12 3 13 4 14 5 15 6 16 7 17 8 18 9 19 10 20 11
REMARK SMILES IDX 9 12 8 13 7 14 6 15 5 16 4 17 3 18 2 19 1 20
REMARK H PARENT
REMARK Flexibility Score: inf
ROOT
ATOM      1  C   UNL     1       0.808 -37.589  21.016  1.00  0.00     0.000 C 
ENDROOT
BRANCH   1   2
ATOM      2  C   UNL     1      -0.636 -38.045  20.737  1.00  0.00     0.000 C 
BRANCH   2   3
ATOM      3  C   UNL     1      -1.598 -36.873  20.485  1.00  0.00     0.000 C 
BRANCH   3   4
ATOM      4  C   UNL     1      -2.888 -36.967  21.323  1.00  0.00     0.000 C 
BRANCH   4   5
ATOM      5  C   UNL     1      -3.171 -35.754  22.229  1.00  0.00     0.000 C 
BRANCH   5   6
ATOM      6  C   UNL     1      -2.005 -34.756  22.371  1.00  0.00     0.000 C 
BRANCH   6   7
ATOM      7  C   UNL     1      -2.368 -33.484  23.167  1.00  0.00     0.006 C 
BRANCH   7   8
ATOM      8  C   UNL     1      -1.413 -33.233  24.342  1.00  0.00     0.053 C 
BRANCH   8   9
ATOM      9  C   UNL     1      -0.894 -31.831  24.303  1.00  0.00     0.041 C 
ATOM     10  O   UNL     1      -1.690 -30.863  24.177  1.00  0.00    -0.550 OA
ATOM     11  O   UNL     1       0.474 -31.596  24.357  1.00  0.00    -0.550 OA
ENDBRANCH   8   9
ENDBRANCH   7   8
ENDBRANCH   6   7
ENDBRANCH   5   6
ENDBRANCH   4   5
ENDBRANCH   3   4
ENDBRANCH   2   3
ENDBRANCH   1   2
BRANCH   1  12
ATOM     12  C   UNL     1       1.039 -36.066  20.992  1.00  0.00     0.000 C 
BRANCH  12  13
ATOM     13  C   UNL     1       1.755 -35.587  19.719  1.00  0.00    -0.000 C 
BRANCH  13  14
ATOM     14  C   UNL     1       2.340 -36.745  18.889  1.00  0.00    -0.000 C 
BRANCH  14  15
ATOM     15  C   UNL     1       3.523 -36.364  17.975  1.00  0.00    -0.000 C 
BRANCH  15  16
ATOM     16  C   UNL     1       4.911 -36.808  18.479  1.00  0.00    -0.000 C 
BRANCH  16  17
ATOM     17  C   UNL     1       4.890 -37.960  19.500  1.00  0.00    -0.000 C 
BRANCH  17  18
ATOM     18  C   UNL     1       5.523 -37.571  20.847  1.00  0.00    -0.000 C 
BRANCH  18  19
ATOM     19  C   UNL     1       4.491 -37.019  21.844  1.00  0.00    -0.003 C 
ATOM     20  C   UNL     1       5.062 -35.913  22.732  1.00  0.00     0.004 C 
ENDBRANCH  18  19
ENDBRANCH  17  18
ENDBRANCH  16  17
ENDBRANCH  15  16
ENDBRANCH  14  15
ENDBRANCH  13  14
ENDBRANCH  12  13
ENDBRANCH   1  12
TORSDOF 16
ENDMDL
MODEL 3
REMARK VINA RESULT:    -4.578      1.956      6.460
REMARK INTER + INTRA:         -10.430
REMARK INTER:                  -8.419
REMARK INTRA:                  -2.012
REMARK UNBOUND:                -1.570
REMARK SMILES CCCCCCCCCCCCCCCCCC(=O)[O-]
REMARK SMILES IDX 10 1 11 2 12 3 13 4 14 5 15 6 16 7 17 8 18 9 19 10 20 11
REMARK SMILES IDX 9 12 8 13 7 14 6 15 5 16 4 17 3 18 2 19 1 20
REMARK H PARENT
REMARK Flexibility Score: inf
ROOT
ATOM      1  C   UNL     1       1.047 -36.054  20.251  1.00  0.00     0.000 C 
ENDROOT
BRANCH   1   2
ATOM      2  C   UNL     1       1.930 -35.976  18.991  1.00  0.00     0.000 C 
BRANCH   2   3
ATOM      3  C   UNL     1       2.375 -37.356  18.483  1.00  0.00     0.000 C 
BRANCH   3   4
ATOM      4  C   UNL     1       3.792 -37.343  17.876  1.00  0.00     0.000 C 
BRANCH   4   5
ATOM      5  C   UNL     1       4.879 -36.710  18.764  1.00  0.00     0.000 C 
BRANCH   5   6
ATOM      6  C   UNL     1       5.473 -37.642  19.838  1.00  0.00     0.000 C 
BRANCH   6   7
ATOM      7  C   UNL     1       5.429 -37.055  21.266  1.00  0.00     0.006 C 
BRANCH   7   8
ATOM      8  C   UNL     1       4.604 -35.763  21.345  1.00  0.00     0.053 C 
BRANCH   8   9
ATOM      9  C   UNL     1       3.961 -35.636  22.689  1.00  0.00     0.041 C 
ATOM     10  O   UNL     1       4.285 -36.415  23.624  1.00  0.00    -0.550 OA
ATOM     11  O   UNL     1       2.968 -34.687  22.896  1.00  0.00    -0.550 OA
ENDBRANCH   8   9
ENDBRANCH   7   8
ENDBRANCH   6   7
ENDBRANCH   5   6
ENDBRANCH   4   5
ENDBRANCH   3   4
ENDBRANCH   2   3
ENDBRANCH   1   2
BRANCH   1  12
ATOM     12  C   UNL     1       1.289 -37.278  21.154  1.00  0.00     0.000 C 
BRANCH  12  13
ATOM     13  C   UNL     1       0.024 -38.125  21.369  1.00  0.00    -0.000 C 
BRANCH  13  14
ATOM     14  C   UNL     1      -1.052 -37.880  20.294  1.00  0.00    -0.000 C 
BRANCH  14  15
ATOM     15  C   UNL     1      -2.417 -37.399  20.828  1.00  0.00    -0.000 C 
BRANCH  15  16
ATOM     16  C   UNL     1      -2.567 -35.871  20.964  1.00  0.00    -0.000 C 
BRANCH  16  17
ATOM     17  C   UNL     1      -2.449 -35.335  22.402  1.00  0.00    -0.000 C 
BRANCH  17  18
ATOM     18  C   UNL     1      -1.589 -34.063  22.494  1.00  0.00    -0.000 C 
BRANCH  18  19
ATOM     19  C   UNL     1      -2.228 -32.984  23.381  1.00  0.00    -0.003 C 
ATOM     20  C   UNL     1      -1.619 -32.936  24.782  1.00  0.00     0.004 C 
ENDBRANCH  18  19
ENDBRANCH  17  18
ENDBRANCH  16  17
ENDBRANCH  15  16
ENDBRANCH  14  15
ENDBRANCH  13  14
ENDBRANCH  12  13
ENDBRANCH   1  12
TORSDOF 16
ENDMDL
MODEL 4
REMARK VINA RESULT:    -4.546      2.278      6.804
REMARK INTER + INTRA:         -10.369
REMARK INTER:                  -8.664
REMARK INTRA:                  -1.705
REMARK UNBOUND:                -1.570
REMARK SMILES CCCCCCCCCCCCCCCCCC(=O)[O-]
REMARK SMILES IDX 10 1 11 2 12 3 13 4 14 5 15 6 16 7 17 8 18 9 19 10 20 11
REMARK SMILES IDX 9 12 8 13 7 14 6 15 5 16 4 17 3 18 2 19 1 20
REMARK H PARENT
REMARK Flexibility Score: inf
ROOT
ATOM      1  C   UNL     1       1.003 -36.062  20.712  1.00  0.00     0.000 C 
ENDROOT
BRANCH   1   2
ATOM      2  C   UNL     1       1.885 -35.841  19.469  1.00  0.00     0.000 C 
BRANCH   2   3
ATOM      3  C   UNL     1       2.009 -37.096  18.589  1.00  0.00     0.000 C 
BRANCH   3   4
ATOM      4  C   UNL     1       3.095 -36.961  17.503  1.00  0.00     0.000 C 
BRANCH   4   5
ATOM      5  C   UNL     1       4.464 -36.464  18.004  1.00  0.00     0.000 C 
BRANCH   5   6
ATOM      6  C   UNL     1       5.374 -37.551  18.610  1.00  0.00     0.000 C 
BRANCH   6   7
ATOM      7  C   UNL     1       5.885 -37.215  20.028  1.00  0.00     0.006 C 
BRANCH   7   8
ATOM      8  C   UNL     1       4.808 -37.413  21.102  1.00  0.00     0.053 C 
BRANCH   8   9
ATOM      9  C   UNL     1       4.805 -36.261  22.056  1.00  0.00     0.041 C 
ATOM     10  O   UNL     1       4.194 -35.198  21.766  1.00  0.00    -0.550 OA
ATOM     11  O   UNL     1       5.517 -36.342  23.246  1.00  0.00    -0.550 OA
ENDBRANCH   8   9
ENDBRANCH   7   8
ENDBRANCH   6   7
ENDBRANCH   5   6
ENDBRANCH   4   5
ENDBRANCH   3   4
ENDBRANCH   2   3
ENDBRANCH   1   2
BRANCH   1  12
ATOM     12  C   UNL     1       0.650 -37.529  21.022  1.00  0.00     0.000 C 
BRANCH  12  13
ATOM     13  C   UNL     1      -0.855 -37.820  20.917  1.00  0.00    -0.000 C 
BRANCH  13  14
ATOM     14  C   UNL     1      -1.658 -36.632  20.356  1.00  0.00    -0.000 C 
BRANCH  14  15
ATOM     15  C   UNL     1      -2.988 -36.336  21.080  1.00  0.00    -0.000 C 
BRANCH  15  16
ATOM     16  C   UNL     1      -2.851 -35.590  22.423  1.00  0.00    -0.000 C 
BRANCH  16  17
ATOM     17  C   UNL     1      -1.775 -34.490  22.446  1.00  0.00    -0.000 C 
BRANCH  17  18
ATOM     18  C   UNL     1      -2.262 -33.197  23.121  1.00  0.00    -0.000 C 
BRANCH  18  19
ATOM     19  C   UNL     1      -1.448 -32.846  24.376  1.00  0.00    -0.003 C 
ATOM     20  C   UNL     1      -0.068 -32.278  24.043  1.00  0.00     0.004 C 
ENDBRANCH  18  19
ENDBRANCH  17  18
ENDBRANCH  16  17
ENDBRANCH  15  16
ENDBRANCH  14  15
ENDBRANCH  13  14
ENDBRANCH  12  13
ENDBRANCH   1  12
TORSDOF 16
ENDMDL
MODEL 5
REMARK VINA RESULT:    -4.309      3.241      5.837
REMARK INTER + INTRA:          -9.910
REMARK INTER:                  -8.413
REMARK INTRA:                  -1.498
REMARK UNBOUND:                -1.570
REMARK SMILES CCCCCCCCCCCCCCCCCC(=O)[O-]
REMARK SMILES IDX 10 1 11 2 12 3 13 4 14 5 15 6 16 7 17 8 18 9 19 10 20 11
REMARK SMILES IDX 9 12 8 13 7 14 6 15 5 16 4 17 3 18 2 19 1 20
REMARK H PARENT
REMARK Flexibility Score: inf
ROOT
ATOM      1  C   UNL     1      -0.508 -33.122  24.332  1.00  0.00     0.000 C 
ENDROOT
BRANCH   1   2
ATOM      2  C   UNL     1      -1.851 -32.874  23.621  1.00  0.00     0.000 C 
BRANCH   2   3
ATOM      3  C   UNL     1      -2.379 -34.115  22.884  1.00  0.00     0.000 C 
BRANCH   3   4
ATOM      4  C   UNL     1      -1.319 -34.770  21.976  1.00  0.00     0.000 C 
BRANCH   4   5
ATOM      5  C   UNL     1      -1.723 -36.127  21.371  1.00  0.00     0.000 C 
BRANCH   5   6
ATOM      6  C   UNL     1      -3.219 -36.477  21.485  1.00  0.00     0.000 C 
BRANCH   6   7
ATOM      7  C   UNL     1      -3.622 -37.749  20.708  1.00  0.00     0.006 C 
BRANCH   7   8
ATOM      8  C   UNL     1      -2.876 -37.885  19.375  1.00  0.00     0.053 C 
BRANCH   8   9
ATOM      9  C   UNL     1      -3.715 -37.367  18.251  1.00  0.00     0.041 C 
ATOM     10  O   UNL     1      -4.034 -38.125  17.296  1.00  0.00    -0.550 OA
ATOM     11  O   UNL     1      -4.106 -36.035  18.233  1.00  0.00    -0.550 OA
ENDBRANCH   8   9
ENDBRANCH   7   8
ENDBRANCH   6   7
ENDBRANCH   5   6
ENDBRANCH   4   5
ENDBRANCH   3   4
ENDBRANCH   2   3
ENDBRANCH   1   2
BRANCH   1  12
ATOM     12  C   UNL     1       0.593 -32.083  24.050  1.00  0.00     0.000 C 
BRANCH  12  13
ATOM     13  C   UNL     1       2.001 -32.698  23.998  1.00  0.00    -0.000 C 
BRANCH  13  14
ATOM     14  C   UNL     1       2.028 -34.078  23.315  1.00  0.00    -0.000 C 
BRANCH  14  15
ATOM     15  C   UNL     1       3.429 -34.589  22.919  1.00  0.00    -0.000 C 
BRANCH  15  16
ATOM     16  C   UNL     1       3.461 -35.549  21.713  1.00  0.00    -0.000 C 
BRANCH  16  17
ATOM     17  C   UNL     1       2.079 -36.027  21.231  1.00  0.00    -0.000 C 
BRANCH  17  18
ATOM     18  C   UNL     1       1.792 -35.635  19.772  1.00  0.00    -0.000 C 
BRANCH  18  19
ATOM     19  C   UNL     1       2.902 -36.089  18.811  1.00  0.00    -0.003 C 
ATOM     20  C   UNL     1       2.382 -37.000  17.698  1.00  0.00     0.004 C 
ENDBRANCH  18  19
ENDBRANCH  17  18
ENDBRANCH  16  17
ENDBRANCH  15  16
ENDBRANCH  14  15
ENDBRANCH  13  14
ENDBRANCH  12  13
ENDBRANCH   1  12
TORSDOF 16
ENDMDL
MODEL 6
REMARK VINA RESULT:    -4.167      2.440      6.830
REMARK INTER + INTRA:          -9.635
REMARK INTER:                  -8.387
REMARK INTRA:                  -1.249
REMARK UNBOUND:                -1.570
REMARK SMILES CCCCCCCCCCCCCCCCCC(=O)[O-]
REMARK SMILES IDX 10 1 11 2 12 3 13 4 14 5 15 6 16 7 17 8 18 9 19 10 20 11
REMARK SMILES IDX 9 12 8 13 7 14 6 15 5 16 4 17 3 18 2 19 1 20
REMARK H PARENT
REMARK Flexibility Score: inf
ROOT
ATOM      1  C   UNL     1       1.138 -37.204  21.048  1.00  0.00     0.000 C 
ENDROOT
BRANCH   1   2
ATOM      2  C   UNL     1       0.802 -38.023  19.789  1.00  0.00     0.000 C 
BRANCH   2   3
ATOM      3  C   UNL     1       1.951 -38.056  18.768  1.00  0.00     0.000 C 
BRANCH   3   4
ATOM      4  C   UNL     1       2.400 -36.649  18.326  1.00  0.00     0.000 C 
BRANCH   4   5
ATOM      5  C   UNL     1       3.908 -36.499  18.054  1.00  0.00     0.000 C 
BRANCH   5   6
ATOM      6  C   UNL     1       4.762 -37.737  18.391  1.00  0.00     0.000 C 
BRANCH   6   7
ATOM      7  C   UNL     1       5.694 -37.538  19.606  1.00  0.00     0.006 C 
BRANCH   7   8
ATOM      8  C   UNL     1       4.934 -37.557  20.939  1.00  0.00     0.053 C 
BRANCH   8   9
ATOM      9  C   UNL     1       5.040 -36.230  21.620  1.00  0.00     0.041 C 
ATOM     10  O   UNL     1       6.103 -35.904  22.213  1.00  0.00    -0.550 OA
ATOM     11  O   UNL     1       3.948 -35.372  21.643  1.00  0.00    -0.550 OA
ENDBRANCH   8   9
ENDBRANCH   7   8
ENDBRANCH   6   7
ENDBRANCH   5   6
ENDBRANCH   4   5
ENDBRANCH   3   4
ENDBRANCH   2   3
ENDBRANCH   1   2
BRANCH   1  12
ATOM     12  C   UNL     1       0.297 -35.930  21.255  1.00  0.00     0.000 C 
BRANCH  12  13
ATOM     13  C   UNL     1      -1.085 -36.009  20.587  1.00  0.00    -0.000 C 
BRANCH  13  14
ATOM     14  C   UNL     1      -2.208 -36.384  21.574  1.00  0.00    -0.000 C 
BRANCH  14  15
ATOM     15  C   UNL     1      -2.752 -35.217  22.423  1.00  0.00    -0.000 C 
BRANCH  15  16
ATOM     16  C   UNL     1      -1.750 -34.076  22.691  1.00  0.00    -0.000 C 
BRANCH  16  17
ATOM     17  C   UNL     1      -2.324 -32.882  23.474  1.00  0.00    -0.000 C 
BRANCH  17  18
ATOM     18  C   UNL     1      -1.247 -32.115  24.260  1.00  0.00    -0.000 C 
BRANCH  18  19
ATOM     19  C   UNL     1       0.111 -32.834  24.251  1.00  0.00    -0.003 C 
ATOM     20  C   UNL     1       1.292 -31.864  24.302  1.00  0.00     0.004 C 
ENDBRANCH  18  19
ENDBRANCH  17  18
ENDBRANCH  16  17
ENDBRANCH  15  16
ENDBRANCH  14  15
ENDBRANCH  13  14
ENDBRANCH  12  13
ENDBRANCH   1  12
TORSDOF 16
ENDMDL
MODEL 7
REMARK VINA RESULT:    -4.103      2.961      7.546
REMARK INTER + INTRA:          -9.511
REMARK INTER:                  -8.178
REMARK INTRA:                  -1.333
REMARK UNBOUND:                -1.570
REMARK SMILES CCCCCCCCCCCCCCCCCC(=O)[O-]
REMARK SMILES IDX 10 1 11 2 12 3 13 4 14 5 15 6 16 7 17 8 18 9 19 10 20 11
REMARK SMILES IDX 9 12 8 13 7 14 6 15 5 16 4 17 3 18 2 19 1 20
REMARK H PARENT
REMARK Flexibility Score: inf
ROOT
ATOM      1  C   UNL     1      -0.552 -32.902  24.430  1.00  0.00     0.000 C 
ENDROOT
BRANCH   1   2
ATOM      2  C   UNL     1       0.594 -31.931  24.090  1.00  0.00     0.000 C 
BRANCH   2   3
ATOM      3  C   UNL     1       1.976 -32.603  24.106  1.00  0.00     0.000 C 
BRANCH   3   4
ATOM      4  C   UNL     1       1.955 -34.029  23.522  1.00  0.00     0.000 C 
BRANCH   4   5
ATOM      5  C   UNL     1       3.212 -34.430  22.726  1.00  0.00     0.000 C 
BRANCH   5   6
ATOM      6  C   UNL     1       3.784 -35.821  23.061  1.00  0.00     0.000 C 
BRANCH   6   7
ATOM      7  C   UNL     1       4.166 -36.653  21.817  1.00  0.00     0.006 C 
BRANCH   7   8
ATOM      8  C   UNL     1       3.474 -36.155  20.541  1.00  0.00     0.053 C 
BRANCH   8   9
ATOM      9  C   UNL     1       2.385 -37.096  20.137  1.00  0.00     0.041 C 
ATOM     10  O   UNL     1       2.076 -37.225  18.923  1.00  0.00    -0.550 OA
ATOM     11  O   UNL     1       1.676 -37.795  21.106  1.00  0.00    -0.550 OA
ENDBRANCH   8   9
ENDBRANCH   7   8
ENDBRANCH   6   7
ENDBRANCH   5   6
ENDBRANCH   4   5
ENDBRANCH   3   4
ENDBRANCH   2   3
ENDBRANCH   1   2
BRANCH   1  12
ATOM     12  C   UNL     1      -1.740 -32.894  23.450  1.00  0.00     0.000 C 
BRANCH  12  13
ATOM     13  C   UNL     1      -2.139 -34.301  22.978  1.00  0.00    -0.000 C 
BRANCH  13  14
ATOM     14  C   UNL     1      -1.320 -34.782  21.765  1.00  0.00    -0.000 C 
BRANCH  14  15
ATOM     15  C   UNL     1      -1.642 -36.210  21.279  1.00  0.00    -0.000 C 
BRANCH  15  16
ATOM     16  C   UNL     1      -3.115 -36.639  21.433  1.00  0.00    -0.000 C 
BRANCH  16  17
ATOM     17  C   UNL     1      -3.524 -37.863  20.594  1.00  0.00    -0.000 C 
BRANCH  17  18
ATOM     18  C   UNL     1      -2.904 -37.850  19.186  1.00  0.00    -0.000 C 
BRANCH  18  19
ATOM     19  C   UNL     1      -3.963 -37.730  18.079  1.00  0.00    -0.003 C 
ATOM     20  C   UNL     1      -4.369 -36.281  17.807  1.00  0.00     0.004 C 
ENDBRANCH  18  19
ENDBRANCH  17  18
ENDBRANCH  16  17
ENDBRANCH  15  16
ENDBRANCH  14  15
ENDBRANCH  13  14
ENDBRANCH  12  13
ENDBRANCH   1  12
TORSDOF 16
ENDMDL
MODEL 8
REMARK VINA RESULT:    -3.995      2.547      5.766
REMARK INTER + INTRA:          -9.302
REMARK INTER:                  -7.659
REMARK INTRA:                  -1.644
REMARK UNBOUND:                -1.570
REMARK SMILES CCCCCCCCCCCCCCCCCC(=O)[O-]
REMARK SMILES IDX 10 1 11 2 12 3 13 4 14 5 15 6 16 7 17 8 18 9 19 10 20 11
REMARK SMILES IDX 9 12 8 13 7 14 6 15 5 16 4 17 3 18 2 19 1 20
REMARK H PARENT
REMARK Flexibility Score: inf
ROOT
ATOM      1  C   UNL     1      -2.054 -33.210  22.989  1.00  0.00     0.000 C 
ENDROOT
BRANCH   1   2
ATOM      2  C   UNL     1      -2.148 -34.733  22.777  1.00  0.00     0.000 C 
BRANCH   2   3
ATOM      3  C   UNL     1      -1.392 -35.213  21.528  1.00  0.00     0.000 C 
BRANCH   3   4
ATOM      4  C   UNL     1      -2.178 -36.261  20.717  1.00  0.00     0.000 C 
BRANCH   4   5
ATOM      5  C   UNL     1      -1.844 -37.729  21.044  1.00  0.00     0.000 C 
BRANCH   5   6
ATOM      6  C   UNL     1      -0.340 -38.049  21.157  1.00  0.00     0.000 C 
BRANCH   6   7
ATOM      7  C   UNL     1       0.386 -38.116  19.796  1.00  0.00     0.006 C 
BRANCH   7   8
ATOM      8  C   UNL     1       1.887 -37.821  19.916  1.00  0.00     0.053 C 
BRANCH   8   9
ATOM      9  C   UNL     1       2.201 -36.472  19.350  1.00  0.00     0.041 C 
ATOM     10  O   UNL     1       1.457 -35.488  19.605  1.00  0.00    -0.550 OA
ATOM     11  O   UNL     1       3.289 -36.312  18.501  1.00  0.00    -0.550 OA
ENDBRANCH   8   9
ENDBRANCH   7   8
ENDBRANCH   6   7
ENDBRANCH   5   6
ENDBRANCH   4   5
ENDBRANCH   3   4
ENDBRANCH   2   3
ENDBRANCH   1   2
BRANCH   1  12
ATOM     12  C   UNL     1      -1.371 -32.764  24.295  1.00  0.00     0.000 C 
BRANCH  12  13
ATOM     13  C   UNL     1      -0.018 -32.073  24.060  1.00  0.00    -0.000 C 
BRANCH  13  14
ATOM     14  C   UNL     1       1.165 -32.847  24.670  1.00  0.00    -0.000 C 
BRANCH  14  15
ATOM     15  C   UNL     1       2.372 -33.049  23.731  1.00  0.00    -0.000 C 
BRANCH  15  16
ATOM     16  C   UNL     1       2.378 -34.377  22.946  1.00  0.00    -0.000 C 
BRANCH  16  17
ATOM     17  C   UNL     1       3.538 -35.328  23.293  1.00  0.00    -0.000 C 
BRANCH  17  18
ATOM     18  C   UNL     1       4.426 -35.647  22.078  1.00  0.00    -0.000 C 
BRANCH  18  19
ATOM     19  C   UNL     1       5.043 -37.052  22.155  1.00  0.00    -0.003 C 
ATOM     20  C   UNL     1       5.640 -37.507  20.823  1.00  0.00     0.004 C 
ENDBRANCH  18  19
ENDBRANCH  17  18
ENDBRANCH  16  17
ENDBRANCH  15  16
ENDBRANCH  14  15
ENDBRANCH  13  14
ENDBRANCH  12  13
ENDBRANCH   1  12
TORSDOF 16
ENDMDL
MODEL 9
REMARK VINA RESULT:    -2.279      0.720      2.870
REMARK INTER + INTRA:          -5.981
REMARK INTER:                  -3.907
REMARK INTRA:                  -2.074
REMARK UNBOUND:                -1.570
REMARK SMILES CCCCCCCCCCCCCCCCCC(=O)[O-]
REMARK SMILES IDX 10 1 11 2 12 3 13 4 14 5 15 6 16 7 17 8 18 9 19 10 20 11
REMARK SMILES IDX 9 12 8 13 7 14 6 15 5 16 4 17 3 18 2 19 1 20
REMARK H PARENT
REMARK Flexibility Score: inf
ROOT
ATOM      1  C   UNL     1       2.065 -35.539  21.665  1.00  0.00     0.000 C 
ENDROOT
BRANCH   1   2
ATOM      2  C   UNL     1       1.855 -37.028  21.335  1.00  0.00     0.000 C 
BRANCH   2   3
ATOM      3  C   UNL     1       0.394 -37.369  20.997  1.00  0.00     0.000 C 
BRANCH   3   4
ATOM      4  C   UNL     1      -0.465 -36.119  20.726  1.00  0.00     0.000 C 
BRANCH   4   5
ATOM      5  C   UNL     1      -1.974 -36.292  20.985  1.00  0.00     0.000 C 
BRANCH   5   6
ATOM      6  C   UNL     1      -2.553 -35.403  22.102  1.00  0.00     0.000 C 
BRANCH   6   7
ATOM      7  C   UNL     1      -1.618 -34.251  22.529  1.00  0.00     0.006 C 
BRANCH   7   8
ATOM      8  C   UNL     1      -2.373 -33.101  23.208  1.00  0.00     0.053 C 
BRANCH   8   9
ATOM      9  C   UNL     1      -1.571 -32.547  24.342  1.00  0.00     0.041 C 
ATOM     10  O   UNL     1      -0.833 -31.541  24.166  1.00  0.00    -0.550 OA
ATOM     11  O   UNL     1      -1.601 -33.170  25.583  1.00  0.00    -0.550 OA
ENDBRANCH   8   9
ENDBRANCH   7   8
ENDBRANCH   6   7
ENDBRANCH   5   6
ENDBRANCH   4   5
ENDBRANCH   3   4
ENDBRANCH   2   3
ENDBRANCH   1   2
BRANCH   1  12
ATOM     12  C   UNL     1       3.267 -35.225  22.576  1.00  0.00     0.000 C 
BRANCH  12  13
ATOM     13  C   UNL     1       4.235 -36.410  22.723  1.00  0.00    -0.000 C 
BRANCH  13  14
ATOM     14  C   UNL     1       5.653 -36.092  22.213  1.00  0.00    -0.000 C 
BRANCH  14  15
ATOM     15  C   UNL     1       6.125 -36.938  21.012  1.00  0.00    -0.000 C 
BRANCH  15  16
ATOM     16  C   UNL     1       5.132 -38.019  20.541  1.00  0.00    -0.000 C 
BRANCH  16  17
ATOM     17  C   UNL     1       4.808 -37.989  19.037  1.00  0.00    -0.000 C 
BRANCH  17  18
ATOM     18  C   UNL     1       4.791 -36.562  18.462  1.00  0.00    -0.000 C 
BRANCH  18  19
ATOM     19  C   UNL     1       3.387 -36.125  18.017  1.00  0.00    -0.003 C 
ATOM     20  C   UNL     1       2.450 -37.309  17.776  1.00  0.00     0.004 C 
ENDBRANCH  18  19
ENDBRANCH  17  18
ENDBRANCH  16  17
ENDBRANCH  15  16
ENDBRANCH  14  15
ENDBRANCH  13  14
ENDBRANCH  12  13
ENDBRANCH   1  12
TORSDOF 16
ENDMDL
