MODEL 1
REMARK VINA RESULT:    -5.193      0.000      0.000
REMARK INTER + INTRA:          -5.751
REMARK INTER:                  -5.497
REMARK INTRA:                  -0.254
REMARK UNBOUND:                -0.254
REMARK SMILES CC(C)[C@@H]1CC[C@@H](C)[C@@H]2C=C[C@H](C)C[C@@H]21
REMARK SMILES IDX 8 1 7 2 6 3 5 4 4 5 15 6 9 7 10 8 11 9 12 10 14 11 13 12
REMARK SMILES IDX 2 13 1 14 3 15
REMARK H PARENT
REMARK Flexibility Score: inf
ROOT
ATOM      1  C   UNL     1      11.549  14.410  39.541  1.00  0.00     0.008 C 
ATOM      2  C   UNL     1      12.248  15.435  38.631  1.00  0.00    -0.007 C 
ATOM      3  C   UNL     1      11.462  16.759  38.667  1.00  0.00     0.004 C 
ATOM      4  C   UNL     1      12.107  17.819  37.774  1.00  0.00     0.004 C 
ATOM      5  C   UNL     1      12.202  17.325  36.315  1.00  0.00    -0.005 C 
ATOM      6  C   UNL     1      12.986  15.982  36.210  1.00  0.00    -0.000 C 
ATOM      7  C   UNL     1      12.385  14.913  37.168  1.00  0.00     0.018 C 
ATOM      8  C   UNL     1      13.192  13.631  37.129  1.00  0.00    -0.027 C 
ATOM      9  C   UNL     1      14.489  13.590  36.789  1.00  0.00    -0.028 C 
ATOM     10  C   UNL     1      15.220  14.767  36.186  1.00  0.00     0.008 C 
ATOM     11  C   UNL     1      14.509  16.111  36.434  1.00  0.00     0.012 C 
ATOM     12  C   UNL     1      16.660  14.817  36.706  1.00  0.00     0.012 C 
ENDROOT
BRANCH   5  13
ATOM     13  C   UNL     1      12.685  18.424  35.303  1.00  0.00    -0.014 C 
ATOM     14  C   UNL     1      12.163  18.134  33.886  1.00  0.00     0.007 C 
ATOM     15  C   UNL     1      12.306  19.867  35.692  1.00  0.00     0.007 C 
ENDBRANCH   5  13
TORSDOF 1
ENDMDL
MODEL 2
REMARK VINA RESULT:    -5.030      1.058      4.324
REMARK INTER + INTRA:          -5.578
REMARK INTER:                  -5.319
REMARK INTRA:                  -0.259
REMARK UNBOUND:                -0.254
REMARK SMILES CC(C)[C@@H]1CC[C@@H](C)[C@@H]2C=C[C@H](C)C[C@@H]21
REMARK SMILES IDX 8 1 7 2 6 3 5 4 4 5 15 6 9 7 10 8 11 9 12 10 14 11 13 12
REMARK SMILES IDX 2 13 1 14 3 15
REMARK H PARENT
REMARK Flexibility Score: inf
ROOT
ATOM      1  C   UNL     1       9.844  15.923  39.033  1.00  0.00     0.008 C 
ATOM      2  C   UNL     1      10.924  15.618  37.980  1.00  0.00    -0.007 C 
ATOM      3  C   UNL     1      11.430  14.178  38.180  1.00  0.00     0.004 C 
ATOM      4  C   UNL     1      12.513  13.817  37.163  1.00  0.00     0.004 C 
ATOM      5  C   UNL     1      13.706  14.793  37.260  1.00  0.00    -0.005 C 
ATOM      6  C   UNL     1      13.257  16.273  37.068  1.00  0.00    -0.000 C 
ATOM      7  C   UNL     1      12.104  16.634  38.049  1.00  0.00     0.018 C 
ATOM      8  C   UNL     1      11.610  18.047  37.813  1.00  0.00    -0.027 C 
ATOM      9  C   UNL     1      11.725  18.678  36.634  1.00  0.00    -0.028 C 
ATOM     10  C   UNL     1      12.563  18.146  35.494  1.00  0.00     0.008 C 
ATOM     11  C   UNL     1      12.867  16.641  35.619  1.00  0.00     0.012 C 
ATOM     12  C   UNL     1      11.883  18.447  34.155  1.00  0.00     0.012 C 
ENDROOT
BRANCH   5  13
ATOM     13  C   UNL     1      14.936  14.382  36.375  1.00  0.00    -0.014 C 
ATOM     14  C   UNL     1      16.188  15.184  36.768  1.00  0.00     0.007 C 
ATOM     15  C   UNL     1      15.274  12.878  36.405  1.00  0.00     0.007 C 
ENDBRANCH   5  13
TORSDOF 1
ENDMDL
MODEL 3
REMARK VINA RESULT:    -4.968     11.213     14.615
REMARK INTER + INTRA:          -5.512
REMARK INTER:                  -5.262
REMARK INTRA:                  -0.251
REMARK UNBOUND:                -0.254
REMARK SMILES CC(C)[C@@H]1CC[C@@H](C)[C@@H]2C=C[C@H](C)C[C@@H]21
REMARK SMILES IDX 8 1 7 2 6 3 5 4 4 5 15 6 9 7 10 8 11 9 12 10 14 11 13 12
REMARK SMILES IDX 2 13 1 14 3 15
REMARK H PARENT
REMARK Flexibility Score: inf
ROOT
ATOM      1  C   UNL     1      11.518  19.488  23.490  1.00  0.00     0.008 C 
ATOM      2  C   UNL     1      10.000  19.250  23.562  1.00  0.00    -0.007 C 
ATOM      3  C   UNL     1       9.438  19.147  22.132  1.00  0.00     0.004 C 
ATOM      4  C   UNL     1       7.927  18.915  22.138  1.00  0.00     0.004 C 
ATOM      5  C   UNL     1       7.199  20.051  22.889  1.00  0.00    -0.005 C 
ATOM      6  C   UNL     1       7.727  20.209  24.347  1.00  0.00    -0.000 C 
ATOM      7  C   UNL     1       9.275  20.374  24.362  1.00  0.00     0.018 C 
ATOM      8  C   UNL     1       9.801  20.449  25.781  1.00  0.00    -0.027 C 
ATOM      9  C   UNL     1       9.163  19.909  26.831  1.00  0.00    -0.028 C 
ATOM     10  C   UNL     1       7.749  19.380  26.751  1.00  0.00     0.008 C 
ATOM     11  C   UNL     1       7.296  19.080  25.309  1.00  0.00     0.012 C 
ATOM     12  C   UNL     1       7.601  18.135  27.631  1.00  0.00     0.012 C 
ENDROOT
BRANCH   5  13
ATOM     13  C   UNL     1       5.635  19.982  22.783  1.00  0.00    -0.014 C 
ATOM     14  C   UNL     1       5.099  21.068  21.835  1.00  0.00     0.007 C 
ATOM     15  C   UNL     1       5.081  18.612  22.342  1.00  0.00     0.007 C 
ENDBRANCH   5  13
TORSDOF 1
ENDMDL
MODEL 4
REMARK VINA RESULT:    -4.875     10.675     14.208
REMARK INTER + INTRA:          -5.415
REMARK INTER:                  -5.162
REMARK INTRA:                  -0.253
REMARK UNBOUND:                -0.254
REMARK SMILES CC(C)[C@@H]1CC[C@@H](C)[C@@H]2C=C[C@H](C)C[C@@H]21
REMARK SMILES IDX 8 1 7 2 6 3 5 4 4 5 15 6 9 7 10 8 11 9 12 10 14 11 13 12
REMARK SMILES IDX 2 13 1 14 3 15
REMARK H PARENT
REMARK Flexibility Score: inf
ROOT
ATOM      1  C   UNL     1      10.627  18.966  27.303  1.00  0.00     0.008 C 
ATOM      2  C   UNL     1      10.684  19.159  25.778  1.00  0.00    -0.007 C 
ATOM      3  C   UNL     1      12.115  19.557  25.374  1.00  0.00     0.004 C 
ATOM      4  C   UNL     1      12.235  19.769  23.864  1.00  0.00     0.004 C 
ATOM      5  C   UNL     1      11.250  20.856  23.382  1.00  0.00    -0.005 C 
ATOM      6  C   UNL     1       9.778  20.512  23.765  1.00  0.00    -0.000 C 
ATOM      7  C   UNL     1       9.655  20.223  25.289  1.00  0.00     0.018 C 
ATOM      8  C   UNL     1       8.243  19.811  25.652  1.00  0.00    -0.027 C 
ATOM      9  C   UNL     1       7.395  19.244  24.780  1.00  0.00    -0.028 C 
ATOM     10  C   UNL     1       7.668  19.172  23.295  1.00  0.00     0.008 C 
ATOM     11  C   UNL     1       9.157  19.359  22.945  1.00  0.00     0.012 C 
ATOM     12  C   UNL     1       7.144  17.850  22.726  1.00  0.00     0.012 C 
ENDROOT
BRANCH   5  13
ATOM     13  C   UNL     1      11.437  21.260  21.877  1.00  0.00    -0.014 C 
ATOM     14  C   UNL     1      11.025  22.723  21.645  1.00  0.00     0.007 C 
ATOM     15  C   UNL     1      12.863  21.047  21.328  1.00  0.00     0.007 C 
ENDBRANCH   5  13
TORSDOF 1
ENDMDL
MODEL 5
REMARK VINA RESULT:    -4.859     12.125     15.516
REMARK INTER + INTRA:          -5.397
REMARK INTER:                  -5.146
REMARK INTRA:                  -0.251
REMARK UNBOUND:                -0.254
REMARK SMILES CC(C)[C@@H]1CC[C@@H](C)[C@@H]2C=C[C@H](C)C[C@@H]21
REMARK SMILES IDX 8 1 7 2 6 3 5 4 4 5 15 6 9 7 10 8 11 9 12 10 14 11 13 12
REMARK SMILES IDX 2 13 1 14 3 15
REMARK H PARENT
REMARK Flexibility Score: inf
ROOT
ATOM      1  C   UNL     1       5.010  18.761  22.457  1.00  0.00     0.008 C 
ATOM      2  C   UNL     1       6.448  19.291  22.584  1.00  0.00    -0.007 C 
ATOM      3  C   UNL     1       7.433  18.122  22.393  1.00  0.00     0.004 C 
ATOM      4  C   UNL     1       8.885  18.585  22.514  1.00  0.00     0.004 C 
ATOM      5  C   UNL     1       9.139  19.244  23.887  1.00  0.00    -0.005 C 
ATOM      6  C   UNL     1       8.168  20.436  24.144  1.00  0.00    -0.000 C 
ATOM      7  C   UNL     1       6.688  19.997  23.953  1.00  0.00     0.018 C 
ATOM      8  C   UNL     1       5.745  21.171  24.123  1.00  0.00    -0.027 C 
ATOM      9  C   UNL     1       6.111  22.444  23.910  1.00  0.00    -0.028 C 
ATOM     10  C   UNL     1       7.550  22.864  23.711  1.00  0.00     0.008 C 
ATOM     11  C   UNL     1       8.469  21.697  23.304  1.00  0.00     0.012 C 
ATOM     12  C   UNL     1       7.630  23.997  22.682  1.00  0.00     0.012 C 
ENDROOT
BRANCH   5  13
ATOM     13  C   UNL     1      10.648  19.582  24.160  1.00  0.00    -0.014 C 
ATOM     14  C   UNL     1      11.021  19.292  25.623  1.00  0.00     0.007 C 
ATOM     15  C   UNL     1      11.646  18.857  23.235  1.00  0.00     0.007 C 
ENDBRANCH   5  13
TORSDOF 1
ENDMDL
MODEL 6
REMARK VINA RESULT:    -4.850     10.528     13.964
REMARK INTER + INTRA:          -5.388
REMARK INTER:                  -5.133
REMARK INTRA:                  -0.255
REMARK UNBOUND:                -0.254
REMARK SMILES CC(C)[C@@H]1CC[C@@H](C)[C@@H]2C=C[C@H](C)C[C@@H]21
REMARK SMILES IDX 8 1 7 2 6 3 5 4 4 5 15 6 9 7 10 8 11 9 12 10 14 11 13 12
REMARK SMILES IDX 2 13 1 14 3 15
REMARK H PARENT
REMARK Flexibility Score: inf
ROOT
ATOM      1  C   UNL     1      10.745  19.076  27.376  1.00  0.00     0.008 C 
ATOM      2  C   UNL     1       9.821  19.638  26.282  1.00  0.00    -0.007 C 
ATOM      3  C   UNL     1       8.369  19.226  26.588  1.00  0.00     0.004 C 
ATOM      4  C   UNL     1       7.401  19.752  25.528  1.00  0.00     0.004 C 
ATOM      5  C   UNL     1       7.790  19.239  24.125  1.00  0.00    -0.005 C 
ATOM      6  C   UNL     1       9.255  19.622  23.756  1.00  0.00    -0.000 C 
ATOM      7  C   UNL     1      10.245  19.156  24.861  1.00  0.00     0.018 C 
ATOM      8  C   UNL     1      11.661  19.596  24.546  1.00  0.00    -0.027 C 
ATOM      9  C   UNL     1      11.946  20.661  23.780  1.00  0.00    -0.028 C 
ATOM     10  C   UNL     1      10.903  21.389  22.962  1.00  0.00     0.008 C 
ATOM     11  C   UNL     1       9.464  21.121  23.442  1.00  0.00     0.012 C 
ATOM     12  C   UNL     1      11.196  22.893  22.954  1.00  0.00     0.012 C 
ENDROOT
BRANCH   5  13
ATOM     13  C   UNL     1       6.741  19.586  23.009  1.00  0.00    -0.014 C 
ATOM     14  C   UNL     1       6.083  18.310  22.457  1.00  0.00     0.007 C 
ATOM     15  C   UNL     1       5.639  20.570  23.448  1.00  0.00     0.007 C 
ENDBRANCH   5  13
TORSDOF 1
ENDMDL
MODEL 7
REMARK VINA RESULT:    -4.808     11.407     13.823
REMARK INTER + INTRA:          -5.343
REMARK INTER:                  -5.182
REMARK INTRA:                  -0.161
REMARK UNBOUND:                -0.254
REMARK SMILES CC(C)[C@@H]1CC[C@@H](C)[C@@H]2C=C[C@H](C)C[C@@H]21
REMARK SMILES IDX 8 1 7 2 6 3 5 4 4 5 15 6 9 7 10 8 11 9 12 10 14 11 13 12
REMARK SMILES IDX 2 13 1 14 3 15
REMARK H PARENT
REMARK Flexibility Score: inf
ROOT
ATOM      1  C   UNL     1       7.242  21.763  27.789  1.00  0.00     0.008 C 
ATOM      2  C   UNL     1       7.447  21.298  26.337  1.00  0.00    -0.007 C 
ATOM      3  C   UNL     1       6.155  21.556  25.539  1.00  0.00     0.004 C 
ATOM      4  C   UNL     1       6.294  21.107  24.084  1.00  0.00     0.004 C 
ATOM      5  C   UNL     1       6.650  19.607  24.003  1.00  0.00    -0.005 C 
ATOM      6  C   UNL     1       7.951  19.279  24.797  1.00  0.00    -0.000 C 
ATOM      7  C   UNL     1       7.852  19.794  26.262  1.00  0.00     0.018 C 
ATOM      8  C   UNL     1       9.144  19.549  27.014  1.00  0.00    -0.027 C 
ATOM      9  C   UNL     1      10.337  19.438  26.410  1.00  0.00    -0.028 C 
ATOM     10  C   UNL     1      10.491  19.309  24.911  1.00  0.00     0.008 C 
ATOM     11  C   UNL     1       9.250  19.787  24.133  1.00  0.00     0.012 C 
ATOM     12  C   UNL     1      11.741  20.061  24.444  1.00  0.00     0.012 C 
ENDROOT
BRANCH   5  13
ATOM     13  C   UNL     1       6.632  19.028  22.544  1.00  0.00    -0.014 C 
ATOM     14  C   UNL     1       7.128  17.572  22.524  1.00  0.00     0.007 C 
ATOM     15  C   UNL     1       5.261  19.100  21.842  1.00  0.00     0.007 C 
ENDBRANCH   5  13
TORSDOF 1
ENDMDL
MODEL 8
REMARK VINA RESULT:    -4.767     12.435     16.264
REMARK INTER + INTRA:          -5.300
REMARK INTER:                  -5.054
REMARK INTRA:                  -0.246
REMARK UNBOUND:                -0.254
REMARK SMILES CC(C)[C@@H]1CC[C@@H](C)[C@@H]2C=C[C@H](C)C[C@@H]21
REMARK SMILES IDX 8 1 7 2 6 3 5 4 4 5 15 6 9 7 10 8 11 9 12 10 14 11 13 12
REMARK SMILES IDX 2 13 1 14 3 15
REMARK H PARENT
REMARK Flexibility Score: inf
ROOT
ATOM      1  C   UNL     1       4.274  19.249  21.026  1.00  0.00     0.008 C 
ATOM      2  C   UNL     1       5.473  19.641  21.906  1.00  0.00    -0.007 C 
ATOM      3  C   UNL     1       6.163  18.362  22.415  1.00  0.00     0.004 C 
ATOM      4  C   UNL     1       7.364  18.687  23.304  1.00  0.00     0.004 C 
ATOM      5  C   UNL     1       6.936  19.548  24.513  1.00  0.00    -0.005 C 
ATOM      6  C   UNL     1       6.225  20.860  24.063  1.00  0.00    -0.000 C 
ATOM      7  C   UNL     1       5.044  20.549  23.099  1.00  0.00     0.018 C 
ATOM      8  C   UNL     1       4.400  21.826  22.596  1.00  0.00    -0.027 C 
ATOM      9  C   UNL     1       5.051  22.997  22.522  1.00  0.00    -0.028 C 
ATOM     10  C   UNL     1       6.409  23.225  23.145  1.00  0.00     0.008 C 
ATOM     11  C   UNL     1       7.166  21.916  23.440  1.00  0.00     0.012 C 
ATOM     12  C   UNL     1       7.251  24.143  22.254  1.00  0.00     0.012 C 
ENDROOT
BRANCH   5  13
ATOM     13  C   UNL     1       8.076  19.771  25.568  1.00  0.00    -0.014 C 
ATOM     14  C   UNL     1       7.853  18.895  26.813  1.00  0.00     0.007 C 
ATOM     15  C   UNL     1       9.502  19.530  25.034  1.00  0.00     0.007 C 
ENDBRANCH   5  13
TORSDOF 1
ENDMDL
MODEL 9
REMARK VINA RESULT:    -4.667      9.807     13.705
REMARK INTER + INTRA:          -5.194
REMARK INTER:                  -4.940
REMARK INTRA:                  -0.254
REMARK UNBOUND:                -0.254
REMARK SMILES CC(C)[C@@H]1CC[C@@H](C)[C@@H]2C=C[C@H](C)C[C@@H]21
REMARK SMILES IDX 8 1 7 2 6 3 5 4 4 5 15 6 9 7 10 8 11 9 12 10 14 11 13 12
REMARK SMILES IDX 2 13 1 14 3 15
REMARK H PARENT
REMARK Flexibility Score: inf
ROOT
ATOM      1  C   UNL     1       8.322  18.691  22.107  1.00  0.00     0.008 C 
ATOM      2  C   UNL     1       9.127  19.445  23.180  1.00  0.00    -0.007 C 
ATOM      3  C   UNL     1      10.598  18.994  23.115  1.00  0.00     0.004 C 
ATOM      4  C   UNL     1      11.450  19.707  24.166  1.00  0.00     0.004 C 
ATOM      5  C   UNL     1      10.902  19.450  25.586  1.00  0.00    -0.005 C 
ATOM      6  C   UNL     1       9.411  19.883  25.716  1.00  0.00    -0.000 C 
ATOM      7  C   UNL     1       8.542  19.221  24.607  1.00  0.00     0.018 C 
ATOM      8  C   UNL     1       7.107  19.702  24.681  1.00  0.00    -0.027 C 
ATOM      9  C   UNL     1       6.753  20.884  25.209  1.00  0.00    -0.028 C 
ATOM     10  C   UNL     1       7.709  21.753  25.994  1.00  0.00     0.008 C 
ATOM     11  C   UNL     1       9.189  21.412  25.734  1.00  0.00     0.012 C 
ATOM     12  C   UNL     1       7.438  23.232  25.703  1.00  0.00     0.012 C 
ENDROOT
BRANCH   5  13
ATOM     13  C   UNL     1      11.825  19.996  26.732  1.00  0.00    -0.014 C 
ATOM     14  C   UNL     1      11.618  19.201  28.032  1.00  0.00     0.007 C 
ATOM     15  C   UNL     1      13.329  20.016  26.390  1.00  0.00     0.007 C 
ENDBRANCH   5  13
TORSDOF 1
ENDMDL
