MODEL 1
REMARK VINA RESULT:    -7.796      0.000      0.000
REMARK INTER + INTRA:          -8.302
REMARK INTER:                  -8.480
REMARK INTRA:                   0.178
REMARK UNBOUND:                 0.178
REMARK SMILES C[C@H]1[C@@H](C)CC[C@]2(C(=O)[O-])CC[C@]3(C)C(=CC[C@@H]4[C@]5(C)CC[C@H](O)C(C)(C)[C@@H]5CC[C@@]43C)[C@@H]12
REMARK SMILES IDX 7 1 6 2 11 3 33 4 5 5 12 6 15 7 2 8 3 9 13 10 16 11 1 12
REMARK SMILES IDX 4 13 14 14 31 15 17 16 18 17 30 18 32 19 19 20 29 21 28 22
REMARK SMILES IDX 21 23 20 24 25 25 22 26 23 27 26 28 27 29 8 30 9 31 10 32
REMARK SMILES IDX 24 33
REMARK H PARENT 24 34
REMARK Flexibility Score: inf
ROOT
ATOM      1  C   UNL     1     166.614 143.345 148.319  1.00  0.00     0.017 C 
ATOM      2  C   UNL     1     166.255 141.846 148.570  1.00  0.00     0.014 C 
ATOM      3  C   UNL     1     167.868 143.439 147.385  1.00  0.00     0.014 C 
ATOM      4  C   UNL     1     166.908 143.976 149.715  1.00  0.00     0.030 C 
ATOM      5  C   UNL     1     165.087 141.666 149.562  1.00  0.00     0.004 C 
ATOM      6  C   UNL     1     169.189 143.825 148.088  1.00  0.00     0.013 C 
ATOM      7  C   UNL     1     167.751 145.251 149.610  1.00  0.00    -0.063 C 
ATOM      8  C   UNL     1     165.703 143.888 150.714  1.00  0.00    -0.003 C 
ATOM      9  C   UNL     1     165.345 142.382 150.911  1.00  0.00    -0.011 C 
ATOM     10  C   UNL     1     169.150 145.121 149.005  1.00  0.00    -0.006 C 
ATOM     11  C   UNL     1     167.390 146.397 150.201  1.00  0.00    -0.027 C 
ATOM     12  C   UNL     1     164.455 144.735 150.355  1.00  0.00     0.008 C 
ATOM     13  C   UNL     1     164.169 142.165 151.876  1.00  0.00     0.008 C 
ATOM     14  C   UNL     1     170.109 144.848 150.209  1.00  0.00     0.017 C 
ATOM     15  C   UNL     1     169.589 146.473 148.248  1.00  0.00    -0.020 C 
ATOM     16  C   UNL     1     168.200 147.649 150.173  1.00  0.00     0.032 C 
ATOM     17  C   UNL     1     169.426 147.744 149.203  1.00  0.00     0.006 C 
ATOM     18  C   UNL     1     168.699 146.678 146.989  1.00  0.00     0.008 C 
ATOM     19  C   UNL     1     171.094 146.331 147.800  1.00  0.00     0.012 C 
ATOM     20  C   UNL     1     169.557 149.181 148.493  1.00  0.00    -0.025 C 
ATOM     21  C   UNL     1     168.860 148.020 146.264  1.00  0.00     0.005 C 
ATOM     22  C   UNL     1     168.699 149.275 147.162  1.00  0.00     0.003 C 
ATOM     23  C   UNL     1     169.241 150.372 149.488  1.00  0.00     0.010 C 
ATOM     24  C   UNL     1     171.056 149.428 148.099  1.00  0.00     0.012 C 
ATOM     25  C   UNL     1     167.220 149.890 147.219  1.00  0.00    -0.006 C 
ATOM     26  C   UNL     1     168.411 151.492 148.861  1.00  0.00     0.033 C 
ATOM     27  C   UNL     1     167.062 150.965 148.368  1.00  0.00     0.120 C 
ATOM     28  C   UNL     1     166.946 150.630 145.875  1.00  0.00     0.014 C 
ATOM     29  C   UNL     1     166.110 148.807 147.329  1.00  0.00     0.014 C 
ENDROOT
BRANCH   1  30
ATOM     30  C   UNL     1     165.478 144.047 147.582  1.00  0.00     0.048 C 
ATOM     31  O   UNL     1     164.378 143.467 147.387  1.00  0.00    -0.550 OA
ATOM     32  O   UNL     1     165.690 145.284 146.980  1.00  0.00    -0.550 OA
ENDBRANCH   1  30
BRANCH  27  33
ATOM     33  O   UNL     1     166.343 150.473 149.474  1.00  0.00    -0.393 OA
ATOM     34  H   UNL     1     166.288 149.488 149.388  1.00  0.00     0.210 HD
ENDBRANCH  27  33
TORSDOF 2
ENDMDL
MODEL 2
REMARK VINA RESULT:    -7.255      1.563      2.340
REMARK INTER + INTRA:          -7.714
REMARK INTER:                  -7.838
REMARK INTRA:                   0.124
REMARK UNBOUND:                 0.178
REMARK SMILES C[C@H]1[C@@H](C)CC[C@]2(C(=O)[O-])CC[C@]3(C)C(=CC[C@@H]4[C@]5(C)CC[C@H](O)C(C)(C)[C@@H]5CC[C@@]43C)[C@@H]12
REMARK SMILES IDX 7 1 6 2 11 3 33 4 5 5 12 6 15 7 2 8 3 9 13 10 16 11 1 12
REMARK SMILES IDX 4 13 14 14 31 15 17 16 18 17 30 18 32 19 19 20 29 21 28 22
REMARK SMILES IDX 21 23 20 24 25 25 22 26 23 27 26 28 27 29 8 30 9 31 10 32
REMARK SMILES IDX 24 33
REMARK H PARENT 24 34
REMARK Flexibility Score: inf
ROOT
ATOM      1  C   UNL     1     166.373 145.522 147.394  1.00  0.00     0.017 C 
ATOM      2  C   UNL     1     166.030 143.999 147.372  1.00  0.00     0.014 C 
ATOM      3  C   UNL     1     167.169 145.904 146.100  1.00  0.00     0.014 C 
ATOM      4  C   UNL     1     167.233 145.770 148.673  1.00  0.00     0.030 C 
ATOM      5  C   UNL     1     165.329 143.522 148.662  1.00  0.00     0.004 C 
ATOM      6  C   UNL     1     168.685 146.134 146.299  1.00  0.00     0.013 C 
ATOM      7  C   UNL     1     168.061 147.054 148.576  1.00  0.00    -0.063 C 
ATOM      8  C   UNL     1     166.508 145.379 150.006  1.00  0.00    -0.003 C 
ATOM      9  C   UNL     1     166.144 143.862 149.934  1.00  0.00    -0.011 C 
ATOM     10  C   UNL     1     169.102 147.137 147.457  1.00  0.00    -0.006 C 
ATOM     11  C   UNL     1     168.045 147.990 149.534  1.00  0.00    -0.027 C 
ATOM     12  C   UNL     1     165.286 146.247 150.400  1.00  0.00     0.008 C 
ATOM     13  C   UNL     1     165.423 143.357 151.193  1.00  0.00     0.008 C 
ATOM     14  C   UNL     1     170.429 146.588 148.071  1.00  0.00     0.017 C 
ATOM     15  C   UNL     1     169.311 148.657 146.964  1.00  0.00    -0.020 C 
ATOM     16  C   UNL     1     168.872 149.230 149.512  1.00  0.00     0.032 C 
ATOM     17  C   UNL     1     169.627 149.621 148.197  1.00  0.00     0.006 C 
ATOM     18  C   UNL     1     168.020 149.158 146.257  1.00  0.00     0.008 C 
ATOM     19  C   UNL     1     170.508 148.690 145.939  1.00  0.00     0.012 C 
ATOM     20  C   UNL     1     169.579 151.200 147.889  1.00  0.00    -0.025 C 
ATOM     21  C   UNL     1     167.986 150.649 145.898  1.00  0.00     0.005 C 
ATOM     22  C   UNL     1     168.281 151.614 147.077  1.00  0.00     0.003 C 
ATOM     23  C   UNL     1     169.764 152.072 149.198  1.00  0.00     0.010 C 
ATOM     24  C   UNL     1     170.820 151.593 147.014  1.00  0.00     0.012 C 
ATOM     25  C   UNL     1     166.990 152.141 147.868  1.00  0.00    -0.006 C 
ATOM     26  C   UNL     1     168.841 153.289 149.259  1.00  0.00     0.033 C 
ATOM     27  C   UNL     1     167.371 152.866 149.221  1.00  0.00     0.120 C 
ATOM     28  C   UNL     1     166.272 153.201 146.981  1.00  0.00     0.014 C 
ATOM     29  C   UNL     1     165.933 151.030 148.125  1.00  0.00     0.014 C 
ENDROOT
BRANCH   1  30
ATOM     30  C   UNL     1     165.096 146.356 147.373  1.00  0.00     0.048 C 
ATOM     31  O   UNL     1     164.004 145.856 146.993  1.00  0.00    -0.550 OA
ATOM     32  O   UNL     1     165.146 147.723 147.627  1.00  0.00    -0.550 OA
ENDBRANCH   1  30
BRANCH  27  33
ATOM     33  O   UNL     1     167.105 152.074 150.354  1.00  0.00    -0.393 OA
ATOM     34  H   UNL     1     166.175 151.740 150.280  1.00  0.00     0.210 HD
ENDBRANCH  27  33
TORSDOF 2
ENDMDL
MODEL 3
REMARK VINA RESULT:    -7.090      2.188      4.267
REMARK INTER + INTRA:          -7.534
REMARK INTER:                  -7.588
REMARK INTRA:                   0.054
REMARK UNBOUND:                 0.178
REMARK SMILES C[C@H]1[C@@H](C)CC[C@]2(C(=O)[O-])CC[C@]3(C)C(=CC[C@@H]4[C@]5(C)CC[C@H](O)C(C)(C)[C@@H]5CC[C@@]43C)[C@@H]12
REMARK SMILES IDX 7 1 6 2 11 3 33 4 5 5 12 6 15 7 2 8 3 9 13 10 16 11 1 12
REMARK SMILES IDX 4 13 14 14 31 15 17 16 18 17 30 18 32 19 19 20 29 21 28 22
REMARK SMILES IDX 21 23 20 24 25 25 22 26 23 27 26 28 27 29 8 30 9 31 10 32
REMARK SMILES IDX 24 33
REMARK H PARENT 24 34
REMARK Flexibility Score: inf
ROOT
ATOM      1  C   UNL     1     167.264 143.973 149.062  1.00  0.00     0.017 C 
ATOM      2  C   UNL     1     166.796 142.494 149.242  1.00  0.00     0.014 C 
ATOM      3  C   UNL     1     166.413 144.913 149.982  1.00  0.00     0.014 C 
ATOM      4  C   UNL     1     167.059 144.330 147.557  1.00  0.00     0.030 C 
ATOM      5  C   UNL     1     167.521 141.515 148.295  1.00  0.00     0.004 C 
ATOM      6  C   UNL     1     165.340 145.756 149.255  1.00  0.00     0.013 C 
ATOM      7  C   UNL     1     166.977 145.841 147.324  1.00  0.00    -0.063 C 
ATOM      8  C   UNL     1     167.859 143.406 146.575  1.00  0.00    -0.003 C 
ATOM      9  C   UNL     1     167.396 141.933 146.809  1.00  0.00    -0.011 C 
ATOM     10  C   UNL     1     165.831 146.596 148.000  1.00  0.00    -0.006 C 
ATOM     11  C   UNL     1     167.732 146.465 146.410  1.00  0.00    -0.027 C 
ATOM     12  C   UNL     1     169.403 143.538 146.618  1.00  0.00     0.008 C 
ATOM     13  C   UNL     1     168.116 140.926 145.898  1.00  0.00     0.008 C 
ATOM     14  C   UNL     1     164.656 146.595 146.971  1.00  0.00     0.017 C 
ATOM     15  C   UNL     1     166.255 148.111 148.351  1.00  0.00    -0.020 C 
ATOM     16  C   UNL     1     167.653 147.923 146.108  1.00  0.00     0.032 C 
ATOM     17  C   UNL     1     166.833 148.857 147.062  1.00  0.00     0.006 C 
ATOM     18  C   UNL     1     167.350 148.104 149.455  1.00  0.00     0.008 C 
ATOM     19  C   UNL     1     164.984 148.875 148.886  1.00  0.00     0.012 C 
ATOM     20  C   UNL     1     167.551 150.272 147.328  1.00  0.00    -0.025 C 
ATOM     21  C   UNL     1     167.998 149.459 149.766  1.00  0.00     0.005 C 
ATOM     22  C   UNL     1     168.578 150.207 148.536  1.00  0.00     0.003 C 
ATOM     23  C   UNL     1     168.214 150.864 146.017  1.00  0.00     0.010 C 
ATOM     24  C   UNL     1     166.465 151.341 147.699  1.00  0.00     0.012 C 
ATOM     25  C   UNL     1     170.129 149.933 148.239  1.00  0.00    -0.006 C 
ATOM     26  C   UNL     1     169.584 151.499 146.256  1.00  0.00     0.033 C 
ATOM     27  C   UNL     1     170.572 150.477 146.821  1.00  0.00     0.120 C 
ATOM     28  C   UNL     1     170.973 150.707 149.296  1.00  0.00     0.014 C 
ATOM     29  C   UNL     1     170.531 148.440 148.400  1.00  0.00     0.014 C 
ENDROOT
BRANCH   1  30
ATOM     30  C   UNL     1     168.713 144.131 149.513  1.00  0.00     0.048 C 
ATOM     31  O   UNL     1     169.316 143.189 150.089  1.00  0.00    -0.550 OA
ATOM     32  O   UNL     1     169.342 145.369 149.432  1.00  0.00    -0.550 OA
ENDBRANCH   1  30
BRANCH  27  33
ATOM     33  O   UNL     1     170.741 149.449 145.875  1.00  0.00    -0.393 OA
ATOM     34  H   UNL     1     171.432 148.828 146.221  1.00  0.00     0.210 HD
ENDBRANCH  27  33
TORSDOF 2
ENDMDL
MODEL 4
REMARK VINA RESULT:    -6.847      2.165      7.109
REMARK INTER + INTRA:          -7.270
REMARK INTER:                  -7.509
REMARK INTRA:                   0.239
REMARK UNBOUND:                 0.178
REMARK SMILES C[C@H]1[C@@H](C)CC[C@]2(C(=O)[O-])CC[C@]3(C)C(=CC[C@@H]4[C@]5(C)CC[C@H](O)C(C)(C)[C@@H]5CC[C@@]43C)[C@@H]12
REMARK SMILES IDX 7 1 6 2 11 3 33 4 5 5 12 6 15 7 2 8 3 9 13 10 16 11 1 12
REMARK SMILES IDX 4 13 14 14 31 15 17 16 18 17 30 18 32 19 19 20 29 21 28 22
REMARK SMILES IDX 21 23 20 24 25 25 22 26 23 27 26 28 27 29 8 30 9 31 10 32
REMARK SMILES IDX 24 33
REMARK H PARENT 24 34
REMARK Flexibility Score: inf
ROOT
ATOM      1  C   UNL     1     168.414 149.734 146.779  1.00  0.00     0.017 C 
ATOM      2  C   UNL     1     168.683 151.253 146.532  1.00  0.00     0.014 C 
ATOM      3  C   UNL     1     167.135 149.288 145.991  1.00  0.00     0.014 C 
ATOM      4  C   UNL     1     168.213 149.558 148.316  1.00  0.00     0.030 C 
ATOM      5  C   UNL     1     169.872 151.794 147.353  1.00  0.00     0.004 C 
ATOM      6  C   UNL     1     165.869 149.075 146.852  1.00  0.00     0.013 C 
ATOM      7  C   UNL     1     167.453 148.274 148.659  1.00  0.00    -0.063 C 
ATOM      8  C   UNL     1     169.446 150.016 149.170  1.00  0.00    -0.003 C 
ATOM      9  C   UNL     1     169.711 151.525 148.869  1.00  0.00    -0.011 C 
ATOM     10  C   UNL     1     166.026 148.137 148.123  1.00  0.00    -0.006 C 
ATOM     11  C   UNL     1     167.909 147.391 149.556  1.00  0.00    -0.027 C 
ATOM     12  C   UNL     1     170.733 149.165 149.024  1.00  0.00     0.008 C 
ATOM     13  C   UNL     1     170.905 152.092 149.652  1.00  0.00     0.008 C 
ATOM     14  C   UNL     1     165.097 148.724 149.233  1.00  0.00     0.017 C 
ATOM     15  C   UNL     1     165.651 146.594 147.848  1.00  0.00    -0.020 C 
ATOM     16  C   UNL     1     167.183 146.154 149.964  1.00  0.00     0.032 C 
ATOM     17  C   UNL     1     165.931 145.697 149.141  1.00  0.00     0.006 C 
ATOM     18  C   UNL     1     166.506 146.051 146.669  1.00  0.00     0.008 C 
ATOM     19  C   UNL     1     164.124 146.512 147.463  1.00  0.00     0.012 C 
ATOM     20  C   UNL     1     165.869 144.105 148.921  1.00  0.00    -0.025 C 
ATOM     21  C   UNL     1     166.406 144.542 146.406  1.00  0.00     0.005 C 
ATOM     22  C   UNL     1     166.682 143.642 147.640  1.00  0.00     0.003 C 
ATOM     23  C   UNL     1     166.299 143.304 150.218  1.00  0.00     0.010 C 
ATOM     24  C   UNL     1     164.377 143.671 148.706  1.00  0.00     0.012 C 
ATOM     25  C   UNL     1     168.199 143.153 147.803  1.00  0.00    -0.006 C 
ATOM     26  C   UNL     1     167.177 142.088 149.925  1.00  0.00     0.033 C 
ATOM     27  C   UNL     1     168.470 142.501 149.218  1.00  0.00     0.120 C 
ATOM     28  C   UNL     1     168.472 142.043 146.743  1.00  0.00     0.014 C 
ATOM     29  C   UNL     1     169.239 144.270 147.510  1.00  0.00     0.014 C 
ENDROOT
BRANCH   1  30
ATOM     30  C   UNL     1     169.566 148.895 146.235  1.00  0.00     0.048 C 
ATOM     31  O   UNL     1     170.645 149.435 145.875  1.00  0.00    -0.550 OA
ATOM     32  O   UNL     1     169.389 147.537 145.985  1.00  0.00    -0.550 OA
ENDBRANCH   1  30
BRANCH  27  33
ATOM     33  O   UNL     1     169.195 143.351 150.076  1.00  0.00    -0.393 OA
ATOM     34  H   UNL     1     169.481 144.141 149.551  1.00  0.00     0.210 HD
ENDBRANCH  27  33
TORSDOF 2
ENDMDL
MODEL 5
REMARK VINA RESULT:    -6.358      2.620      7.116
REMARK INTER + INTRA:          -6.738
REMARK INTER:                  -6.859
REMARK INTRA:                   0.121
REMARK UNBOUND:                 0.178
REMARK SMILES C[C@H]1[C@@H](C)CC[C@]2(C(=O)[O-])CC[C@]3(C)C(=CC[C@@H]4[C@]5(C)CC[C@H](O)C(C)(C)[C@@H]5CC[C@@]43C)[C@@H]12
REMARK SMILES IDX 7 1 6 2 11 3 33 4 5 5 12 6 15 7 2 8 3 9 13 10 16 11 1 12
REMARK SMILES IDX 4 13 14 14 31 15 17 16 18 17 30 18 32 19 19 20 29 21 28 22
REMARK SMILES IDX 21 23 20 24 25 25 22 26 23 27 26 28 27 29 8 30 9 31 10 32
REMARK SMILES IDX 24 33
REMARK H PARENT 24 34
REMARK Flexibility Score: inf
ROOT
ATOM      1  C   UNL     1     168.364 150.795 146.973  1.00  0.00     0.017 C 
ATOM      2  C   UNL     1     167.992 152.285 146.687  1.00  0.00     0.014 C 
ATOM      3  C   UNL     1     167.711 149.869 145.891  1.00  0.00     0.014 C 
ATOM      4  C   UNL     1     167.818 150.461 148.396  1.00  0.00     0.030 C 
ATOM      5  C   UNL     1     168.517 153.253 147.768  1.00  0.00     0.004 C 
ATOM      6  C   UNL     1     166.479 149.065 146.363  1.00  0.00     0.013 C 
ATOM      7  C   UNL     1     167.641 148.956 148.612  1.00  0.00    -0.063 C 
ATOM      8  C   UNL     1     168.406 151.373 149.528  1.00  0.00    -0.003 C 
ATOM      9  C   UNL     1     168.051 152.855 149.190  1.00  0.00    -0.011 C 
ATOM     10  C   UNL     1     166.653 148.225 147.700  1.00  0.00    -0.006 C 
ATOM     11  C   UNL     1     168.154 148.320 149.674  1.00  0.00    -0.027 C 
ATOM     12  C   UNL     1     169.916 151.196 149.832  1.00  0.00     0.008 C 
ATOM     13  C   UNL     1     168.580 153.851 150.234  1.00  0.00     0.008 C 
ATOM     14  C   UNL     1     165.278 148.271 148.441  1.00  0.00     0.017 C 
ATOM     15  C   UNL     1     167.099 146.696 147.460  1.00  0.00    -0.020 C 
ATOM     16  C   UNL     1     167.966 146.868 149.957  1.00  0.00     0.032 C 
ATOM     17  C   UNL     1     167.352 145.948 148.849  1.00  0.00     0.006 C 
ATOM     18  C   UNL     1     168.411 146.660 146.627  1.00  0.00     0.008 C 
ATOM     19  C   UNL     1     165.957 145.962 146.658  1.00  0.00     0.012 C 
ATOM     20  C   UNL     1     168.069 144.510 148.755  1.00  0.00    -0.025 C 
ATOM     21  C   UNL     1     169.072 145.283 146.475  1.00  0.00     0.005 C 
ATOM     22  C   UNL     1     169.340 144.533 147.807  1.00  0.00     0.003 C 
ATOM     23  C   UNL     1     168.404 143.914 150.184  1.00  0.00     0.010 C 
ATOM     24  C   UNL     1     167.061 143.468 148.156  1.00  0.00     0.012 C 
ATOM     25  C   UNL     1     170.793 144.766 148.442  1.00  0.00    -0.006 C 
ATOM     26  C   UNL     1     169.773 143.238 150.260  1.00  0.00     0.033 C 
ATOM     27  C   UNL     1     170.893 144.225 149.925  1.00  0.00     0.120 C 
ATOM     28  C   UNL     1     171.828 143.957 147.603  1.00  0.00     0.014 C 
ATOM     29  C   UNL     1     171.265 146.245 148.368  1.00  0.00     0.014 C 
ENDROOT
BRANCH   1  30
ATOM     30  C   UNL     1     169.871 150.592 146.858  1.00  0.00     0.048 C 
ATOM     31  O   UNL     1     170.640 151.564 146.638  1.00  0.00    -0.550 OA
ATOM     32  O   UNL     1     170.407 149.307 146.842  1.00  0.00    -0.550 OA
ENDBRANCH   1  30
BRANCH  27  33
ATOM     33  O   UNL     1     170.877 145.259 150.880  1.00  0.00    -0.393 OA
ATOM     34  H   UNL     1     170.295 144.972 151.629  1.00  0.00     0.210 HD
ENDBRANCH  27  33
TORSDOF 2
ENDMDL
