MODEL 1
REMARK VINA RESULT:    -3.336      0.000      0.000
REMARK INTER + INTRA:          -4.675
REMARK INTER:                  -4.312
REMARK INTRA:                  -0.364
REMARK UNBOUND:                -0.364
REMARK SMILES CCO[C@H]1O[C@@H](CO)[C@@H](O)[C@H](O)[C@@H]1O
REMARK SMILES IDX 4 1 13 2 11 3 9 4 6 5 5 6 3 7 2 8 1 9 14 10 12 12 7 14 8 15
REMARK SMILES IDX 10 17
REMARK H PARENT 14 11 12 13 8 16 10 18
REMARK Flexibility Score: inf
ROOT
ATOM      1  C   UNL     1       6.729   3.269   1.547  1.00  0.00     0.281 C 
ATOM      2  C   UNL     1       8.241   2.960   1.586  1.00  0.00     0.202 C 
ATOM      3  C   UNL     1       8.976   4.009   2.424  1.00  0.00     0.179 C 
ATOM      4  C   UNL     1       8.643   5.416   1.907  1.00  0.00     0.177 C 
ATOM      5  C   UNL     1       7.113   5.625   1.730  1.00  0.00     0.178 C 
ATOM      6  O   UNL     1       6.467   4.566   1.030  1.00  0.00    -0.341 OA
ENDROOT
BRANCH   1   7
ATOM      7  O   UNL     1       6.143   3.125   2.832  1.00  0.00    -0.350 OA
BRANCH   7   8
ATOM      8  C   UNL     1       5.163   2.102   2.858  1.00  0.00     0.160 C 
ATOM      9  C   UNL     1       3.892   2.572   2.158  1.00  0.00     0.035 C 
ENDBRANCH   7   8
ENDBRANCH   1   7
BRANCH   2  10
ATOM     10  O   UNL     1       8.760   2.948   0.279  1.00  0.00    -0.385 OA
ATOM     11  H   UNL     1       8.372   2.156  -0.177  1.00  0.00     0.211 HD
ENDBRANCH   2  10
BRANCH   3  12
ATOM     12  O   UNL     1      10.359   3.778   2.346  1.00  0.00    -0.387 OA
ATOM     13  H   UNL     1      10.591   3.733   1.382  1.00  0.00     0.211 HD
ENDBRANCH   3  12
BRANCH   5  14
ATOM     14  C   UNL     1       6.340   6.063   2.998  1.00  0.00     0.191 C 
BRANCH  14  15
ATOM     15  O   UNL     1       6.283   7.457   3.125  1.00  0.00    -0.394 OA
ATOM     16  H   UNL     1       5.979   7.803   2.245  1.00  0.00     0.210 HD
ENDBRANCH  14  15
ENDBRANCH   5  14
BRANCH   4  17
ATOM     17  O   UNL     1       9.181   6.379   2.778  1.00  0.00    -0.387 OA
ATOM     18  H   UNL     1      10.037   6.683   2.375  1.00  0.00     0.211 HD
ENDBRANCH   4  17
TORSDOF 7
ENDMDL
MODEL 2
REMARK VINA RESULT:    -3.270      1.622      3.620
REMARK INTER + INTRA:          -4.590
REMARK INTER:                  -4.375
REMARK INTRA:                  -0.215
REMARK UNBOUND:                -0.364
REMARK SMILES CCO[C@H]1O[C@@H](CO)[C@@H](O)[C@H](O)[C@@H]1O
REMARK SMILES IDX 4 1 13 2 11 3 9 4 6 5 5 6 3 7 2 8 1 9 14 10 12 12 7 14 8 15
REMARK SMILES IDX 10 17
REMARK H PARENT 14 11 12 13 8 16 10 18
REMARK Flexibility Score: inf
ROOT
ATOM      1  C   UNL     1       7.435   4.953   3.003  1.00  0.00     0.281 C 
ATOM      2  C   UNL     1       8.819   5.369   2.463  1.00  0.00     0.202 C 
ATOM      3  C   UNL     1       8.901   5.111   0.957  1.00  0.00     0.179 C 
ATOM      4  C   UNL     1       8.532   3.651   0.657  1.00  0.00     0.177 C 
ATOM      5  C   UNL     1       7.210   3.229   1.357  1.00  0.00     0.178 C 
ATOM      6  O   UNL     1       7.151   3.587   2.735  1.00  0.00    -0.341 OA
ENDROOT
BRANCH   1   7
ATOM      7  O   UNL     1       6.409   5.781   2.477  1.00  0.00    -0.350 OA
BRANCH   7   8
ATOM      8  C   UNL     1       6.511   7.116   2.940  1.00  0.00     0.160 C 
ATOM      9  C   UNL     1       6.494   8.085   1.763  1.00  0.00     0.035 C 
ENDBRANCH   7   8
ENDBRANCH   1   7
BRANCH   2  10
ATOM     10  O   UNL     1       9.828   4.646   3.124  1.00  0.00    -0.385 OA
ATOM     11  H   UNL     1       9.387   3.871   3.562  1.00  0.00     0.211 HD
ENDBRANCH   2  10
BRANCH   3  12
ATOM     12  O   UNL     1      10.205   5.383   0.510  1.00  0.00    -0.387 OA
ATOM     13  H   UNL     1      10.278   5.018  -0.410  1.00  0.00     0.211 HD
ENDBRANCH   3  12
BRANCH   5  14
ATOM     14  C   UNL     1       5.905   3.566   0.595  1.00  0.00     0.191 C 
BRANCH  14  15
ATOM     15  O   UNL     1       4.862   2.690   0.923  1.00  0.00    -0.394 OA
ATOM     16  H   UNL     1       5.287   1.817   1.126  1.00  0.00     0.210 HD
ENDBRANCH  14  15
ENDBRANCH   5  14
BRANCH   4  17
ATOM     17  O   UNL     1       8.444   3.461  -0.733  1.00  0.00    -0.387 OA
ATOM     18  H   UNL     1       8.158   2.520  -0.876  1.00  0.00     0.211 HD
ENDBRANCH   4  17
TORSDOF 7
ENDMDL
MODEL 3
REMARK VINA RESULT:    -2.926      3.066      4.606
REMARK INTER + INTRA:          -4.144
REMARK INTER:                  -3.702
REMARK INTRA:                  -0.442
REMARK UNBOUND:                -0.364
REMARK SMILES CCO[C@H]1O[C@@H](CO)[C@@H](O)[C@H](O)[C@@H]1O
REMARK SMILES IDX 4 1 13 2 11 3 9 4 6 5 5 6 3 7 2 8 1 9 14 10 12 12 7 14 8 15
REMARK SMILES IDX 10 17
REMARK H PARENT 14 11 12 13 8 16 10 18
REMARK Flexibility Score: inf
ROOT
ATOM      1  C   UNL     1       9.035   6.847   1.582  1.00  0.00     0.281 C 
ATOM      2  C   UNL     1       9.235   5.349   1.895  1.00  0.00     0.202 C 
ATOM      3  C   UNL     1      10.543   5.137   2.661  1.00  0.00     0.179 C 
ATOM      4  C   UNL     1      11.709   5.771   1.888  1.00  0.00     0.177 C 
ATOM      5  C   UNL     1      11.394   7.229   1.451  1.00  0.00     0.178 C 
ATOM      6  O   UNL     1      10.118   7.381   0.835  1.00  0.00    -0.341 OA
ENDROOT
BRANCH   1   7
ATOM      7  O   UNL     1       8.838   7.598   2.770  1.00  0.00    -0.350 OA
BRANCH   7   8
ATOM      8  C   UNL     1       7.896   8.640   2.592  1.00  0.00     0.160 C 
ATOM      9  C   UNL     1       6.761   8.176   1.686  1.00  0.00     0.035 C 
ENDBRANCH   7   8
ENDBRANCH   1   7
BRANCH   2  10
ATOM     10  O   UNL     1       9.260   4.609   0.699  1.00  0.00    -0.385 OA
ATOM     11  H   UNL     1       8.360   4.695   0.289  1.00  0.00     0.211 HD
ENDBRANCH   2  10
BRANCH   3  12
ATOM     12  O   UNL     1      10.765   3.760   2.829  1.00  0.00    -0.387 OA
ATOM     13  H   UNL     1      11.747   3.619   2.799  1.00  0.00     0.211 HD
ENDBRANCH   3  12
BRANCH   5  14
ATOM     14  C   UNL     1      11.684   8.326   2.505  1.00  0.00     0.191 C 
BRANCH  14  15
ATOM     15  O   UNL     1      13.046   8.650   2.567  1.00  0.00    -0.394 OA
ATOM     16  H   UNL     1      13.496   7.871   2.986  1.00  0.00     0.210 HD
ENDBRANCH  14  15
ENDBRANCH   5  14
BRANCH   4  17
ATOM     17  O   UNL     1      12.876   5.724   2.669  1.00  0.00    -0.387 OA
ATOM     18  H   UNL     1      12.700   6.270   3.480  1.00  0.00     0.211 HD
ENDBRANCH   4  17
TORSDOF 7
ENDMDL
MODEL 4
REMARK VINA RESULT:    -2.884     10.392     12.457
REMARK INTER + INTRA:          -4.091
REMARK INTER:                  -3.715
REMARK INTRA:                  -0.376
REMARK UNBOUND:                -0.364
REMARK SMILES CCO[C@H]1O[C@@H](CO)[C@@H](O)[C@H](O)[C@@H]1O
REMARK SMILES IDX 4 1 13 2 11 3 9 4 6 5 5 6 3 7 2 8 1 9 14 10 12 12 7 14 8 15
REMARK SMILES IDX 10 17
REMARK H PARENT 14 11 12 13 8 16 10 18
REMARK Flexibility Score: inf
ROOT
ATOM      1  C   UNL     1      17.872   8.247   1.262  1.00  0.00     0.281 C 
ATOM      2  C   UNL     1      18.030   6.926   0.478  1.00  0.00     0.202 C 
ATOM      3  C   UNL     1      19.334   6.229   0.871  1.00  0.00     0.179 C 
ATOM      4  C   UNL     1      20.515   7.196   0.701  1.00  0.00     0.177 C 
ATOM      5  C   UNL     1      20.242   8.572   1.370  1.00  0.00     0.178 C 
ATOM      6  O   UNL     1      18.968   9.124   1.047  1.00  0.00    -0.341 OA
ENDROOT
BRANCH   1   7
ATOM      7  O   UNL     1      17.702   8.002   2.650  1.00  0.00    -0.350 OA
BRANCH   7   8
ATOM      8  C   UNL     1      16.443   8.449   3.119  1.00  0.00     0.160 C 
ATOM      9  C   UNL     1      15.421   7.321   3.042  1.00  0.00     0.035 C 
ENDBRANCH   7   8
ENDBRANCH   1   7
BRANCH   2  10
ATOM     10  O   UNL     1      18.028   7.188  -0.904  1.00  0.00    -0.385 OA
ATOM     11  H   UNL     1      18.618   6.509  -1.326  1.00  0.00     0.211 HD
ENDBRANCH   2  10
BRANCH   3  12
ATOM     12  O   UNL     1      19.515   5.096   0.060  1.00  0.00    -0.387 OA
ATOM     13  H   UNL     1      19.551   5.414  -0.879  1.00  0.00     0.211 HD
ENDBRANCH   3  12
BRANCH   5  14
ATOM     14  C   UNL     1      20.568   8.664   2.881  1.00  0.00     0.191 C 
BRANCH  14  15
ATOM     15  O   UNL     1      21.947   8.715   3.120  1.00  0.00    -0.394 OA
ATOM     16  H   UNL     1      22.075   8.424   4.060  1.00  0.00     0.210 HD
ENDBRANCH  14  15
ENDBRANCH   5  14
BRANCH   4  17
ATOM     17  O   UNL     1      21.683   6.611   1.219  1.00  0.00    -0.387 OA
ATOM     18  H   UNL     1      22.070   7.265   1.860  1.00  0.00     0.211 HD
ENDBRANCH   4  17
TORSDOF 7
ENDMDL
MODEL 5
REMARK VINA RESULT:    -2.873      2.031      4.084
REMARK INTER + INTRA:          -4.076
REMARK INTER:                  -3.615
REMARK INTRA:                  -0.461
REMARK UNBOUND:                -0.364
REMARK SMILES CCO[C@H]1O[C@@H](CO)[C@@H](O)[C@H](O)[C@@H]1O
REMARK SMILES IDX 4 1 13 2 11 3 9 4 6 5 5 6 3 7 2 8 1 9 14 10 12 12 7 14 8 15
REMARK SMILES IDX 10 17
REMARK H PARENT 14 11 12 13 8 16 10 18
REMARK Flexibility Score: inf
ROOT
ATOM      1  C   UNL     1       8.145   5.361   2.311  1.00  0.00     0.281 C 
ATOM      2  C   UNL     1       7.347   6.633   1.955  1.00  0.00     0.202 C 
ATOM      3  C   UNL     1       8.250   7.644   1.244  1.00  0.00     0.179 C 
ATOM      4  C   UNL     1       9.502   7.913   2.092  1.00  0.00     0.177 C 
ATOM      5  C   UNL     1      10.180   6.596   2.564  1.00  0.00     0.178 C 
ATOM      6  O   UNL     1       9.272   5.652   3.124  1.00  0.00    -0.341 OA
ENDROOT
BRANCH   1   7
ATOM      7  O   UNL     1       8.549   4.665   1.141  1.00  0.00    -0.350 OA
BRANCH   7   8
ATOM      8  C   UNL     1       7.718   3.551   0.870  1.00  0.00     0.160 C 
ATOM      9  C   UNL     1       7.364   2.829   2.165  1.00  0.00     0.035 C 
ENDBRANCH   7   8
ENDBRANCH   1   7
BRANCH   2  10
ATOM     10  O   UNL     1       6.819   7.209   3.125  1.00  0.00    -0.385 OA
ATOM     11  H   UNL     1       6.262   7.979   2.840  1.00  0.00     0.211 HD
ENDBRANCH   2  10
BRANCH   3  12
ATOM     12  O   UNL     1       7.538   8.837   1.039  1.00  0.00    -0.387 OA
ATOM     13  H   UNL     1       6.985   8.709   0.226  1.00  0.00     0.211 HD
ENDBRANCH   3  12
BRANCH   5  14
ATOM     14  C   UNL     1      11.170   5.951   1.563  1.00  0.00     0.191 C 
BRANCH  14  15
ATOM     15  O   UNL     1      10.770   6.135   0.233  1.00  0.00    -0.394 OA
ATOM     16  H   UNL     1      10.212   6.956   0.223  1.00  0.00     0.210 HD
ENDBRANCH  14  15
ENDBRANCH   5  14
BRANCH   4  17
ATOM     17  O   UNL     1      10.404   8.707   1.364  1.00  0.00    -0.387 OA
ATOM     18  H   UNL     1      10.894   8.096   0.753  1.00  0.00     0.211 HD
ENDBRANCH   4  17
TORSDOF 7
ENDMDL
MODEL 6
REMARK VINA RESULT:    -2.846      2.820      4.902
REMARK INTER + INTRA:          -4.041
REMARK INTER:                  -3.512
REMARK INTRA:                  -0.529
REMARK UNBOUND:                -0.364
REMARK SMILES CCO[C@H]1O[C@@H](CO)[C@@H](O)[C@H](O)[C@@H]1O
REMARK SMILES IDX 4 1 13 2 11 3 9 4 6 5 5 6 3 7 2 8 1 9 14 10 12 12 7 14 8 15
REMARK SMILES IDX 10 17
REMARK H PARENT 14 11 12 13 8 16 10 18
REMARK Flexibility Score: inf
ROOT
ATOM      1  C   UNL     1       9.906   8.241   1.832  1.00  0.00     0.281 C 
ATOM      2  C   UNL     1      11.272   7.727   1.331  1.00  0.00     0.202 C 
ATOM      3  C   UNL     1      11.255   6.202   1.214  1.00  0.00     0.179 C 
ATOM      4  C   UNL     1      10.809   5.582   2.547  1.00  0.00     0.177 C 
ATOM      5  C   UNL     1       9.514   6.246   3.094  1.00  0.00     0.178 C 
ATOM      6  O   UNL     1       9.551   7.670   3.082  1.00  0.00    -0.341 OA
ENDROOT
BRANCH   1   7
ATOM      7  O   UNL     1       8.886   8.003   0.874  1.00  0.00    -0.350 OA
BRANCH   7   8
ATOM      8  C   UNL     1       8.038   9.125   0.708  1.00  0.00     0.160 C 
ATOM      9  C   UNL     1       6.598   8.753   1.044  1.00  0.00     0.035 C 
ENDBRANCH   7   8
ENDBRANCH   1   7
BRANCH   2  10
ATOM     10  O   UNL     1      12.288   8.124   2.219  1.00  0.00    -0.385 OA
ATOM     11  H   UNL     1      13.006   7.442   2.158  1.00  0.00     0.211 HD
ENDBRANCH   2  10
BRANCH   3  12
ATOM     12  O   UNL     1      12.540   5.748   0.875  1.00  0.00    -0.387 OA
ATOM     13  H   UNL     1      12.728   6.069  -0.045  1.00  0.00     0.211 HD
ENDBRANCH   3  12
BRANCH   5  14
ATOM     14  C   UNL     1       8.182   5.677   2.547  1.00  0.00     0.191 C 
BRANCH  14  15
ATOM     15  O   UNL     1       8.317   5.178   1.245  1.00  0.00    -0.394 OA
ATOM     16  H   UNL     1       7.420   5.254   0.826  1.00  0.00     0.210 HD
ENDBRANCH  14  15
ENDBRANCH   5  14
BRANCH   4  17
ATOM     17  O   UNL     1      10.632   4.197   2.388  1.00  0.00    -0.387 OA
ATOM     18  H   UNL     1      11.471   3.763   2.697  1.00  0.00     0.211 HD
ENDBRANCH   4  17
TORSDOF 7
ENDMDL
MODEL 7
REMARK VINA RESULT:    -2.771      2.088      4.718
REMARK INTER + INTRA:          -3.945
REMARK INTER:                  -3.522
REMARK INTRA:                  -0.424
REMARK UNBOUND:                -0.364
REMARK SMILES CCO[C@H]1O[C@@H](CO)[C@@H](O)[C@H](O)[C@@H]1O
REMARK SMILES IDX 4 1 13 2 11 3 9 4 6 5 5 6 3 7 2 8 1 9 14 10 12 12 7 14 8 15
REMARK SMILES IDX 10 17
REMARK H PARENT 14 11 12 13 8 16 10 18
REMARK Flexibility Score: inf
ROOT
ATOM      1  C   UNL     1      10.188   5.752   1.801  1.00  0.00     0.281 C 
ATOM      2  C   UNL     1       9.561   7.161   1.856  1.00  0.00     0.202 C 
ATOM      3  C   UNL     1       8.236   7.122   2.622  1.00  0.00     0.179 C 
ATOM      4  C   UNL     1       7.314   6.055   2.014  1.00  0.00     0.177 C 
ATOM      5  C   UNL     1       8.041   4.694   1.826  1.00  0.00     0.178 C 
ATOM      6  O   UNL     1       9.316   4.806   1.199  1.00  0.00    -0.341 OA
ENDROOT
BRANCH   1   7
ATOM      7  O   UNL     1      10.575   5.311   3.093  1.00  0.00    -0.350 OA
BRANCH   7   8
ATOM      8  C   UNL     1      11.766   4.544   3.061  1.00  0.00     0.160 C 
ATOM      9  C   UNL     1      12.863   5.303   2.324  1.00  0.00     0.035 C 
ENDBRANCH   7   8
ENDBRANCH   1   7
BRANCH   2  10
ATOM     10  O   UNL     1       9.342   7.638   0.551  1.00  0.00    -0.385 OA
ATOM     11  H   UNL     1       8.467   8.107   0.560  1.00  0.00     0.211 HD
ENDBRANCH   2  10
BRANCH   3  12
ATOM     12  O   UNL     1       7.625   8.385   2.555  1.00  0.00    -0.387 OA
ATOM     13  H   UNL     1       8.304   9.050   2.840  1.00  0.00     0.211 HD
ENDBRANCH   3  12
BRANCH   5  14
ATOM     14  C   UNL     1       8.064   3.765   3.064  1.00  0.00     0.191 C 
BRANCH  14  15
ATOM     15  O   UNL     1       6.933   2.939   3.124  1.00  0.00    -0.394 OA
ATOM     16  H   UNL     1       6.192   3.455   2.714  1.00  0.00     0.210 HD
ENDBRANCH  14  15
ENDBRANCH   5  14
BRANCH   4  17
ATOM     17  O   UNL     1       6.171   5.904   2.817  1.00  0.00    -0.387 OA
ATOM     18  H   UNL     1       6.257   6.555   3.563  1.00  0.00     0.211 HD
ENDBRANCH   4  17
TORSDOF 7
ENDMDL
MODEL 8
REMARK VINA RESULT:    -2.639      2.351      4.750
REMARK INTER + INTRA:          -3.773
REMARK INTER:                  -3.303
REMARK INTRA:                  -0.470
REMARK UNBOUND:                -0.364
REMARK SMILES CCO[C@H]1O[C@@H](CO)[C@@H](O)[C@H](O)[C@@H]1O
REMARK SMILES IDX 4 1 13 2 11 3 9 4 6 5 5 6 3 7 2 8 1 9 14 10 12 12 7 14 8 15
REMARK SMILES IDX 10 17
REMARK H PARENT 14 11 12 13 8 16 10 18
REMARK Flexibility Score: inf
ROOT
ATOM      1  C   UNL     1      10.436   5.514   2.223  1.00  0.00     0.281 C 
ATOM      2  C   UNL     1       9.287   4.524   1.937  1.00  0.00     0.202 C 
ATOM      3  C   UNL     1       8.074   5.269   1.375  1.00  0.00     0.179 C 
ATOM      4  C   UNL     1       7.684   6.418   2.317  1.00  0.00     0.177 C 
ATOM      5  C   UNL     1       8.909   7.292   2.707  1.00  0.00     0.178 C 
ATOM      6  O   UNL     1      10.043   6.537   3.125  1.00  0.00    -0.341 OA
ENDROOT
BRANCH   1   7
ATOM      7  O   UNL     1      10.935   6.082   1.021  1.00  0.00    -0.350 OA
BRANCH   7   8
ATOM      8  C   UNL     1      12.314   6.392   1.111  1.00  0.00     0.160 C 
ATOM      9  C   UNL     1      13.028   5.371   1.989  1.00  0.00     0.035 C 
ENDBRANCH   7   8
ENDBRANCH   1   7
BRANCH   2  10
ATOM     10  O   UNL     1       8.927   3.855   3.120  1.00  0.00    -0.385 OA
ATOM     11  H   UNL     1       9.548   3.087   3.217  1.00  0.00     0.211 HD
ENDBRANCH   2  10
BRANCH   3  12
ATOM     12  O   UNL     1       7.002   4.371   1.237  1.00  0.00    -0.387 OA
ATOM     13  H   UNL     1       6.168   4.900   1.327  1.00  0.00     0.211 HD
ENDBRANCH   3  12
BRANCH   5  14
ATOM     14  C   UNL     1       9.276   8.421   1.713  1.00  0.00     0.191 C 
BRANCH  14  15
ATOM     15  O   UNL     1       8.926   8.097   0.395  1.00  0.00    -0.394 OA
ATOM     16  H   UNL     1       8.794   7.114   0.378  1.00  0.00     0.210 HD
ENDBRANCH  14  15
ENDBRANCH   5  14
BRANCH   4  17
ATOM     17  O   UNL     1       6.682   7.200   1.719  1.00  0.00    -0.387 OA
ATOM     18  H   UNL     1       6.288   7.761   2.438  1.00  0.00     0.211 HD
ENDBRANCH   4  17
TORSDOF 7
ENDMDL
MODEL 9
REMARK VINA RESULT:    -2.546      3.006      5.988
REMARK INTER + INTRA:          -3.654
REMARK INTER:                  -3.205
REMARK INTRA:                  -0.448
REMARK UNBOUND:                -0.364
REMARK SMILES CCO[C@H]1O[C@@H](CO)[C@@H](O)[C@H](O)[C@@H]1O
REMARK SMILES IDX 4 1 13 2 11 3 9 4 6 5 5 6 3 7 2 8 1 9 14 10 12 12 7 14 8 15
REMARK SMILES IDX 10 17
REMARK H PARENT 14 11 12 13 8 16 10 18
REMARK Flexibility Score: inf
ROOT
ATOM      1  C   UNL     1      10.776   7.627   1.326  1.00  0.00     0.281 C 
ATOM      2  C   UNL     1       9.397   8.266   1.594  1.00  0.00     0.202 C 
ATOM      3  C   UNL     1       8.599   7.413   2.583  1.00  0.00     0.179 C 
ATOM      4  C   UNL     1       8.524   5.964   2.079  1.00  0.00     0.177 C 
ATOM      5  C   UNL     1       9.919   5.417   1.667  1.00  0.00     0.178 C 
ATOM      6  O   UNL     1      10.658   6.302   0.828  1.00  0.00    -0.341 OA
ENDROOT
BRANCH   1   7
ATOM      7  O   UNL     1      11.584   7.644   2.493  1.00  0.00    -0.350 OA
BRANCH   7   8
ATOM      8  C   UNL     1      12.763   8.408   2.313  1.00  0.00     0.160 C 
ATOM      9  C   UNL     1      13.925   7.501   1.923  1.00  0.00     0.035 C 
ENDBRANCH   7   8
ENDBRANCH   1   7
BRANCH   2  10
ATOM     10  O   UNL     1       8.683   8.388   0.388  1.00  0.00    -0.385 OA
ATOM     11  H   UNL     1       8.014   7.654   0.374  1.00  0.00     0.211 HD
ENDBRANCH   2  10
BRANCH   3  12
ATOM     12  O   UNL     1       7.307   7.947   2.718  1.00  0.00    -0.387 OA
ATOM     13  H   UNL     1       6.733   7.487   2.051  1.00  0.00     0.211 HD
ENDBRANCH   3  12
BRANCH   5  14
ATOM     14  C   UNL     1      10.777   4.825   2.812  1.00  0.00     0.191 C 
BRANCH  14  15
ATOM     15  O   UNL     1      12.086   4.543   2.398  1.00  0.00    -0.394 OA
ATOM     16  H   UNL     1      12.456   5.396   2.052  1.00  0.00     0.210 HD
ENDBRANCH  14  15
ENDBRANCH   5  14
BRANCH   4  17
ATOM     17  O   UNL     1       7.940   5.151   3.065  1.00  0.00    -0.387 OA
ATOM     18  H   UNL     1       7.015   4.952   2.760  1.00  0.00     0.211 HD
ENDBRANCH   4  17
TORSDOF 7
ENDMDL
