MODEL 1
REMARK VINA RESULT:    -5.959      0.000      0.000
REMARK INTER + INTRA:         -10.245
REMARK INTER:                  -9.095
REMARK INTRA:                  -1.151
REMARK UNBOUND:                -1.151
REMARK SMILES CC(=O)CCC=C(C)CCC=C(C)CCC=C(C)C
REMARK SMILES IDX 10 1 11 2 12 3 13 4 14 5 15 6 16 7 18 8 17 9 19 10 9 11 7 12
REMARK SMILES IDX 6 13 8 14 5 15 4 16 2 17 3 18 1 19
REMARK H PARENT
REMARK Flexibility Score: inf
ROOT
ATOM      1  C   UNL     1      11.466 -16.432  17.269  1.00  0.00     0.032 C 
ENDROOT
BRANCH   1   2
ATOM      2  C   UNL     1      11.799 -17.243  16.042  1.00  0.00    -0.028 C 
ATOM      3  C   UNL     1      12.541 -16.791  15.004  1.00  0.00    -0.077 C 
ATOM      4  C   UNL     1      13.072 -15.377  14.959  1.00  0.00     0.039 C 
BRANCH   3   5
ATOM      5  C   UNL     1      12.830 -17.724  13.846  1.00  0.00     0.034 C 
BRANCH   5   6
ATOM      6  C   UNL     1      11.792 -18.850  13.746  1.00  0.00     0.032 C 
BRANCH   6   7
ATOM      7  C   UNL     1      11.624 -19.332  12.325  1.00  0.00    -0.028 C 
ATOM      8  C   UNL     1      10.730 -19.319  10.017  1.00  0.00     0.039 C 
ATOM      9  C   UNL     1      10.853 -18.724  11.396  1.00  0.00    -0.080 C 
ATOM     10  C   UNL     1      10.136 -17.425  11.673  1.00  0.00     0.039 C 
ENDBRANCH   6   7
ENDBRANCH   5   6
ENDBRANCH   3   5
ENDBRANCH   1   2
BRANCH   1  11
ATOM     11  C   UNL     1      10.011 -15.953  17.225  1.00  0.00     0.034 C 
BRANCH  11  12
ATOM     12  C   UNL     1       9.946 -14.447  17.098  1.00  0.00    -0.077 C 
ATOM     13  C   UNL     1      10.074 -13.688  18.211  1.00  0.00    -0.028 C 
ATOM     14  C   UNL     1       9.762 -13.832  15.730  1.00  0.00     0.039 C 
BRANCH  13  15
ATOM     15  C   UNL     1       9.987 -12.182  18.232  1.00  0.00     0.035 C 
BRANCH  15  16
ATOM     16  C   UNL     1      11.386 -11.559  18.269  1.00  0.00     0.079 C 
BRANCH  16  17
ATOM     17  C   UNL     1      11.367 -10.255  19.023  1.00  0.00     0.130 C 
ATOM     18  O   UNL     1      11.956 -10.170  20.090  1.00  0.00    -0.300 OA
ATOM     19  C   UNL     1      10.648  -9.052  18.487  1.00  0.00     0.087 C 
ENDBRANCH  16  17
ENDBRANCH  15  16
ENDBRANCH  13  15
ENDBRANCH  11  12
ENDBRANCH   1  11
TORSDOF 9
ENDMDL
MODEL 2
REMARK VINA RESULT:    -5.871      3.185      8.584
REMARK INTER + INTRA:         -10.110
REMARK INTER:                  -9.029
REMARK INTRA:                  -1.081
REMARK UNBOUND:                -1.151
REMARK SMILES CC(=O)CCC=C(C)CCC=C(C)CCC=C(C)C
REMARK SMILES IDX 10 1 11 2 12 3 13 4 14 5 15 6 16 7 18 8 17 9 19 10 9 11 7 12
REMARK SMILES IDX 6 13 8 14 5 15 4 16 2 17 3 18 1 19
REMARK H PARENT
REMARK Flexibility Score: inf
ROOT
ATOM      1  C   UNL     1      10.510 -16.530  16.758  1.00  0.00     0.032 C 
ENDROOT
BRANCH   1   2
ATOM      2  C   UNL     1      10.439 -15.345  17.688  1.00  0.00    -0.028 C 
ATOM      3  C   UNL     1      10.263 -14.065  17.285  1.00  0.00    -0.077 C 
ATOM      4  C   UNL     1      10.170 -13.695  15.823  1.00  0.00     0.039 C 
BRANCH   3   5
ATOM      5  C   UNL     1      10.177 -12.971  18.329  1.00  0.00     0.034 C 
BRANCH   5   6
ATOM      6  C   UNL     1       9.949 -11.592  17.694  1.00  0.00     0.032 C 
BRANCH   6   7
ATOM      7  C   UNL     1      10.168 -10.475  18.686  1.00  0.00    -0.028 C 
ATOM      8  C   UNL     1      11.478  -8.890  20.063  1.00  0.00     0.039 C 
ATOM      9  C   UNL     1      11.379  -9.983  19.031  1.00  0.00    -0.080 C 
ATOM     10  C   UNL     1      12.654 -10.457  18.377  1.00  0.00     0.039 C 
ENDBRANCH   6   7
ENDBRANCH   5   6
ENDBRANCH   3   5
ENDBRANCH   1   2
BRANCH   1  11
ATOM     11  C   UNL     1      11.950 -17.038  16.632  1.00  0.00     0.034 C 
BRANCH  11  12
ATOM     12  C   UNL     1      12.343 -17.180  15.178  1.00  0.00    -0.077 C 
ATOM     13  C   UNL     1      12.126 -18.360  14.552  1.00  0.00    -0.028 C 
ATOM     14  C   UNL     1      12.947 -15.996  14.461  1.00  0.00     0.039 C 
BRANCH  13  15
ATOM     15  C   UNL     1      12.507 -18.649  13.122  1.00  0.00     0.035 C 
BRANCH  15  16
ATOM     16  C   UNL     1      11.429 -19.493  12.433  1.00  0.00     0.079 C 
BRANCH  16  17
ATOM     17  C   UNL     1      10.710 -18.685  11.385  1.00  0.00     0.130 C 
ATOM     18  O   UNL     1      10.567 -19.149  10.263  1.00  0.00    -0.300 OA
ATOM     19  C   UNL     1      10.156 -17.324  11.689  1.00  0.00     0.087 C 
ENDBRANCH  16  17
ENDBRANCH  15  16
ENDBRANCH  13  15
ENDBRANCH  11  12
ENDBRANCH   1  11
TORSDOF 9
ENDMDL
MODEL 3
REMARK VINA RESULT:    -5.787      1.687      3.412
REMARK INTER + INTRA:          -9.983
REMARK INTER:                  -8.407
REMARK INTRA:                  -1.576
REMARK UNBOUND:                -1.151
REMARK SMILES CC(=O)CCC=C(C)CCC=C(C)CCC=C(C)C
REMARK SMILES IDX 10 1 11 2 12 3 13 4 14 5 15 6 16 7 18 8 17 9 19 10 9 11 7 12
REMARK SMILES IDX 6 13 8 14 5 15 4 16 2 17 3 18 1 19
REMARK H PARENT
REMARK Flexibility Score: inf
ROOT
ATOM      1  C   UNL     1      13.123 -18.247  15.128  1.00  0.00     0.032 C 
ENDROOT
BRANCH   1   2
ATOM      2  C   UNL     1      11.991 -18.298  14.133  1.00  0.00    -0.028 C 
ATOM      3  C   UNL     1      11.965 -19.100  13.043  1.00  0.00    -0.077 C 
ATOM      4  C   UNL     1      13.124 -20.003  12.689  1.00  0.00     0.039 C 
BRANCH   3   5
ATOM      5  C   UNL     1      10.748 -19.077  12.141  1.00  0.00     0.034 C 
BRANCH   5   6
ATOM      6  C   UNL     1      10.815 -17.933  11.120  1.00  0.00     0.032 C 
BRANCH   6   7
ATOM      7  C   UNL     1      10.162 -16.676  11.644  1.00  0.00    -0.028 C 
ATOM      8  C   UNL     1      10.074 -14.366  12.529  1.00  0.00     0.039 C 
ATOM      9  C   UNL     1      10.829 -15.549  11.980  1.00  0.00    -0.080 C 
ATOM     10  C   UNL     1      12.318 -15.406  11.777  1.00  0.00     0.039 C 
ENDBRANCH   6   7
ENDBRANCH   5   6
ENDBRANCH   3   5
ENDBRANCH   1   2
BRANCH   1  11
ATOM     11  C   UNL     1      12.627 -17.747  16.490  1.00  0.00     0.034 C 
BRANCH  11  12
ATOM     12  C   UNL     1      11.805 -16.487  16.332  1.00  0.00    -0.077 C 
ATOM     13  C   UNL     1      10.636 -16.378  17.004  1.00  0.00    -0.028 C 
ATOM     14  C   UNL     1      12.321 -15.378  15.445  1.00  0.00     0.039 C 
BRANCH  13  15
ATOM     15  C   UNL     1       9.701 -15.199  16.904  1.00  0.00     0.035 C 
BRANCH  15  16
ATOM     16  C   UNL     1       9.931 -14.225  18.065  1.00  0.00     0.079 C 
BRANCH  16  17
ATOM     17  C   UNL     1      10.448 -12.905  17.557  1.00  0.00     0.130 C 
ATOM     18  O   UNL     1      11.285 -12.297  18.208  1.00  0.00    -0.300 OA
ATOM     19  C   UNL     1       9.965 -12.321  16.262  1.00  0.00     0.087 C 
ENDBRANCH  16  17
ENDBRANCH  15  16
ENDBRANCH  13  15
ENDBRANCH  11  12
ENDBRANCH   1  11
TORSDOF 9
ENDMDL
MODEL 4
REMARK VINA RESULT:    -5.778      1.416      2.113
REMARK INTER + INTRA:          -9.969
REMARK INTER:                  -8.721
REMARK INTRA:                  -1.248
REMARK UNBOUND:                -1.151
REMARK SMILES CC(=O)CCC=C(C)CCC=C(C)CCC=C(C)C
REMARK SMILES IDX 10 1 11 2 12 3 13 4 14 5 15 6 16 7 18 8 17 9 19 10 9 11 7 12
REMARK SMILES IDX 6 13 8 14 5 15 4 16 2 17 3 18 1 19
REMARK H PARENT
REMARK Flexibility Score: inf
ROOT
ATOM      1  C   UNL     1      11.991 -15.728  15.749  1.00  0.00     0.032 C 
ENDROOT
BRANCH   1   2
ATOM      2  C   UNL     1      11.726 -16.168  14.331  1.00  0.00    -0.028 C 
ATOM      3  C   UNL     1      11.061 -15.431  13.412  1.00  0.00    -0.077 C 
ATOM      4  C   UNL     1      10.462 -14.085  13.750  1.00  0.00     0.039 C 
BRANCH   3   5
ATOM      5  C   UNL     1      10.894 -15.979  12.010  1.00  0.00     0.034 C 
BRANCH   5   6
ATOM      6  C   UNL     1      10.238 -17.367  12.013  1.00  0.00     0.032 C 
BRANCH   6   7
ATOM      7  C   UNL     1      10.864 -18.285  10.991  1.00  0.00    -0.028 C 
ATOM      8  C   UNL     1      12.377 -20.059  10.161  1.00  0.00     0.039 C 
ATOM      9  C   UNL     1      11.794 -19.225  11.272  1.00  0.00    -0.080 C 
ATOM     10  C   UNL     1      12.244 -19.511  12.685  1.00  0.00     0.039 C 
ENDBRANCH   6   7
ENDBRANCH   5   6
ENDBRANCH   3   5
ENDBRANCH   1   2
BRANCH   1  11
ATOM     11  C   UNL     1      10.886 -16.226  16.688  1.00  0.00     0.034 C 
BRANCH  11  12
ATOM     12  C   UNL     1      10.294 -15.077  17.475  1.00  0.00    -0.077 C 
ATOM     13  C   UNL     1      10.809 -13.836  17.313  1.00  0.00    -0.028 C 
ATOM     14  C   UNL     1       9.131 -15.343  18.402  1.00  0.00     0.039 C 
BRANCH  13  15
ATOM     15  C   UNL     1      10.342 -12.614  18.064  1.00  0.00     0.035 C 
BRANCH  15  16
ATOM     16  C   UNL     1      11.208 -11.400  17.714  1.00  0.00     0.079 C 
BRANCH  16  17
ATOM     17  C   UNL     1      10.809 -10.206  18.541  1.00  0.00     0.130 C 
ATOM     18  O   UNL     1       9.820  -9.561  18.226  1.00  0.00    -0.300 OA
ATOM     19  C   UNL     1      11.594  -9.795  19.751  1.00  0.00     0.087 C 
ENDBRANCH  16  17
ENDBRANCH  15  16
ENDBRANCH  13  15
ENDBRANCH  11  12
ENDBRANCH   1  11
TORSDOF 9
ENDMDL
MODEL 5
REMARK VINA RESULT:    -5.712      1.222      2.141
REMARK INTER + INTRA:          -9.868
REMARK INTER:                  -8.399
REMARK INTRA:                  -1.469
REMARK UNBOUND:                -1.151
REMARK SMILES CC(=O)CCC=C(C)CCC=C(C)CCC=C(C)C
REMARK SMILES IDX 10 1 11 2 12 3 13 4 14 5 15 6 16 7 18 8 17 9 19 10 9 11 7 12
REMARK SMILES IDX 6 13 8 14 5 15 4 16 2 17 3 18 1 19
REMARK H PARENT
REMARK Flexibility Score: inf
ROOT
ATOM      1  C   UNL     1       9.389 -14.934  17.586  1.00  0.00     0.032 C 
ENDROOT
BRANCH   1   2
ATOM      2  C   UNL     1      10.503 -15.946  17.486  1.00  0.00    -0.028 C 
ATOM      3  C   UNL     1      11.267 -16.137  16.386  1.00  0.00    -0.077 C 
ATOM      4  C   UNL     1      11.031 -15.368  15.107  1.00  0.00     0.039 C 
BRANCH   3   5
ATOM      5  C   UNL     1      12.378 -17.167  16.432  1.00  0.00     0.034 C 
BRANCH   5   6
ATOM      6  C   UNL     1      13.116 -17.271  15.090  1.00  0.00     0.032 C 
BRANCH   6   7
ATOM      7  C   UNL     1      12.661 -18.467  14.290  1.00  0.00    -0.028 C 
ATOM      8  C   UNL     1      11.768 -19.673  12.321  1.00  0.00     0.039 C 
ATOM      9  C   UNL     1      12.237 -18.416  13.008  1.00  0.00    -0.080 C 
ATOM     10  C   UNL     1      12.260 -17.137  12.205  1.00  0.00     0.039 C 
ENDBRANCH   6   7
ENDBRANCH   5   6
ENDBRANCH   3   5
ENDBRANCH   1   2
BRANCH   1  11
ATOM     11  C   UNL     1       9.818 -13.737  18.441  1.00  0.00     0.034 C 
BRANCH  11  12
ATOM     12  C   UNL     1      10.442 -12.660  17.580  1.00  0.00    -0.077 C 
ATOM     13  C   UNL     1      11.664 -12.183  17.910  1.00  0.00    -0.028 C 
ATOM     14  C   UNL     1       9.694 -12.164  16.365  1.00  0.00     0.039 C 
BRANCH  13  15
ATOM     15  C   UNL     1      12.381 -11.084  17.166  1.00  0.00     0.035 C 
BRANCH  15  16
ATOM     16  C   UNL     1      12.765  -9.946  18.117  1.00  0.00     0.079 C 
BRANCH  16  17
ATOM     17  C   UNL     1      11.579  -9.517  18.941  1.00  0.00     0.130 C 
ATOM     18  O   UNL     1      11.596  -9.688  20.151  1.00  0.00    -0.300 OA
ATOM     19  C   UNL     1      10.379  -8.876  18.310  1.00  0.00     0.087 C 
ENDBRANCH  16  17
ENDBRANCH  15  16
ENDBRANCH  13  15
ENDBRANCH  11  12
ENDBRANCH   1  11
TORSDOF 9
ENDMDL
MODEL 6
REMARK VINA RESULT:    -5.567      3.358      7.470
REMARK INTER + INTRA:          -9.647
REMARK INTER:                  -8.451
REMARK INTRA:                  -1.196
REMARK UNBOUND:                -1.151
REMARK SMILES CC(=O)CCC=C(C)CCC=C(C)CCC=C(C)C
REMARK SMILES IDX 10 1 11 2 12 3 13 4 14 5 15 6 16 7 18 8 17 9 19 10 9 11 7 12
REMARK SMILES IDX 6 13 8 14 5 15 4 16 2 17 3 18 1 19
REMARK H PARENT
REMARK Flexibility Score: inf
ROOT
ATOM      1  C   UNL     1      12.617 -17.339  14.325  1.00  0.00     0.032 C 
ENDROOT
BRANCH   1   2
ATOM      2  C   UNL     1      12.062 -17.061  15.699  1.00  0.00    -0.028 C 
ATOM      3  C   UNL     1      11.160 -16.091  15.978  1.00  0.00    -0.077 C 
ATOM      4  C   UNL     1      10.655 -15.141  14.917  1.00  0.00     0.039 C 
BRANCH   3   5
ATOM      5  C   UNL     1      10.659 -15.940  17.400  1.00  0.00     0.034 C 
BRANCH   5   6
ATOM      6  C   UNL     1       9.625 -14.813  17.525  1.00  0.00     0.032 C 
BRANCH   6   7
ATOM      7  C   UNL     1      10.171 -13.634  18.295  1.00  0.00    -0.028 C 
ATOM      8  C   UNL     1      10.903 -11.296  18.644  1.00  0.00     0.039 C 
ATOM      9  C   UNL     1      10.309 -12.387  17.792  1.00  0.00    -0.080 C 
ATOM     10  C   UNL     1       9.838 -12.025  16.403  1.00  0.00     0.039 C 
ENDBRANCH   6   7
ENDBRANCH   5   6
ENDBRANCH   3   5
ENDBRANCH   1   2
BRANCH   1  11
ATOM     11  C   UNL     1      11.839 -18.470  13.643  1.00  0.00     0.034 C 
BRANCH  11  12
ATOM     12  C   UNL     1      11.257 -18.002  12.327  1.00  0.00    -0.077 C 
ATOM     13  C   UNL     1      11.308 -16.685  12.018  1.00  0.00    -0.028 C 
ATOM     14  C   UNL     1      10.655 -19.019  11.386  1.00  0.00     0.039 C 
BRANCH  13  15
ATOM     15  C   UNL     1      10.730 -16.081  10.763  1.00  0.00     0.035 C 
BRANCH  15  16
ATOM     16  C   UNL     1       9.830 -14.888  11.101  1.00  0.00     0.079 C 
BRANCH  16  17
ATOM     17  C   UNL     1       9.388 -14.182   9.845  1.00  0.00     0.130 C 
ATOM     18  O   UNL     1       9.916 -14.465   8.780  1.00  0.00    -0.300 OA
ATOM     19  C   UNL     1       8.305 -13.145   9.871  1.00  0.00     0.087 C 
ENDBRANCH  16  17
ENDBRANCH  15  16
ENDBRANCH  13  15
ENDBRANCH  11  12
ENDBRANCH   1  11
TORSDOF 9
ENDMDL
MODEL 7
REMARK VINA RESULT:    -5.451      1.658      3.098
REMARK INTER + INTRA:          -9.469
REMARK INTER:                  -8.044
REMARK INTRA:                  -1.425
REMARK UNBOUND:                -1.151
REMARK SMILES CC(=O)CCC=C(C)CCC=C(C)CCC=C(C)C
REMARK SMILES IDX 10 1 11 2 12 3 13 4 14 5 15 6 16 7 18 8 17 9 19 10 9 11 7 12
REMARK SMILES IDX 6 13 8 14 5 15 4 16 2 17 3 18 1 19
REMARK H PARENT
REMARK Flexibility Score: inf
ROOT
ATOM      1  C   UNL     1      10.375 -13.380  15.585  1.00  0.00     0.032 C 
ENDROOT
BRANCH   1   2
ATOM      2  C   UNL     1      11.073 -14.707  15.746  1.00  0.00    -0.028 C 
ATOM      3  C   UNL     1      10.812 -15.594  16.734  1.00  0.00    -0.077 C 
ATOM      4  C   UNL     1       9.806 -15.302  17.824  1.00  0.00     0.039 C 
BRANCH   3   5
ATOM      5  C   UNL     1      11.564 -16.908  16.761  1.00  0.00     0.034 C 
BRANCH   5   6
ATOM      6  C   UNL     1      12.564 -17.019  15.601  1.00  0.00     0.032 C 
BRANCH   6   7
ATOM      7  C   UNL     1      12.284 -18.221  14.732  1.00  0.00    -0.028 C 
ATOM      8  C   UNL     1      11.523 -19.430  12.711  1.00  0.00     0.039 C 
ATOM      9  C   UNL     1      11.801 -18.159  13.471  1.00  0.00    -0.080 C 
ATOM     10  C   UNL     1      11.571 -16.845  12.763  1.00  0.00     0.039 C 
ENDBRANCH   6   7
ENDBRANCH   5   6
ENDBRANCH   3   5
ENDBRANCH   1   2
BRANCH   1  11
ATOM     11  C   UNL     1      11.239 -12.406  14.776  1.00  0.00     0.034 C 
BRANCH  11  12
ATOM     12  C   UNL     1      11.695 -11.250  15.639  1.00  0.00    -0.077 C 
ATOM     13  C   UNL     1      12.345 -11.512  16.797  1.00  0.00    -0.028 C 
ATOM     14  C   UNL     1      11.431  -9.837  15.175  1.00  0.00     0.039 C 
BRANCH  13  15
ATOM     15  C   UNL     1      12.815 -10.458  17.768  1.00  0.00     0.035 C 
BRANCH  15  16
ATOM     16  C   UNL     1      11.955 -10.468  19.036  1.00  0.00     0.079 C 
BRANCH  16  17
ATOM     17  C   UNL     1      10.541 -10.056  18.723  1.00  0.00     0.130 C 
ATOM     18  O   UNL     1      10.288  -8.876  18.528  1.00  0.00    -0.300 OA
ATOM     19  C   UNL     1       9.433 -11.064  18.634  1.00  0.00     0.087 C 
ENDBRANCH  16  17
ENDBRANCH  15  16
ENDBRANCH  13  15
ENDBRANCH  11  12
ENDBRANCH   1  11
TORSDOF 9
ENDMDL
MODEL 8
REMARK VINA RESULT:    -5.400      2.796      8.035
REMARK INTER + INTRA:          -9.392
REMARK INTER:                  -7.803
REMARK INTRA:                  -1.589
REMARK UNBOUND:                -1.151
REMARK SMILES CC(=O)CCC=C(C)CCC=C(C)CCC=C(C)C
REMARK SMILES IDX 10 1 11 2 12 3 13 4 14 5 15 6 16 7 18 8 17 9 19 10 9 11 7 12
REMARK SMILES IDX 6 13 8 14 5 15 4 16 2 17 3 18 1 19
REMARK H PARENT
REMARK Flexibility Score: inf
ROOT
ATOM      1  C   UNL     1       9.848 -14.650  16.711  1.00  0.00     0.032 C 
ENDROOT
BRANCH   1   2
ATOM      2  C   UNL     1      10.936 -13.658  17.037  1.00  0.00    -0.028 C 
ATOM      3  C   UNL     1      11.642 -12.965  16.114  1.00  0.00    -0.077 C 
ATOM      4  C   UNL     1      11.433 -13.169  14.631  1.00  0.00     0.039 C 
BRANCH   3   5
ATOM      5  C   UNL     1      12.687 -11.972  16.580  1.00  0.00     0.034 C 
BRANCH   5   6
ATOM      6  C   UNL     1      12.184 -10.525  16.484  1.00  0.00     0.032 C 
BRANCH   6   7
ATOM      7  C   UNL     1      12.230  -9.826  17.821  1.00  0.00    -0.028 C 
ATOM      8  C   UNL     1      11.329  -8.942  19.950  1.00  0.00     0.039 C 
ATOM      9  C   UNL     1      11.174  -9.695  18.655  1.00  0.00    -0.080 C 
ATOM     10  C   UNL     1       9.834 -10.325  18.358  1.00  0.00     0.039 C 
ENDBRANCH   6   7
ENDBRANCH   5   6
ENDBRANCH   3   5
ENDBRANCH   1   2
BRANCH   1  11
ATOM     11  C   UNL     1      10.171 -16.025  17.305  1.00  0.00     0.034 C 
BRANCH  11  12
ATOM     12  C   UNL     1      11.305 -16.682  16.550  1.00  0.00    -0.077 C 
ATOM     13  C   UNL     1      11.226 -16.781  15.202  1.00  0.00    -0.028 C 
ATOM     14  C   UNL     1      12.503 -17.190  17.318  1.00  0.00     0.039 C 
BRANCH  13  15
ATOM     15  C   UNL     1      12.263 -17.448  14.334  1.00  0.00     0.035 C 
BRANCH  15  16
ATOM     16  C   UNL     1      12.176 -16.933  12.893  1.00  0.00     0.079 C 
BRANCH  16  17
ATOM     17  C   UNL     1      10.938 -17.457  12.215  1.00  0.00     0.130 C 
ATOM     18  O   UNL     1      10.052 -16.677  11.896  1.00  0.00    -0.300 OA
ATOM     19  C   UNL     1      10.769 -18.916  11.912  1.00  0.00     0.087 C 
ENDBRANCH  16  17
ENDBRANCH  15  16
ENDBRANCH  13  15
ENDBRANCH  11  12
ENDBRANCH   1  11
TORSDOF 9
ENDMDL
MODEL 9
REMARK VINA RESULT:    -5.390      2.016      2.863
REMARK INTER + INTRA:          -9.376
REMARK INTER:                  -7.775
REMARK INTRA:                  -1.601
REMARK UNBOUND:                -1.151
REMARK SMILES CC(=O)CCC=C(C)CCC=C(C)CCC=C(C)C
REMARK SMILES IDX 10 1 11 2 12 3 13 4 14 5 15 6 16 7 18 8 17 9 19 10 9 11 7 12
REMARK SMILES IDX 6 13 8 14 5 15 4 16 2 17 3 18 1 19
REMARK H PARENT
REMARK Flexibility Score: inf
ROOT
ATOM      1  C   UNL     1       9.854 -14.171  16.668  1.00  0.00     0.032 C 
ENDROOT
BRANCH   1   2
ATOM      2  C   UNL     1      10.331 -15.598  16.569  1.00  0.00    -0.028 C 
ATOM      3  C   UNL     1      11.507 -15.976  16.017  1.00  0.00    -0.077 C 
ATOM      4  C   UNL     1      12.450 -14.978  15.386  1.00  0.00     0.039 C 
BRANCH   3   5
ATOM      5  C   UNL     1      11.879 -17.445  16.012  1.00  0.00     0.034 C 
BRANCH   5   6
ATOM      6  C   UNL     1      12.818 -17.793  14.849  1.00  0.00     0.032 C 
BRANCH   6   7
ATOM      7  C   UNL     1      12.118 -18.607  13.787  1.00  0.00    -0.028 C 
ATOM      8  C   UNL     1      10.872 -18.999  11.685  1.00  0.00     0.039 C 
ATOM      9  C   UNL     1      11.583 -18.093  12.657  1.00  0.00    -0.080 C 
ATOM     10  C   UNL     1      11.712 -16.632  12.299  1.00  0.00     0.039 C 
ENDBRANCH   6   7
ENDBRANCH   5   6
ENDBRANCH   3   5
ENDBRANCH   1   2
BRANCH   1  11
ATOM     11  C   UNL     1      10.135 -13.599  18.062  1.00  0.00     0.034 C 
BRANCH  11  12
ATOM     12  C   UNL     1      10.651 -12.180  17.966  1.00  0.00    -0.077 C 
ATOM     13  C   UNL     1      11.903 -11.968  17.499  1.00  0.00    -0.028 C 
ATOM     14  C   UNL     1       9.748 -11.040  18.373  1.00  0.00     0.039 C 
BRANCH  13  15
ATOM     15  C   UNL     1      12.555 -10.612  17.391  1.00  0.00     0.035 C 
BRANCH  15  16
ATOM     16  C   UNL     1      12.985 -10.330  15.948  1.00  0.00     0.079 C 
BRANCH  16  17
ATOM     17  C   UNL     1      11.794  -9.972  15.098  1.00  0.00     0.130 C 
ATOM     18  O   UNL     1      11.244  -8.893  15.261  1.00  0.00    -0.300 OA
ATOM     19  C   UNL     1      11.273 -10.907  14.047  1.00  0.00     0.087 C 
ENDBRANCH  16  17
ENDBRANCH  15  16
ENDBRANCH  13  15
ENDBRANCH  11  12
ENDBRANCH   1  11
TORSDOF 9
ENDMDL
