MODEL 1
REMARK VINA RESULT:    -4.595      0.000      0.000
REMARK INTER + INTRA:          -4.730
REMARK INTER:                  -4.730
REMARK INTRA:                   0.000
REMARK UNBOUND:                 0.000
REMARK SMILES Nc1ncnc2nc[nH]c12
REMARK SMILES IDX 8 1 7 2 6 3 5 4 4 5 3 6 2 7 10 8 9 9 1 11
REMARK H PARENT 9 10 1 12 1 13
REMARK Flexibility Score: inf
ROOT
ATOM      1  C   UNL     1      -0.026   3.215  -8.567  1.00  0.00     0.199 A 
ATOM      2  N   UNL     1      -0.991   4.161  -8.729  1.00  0.00    -0.217 NA
ATOM      3  C   UNL     1      -2.033   3.622  -8.075  1.00  0.00     0.182 A 
ATOM      4  N   UNL     1      -3.264   4.165  -7.929  1.00  0.00    -0.215 NA
ATOM      5  C   UNL     1      -4.200   3.462  -7.223  1.00  0.00     0.226 A 
ATOM      6  N   UNL     1      -3.891   2.239  -6.682  1.00  0.00    -0.217 NA
ATOM      7  C   UNL     1      -2.649   1.690  -6.828  1.00  0.00     0.152 A 
ATOM      8  C   UNL     1      -1.706   2.419  -7.549  1.00  0.00     0.127 A 
ATOM      9  N   UNL     1      -0.433   2.137  -7.850  1.00  0.00    -0.340 N 
ATOM     10  H   UNL     1       0.127   1.292  -7.598  1.00  0.00     0.168 HD
ENDROOT
BRANCH   7  11
ATOM     11  N   UNL     1      -2.350   0.415  -6.256  1.00  0.00    -0.382 N 
ATOM     12  H   UNL     1      -2.950  -0.001  -5.510  1.00  0.00     0.158 HD
ATOM     13  H   UNL     1      -1.515  -0.120  -6.583  1.00  0.00     0.158 HD
ENDBRANCH   7  11
TORSDOF 1
ENDMDL
MODEL 2
REMARK VINA RESULT:    -4.425      1.093      2.960
REMARK INTER + INTRA:          -4.555
REMARK INTER:                  -4.555
REMARK INTRA:                   0.000
REMARK UNBOUND:                 0.000
REMARK SMILES Nc1ncnc2nc[nH]c12
REMARK SMILES IDX 8 1 7 2 6 3 5 4 4 5 3 6 2 7 10 8 9 9 1 11
REMARK H PARENT 9 10 1 12 1 13
REMARK Flexibility Score: inf
ROOT
ATOM      1  C   UNL     1      -2.956   0.585  -6.391  1.00  0.00     0.199 A 
ATOM      2  N   UNL     1      -3.985   1.475  -6.426  1.00  0.00    -0.217 NA
ATOM      3  C   UNL     1      -3.451   2.502  -7.109  1.00  0.00     0.182 A 
ATOM      4  N   UNL     1      -4.065   3.666  -7.429  1.00  0.00    -0.215 NA
ATOM      5  C   UNL     1      -3.354   4.597  -8.134  1.00  0.00     0.226 A 
ATOM      6  N   UNL     1      -2.056   4.351  -8.502  1.00  0.00    -0.217 NA
ATOM      7  C   UNL     1      -1.435   3.177  -8.181  1.00  0.00     0.152 A 
ATOM      8  C   UNL     1      -2.172   2.238  -7.463  1.00  0.00     0.127 A 
ATOM      9  N   UNL     1      -1.833   1.023  -7.016  1.00  0.00    -0.340 N 
ATOM     10  H   UNL     1      -0.924   0.519  -7.118  1.00  0.00     0.168 HD
ENDROOT
BRANCH   7  11
ATOM     11  N   UNL     1      -0.082   2.941  -8.575  1.00  0.00    -0.382 N 
ATOM     12  H   UNL     1       0.294   1.973  -8.677  1.00  0.00     0.158 HD
ATOM     13  H   UNL     1       0.552   3.747  -8.769  1.00  0.00     0.158 HD
ENDBRANCH   7  11
TORSDOF 1
ENDMDL
MODEL 3
REMARK VINA RESULT:    -4.399      0.921      2.860
REMARK INTER + INTRA:          -4.527
REMARK INTER:                  -4.527
REMARK INTRA:                   0.000
REMARK UNBOUND:                 0.000
REMARK SMILES Nc1ncnc2nc[nH]c12
REMARK SMILES IDX 8 1 7 2 6 3 5 4 4 5 3 6 2 7 10 8 9 9 1 11
REMARK H PARENT 9 10 1 12 1 13
REMARK Flexibility Score: inf
ROOT
ATOM      1  C   UNL     1      -4.659   4.624  -7.531  1.00  0.00     0.199 A 
ATOM      2  N   UNL     1      -3.646   5.095  -8.308  1.00  0.00    -0.217 NA
ATOM      3  C   UNL     1      -2.713   4.137  -8.172  1.00  0.00     0.182 A 
ATOM      4  N   UNL     1      -1.489   4.113  -8.749  1.00  0.00    -0.215 NA
ATOM      5  C   UNL     1      -0.674   3.045  -8.491  1.00  0.00     0.226 A 
ATOM      6  N   UNL     1      -1.095   2.031  -7.668  1.00  0.00    -0.217 NA
ATOM      7  C   UNL     1      -2.330   2.054  -7.085  1.00  0.00     0.152 A 
ATOM      8  C   UNL     1      -3.148   3.147  -7.358  1.00  0.00     0.127 A 
ATOM      9  N   UNL     1      -4.385   3.436  -6.936  1.00  0.00    -0.340 N 
ATOM     10  H   UNL     1      -5.004   2.884  -6.301  1.00  0.00     0.168 HD
ENDROOT
BRANCH   7  11
ATOM     11  N   UNL     1      -2.747   0.986  -6.232  1.00  0.00    -0.382 N 
ATOM     12  H   UNL     1      -2.388   0.898  -5.256  1.00  0.00     0.158 HD
ATOM     13  H   UNL     1      -3.425   0.274  -6.581  1.00  0.00     0.158 HD
ENDBRANCH   7  11
TORSDOF 1
ENDMDL
MODEL 4
REMARK VINA RESULT:    -4.330      0.958      3.731
REMARK INTER + INTRA:          -4.457
REMARK INTER:                  -4.457
REMARK INTRA:                   0.000
REMARK UNBOUND:                 0.000
REMARK SMILES Nc1ncnc2nc[nH]c12
REMARK SMILES IDX 8 1 7 2 6 3 5 4 4 5 3 6 2 7 10 8 9 9 1 11
REMARK H PARENT 9 10 1 12 1 13
REMARK Flexibility Score: inf
ROOT
ATOM      1  C   UNL     1      -4.033   1.519  -5.996  1.00  0.00     0.199 A 
ATOM      2  N   UNL     1      -2.799   1.042  -6.316  1.00  0.00    -0.217 NA
ATOM      3  C   UNL     1      -2.317   2.009  -7.115  1.00  0.00     0.182 A 
ATOM      4  N   UNL     1      -1.104   2.030  -7.716  1.00  0.00    -0.215 NA
ATOM      5  C   UNL     1      -0.790   3.108  -8.497  1.00  0.00     0.226 A 
ATOM      6  N   UNL     1      -1.685   4.134  -8.661  1.00  0.00    -0.217 NA
ATOM      7  C   UNL     1      -2.910   4.114  -8.055  1.00  0.00     0.152 A 
ATOM      8  C   UNL     1      -3.215   3.010  -7.263  1.00  0.00     0.127 A 
ATOM      9  N   UNL     1      -4.317   2.721  -6.560  1.00  0.00    -0.340 N 
ATOM     10  H   UNL     1      -5.193   3.279  -6.460  1.00  0.00     0.168 HD
ENDROOT
BRANCH   7  11
ATOM     11  N   UNL     1      -3.827   5.194  -8.240  1.00  0.00    -0.382 N 
ATOM     12  H   UNL     1      -4.620   5.124  -8.915  1.00  0.00     0.158 HD
ATOM     13  H   UNL     1      -3.711   6.075  -7.694  1.00  0.00     0.158 HD
ENDBRANCH   7  11
TORSDOF 1
ENDMDL
MODEL 5
REMARK VINA RESULT:    -3.984      2.108      3.015
REMARK INTER + INTRA:          -4.101
REMARK INTER:                  -4.101
REMARK INTRA:                   0.000
REMARK UNBOUND:                 0.000
REMARK SMILES Nc1ncnc2nc[nH]c12
REMARK SMILES IDX 8 1 7 2 6 3 5 4 4 5 3 6 2 7 10 8 9 9 1 11
REMARK H PARENT 9 10 1 12 1 13
REMARK Flexibility Score: inf
ROOT
ATOM      1  C   UNL     1      -2.433  -0.119 -10.125  1.00  0.00     0.199 A 
ATOM      2  N   UNL     1      -3.587   0.017  -9.417  1.00  0.00    -0.217 NA
ATOM      3  C   UNL     1      -3.255   0.946  -8.505  1.00  0.00     0.182 A 
ATOM      4  N   UNL     1      -4.057   1.453  -7.539  1.00  0.00    -0.215 NA
ATOM      5  C   UNL     1      -3.537   2.398  -6.699  1.00  0.00     0.226 A 
ATOM      6  N   UNL     1      -2.237   2.815  -6.839  1.00  0.00    -0.217 NA
ATOM      7  C   UNL     1      -1.427   2.305  -7.813  1.00  0.00     0.152 A 
ATOM      8  C   UNL     1      -1.971   1.343  -8.661  1.00  0.00     0.127 A 
ATOM      9  N   UNL     1      -1.426   0.678  -9.686  1.00  0.00    -0.340 N 
ATOM     10  H   UNL     1      -0.456   0.747 -10.069  1.00  0.00     0.168 HD
ENDROOT
BRANCH   7  11
ATOM     11  N   UNL     1      -0.076   2.754  -7.940  1.00  0.00    -0.382 N 
ATOM     12  H   UNL     1       0.497   2.998  -7.103  1.00  0.00     0.158 HD
ATOM     13  H   UNL     1       0.357   2.843  -8.885  1.00  0.00     0.158 HD
ENDBRANCH   7  11
TORSDOF 1
ENDMDL
MODEL 6
REMARK VINA RESULT:    -3.942      1.158      2.775
REMARK INTER + INTRA:          -4.058
REMARK INTER:                  -4.058
REMARK INTRA:                   0.000
REMARK UNBOUND:                 0.000
REMARK SMILES Nc1ncnc2nc[nH]c12
REMARK SMILES IDX 8 1 7 2 6 3 5 4 4 5 3 6 2 7 10 8 9 9 1 11
REMARK H PARENT 9 10 1 12 1 13
REMARK Flexibility Score: inf
ROOT
ATOM      1  C   UNL     1      -3.755   4.839  -8.179  1.00  0.00     0.199 A 
ATOM      2  N   UNL     1      -4.659   4.195  -7.392  1.00  0.00    -0.217 NA
ATOM      3  C   UNL     1      -4.001   3.069  -7.065  1.00  0.00     0.182 A 
ATOM      4  N   UNL     1      -4.460   2.064  -6.282  1.00  0.00    -0.215 NA
ATOM      5  C   UNL     1      -3.640   0.992  -6.061  1.00  0.00     0.226 A 
ATOM      6  N   UNL     1      -2.388   0.946  -6.621  1.00  0.00    -0.217 NA
ATOM      7  C   UNL     1      -1.924   1.960  -7.411  1.00  0.00     0.152 A 
ATOM      8  C   UNL     1      -2.771   3.044  -7.626  1.00  0.00     0.127 A 
ATOM      9  N   UNL     1      -2.590   4.161  -8.342  1.00  0.00    -0.340 N 
ATOM     10  H   UNL     1      -1.756   4.454  -8.897  1.00  0.00     0.168 HD
ENDROOT
BRANCH   7  11
ATOM     11  N   UNL     1      -0.617   1.891  -7.983  1.00  0.00    -0.382 N 
ATOM     12  H   UNL     1       0.057   2.684  -7.900  1.00  0.00     0.158 HD
ATOM     13  H   UNL     1      -0.318   1.034  -8.499  1.00  0.00     0.158 HD
ENDBRANCH   7  11
TORSDOF 1
ENDMDL
MODEL 7
REMARK VINA RESULT:    -3.834      1.141      2.596
REMARK INTER + INTRA:          -3.946
REMARK INTER:                  -3.946
REMARK INTRA:                   0.000
REMARK UNBOUND:                 0.000
REMARK SMILES Nc1ncnc2nc[nH]c12
REMARK SMILES IDX 8 1 7 2 6 3 5 4 4 5 3 6 2 7 10 8 9 9 1 11
REMARK H PARENT 9 10 1 12 1 13
REMARK Flexibility Score: inf
ROOT
ATOM      1  C   UNL     1      -1.115   3.347  -8.452  1.00  0.00     0.199 A 
ATOM      2  N   UNL     1      -0.982   2.087  -7.955  1.00  0.00    -0.217 NA
ATOM      3  C   UNL     1      -2.162   1.897  -7.341  1.00  0.00     0.182 A 
ATOM      4  N   UNL     1      -2.557   0.786  -6.675  1.00  0.00    -0.215 NA
ATOM      5  C   UNL     1      -3.803   0.779  -6.113  1.00  0.00     0.226 A 
ATOM      6  N   UNL     1      -4.624   1.873  -6.226  1.00  0.00    -0.217 NA
ATOM      7  C   UNL     1      -4.228   2.994  -6.898  1.00  0.00     0.152 A 
ATOM      8  C   UNL     1      -2.956   2.985  -7.466  1.00  0.00     0.127 A 
ATOM      9  N   UNL     1      -2.310   3.924  -8.169  1.00  0.00    -0.340 N 
ATOM     10  H   UNL     1      -2.638   4.877  -8.442  1.00  0.00     0.168 HD
ENDROOT
BRANCH   7  11
ATOM     11  N   UNL     1      -5.100   4.121  -7.004  1.00  0.00    -0.382 N 
ATOM     12  H   UNL     1      -6.137   4.014  -6.948  1.00  0.00     0.158 HD
ATOM     13  H   UNL     1      -4.703   5.076  -7.141  1.00  0.00     0.158 HD
ENDBRANCH   7  11
TORSDOF 1
ENDMDL
MODEL 8
REMARK VINA RESULT:    -3.786      1.839      2.571
REMARK INTER + INTRA:          -3.896
REMARK INTER:                  -3.896
REMARK INTRA:                   0.000
REMARK UNBOUND:                 0.000
REMARK SMILES Nc1ncnc2nc[nH]c12
REMARK SMILES IDX 8 1 7 2 6 3 5 4 4 5 3 6 2 7 10 8 9 9 1 11
REMARK H PARENT 9 10 1 12 1 13
REMARK Flexibility Score: inf
ROOT
ATOM      1  C   UNL     1      -1.910   2.182  -7.106  1.00  0.00     0.199 A 
ATOM      2  N   UNL     1      -2.891   3.086  -7.379  1.00  0.00    -0.217 NA
ATOM      3  C   UNL     1      -3.983   2.480  -6.885  1.00  0.00     0.182 A 
ATOM      4  N   UNL     1      -5.249   2.961  -6.896  1.00  0.00    -0.215 NA
ATOM      5  C   UNL     1      -6.235   2.195  -6.340  1.00  0.00     0.226 A 
ATOM      6  N   UNL     1      -5.941   0.974  -5.787  1.00  0.00    -0.217 NA
ATOM      7  C   UNL     1      -4.665   0.487  -5.774  1.00  0.00     0.152 A 
ATOM      8  C   UNL     1      -3.671   1.279  -6.344  1.00  0.00     0.127 A 
ATOM      9  N   UNL     1      -2.356   1.066  -6.475  1.00  0.00    -0.340 N 
ATOM     10  H   UNL     1      -1.794   0.242  -6.166  1.00  0.00     0.168 HD
ENDROOT
BRANCH   7  11
ATOM     11  N   UNL     1      -4.381  -0.787  -5.193  1.00  0.00    -0.382 N 
ATOM     12  H   UNL     1      -4.202  -0.890  -4.170  1.00  0.00     0.158 HD
ATOM     13  H   UNL     1      -4.350  -1.639  -5.795  1.00  0.00     0.158 HD
ENDBRANCH   7  11
TORSDOF 1
ENDMDL
MODEL 9
REMARK VINA RESULT:    -3.777      2.951      4.652
REMARK INTER + INTRA:          -3.888
REMARK INTER:                  -3.888
REMARK INTRA:                   0.000
REMARK UNBOUND:                 0.000
REMARK SMILES Nc1ncnc2nc[nH]c12
REMARK SMILES IDX 8 1 7 2 6 3 5 4 4 5 3 6 2 7 10 8 9 9 1 11
REMARK H PARENT 9 10 1 12 1 13
REMARK Flexibility Score: inf
ROOT
ATOM      1  C   UNL     1      -3.008   1.744  -6.443  1.00  0.00     0.199 A 
ATOM      2  N   UNL     1      -3.090   0.387  -6.374  1.00  0.00    -0.217 NA
ATOM      3  C   UNL     1      -4.319   0.202  -5.861  1.00  0.00     0.182 A 
ATOM      4  N   UNL     1      -4.909  -0.986  -5.587  1.00  0.00    -0.215 NA
ATOM      5  C   UNL     1      -6.173  -0.973  -5.066  1.00  0.00     0.226 A 
ATOM      6  N   UNL     1      -6.817   0.215  -4.831  1.00  0.00    -0.217 NA
ATOM      7  C   UNL     1      -6.224   1.414  -5.108  1.00  0.00     0.152 A 
ATOM      8  C   UNL     1      -4.936   1.384  -5.639  1.00  0.00     0.127 A 
ATOM      9  N   UNL     1      -4.121   2.382  -6.001  1.00  0.00    -0.340 N 
ATOM     10  H   UNL     1      -4.289   3.412  -5.959  1.00  0.00     0.168 HD
ENDROOT
BRANCH   7  11
ATOM     11  N   UNL     1      -6.914   2.639  -4.855  1.00  0.00    -0.382 N 
ATOM     12  H   UNL     1      -6.420   3.472  -4.466  1.00  0.00     0.158 HD
ATOM     13  H   UNL     1      -7.934   2.714  -5.061  1.00  0.00     0.158 HD
ENDBRANCH   7  11
TORSDOF 1
ENDMDL
