MODEL 1
REMARK VINA RESULT:    -3.819      0.000      0.000
REMARK INTER + INTRA:          -5.960
REMARK INTER:                  -5.382
REMARK INTRA:                  -0.578
REMARK UNBOUND:                -0.578
REMARK SMILES C=CCCCCCCC(=O)[O-]
REMARK SMILES IDX 6 1 7 2 8 3 9 4 10 5 11 6 5 7 4 8 3 9 2 10 1 11
REMARK H PARENT
REMARK Flexibility Score: inf
ROOT
ATOM      1  C   UNL     1      36.206  35.206  35.799  1.00  0.00     0.000 C 
ENDROOT
BRANCH   1   2
ATOM      2  C   UNL     1      35.359  35.551  34.562  1.00  0.00     0.006 C 
BRANCH   2   3
ATOM      3  C   UNL     1      36.186  36.241  33.469  1.00  0.00     0.053 C 
BRANCH   3   4
ATOM      4  C   UNL     1      36.320  37.714  33.716  1.00  0.00     0.041 C 
ATOM      5  O   UNL     1      35.431  38.331  34.360  1.00  0.00    -0.550 OA
ATOM      6  O   UNL     1      37.408  38.409  33.208  1.00  0.00    -0.550 OA
ENDBRANCH   3   4
ENDBRANCH   2   3
ENDBRANCH   1   2
BRANCH   1   7
ATOM      7  C   UNL     1      36.574  33.715  35.865  1.00  0.00     0.000 C 
BRANCH   7   8
ATOM      8  C   UNL     1      38.091  33.478  35.893  1.00  0.00     0.004 C 
BRANCH   8   9
ATOM      9  C   UNL     1      38.678  33.526  34.477  1.00  0.00     0.027 C 
BRANCH   9  10
ATOM     10  C   UNL     1      37.909  32.641  33.537  1.00  0.00    -0.035 C 
ATOM     11  C   UNL     1      38.519  31.751  32.749  1.00  0.00     0.004 C 
ENDBRANCH   9  10
ENDBRANCH   8   9
ENDBRANCH   7   8
ENDBRANCH   1   7
TORSDOF 7
ENDMDL
MODEL 2
REMARK VINA RESULT:    -3.773      2.807      4.729
REMARK INTER + INTRA:          -5.895
REMARK INTER:                  -5.222
REMARK INTRA:                  -0.672
REMARK UNBOUND:                -0.578
REMARK SMILES C=CCCCCCCC(=O)[O-]
REMARK SMILES IDX 6 1 7 2 8 3 9 4 10 5 11 6 5 7 4 8 3 9 2 10 1 11
REMARK H PARENT
REMARK Flexibility Score: inf
ROOT
ATOM      1  C   UNL     1      36.957  33.566  35.822  1.00  0.00     0.000 C 
ENDROOT
BRANCH   1   2
ATOM      2  C   UNL     1      38.359  33.533  35.191  1.00  0.00     0.006 C 
BRANCH   2   3
ATOM      3  C   UNL     1      38.315  33.755  33.673  1.00  0.00     0.053 C 
BRANCH   3   4
ATOM      4  C   UNL     1      37.588  32.650  32.968  1.00  0.00     0.041 C 
ATOM      5  O   UNL     1      36.513  32.888  32.357  1.00  0.00    -0.550 OA
ATOM      6  O   UNL     1      38.081  31.353  33.012  1.00  0.00    -0.550 OA
ENDBRANCH   3   4
ENDBRANCH   2   3
ENDBRANCH   1   2
BRANCH   1   7
ATOM      7  C   UNL     1      36.351  34.979  35.844  1.00  0.00     0.000 C 
BRANCH   7   8
ATOM      8  C   UNL     1      35.039  35.075  35.053  1.00  0.00     0.004 C 
BRANCH   8   9
ATOM      9  C   UNL     1      35.177  36.057  33.882  1.00  0.00     0.027 C 
BRANCH   9  10
ATOM     10  C   UNL     1      35.785  37.357  34.330  1.00  0.00    -0.035 C 
ATOM     11  C   UNL     1      36.522  38.110  33.507  1.00  0.00     0.004 C 
ENDBRANCH   9  10
ENDBRANCH   8   9
ENDBRANCH   7   8
ENDBRANCH   1   7
TORSDOF 7
ENDMDL
MODEL 3
REMARK VINA RESULT:    -3.760      0.967      1.270
REMARK INTER + INTRA:          -5.877
REMARK INTER:                  -5.148
REMARK INTRA:                  -0.728
REMARK UNBOUND:                -0.578
REMARK SMILES C=CCCCCCCC(=O)[O-]
REMARK SMILES IDX 6 1 7 2 8 3 9 4 10 5 11 6 5 7 4 8 3 9 2 10 1 11
REMARK H PARENT
REMARK Flexibility Score: inf
ROOT
ATOM      1  C   UNL     1      35.176  34.686  35.638  1.00  0.00     0.000 C 
ENDROOT
BRANCH   1   2
ATOM      2  C   UNL     1      34.999  35.417  34.297  1.00  0.00     0.006 C 
BRANCH   2   3
ATOM      3  C   UNL     1      36.059  36.507  34.088  1.00  0.00     0.053 C 
BRANCH   3   4
ATOM      4  C   UNL     1      35.445  37.869  33.979  1.00  0.00     0.041 C 
ATOM      5  O   UNL     1      35.902  38.827  34.658  1.00  0.00    -0.550 OA
ATOM      6  O   UNL     1      34.348  38.075  33.152  1.00  0.00    -0.550 OA
ENDBRANCH   3   4
ENDBRANCH   2   3
ENDBRANCH   1   2
BRANCH   1   7
ATOM      7  C   UNL     1      36.628  34.717  36.142  1.00  0.00     0.000 C 
BRANCH   7   8
ATOM      8  C   UNL     1      37.383  33.410  35.861  1.00  0.00     0.004 C 
BRANCH   8   9
ATOM      9  C   UNL     1      38.390  33.593  34.719  1.00  0.00     0.027 C 
BRANCH   9  10
ATOM     10  C   UNL     1      38.117  32.636  33.592  1.00  0.00    -0.035 C 
ATOM     11  C   UNL     1      37.228  32.911  32.633  1.00  0.00     0.004 C 
ENDBRANCH   9  10
ENDBRANCH   8   9
ENDBRANCH   7   8
ENDBRANCH   1   7
TORSDOF 7
ENDMDL
MODEL 4
REMARK VINA RESULT:    -3.757      1.151      2.056
REMARK INTER + INTRA:          -5.873
REMARK INTER:                  -5.139
REMARK INTRA:                  -0.734
REMARK UNBOUND:                -0.578
REMARK SMILES C=CCCCCCCC(=O)[O-]
REMARK SMILES IDX 6 1 7 2 8 3 9 4 10 5 11 6 5 7 4 8 3 9 2 10 1 11
REMARK H PARENT
REMARK Flexibility Score: inf
ROOT
ATOM      1  C   UNL     1      36.816  33.474  35.580  1.00  0.00     0.000 C 
ENDROOT
BRANCH   1   2
ATOM      2  C   UNL     1      36.275  34.876  35.908  1.00  0.00     0.006 C 
BRANCH   2   3
ATOM      3  C   UNL     1      35.435  35.455  34.762  1.00  0.00     0.053 C 
BRANCH   3   4
ATOM      4  C   UNL     1      36.062  36.683  34.175  1.00  0.00     0.041 C 
ATOM      5  O   UNL     1      37.177  36.608  33.592  1.00  0.00    -0.550 OA
ATOM      6  O   UNL     1      35.433  37.914  34.299  1.00  0.00    -0.550 OA
ENDBRANCH   3   4
ENDBRANCH   2   3
ENDBRANCH   1   2
BRANCH   1   7
ATOM      7  C   UNL     1      38.309  33.487  35.215  1.00  0.00     0.000 C 
BRANCH   7   8
ATOM      8  C   UNL     1      38.554  33.327  33.708  1.00  0.00     0.004 C 
BRANCH   8   9
ATOM      9  C   UNL     1      38.026  31.976  33.208  1.00  0.00     0.027 C 
BRANCH   9  10
ATOM     10  C   UNL     1      37.177  32.144  31.978  1.00  0.00    -0.035 C 
ATOM     11  C   UNL     1      36.291  33.138  31.864  1.00  0.00     0.004 C 
ENDBRANCH   9  10
ENDBRANCH   8   9
ENDBRANCH   7   8
ENDBRANCH   1   7
TORSDOF 7
ENDMDL
MODEL 5
REMARK VINA RESULT:    -3.610      2.341      4.609
REMARK INTER + INTRA:          -5.665
REMARK INTER:                  -5.128
REMARK INTRA:                  -0.537
REMARK UNBOUND:                -0.578
REMARK SMILES C=CCCCCCCC(=O)[O-]
REMARK SMILES IDX 6 1 7 2 8 3 9 4 10 5 11 6 5 7 4 8 3 9 2 10 1 11
REMARK H PARENT
REMARK Flexibility Score: inf
ROOT
ATOM      1  C   UNL     1      36.132  35.217  35.651  1.00  0.00     0.000 C 
ENDROOT
BRANCH   1   2
ATOM      2  C   UNL     1      36.523  33.783  36.049  1.00  0.00     0.006 C 
BRANCH   2   3
ATOM      3  C   UNL     1      38.004  33.490  35.776  1.00  0.00     0.053 C 
BRANCH   3   4
ATOM      4  C   UNL     1      38.306  33.465  34.308  1.00  0.00     0.041 C 
ATOM      5  O   UNL     1      39.023  34.364  33.793  1.00  0.00    -0.550 OA
ATOM      6  O   UNL     1      37.772  32.467  33.504  1.00  0.00    -0.550 OA
ENDBRANCH   3   4
ENDBRANCH   2   3
ENDBRANCH   1   2
BRANCH   1   7
ATOM      7  C   UNL     1      35.000  35.254  34.612  1.00  0.00     0.000 C 
BRANCH   7   8
ATOM      8  C   UNL     1      35.209  36.337  33.544  1.00  0.00     0.004 C 
BRANCH   8   9
ATOM      9  C   UNL     1      35.582  37.677  34.190  1.00  0.00     0.027 C 
BRANCH   9  10
ATOM     10  C   UNL     1      36.748  38.316  33.487  1.00  0.00    -0.035 C 
ATOM     11  C   UNL     1      37.830  37.615  33.138  1.00  0.00     0.004 C 
ENDBRANCH   9  10
ENDBRANCH   8   9
ENDBRANCH   7   8
ENDBRANCH   1   7
TORSDOF 7
ENDMDL
MODEL 6
REMARK VINA RESULT:    -3.572     10.222     11.369
REMARK INTER + INTRA:          -5.612
REMARK INTER:                  -4.829
REMARK INTRA:                  -0.783
REMARK UNBOUND:                -0.578
REMARK SMILES C=CCCCCCCC(=O)[O-]
REMARK SMILES IDX 6 1 7 2 8 3 9 4 10 5 11 6 5 7 4 8 3 9 2 10 1 11
REMARK H PARENT
REMARK Flexibility Score: inf
ROOT
ATOM      1  C   UNL     1      30.691  26.390  36.238  1.00  0.00     0.000 C 
ENDROOT
BRANCH   1   2
ATOM      2  C   UNL     1      30.628  27.925  36.164  1.00  0.00     0.006 C 
BRANCH   2   3
ATOM      3  C   UNL     1      29.762  28.413  34.995  1.00  0.00     0.053 C 
BRANCH   3   4
ATOM      4  C   UNL     1      29.187  29.772  35.255  1.00  0.00     0.041 C 
ATOM      5  O   UNL     1      29.149  30.631  34.334  1.00  0.00    -0.550 OA
ATOM      6  O   UNL     1      28.722  30.101  36.521  1.00  0.00    -0.550 OA
ENDBRANCH   3   4
ENDBRANCH   2   3
ENDBRANCH   1   2
BRANCH   1   7
ATOM      7  C   UNL     1      29.663  25.803  37.218  1.00  0.00     0.000 C 
BRANCH   7   8
ATOM      8  C   UNL     1      29.259  26.794  38.319  1.00  0.00     0.004 C 
BRANCH   8   9
ATOM      9  C   UNL     1      27.793  27.219  38.162  1.00  0.00     0.027 C 
BRANCH   9  10
ATOM     10  C   UNL     1      27.168  26.583  36.952  1.00  0.00    -0.035 C 
ATOM     11  C   UNL     1      26.380  27.273  36.121  1.00  0.00     0.004 C 
ENDBRANCH   9  10
ENDBRANCH   8   9
ENDBRANCH   7   8
ENDBRANCH   1   7
TORSDOF 7
ENDMDL
MODEL 7
REMARK VINA RESULT:    -3.534      1.210      2.343
REMARK INTER + INTRA:          -5.558
REMARK INTER:                  -4.829
REMARK INTRA:                  -0.729
REMARK UNBOUND:                -0.578
REMARK SMILES C=CCCCCCCC(=O)[O-]
REMARK SMILES IDX 6 1 7 2 8 3 9 4 10 5 11 6 5 7 4 8 3 9 2 10 1 11
REMARK H PARENT
REMARK Flexibility Score: inf
ROOT
ATOM      1  C   UNL     1      35.452  34.986  32.560  1.00  0.00     0.000 C 
ENDROOT
BRANCH   1   2
ATOM      2  C   UNL     1      34.881  35.390  33.930  1.00  0.00     0.006 C 
BRANCH   2   3
ATOM      3  C   UNL     1      35.694  36.513  34.587  1.00  0.00     0.053 C 
BRANCH   3   4
ATOM      4  C   UNL     1      35.587  37.799  33.825  1.00  0.00     0.041 C 
ATOM      5  O   UNL     1      34.468  38.191  33.399  1.00  0.00    -0.550 OA
ATOM      6  O   UNL     1      36.725  38.547  33.559  1.00  0.00    -0.550 OA
ENDBRANCH   3   4
ENDBRANCH   2   3
ENDBRANCH   1   2
BRANCH   1   7
ATOM      7  C   UNL     1      35.965  33.537  32.538  1.00  0.00     0.000 C 
BRANCH   7   8
ATOM      8  C   UNL     1      37.489  33.444  32.709  1.00  0.00     0.004 C 
BRANCH   8   9
ATOM      9  C   UNL     1      37.850  32.659  33.976  1.00  0.00     0.027 C 
BRANCH   9  10
ATOM     10  C   UNL     1      38.050  33.578  35.149  1.00  0.00    -0.035 C 
ATOM     11  C   UNL     1      37.239  33.553  36.210  1.00  0.00     0.004 C 
ENDBRANCH   9  10
ENDBRANCH   8   9
ENDBRANCH   7   8
ENDBRANCH   1   7
TORSDOF 7
ENDMDL
MODEL 8
REMARK VINA RESULT:    -3.420      1.793      3.837
REMARK INTER + INTRA:          -5.397
REMARK INTER:                  -4.594
REMARK INTRA:                  -0.804
REMARK UNBOUND:                -0.578
REMARK SMILES C=CCCCCCCC(=O)[O-]
REMARK SMILES IDX 6 1 7 2 8 3 9 4 10 5 11 6 5 7 4 8 3 9 2 10 1 11
REMARK H PARENT
REMARK Flexibility Score: inf
ROOT
ATOM      1  C   UNL     1      37.316  33.148  34.748  1.00  0.00     0.000 C 
ENDROOT
BRANCH   1   2
ATOM      2  C   UNL     1      38.669  33.515  34.115  1.00  0.00     0.006 C 
BRANCH   2   3
ATOM      3  C   UNL     1      38.518  33.995  32.665  1.00  0.00     0.053 C 
BRANCH   3   4
ATOM      4  C   UNL     1      38.720  35.475  32.544  1.00  0.00     0.041 C 
ATOM      5  O   UNL     1      38.691  36.028  31.412  1.00  0.00    -0.550 OA
ATOM      6  O   UNL     1      38.972  36.239  33.675  1.00  0.00    -0.550 OA
ENDBRANCH   3   4
ENDBRANCH   2   3
ENDBRANCH   1   2
BRANCH   1   7
ATOM      7  C   UNL     1      37.012  33.969  36.011  1.00  0.00     0.000 C 
BRANCH   7   8
ATOM      8  C   UNL     1      36.186  35.229  35.716  1.00  0.00     0.004 C 
BRANCH   8   9
ATOM      9  C   UNL     1      35.369  35.058  34.429  1.00  0.00     0.027 C 
BRANCH   9  10
ATOM     10  C   UNL     1      35.094  36.386  33.777  1.00  0.00    -0.035 C 
ATOM     11  C   UNL     1      35.760  37.491  34.123  1.00  0.00     0.004 C 
ENDBRANCH   9  10
ENDBRANCH   8   9
ENDBRANCH   7   8
ENDBRANCH   1   7
TORSDOF 7
ENDMDL
MODEL 9
REMARK VINA RESULT:    -3.384     11.213     12.258
REMARK INTER + INTRA:          -5.346
REMARK INTER:                  -4.470
REMARK INTRA:                  -0.876
REMARK UNBOUND:                -0.578
REMARK SMILES C=CCCCCCCC(=O)[O-]
REMARK SMILES IDX 6 1 7 2 8 3 9 4 10 5 11 6 5 7 4 8 3 9 2 10 1 11
REMARK H PARENT
REMARK Flexibility Score: inf
ROOT
ATOM      1  C   UNL     1      28.767  28.889  34.704  1.00  0.00     0.000 C 
ENDROOT
BRANCH   1   2
ATOM      2  C   UNL     1      27.358  28.326  34.452  1.00  0.00     0.006 C 
BRANCH   2   3
ATOM      3  C   UNL     1      26.692  27.834  35.744  1.00  0.00     0.053 C 
BRANCH   3   4
ATOM      4  C   UNL     1      26.744  26.341  35.865  1.00  0.00     0.041 C 
ATOM      5  O   UNL     1      27.453  25.666  35.072  1.00  0.00    -0.550 OA
ATOM      6  O   UNL     1      25.986  25.694  36.831  1.00  0.00    -0.550 OA
ENDBRANCH   3   4
ENDBRANCH   2   3
ENDBRANCH   1   2
BRANCH   1   7
ATOM      7  C   UNL     1      28.909  29.526  36.096  1.00  0.00     0.000 C 
BRANCH   7   8
ATOM      8  C   UNL     1      30.085  28.949  36.896  1.00  0.00     0.004 C 
BRANCH   8   9
ATOM      9  C   UNL     1      30.516  27.589  36.332  1.00  0.00     0.027 C 
BRANCH   9  10
ATOM     10  C   UNL     1      30.206  26.476  37.295  1.00  0.00    -0.035 C 
ATOM     11  C   UNL     1      29.424  26.665  38.362  1.00  0.00     0.004 C 
ENDBRANCH   9  10
ENDBRANCH   8   9
ENDBRANCH   7   8
ENDBRANCH   1   7
TORSDOF 7
ENDMDL
