MODEL 1
REMARK VINA RESULT:    -0.972      0.000      0.000
REMARK INTER + INTRA:          -1.549
REMARK INTER:                  -1.313
REMARK INTRA:                  -0.236
REMARK UNBOUND:                -0.236
REMARK SMILES CCCCCCCC(=O)[O-]
REMARK SMILES IDX 5 1 6 2 7 3 8 4 9 5 10 6 4 7 3 8 2 9 1 10
REMARK H PARENT
REMARK Flexibility Score: inf
ROOT
ATOM      1  C   UNL     1       2.953  -6.461  11.633  1.00  0.00     0.000 C 
ENDROOT
BRANCH   1   2
ATOM      2  C   UNL     1       1.561  -6.442  10.983  1.00  0.00     0.006 C 
BRANCH   2   3
ATOM      3  C   UNL     1       0.618  -7.485  11.598  1.00  0.00     0.053 C 
BRANCH   3   4
ATOM      4  C   UNL     1      -0.328  -8.048  10.582  1.00  0.00     0.041 C 
ATOM      5  O   UNL     1      -0.417  -9.294  10.421  1.00  0.00    -0.550 OA
ATOM      6  O   UNL     1      -1.086  -7.196   9.788  1.00  0.00    -0.550 OA
ENDBRANCH   3   4
ENDBRANCH   2   3
ENDBRANCH   1   2
BRANCH   1   7
ATOM      7  C   UNL     1       3.414  -7.902  11.900  1.00  0.00     0.000 C 
BRANCH   7   8
ATOM      8  C   UNL     1       4.810  -7.968  12.539  1.00  0.00    -0.000 C 
BRANCH   8   9
ATOM      9  C   UNL     1       5.751  -6.872  12.020  1.00  0.00    -0.003 C 
ATOM     10  C   UNL     1       7.077  -6.882  12.775  1.00  0.00     0.004 C 
ENDBRANCH   8   9
ENDBRANCH   7   8
ENDBRANCH   1   7
TORSDOF 6
ENDMDL
MODEL 2
REMARK VINA RESULT:    -0.595      1.208      1.718
REMARK INTER + INTRA:          -1.041
REMARK INTER:                  -0.655
REMARK INTRA:                  -0.386
REMARK UNBOUND:                -0.236
REMARK SMILES CCCCCCCC(=O)[O-]
REMARK SMILES IDX 5 1 6 2 7 3 8 4 9 5 10 6 4 7 3 8 2 9 1 10
REMARK H PARENT
REMARK Flexibility Score: inf
ROOT
ATOM      1  C   UNL     1       2.748  -6.234  11.693  1.00  0.00     0.000 C 
ENDROOT
BRANCH   1   2
ATOM      2  C   UNL     1       1.956  -7.448  11.184  1.00  0.00     0.006 C 
BRANCH   2   3
ATOM      3  C   UNL     1       0.496  -7.428  11.654  1.00  0.00     0.053 C 
BRANCH   3   4
ATOM      4  C   UNL     1      -0.430  -7.990  10.619  1.00  0.00     0.041 C 
ATOM      5  O   UNL     1      -0.653  -9.229  10.574  1.00  0.00    -0.550 OA
ATOM      6  O   UNL     1      -1.020  -7.151   9.682  1.00  0.00    -0.550 OA
ENDBRANCH   3   4
ENDBRANCH   2   3
ENDBRANCH   1   2
BRANCH   1   7
ATOM      7  C   UNL     1       4.175  -6.639  12.094  1.00  0.00     0.000 C 
BRANCH   7   8
ATOM      8  C   UNL     1       4.437  -8.142  11.912  1.00  0.00    -0.000 C 
BRANCH   8   9
ATOM      9  C   UNL     1       4.771  -8.849  13.234  1.00  0.00    -0.003 C 
ATOM     10  C   UNL     1       3.523  -9.026  14.093  1.00  0.00     0.004 C 
ENDBRANCH   8   9
ENDBRANCH   7   8
ENDBRANCH   1   7
TORSDOF 6
ENDMDL
MODEL 3
REMARK VINA RESULT:    -0.166      3.020      5.499
REMARK INTER + INTRA:          -0.460
REMARK INTER:                  -0.196
REMARK INTRA:                  -0.264
REMARK UNBOUND:                -0.236
REMARK SMILES CCCCCCCC(=O)[O-]
REMARK SMILES IDX 5 1 6 2 7 3 8 4 9 5 10 6 4 7 3 8 2 9 1 10
REMARK H PARENT
REMARK Flexibility Score: inf
ROOT
ATOM      1  C   UNL     1       1.717  -6.402  11.405  1.00  0.00     0.000 C 
ENDROOT
BRANCH   1   2
ATOM      2  C   UNL     1       3.207  -6.395  11.032  1.00  0.00     0.006 C 
BRANCH   2   3
ATOM      3  C   UNL     1       3.853  -7.778  11.195  1.00  0.00     0.053 C 
BRANCH   3   4
ATOM      4  C   UNL     1       4.778  -7.825  12.373  1.00  0.00     0.041 C 
ATOM      5  O   UNL     1       5.837  -7.142  12.375  1.00  0.00    -0.550 OA
ATOM      6  O   UNL     1       4.489  -8.649  13.453  1.00  0.00    -0.550 OA
ENDBRANCH   3   4
ENDBRANCH   2   3
ENDBRANCH   1   2
BRANCH   1   7
ATOM      7  C   UNL     1       1.167  -7.836  11.439  1.00  0.00     0.000 C 
BRANCH   7   8
ATOM      8  C   UNL     1      -0.351  -7.882  11.670  1.00  0.00    -0.000 C 
BRANCH   8   9
ATOM      9  C   UNL     1      -1.125  -8.355  10.431  1.00  0.00    -0.003 C 
ATOM     10  C   UNL     1      -1.123  -7.287   9.341  1.00  0.00     0.004 C 
ENDBRANCH   8   9
ENDBRANCH   7   8
ENDBRANCH   1   7
TORSDOF 6
ENDMDL
MODEL 4
REMARK VINA RESULT:     0.251      3.427      5.744
REMARK INTER + INTRA:           0.102
REMARK INTER:                   0.394
REMARK INTRA:                  -0.291
REMARK UNBOUND:                -0.236
REMARK SMILES CCCCCCCC(=O)[O-]
REMARK SMILES IDX 5 1 6 2 7 3 8 4 9 5 10 6 4 7 3 8 2 9 1 10
REMARK H PARENT
REMARK Flexibility Score: inf
ROOT
ATOM      1  C   UNL     1       2.514  -7.373  11.024  1.00  0.00     0.000 C 
ENDROOT
BRANCH   1   2
ATOM      2  C   UNL     1       3.758  -8.242  11.259  1.00  0.00     0.006 C 
BRANCH   2   3
ATOM      3  C   UNL     1       4.470  -7.895  12.573  1.00  0.00     0.053 C 
BRANCH   3   4
ATOM      4  C   UNL     1       5.682  -7.046  12.343  1.00  0.00     0.041 C 
ATOM      5  O   UNL     1       5.603  -6.008  11.632  1.00  0.00    -0.550 OA
ATOM      6  O   UNL     1       6.907  -7.418  12.882  1.00  0.00    -0.550 OA
ENDBRANCH   3   4
ENDBRANCH   2   3
ENDBRANCH   1   2
BRANCH   1   7
ATOM      7  C   UNL     1       1.610  -7.362  12.266  1.00  0.00     0.000 C 
BRANCH   7   8
ATOM      8  C   UNL     1       0.122  -7.521  11.918  1.00  0.00    -0.000 C 
BRANCH   8   9
ATOM      9  C   UNL     1      -0.109  -8.454  10.721  1.00  0.00    -0.003 C 
ATOM     10  C   UNL     1      -1.125  -7.860   9.750  1.00  0.00     0.004 C 
ENDBRANCH   8   9
ENDBRANCH   7   8
ENDBRANCH   1   7
TORSDOF 6
ENDMDL
MODEL 5
REMARK VINA RESULT:     0.818      2.905      5.338
REMARK INTER + INTRA:           0.868
REMARK INTER:                   1.205
REMARK INTRA:                  -0.337
REMARK UNBOUND:                -0.236
REMARK SMILES CCCCCCCC(=O)[O-]
REMARK SMILES IDX 5 1 6 2 7 3 8 4 9 5 10 6 4 7 3 8 2 9 1 10
REMARK H PARENT
REMARK Flexibility Score: inf
ROOT
ATOM      1  C   UNL     1       2.673  -8.275  10.914  1.00  0.00     0.000 C 
ENDROOT
BRANCH   1   2
ATOM      2  C   UNL     1       4.137  -7.869  11.142  1.00  0.00     0.006 C 
BRANCH   2   3
ATOM      3  C   UNL     1       4.431  -7.556  12.615  1.00  0.00     0.053 C 
BRANCH   3   4
ATOM      4  C   UNL     1       4.334  -8.780  13.474  1.00  0.00     0.041 C 
ATOM      5  O   UNL     1       5.252  -9.643  13.454  1.00  0.00    -0.550 OA
ATOM      6  O   UNL     1       3.214  -8.985  14.270  1.00  0.00    -0.550 OA
ENDBRANCH   3   4
ENDBRANCH   2   3
ENDBRANCH   1   2
BRANCH   1   7
ATOM      7  C   UNL     1       1.721  -7.131  11.294  1.00  0.00     0.000 C 
BRANCH   7   8
ATOM      8  C   UNL     1       0.362  -7.635  11.804  1.00  0.00    -0.000 C 
BRANCH   8   9
ATOM      9  C   UNL     1      -0.388  -8.474  10.759  1.00  0.00    -0.003 C 
ATOM     10  C   UNL     1      -1.125  -7.582   9.765  1.00  0.00     0.004 C 
ENDBRANCH   8   9
ENDBRANCH   7   8
ENDBRANCH   1   7
TORSDOF 6
ENDMDL
MODEL 6
REMARK VINA RESULT:     1.679      4.100      6.140
REMARK INTER + INTRA:           2.031
REMARK INTER:                   2.249
REMARK INTRA:                  -0.218
REMARK UNBOUND:                -0.236
REMARK SMILES CCCCCCCC(=O)[O-]
REMARK SMILES IDX 5 1 6 2 7 3 8 4 9 5 10 6 4 7 3 8 2 9 1 10
REMARK H PARENT
REMARK Flexibility Score: inf
ROOT
ATOM      1  C   UNL     1       4.003  -8.198  12.302  1.00  0.00     0.000 C 
ENDROOT
BRANCH   1   2
ATOM      2  C   UNL     1       4.712  -6.841  12.429  1.00  0.00     0.006 C 
BRANCH   2   3
ATOM      3  C   UNL     1       6.169  -6.899  11.952  1.00  0.00     0.053 C 
BRANCH   3   4
ATOM      4  C   UNL     1       7.132  -6.636  13.069  1.00  0.00     0.041 C 
ATOM      5  O   UNL     1       8.259  -7.199  13.080  1.00  0.00    -0.550 OA
ATOM      6  O   UNL     1       6.773  -5.796  14.115  1.00  0.00    -0.550 OA
ENDBRANCH   3   4
ENDBRANCH   2   3
ENDBRANCH   1   2
BRANCH   1   7
ATOM      7  C   UNL     1       2.941  -8.160  11.193  1.00  0.00     0.000 C 
BRANCH   7   8
ATOM      8  C   UNL     1       1.973  -6.976  11.340  1.00  0.00    -0.000 C 
BRANCH   8   9
ATOM      9  C   UNL     1       0.548  -7.419  11.703  1.00  0.00    -0.003 C 
ATOM     10  C   UNL     1      -0.032  -8.337  10.632  1.00  0.00     0.004 C 
ENDBRANCH   8   9
ENDBRANCH   7   8
ENDBRANCH   1   7
TORSDOF 6
ENDMDL
