MODEL 1
REMARK VINA RESULT:    -3.368      0.000      0.000
REMARK INTER + INTRA:          -4.046
REMARK INTER:                  -3.959
REMARK INTRA:                  -0.087
REMARK UNBOUND:                -0.087
REMARK SMILES O=C([O-])CCC(=O)[O-]
REMARK SMILES IDX 4 1 2 2 1 3 3 4 5 5 6 6 7 7 8 8
REMARK H PARENT
REMARK Flexibility Score: inf
ROOT
ATOM      1  C   UNL     1     -19.092  56.639  -3.614  1.00  0.00     0.059 C 
ENDROOT
BRANCH   1   2
ATOM      2  C   UNL     1     -20.430  56.131  -3.181  1.00  0.00     0.042 C 
ATOM      3  O   UNL     1     -21.412  56.917  -3.102  1.00  0.00    -0.550 OA
ATOM      4  O   UNL     1     -20.607  54.780  -2.911  1.00  0.00    -0.550 OA
ENDBRANCH   1   2
BRANCH   1   5
ATOM      5  C   UNL     1     -18.089  55.489  -3.710  1.00  0.00     0.059 C 
BRANCH   5   6
ATOM      6  C   UNL     1     -17.189  55.478  -2.514  1.00  0.00     0.042 C 
ATOM      7  O   UNL     1     -16.578  54.425  -2.190  1.00  0.00    -0.550 OA
ATOM      8  O   UNL     1     -16.986  56.643  -1.786  1.00  0.00    -0.550 OA
ENDBRANCH   5   6
ENDBRANCH   1   5
TORSDOF 3
ENDMDL
MODEL 2
REMARK VINA RESULT:    -3.349      0.092      3.794
REMARK INTER + INTRA:          -4.024
REMARK INTER:                  -3.942
REMARK INTRA:                  -0.082
REMARK UNBOUND:                -0.087
REMARK SMILES O=C([O-])CCC(=O)[O-]
REMARK SMILES IDX 4 1 2 2 1 3 3 4 5 5 6 6 7 7 8 8
REMARK H PARENT
REMARK Flexibility Score: inf
ROOT
ATOM      1  C   UNL     1     -18.082  55.553  -3.698  1.00  0.00     0.059 C 
ENDROOT
BRANCH   1   2
ATOM      2  C   UNL     1     -17.182  55.497  -2.504  1.00  0.00     0.042 C 
ATOM      3  O   UNL     1     -16.537  54.446  -2.246  1.00  0.00    -0.550 OA
ATOM      4  O   UNL     1     -17.019  56.619  -1.703  1.00  0.00    -0.550 OA
ENDBRANCH   1   2
BRANCH   1   5
ATOM      5  C   UNL     1     -19.116  56.668  -3.536  1.00  0.00     0.059 C 
BRANCH   5   6
ATOM      6  C   UNL     1     -20.453  56.095  -3.186  1.00  0.00     0.042 C 
ATOM      7  O   UNL     1     -20.582  54.856  -2.999  1.00  0.00    -0.550 OA
ATOM      8  O   UNL     1     -21.546  56.934  -3.016  1.00  0.00    -0.550 OA
ENDBRANCH   5   6
ENDBRANCH   1   5
TORSDOF 3
ENDMDL
MODEL 3
REMARK VINA RESULT:    -3.336      2.203      3.296
REMARK INTER + INTRA:          -4.008
REMARK INTER:                  -3.936
REMARK INTRA:                  -0.072
REMARK UNBOUND:                -0.087
REMARK SMILES O=C([O-])CCC(=O)[O-]
REMARK SMILES IDX 4 1 2 2 1 3 3 4 5 5 6 6 7 7 8 8
REMARK H PARENT
REMARK Flexibility Score: inf
ROOT
ATOM      1  C   UNL     1     -19.748  53.998  -2.905  1.00  0.00     0.059 C 
ENDROOT
BRANCH   1   2
ATOM      2  C   UNL     1     -19.394  53.173  -1.708  1.00  0.00     0.042 C 
ATOM      3  O   UNL     1     -19.983  52.081  -1.494  1.00  0.00    -0.550 OA
ATOM      4  O   UNL     1     -18.379  53.587  -0.855  1.00  0.00    -0.550 OA
ENDBRANCH   1   2
BRANCH   1   5
ATOM      5  C   UNL     1     -18.523  54.758  -3.413  1.00  0.00     0.059 C 
BRANCH   5   6
ATOM      6  C   UNL     1     -18.816  56.223  -3.505  1.00  0.00     0.042 C 
ATOM      7  O   UNL     1     -17.882  57.046  -3.697  1.00  0.00    -0.550 OA
ATOM      8  O   UNL     1     -20.126  56.675  -3.427  1.00  0.00    -0.550 OA
ENDBRANCH   5   6
ENDBRANCH   1   5
TORSDOF 3
ENDMDL
MODEL 4
REMARK VINA RESULT:    -3.310      2.253      3.127
REMARK INTER + INTRA:          -3.977
REMARK INTER:                  -3.893
REMARK INTRA:                  -0.084
REMARK UNBOUND:                -0.087
REMARK SMILES O=C([O-])CCC(=O)[O-]
REMARK SMILES IDX 4 1 2 2 1 3 3 4 5 5 6 6 7 7 8 8
REMARK H PARENT
REMARK Flexibility Score: inf
ROOT
ATOM      1  C   UNL     1     -18.089  54.746  -2.883  1.00  0.00     0.059 C 
ENDROOT
BRANCH   1   2
ATOM      2  C   UNL     1     -18.631  56.090  -3.252  1.00  0.00     0.042 C 
ATOM      3  O   UNL     1     -17.852  57.009  -3.618  1.00  0.00    -0.550 OA
ATOM      4  O   UNL     1     -20.002  56.315  -3.238  1.00  0.00    -0.550 OA
ENDBRANCH   1   2
BRANCH   1   5
ATOM      5  C   UNL     1     -19.136  53.660  -3.134  1.00  0.00     0.059 C 
BRANCH   5   6
ATOM      6  C   UNL     1     -19.571  53.044  -1.842  1.00  0.00     0.042 C 
ATOM      7  O   UNL     1     -20.636  52.372  -1.787  1.00  0.00    -0.550 OA
ATOM      8  O   UNL     1     -18.778  53.170  -0.709  1.00  0.00    -0.550 OA
ENDBRANCH   5   6
ENDBRANCH   1   5
TORSDOF 3
ENDMDL
MODEL 5
REMARK VINA RESULT:    -3.287      1.719      3.598
REMARK INTER + INTRA:          -3.951
REMARK INTER:                  -3.837
REMARK INTRA:                  -0.114
REMARK UNBOUND:                -0.087
REMARK SMILES O=C([O-])CCC(=O)[O-]
REMARK SMILES IDX 4 1 2 2 1 3 3 4 5 5 6 6 7 7 8 8
REMARK H PARENT
REMARK Flexibility Score: inf
ROOT
ATOM      1  C   UNL     1     -18.433  55.334  -3.613  1.00  0.00     0.059 C 
ENDROOT
BRANCH   1   2
ATOM      2  C   UNL     1     -17.765  56.340  -2.729  1.00  0.00     0.042 C 
ATOM      3  O   UNL     1     -16.799  57.022  -3.163  1.00  0.00    -0.550 OA
ATOM      4  O   UNL     1     -18.239  56.558  -1.443  1.00  0.00    -0.550 OA
ENDBRANCH   1   2
BRANCH   1   5
ATOM      5  C   UNL     1     -18.565  53.993  -2.891  1.00  0.00     0.059 C 
BRANCH   5   6
ATOM      6  C   UNL     1     -19.999  53.712  -2.566  1.00  0.00     0.042 C 
ATOM      7  O   UNL     1     -20.886  54.570  -2.821  1.00  0.00    -0.550 OA
ATOM      8  O   UNL     1     -20.363  52.486  -2.028  1.00  0.00    -0.550 OA
ENDBRANCH   5   6
ENDBRANCH   1   5
TORSDOF 3
ENDMDL
MODEL 6
REMARK VINA RESULT:    -3.278      1.637      2.390
REMARK INTER + INTRA:          -3.940
REMARK INTER:                  -3.868
REMARK INTRA:                  -0.072
REMARK UNBOUND:                -0.087
REMARK SMILES O=C([O-])CCC(=O)[O-]
REMARK SMILES IDX 4 1 2 2 1 3 3 4 5 5 6 6 7 7 8 8
REMARK H PARENT
REMARK Flexibility Score: inf
ROOT
ATOM      1  C   UNL     1     -18.366  54.849  -3.049  1.00  0.00     0.059 C 
ENDROOT
BRANCH   1   2
ATOM      2  C   UNL     1     -18.719  56.257  -3.410  1.00  0.00     0.042 C 
ATOM      3  O   UNL     1     -17.811  57.091  -3.671  1.00  0.00    -0.550 OA
ATOM      4  O   UNL     1     -20.051  56.638  -3.505  1.00  0.00    -0.550 OA
ENDBRANCH   1   2
BRANCH   1   5
ATOM      5  C   UNL     1     -16.953  54.784  -2.467  1.00  0.00     0.059 C 
BRANCH   5   6
ATOM      6  C   UNL     1     -16.987  54.251  -1.069  1.00  0.00     0.042 C 
ATOM      7  O   UNL     1     -15.921  54.137  -0.408  1.00  0.00    -0.550 OA
ATOM      8  O   UNL     1     -18.201  53.927  -0.478  1.00  0.00    -0.550 OA
ENDBRANCH   5   6
ENDBRANCH   1   5
TORSDOF 3
ENDMDL
MODEL 7
REMARK VINA RESULT:    -3.258      2.235      2.969
REMARK INTER + INTRA:          -3.917
REMARK INTER:                  -3.800
REMARK INTRA:                  -0.117
REMARK UNBOUND:                -0.087
REMARK SMILES O=C([O-])CCC(=O)[O-]
REMARK SMILES IDX 4 1 2 2 1 3 3 4 5 5 6 6 7 7 8 8
REMARK H PARENT
REMARK Flexibility Score: inf
ROOT
ATOM      1  C   UNL     1     -18.946  53.628  -3.053  1.00  0.00     0.059 C 
ENDROOT
BRANCH   1   2
ATOM      2  C   UNL     1     -19.545  53.177  -1.759  1.00  0.00     0.042 C 
ATOM      3  O   UNL     1     -20.498  52.353  -1.755  1.00  0.00    -0.550 OA
ATOM      4  O   UNL     1     -19.021  53.629  -0.555  1.00  0.00    -0.550 OA
ENDBRANCH   1   2
BRANCH   1   5
ATOM      5  C   UNL     1     -19.204  55.120  -3.270  1.00  0.00     0.059 C 
BRANCH   5   6
ATOM      6  C   UNL     1     -17.914  55.878  -3.274  1.00  0.00     0.042 C 
ATOM      7  O   UNL     1     -17.888  57.082  -3.645  1.00  0.00    -0.550 OA
ATOM      8  O   UNL     1     -16.750  55.273  -2.822  1.00  0.00    -0.550 OA
ENDBRANCH   5   6
ENDBRANCH   1   5
TORSDOF 3
ENDMDL
MODEL 8
REMARK VINA RESULT:    -3.219      1.575      3.459
REMARK INTER + INTRA:          -3.871
REMARK INTER:                  -3.726
REMARK INTRA:                  -0.145
REMARK UNBOUND:                -0.087
REMARK SMILES O=C([O-])CCC(=O)[O-]
REMARK SMILES IDX 4 1 2 2 1 3 3 4 5 5 6 6 7 7 8 8
REMARK H PARENT
REMARK Flexibility Score: inf
ROOT
ATOM      1  C   UNL     1     -17.047  54.721  -2.384  1.00  0.00     0.059 C 
ENDROOT
BRANCH   1   2
ATOM      2  C   UNL     1     -17.292  55.048  -0.945  1.00  0.00     0.042 C 
ATOM      3  O   UNL     1     -16.728  56.043  -0.418  1.00  0.00    -0.550 OA
ATOM      4  O   UNL     1     -18.179  54.284  -0.199  1.00  0.00    -0.550 OA
ENDBRANCH   1   2
BRANCH   1   5
ATOM      5  C   UNL     1     -18.342  54.847  -3.189  1.00  0.00     0.059 C 
BRANCH   5   6
ATOM      6  C   UNL     1     -18.670  56.287  -3.429  1.00  0.00     0.042 C 
ATOM      7  O   UNL     1     -17.755  57.107  -3.710  1.00  0.00    -0.550 OA
ATOM      8  O   UNL     1     -19.989  56.716  -3.392  1.00  0.00    -0.550 OA
ENDBRANCH   5   6
ENDBRANCH   1   5
TORSDOF 3
ENDMDL
MODEL 9
REMARK VINA RESULT:    -3.206      3.613      5.595
REMARK INTER + INTRA:          -3.855
REMARK INTER:                  -3.775
REMARK INTRA:                  -0.080
REMARK UNBOUND:                -0.087
REMARK SMILES O=C([O-])CCC(=O)[O-]
REMARK SMILES IDX 4 1 2 2 1 3 3 4 5 5 6 6 7 7 8 8
REMARK H PARENT
REMARK Flexibility Score: inf
ROOT
ATOM      1  C   UNL     1     -16.294  57.772   1.240  1.00  0.00     0.059 C 
ENDROOT
BRANCH   1   2
ATOM      2  C   UNL     1     -15.219  58.530   0.528  1.00  0.00     0.042 C 
ATOM      3  O   UNL     1     -15.200  58.571  -0.731  1.00  0.00    -0.550 OA
ATOM      4  O   UNL     1     -14.266  59.232   1.254  1.00  0.00    -0.550 OA
ENDBRANCH   1   2
BRANCH   1   5
ATOM      5  C   UNL     1     -16.693  56.532   0.439  1.00  0.00     0.059 C 
BRANCH   5   6
ATOM      6  C   UNL     1     -18.057  56.706  -0.151  1.00  0.00     0.042 C 
ATOM      7  O   UNL     1     -18.237  56.554  -1.389  1.00  0.00    -0.550 OA
ATOM      8  O   UNL     1     -19.140  56.988   0.671  1.00  0.00    -0.550 OA
ENDBRANCH   5   6
ENDBRANCH   1   5
TORSDOF 3
ENDMDL
