MODEL 1
REMARK VINA RESULT:    -4.486      0.000      0.000
REMARK INTER + INTRA:          -5.110
REMARK INTER:                  -4.880
REMARK INTRA:                  -0.230
REMARK UNBOUND:                -0.230
REMARK SMILES O=C([O-])c1ccccc1O
REMARK SMILES IDX 4 1 9 2 5 3 8 4 6 5 7 6 2 7 1 8 3 9 10 10
REMARK H PARENT 10 11
REMARK Flexibility Score: inf
ROOT
ATOM      1  C   UNL     1      13.052 -20.104  18.444  1.00  0.00     0.039 A 
ATOM      2  C   UNL     1      11.694 -20.428  18.703  1.00  0.00     0.124 A 
ATOM      3  C   UNL     1      14.012 -21.134  18.467  1.00  0.00     0.014 A 
ATOM      4  C   UNL     1      11.347 -21.743  19.037  1.00  0.00     0.047 A 
ATOM      5  C   UNL     1      13.644 -22.444  18.782  1.00  0.00     0.001 A 
ATOM      6  C   UNL     1      12.315 -22.746  19.075  1.00  0.00     0.004 A 
ENDROOT
BRANCH   1   7
ATOM      7  C   UNL     1      13.512 -18.723  18.181  1.00  0.00     0.075 C 
ATOM      8  O   UNL     1      13.036 -18.052  17.229  1.00  0.00    -0.545 OA
ATOM      9  O   UNL     1      14.434 -18.124  19.032  1.00  0.00    -0.545 OA
ENDBRANCH   1   7
BRANCH   2  10
ATOM     10  O   UNL     1      10.664 -19.489  18.607  1.00  0.00    -0.507 OA
ATOM     11  H   UNL     1       9.816 -19.532  19.154  1.00  0.00     0.293 HD
ENDBRANCH   2  10
TORSDOF 2
ENDMDL
MODEL 2
REMARK VINA RESULT:    -4.439      1.157      2.915
REMARK INTER + INTRA:          -5.058
REMARK INTER:                  -4.830
REMARK INTRA:                  -0.228
REMARK UNBOUND:                -0.230
REMARK SMILES O=C([O-])c1ccccc1O
REMARK SMILES IDX 4 1 9 2 5 3 8 4 6 5 7 6 2 7 1 8 3 9 10 10
REMARK H PARENT 10 11
REMARK Flexibility Score: inf
ROOT
ATOM      1  C   UNL     1      12.579 -20.097  18.566  1.00  0.00     0.039 A 
ATOM      2  C   UNL     1      13.581 -19.093  18.625  1.00  0.00     0.124 A 
ATOM      3  C   UNL     1      12.970 -21.449  18.581  1.00  0.00     0.014 A 
ATOM      4  C   UNL     1      14.932 -19.463  18.632  1.00  0.00     0.047 A 
ATOM      5  C   UNL     1      14.322 -21.800  18.610  1.00  0.00     0.001 A 
ATOM      6  C   UNL     1      15.301 -20.808  18.626  1.00  0.00     0.004 A 
ENDROOT
BRANCH   1   7
ATOM      7  C   UNL     1      11.137 -19.786  18.455  1.00  0.00     0.075 C 
ATOM      8  O   UNL     1      10.707 -19.016  17.556  1.00  0.00    -0.545 OA
ATOM      9  O   UNL     1      10.226 -20.400  19.307  1.00  0.00    -0.545 OA
ENDBRANCH   1   7
BRANCH   2  10
ATOM     10  O   UNL     1      13.280 -17.732  18.710  1.00  0.00    -0.507 OA
ATOM     11  H   UNL     1      12.937 -17.287  19.550  1.00  0.00     0.293 HD
ENDBRANCH   2  10
TORSDOF 2
ENDMDL
MODEL 3
REMARK VINA RESULT:    -4.435      2.470      3.631
REMARK INTER + INTRA:          -5.053
REMARK INTER:                  -4.810
REMARK INTRA:                  -0.243
REMARK UNBOUND:                -0.230
REMARK SMILES O=C([O-])c1ccccc1O
REMARK SMILES IDX 4 1 9 2 5 3 8 4 6 5 7 6 2 7 1 8 3 9 10 10
REMARK H PARENT 10 11
REMARK Flexibility Score: inf
ROOT
ATOM      1  C   UNL     1      12.519 -21.886  18.677  1.00  0.00     0.039 A 
ATOM      2  C   UNL     1      11.571 -20.946  19.161  1.00  0.00     0.124 A 
ATOM      3  C   UNL     1      13.823 -21.445  18.382  1.00  0.00     0.014 A 
ATOM      4  C   UNL     1      11.929 -19.596  19.273  1.00  0.00     0.047 A 
ATOM      5  C   UNL     1      14.168 -20.099  18.521  1.00  0.00     0.001 A 
ATOM      6  C   UNL     1      13.220 -19.175  18.957  1.00  0.00     0.004 A 
ENDROOT
BRANCH   1   7
ATOM      7  C   UNL     1      12.189 -23.308  18.437  1.00  0.00     0.075 C 
ATOM      8  O   UNL     1      11.015 -23.661  18.152  1.00  0.00    -0.545 OA
ATOM      9  O   UNL     1      13.194 -24.268  18.457  1.00  0.00    -0.545 OA
ENDBRANCH   1   7
BRANCH   2  10
ATOM     10  O   UNL     1      10.286 -21.313  19.568  1.00  0.00    -0.507 OA
ATOM     11  H   UNL     1       9.952 -22.266  19.572  1.00  0.00     0.293 HD
ENDBRANCH   2  10
TORSDOF 2
ENDMDL
MODEL 4
REMARK VINA RESULT:    -4.331      1.210      2.181
REMARK INTER + INTRA:          -4.941
REMARK INTER:                  -4.733
REMARK INTRA:                  -0.208
REMARK UNBOUND:                -0.230
REMARK SMILES O=C([O-])c1ccccc1O
REMARK SMILES IDX 4 1 9 2 5 3 8 4 6 5 7 6 2 7 1 8 3 9 10 10
REMARK H PARENT 10 11
REMARK Flexibility Score: inf
ROOT
ATOM      1  C   UNL     1      12.643 -19.900  18.522  1.00  0.00     0.039 A 
ATOM      2  C   UNL     1      13.241 -21.187  18.494  1.00  0.00     0.124 A 
ATOM      3  C   UNL     1      11.279 -19.791  18.851  1.00  0.00     0.014 A 
ATOM      4  C   UNL     1      12.454 -22.321  18.730  1.00  0.00     0.047 A 
ATOM      5  C   UNL     1      10.514 -20.931  19.105  1.00  0.00     0.001 A 
ATOM      6  C   UNL     1      11.099 -22.195  19.036  1.00  0.00     0.004 A 
ENDROOT
BRANCH   1   7
ATOM      7  C   UNL     1      13.384 -18.663  18.186  1.00  0.00     0.075 C 
ATOM      8  O   UNL     1      12.997 -17.910  17.255  1.00  0.00    -0.545 OA
ATOM      9  O   UNL     1      14.483 -18.283  18.947  1.00  0.00    -0.545 OA
ENDBRANCH   1   7
BRANCH   2  10
ATOM     10  O   UNL     1      14.607 -21.379  18.270  1.00  0.00    -0.507 OA
ATOM     11  H   UNL     1      15.129 -22.159  18.643  1.00  0.00     0.293 HD
ENDBRANCH   2  10
TORSDOF 2
ENDMDL
MODEL 5
REMARK VINA RESULT:    -4.319      2.349      3.755
REMARK INTER + INTRA:          -4.927
REMARK INTER:                  -4.702
REMARK INTRA:                  -0.226
REMARK UNBOUND:                -0.230
REMARK SMILES O=C([O-])c1ccccc1O
REMARK SMILES IDX 4 1 9 2 5 3 8 4 6 5 7 6 2 7 1 8 3 9 10 10
REMARK H PARENT 10 11
REMARK Flexibility Score: inf
ROOT
ATOM      1  C   UNL     1      12.268 -20.734  19.024  1.00  0.00     0.039 A 
ATOM      2  C   UNL     1      13.370 -21.318  18.346  1.00  0.00     0.124 A 
ATOM      3  C   UNL     1      12.454 -19.511  19.695  1.00  0.00     0.014 A 
ATOM      4  C   UNL     1      14.627 -20.704  18.410  1.00  0.00     0.047 A 
ATOM      5  C   UNL     1      13.710 -18.901  19.732  1.00  0.00     0.001 A 
ATOM      6  C   UNL     1      14.797 -19.502  19.098  1.00  0.00     0.004 A 
ENDROOT
BRANCH   1   7
ATOM      7  C   UNL     1      10.934 -21.371  19.086  1.00  0.00     0.075 C 
ATOM      8  O   UNL     1       9.907 -20.697  19.359  1.00  0.00    -0.545 OA
ATOM      9  O   UNL     1      10.793 -22.719  18.774  1.00  0.00    -0.545 OA
ENDBRANCH   1   7
BRANCH   2  10
ATOM     10  O   UNL     1      13.253 -22.478  17.577  1.00  0.00    -0.507 OA
ATOM     11  H   UNL     1      13.598 -23.381  17.871  1.00  0.00     0.293 HD
ENDBRANCH   2  10
TORSDOF 2
ENDMDL
MODEL 6
REMARK VINA RESULT:    -4.308      1.416      2.291
REMARK INTER + INTRA:          -4.916
REMARK INTER:                  -4.682
REMARK INTRA:                  -0.233
REMARK UNBOUND:                -0.230
REMARK SMILES O=C([O-])c1ccccc1O
REMARK SMILES IDX 4 1 9 2 5 3 8 4 6 5 7 6 2 7 1 8 3 9 10 10
REMARK H PARENT 10 11
REMARK Flexibility Score: inf
ROOT
ATOM      1  C   UNL     1      12.811 -21.006  18.897  1.00  0.00     0.039 A 
ATOM      2  C   UNL     1      12.267 -22.267  19.256  1.00  0.00     0.124 A 
ATOM      3  C   UNL     1      14.197 -20.802  19.030  1.00  0.00     0.014 A 
ATOM      4  C   UNL     1      13.102 -23.255  19.792  1.00  0.00     0.047 A 
ATOM      5  C   UNL     1      15.019 -21.805  19.547  1.00  0.00     0.001 A 
ATOM      6  C   UNL     1      14.471 -23.027  19.936  1.00  0.00     0.004 A 
ENDROOT
BRANCH   1   7
ATOM      7  C   UNL     1      11.980 -19.880  18.418  1.00  0.00     0.075 C 
ATOM      8  O   UNL     1      12.473 -18.970  17.701  1.00  0.00    -0.545 OA
ATOM      9  O   UNL     1      10.619 -19.851  18.700  1.00  0.00    -0.545 OA
ENDBRANCH   1   7
BRANCH   2  10
ATOM     10  O   UNL     1      10.920 -22.588  19.067  1.00  0.00    -0.507 OA
ATOM     11  H   UNL     1      10.330 -22.141  18.380  1.00  0.00     0.293 HD
ENDBRANCH   2  10
TORSDOF 2
ENDMDL
MODEL 7
REMARK VINA RESULT:    -4.083      2.004      2.701
REMARK INTER + INTRA:          -4.671
REMARK INTER:                  -4.418
REMARK INTRA:                  -0.253
REMARK UNBOUND:                -0.230
REMARK SMILES O=C([O-])c1ccccc1O
REMARK SMILES IDX 4 1 9 2 5 3 8 4 6 5 7 6 2 7 1 8 3 9 10 10
REMARK H PARENT 10 11
REMARK Flexibility Score: inf
ROOT
ATOM      1  C   UNL     1      13.854 -21.592  19.874  1.00  0.00     0.039 A 
ATOM      2  C   UNL     1      13.242 -21.639  18.594  1.00  0.00     0.124 A 
ATOM      3  C   UNL     1      14.199 -22.801  20.507  1.00  0.00     0.014 A 
ATOM      4  C   UNL     1      12.935 -22.879  18.018  1.00  0.00     0.047 A 
ATOM      5  C   UNL     1      13.905 -24.028  19.908  1.00  0.00     0.001 A 
ATOM      6  C   UNL     1      13.266 -24.067  18.670  1.00  0.00     0.004 A 
ENDROOT
BRANCH   1   7
ATOM      7  C   UNL     1      14.119 -20.325  20.591  1.00  0.00     0.075 C 
ATOM      8  O   UNL     1      15.179 -20.164  21.251  1.00  0.00    -0.545 OA
ATOM      9  O   UNL     1      13.224 -19.267  20.486  1.00  0.00    -0.545 OA
ENDBRANCH   1   7
BRANCH   2  10
ATOM     10  O   UNL     1      12.954 -20.490  17.853  1.00  0.00    -0.507 OA
ATOM     11  H   UNL     1      12.736 -20.501  16.867  1.00  0.00     0.293 HD
ENDBRANCH   2  10
TORSDOF 2
ENDMDL
MODEL 8
REMARK VINA RESULT:    -4.057      1.497      2.491
REMARK INTER + INTRA:          -4.642
REMARK INTER:                  -4.426
REMARK INTRA:                  -0.217
REMARK UNBOUND:                -0.230
REMARK SMILES O=C([O-])c1ccccc1O
REMARK SMILES IDX 4 1 9 2 5 3 8 4 6 5 7 6 2 7 1 8 3 9 10 10
REMARK H PARENT 10 11
REMARK Flexibility Score: inf
ROOT
ATOM      1  C   UNL     1      12.976 -21.207  19.011  1.00  0.00     0.039 A 
ATOM      2  C   UNL     1      13.880 -21.282  20.103  1.00  0.00     0.124 A 
ATOM      3  C   UNL     1      12.579 -22.398  18.374  1.00  0.00     0.014 A 
ATOM      4  C   UNL     1      14.406 -22.523  20.483  1.00  0.00     0.047 A 
ATOM      5  C   UNL     1      13.098 -23.630  18.780  1.00  0.00     0.001 A 
ATOM      6  C   UNL     1      14.017 -23.691  19.827  1.00  0.00     0.004 A 
ENDROOT
BRANCH   1   7
ATOM      7  C   UNL     1      12.454 -19.926  18.487  1.00  0.00     0.075 C 
ATOM      8  O   UNL     1      11.217 -19.700  18.442  1.00  0.00    -0.545 OA
ATOM      9  O   UNL     1      13.335 -18.923  18.099  1.00  0.00    -0.545 OA
ENDBRANCH   1   7
BRANCH   2  10
ATOM     10  O   UNL     1      14.252 -20.163  20.852  1.00  0.00    -0.507 OA
ATOM     11  H   UNL     1      14.043 -19.213  20.578  1.00  0.00     0.293 HD
ENDBRANCH   2  10
TORSDOF 2
ENDMDL
MODEL 9
REMARK VINA RESULT:    -3.891      1.884      3.057
REMARK INTER + INTRA:          -4.462
REMARK INTER:                  -4.226
REMARK INTRA:                  -0.236
REMARK UNBOUND:                -0.230
REMARK SMILES O=C([O-])c1ccccc1O
REMARK SMILES IDX 4 1 9 2 5 3 8 4 6 5 7 6 2 7 1 8 3 9 10 10
REMARK H PARENT 10 11
REMARK Flexibility Score: inf
ROOT
ATOM      1  C   UNL     1      13.811 -20.856  18.890  1.00  0.00     0.039 A 
ATOM      2  C   UNL     1      13.410 -19.579  18.417  1.00  0.00     0.124 A 
ATOM      3  C   UNL     1      12.821 -21.795  19.236  1.00  0.00     0.014 A 
ATOM      4  C   UNL     1      12.048 -19.256  18.365  1.00  0.00     0.047 A 
ATOM      5  C   UNL     1      11.466 -21.463  19.158  1.00  0.00     0.001 A 
ATOM      6  C   UNL     1      11.081 -20.192  18.731  1.00  0.00     0.004 A 
ENDROOT
BRANCH   1   7
ATOM      7  C   UNL     1      15.230 -21.237  19.068  1.00  0.00     0.075 C 
ATOM      8  O   UNL     1      15.561 -22.139  19.882  1.00  0.00    -0.545 OA
ATOM      9  O   UNL     1      16.212 -20.645  18.283  1.00  0.00    -0.545 OA
ENDBRANCH   1   7
BRANCH   2  10
ATOM     10  O   UNL     1      14.322 -18.623  17.963  1.00  0.00    -0.507 OA
ATOM     11  H   UNL     1      14.309 -18.239  17.029  1.00  0.00     0.293 HD
ENDBRANCH   2  10
TORSDOF 2
ENDMDL
