MODEL 1
REMARK VINA RESULT:    -4.416      0.000      0.000
REMARK INTER + INTRA:          -5.814
REMARK INTER:                  -5.707
REMARK INTRA:                  -0.107
REMARK UNBOUND:                -0.107
REMARK SMILES CCCCCCC(=O)[O-]
REMARK SMILES IDX 5 1 6 2 7 3 8 4 9 5 4 6 3 7 2 8 1 9
REMARK H PARENT
REMARK Flexibility Score: inf
ROOT
ATOM      1  C   UNL     1       0.708   8.219  19.595  1.00  0.00     0.006 C 
ENDROOT
BRANCH   1   2
ATOM      2  C   UNL     1       0.170   6.891  20.153  1.00  0.00     0.053 C 
BRANCH   2   3
ATOM      3  C   UNL     1       0.391   6.776  21.630  1.00  0.00     0.041 C 
ATOM      4  O   UNL     1      -0.590   6.666  22.411  1.00  0.00    -0.550 OA
ATOM      5  O   UNL     1       1.683   6.758  22.141  1.00  0.00    -0.550 OA
ENDBRANCH   2   3
ENDBRANCH   1   2
BRANCH   1   6
ATOM      6  C   UNL     1       0.903   8.236  18.065  1.00  0.00     0.000 C 
BRANCH   6   7
ATOM      7  C   UNL     1       2.167   8.970  17.574  1.00  0.00    -0.000 C 
BRANCH   7   8
ATOM      8  C   UNL     1       1.998   9.739  16.253  1.00  0.00    -0.003 C 
ATOM      9  C   UNL     1       0.743   9.332  15.482  1.00  0.00     0.004 C 
ENDBRANCH   7   8
ENDBRANCH   6   7
ENDBRANCH   1   6
TORSDOF 5
ENDMDL
MODEL 2
REMARK VINA RESULT:    -4.274      3.021      5.455
REMARK INTER + INTRA:          -5.631
REMARK INTER:                  -5.506
REMARK INTRA:                  -0.125
REMARK UNBOUND:                -0.107
REMARK SMILES CCCCCCC(=O)[O-]
REMARK SMILES IDX 5 1 6 2 7 3 8 4 9 5 4 6 3 7 2 8 1 9
REMARK H PARENT
REMARK Flexibility Score: inf
ROOT
ATOM      1  C   UNL     1       0.290   6.966  19.057  1.00  0.00     0.006 C 
ENDROOT
BRANCH   1   2
ATOM      2  C   UNL     1       0.889   8.355  18.783  1.00  0.00     0.053 C 
BRANCH   2   3
ATOM      3  C   UNL     1       1.343   8.497  17.363  1.00  0.00     0.041 C 
ATOM      4  O   UNL     1       2.373   9.166  17.090  1.00  0.00    -0.550 OA
ATOM      5  O   UNL     1       0.644   7.863  16.343  1.00  0.00    -0.550 OA
ENDBRANCH   2   3
ENDBRANCH   1   2
BRANCH   1   6
ATOM      6  C   UNL     1      -0.148   6.736  20.517  1.00  0.00     0.000 C 
BRANCH   6   7
ATOM      7  C   UNL     1       0.958   6.942  21.573  1.00  0.00    -0.000 C 
BRANCH   7   8
ATOM      8  C   UNL     1       0.585   6.496  22.997  1.00  0.00    -0.003 C 
ATOM      9  C   UNL     1      -0.911   6.612  23.286  1.00  0.00     0.004 C 
ENDBRANCH   7   8
ENDBRANCH   6   7
ENDBRANCH   1   6
TORSDOF 5
ENDMDL
MODEL 3
REMARK VINA RESULT:    -4.024      3.740      5.192
REMARK INTER + INTRA:          -5.307
REMARK INTER:                  -5.145
REMARK INTRA:                  -0.162
REMARK UNBOUND:                -0.107
REMARK SMILES CCCCCCC(=O)[O-]
REMARK SMILES IDX 5 1 6 2 7 3 8 4 9 5 4 6 3 7 2 8 1 9
REMARK H PARENT
REMARK Flexibility Score: inf
ROOT
ATOM      1  C   UNL     1      -0.069   5.985  18.548  1.00  0.00     0.006 C 
ENDROOT
BRANCH   1   2
ATOM      2  C   UNL     1      -0.030   5.469  17.101  1.00  0.00     0.053 C 
BRANCH   2   3
ATOM      3  C   UNL     1      -1.200   4.586  16.792  1.00  0.00     0.041 C 
ATOM      4  O   UNL     1      -1.111   3.339  16.940  1.00  0.00    -0.550 OA
ATOM      5  O   UNL     1      -2.400   5.144  16.371  1.00  0.00    -0.550 OA
ENDBRANCH   2   3
ENDBRANCH   1   2
BRANCH   1   6
ATOM      6  C   UNL     1       0.378   7.452  18.715  1.00  0.00     0.000 C 
BRANCH   6   7
ATOM      7  C   UNL     1       0.559   7.920  20.172  1.00  0.00    -0.000 C 
BRANCH   7   8
ATOM      8  C   UNL     1       0.724   6.789  21.201  1.00  0.00    -0.003 C 
ATOM      9  C   UNL     1      -0.419   6.734  22.215  1.00  0.00     0.004 C 
ENDBRANCH   7   8
ENDBRANCH   6   7
ENDBRANCH   1   6
TORSDOF 5
ENDMDL
MODEL 4
REMARK VINA RESULT:    -3.969      3.584      5.280
REMARK INTER + INTRA:          -5.236
REMARK INTER:                  -5.023
REMARK INTRA:                  -0.213
REMARK UNBOUND:                -0.107
REMARK SMILES CCCCCCC(=O)[O-]
REMARK SMILES IDX 5 1 6 2 7 3 8 4 9 5 4 6 3 7 2 8 1 9
REMARK H PARENT
REMARK Flexibility Score: inf
ROOT
ATOM      1  C   UNL     1       0.498   7.186  19.030  1.00  0.00     0.006 C 
ENDROOT
BRANCH   1   2
ATOM      2  C   UNL     1      -0.156   5.814  18.799  1.00  0.00     0.053 C 
BRANCH   2   3
ATOM      3  C   UNL     1      -0.196   5.453  17.345  1.00  0.00     0.041 C 
ATOM      4  O   UNL     1       0.510   6.083  16.515  1.00  0.00    -0.550 OA
ATOM      5  O   UNL     1      -0.988   4.396  16.913  1.00  0.00    -0.550 OA
ENDBRANCH   2   3
ENDBRANCH   1   2
BRANCH   1   6
ATOM      6  C   UNL     1       0.372   7.717  20.472  1.00  0.00     0.000 C 
BRANCH   6   7
ATOM      7  C   UNL     1      -0.360   6.781  21.454  1.00  0.00    -0.000 C 
BRANCH   7   8
ATOM      8  C   UNL     1       0.301   6.644  22.836  1.00  0.00    -0.003 C 
ATOM      9  C   UNL     1       1.826   6.727  22.777  1.00  0.00     0.004 C 
ENDBRANCH   7   8
ENDBRANCH   6   7
ENDBRANCH   1   6
TORSDOF 5
ENDMDL
MODEL 5
REMARK VINA RESULT:    -3.874      2.712      3.689
REMARK INTER + INTRA:          -5.114
REMARK INTER:                  -4.985
REMARK INTRA:                  -0.129
REMARK UNBOUND:                -0.107
REMARK SMILES CCCCCCC(=O)[O-]
REMARK SMILES IDX 5 1 6 2 7 3 8 4 9 5 4 6 3 7 2 8 1 9
REMARK H PARENT
REMARK Flexibility Score: inf
ROOT
ATOM      1  C   UNL     1       0.621   7.174  18.701  1.00  0.00     0.006 C 
ENDROOT
BRANCH   1   2
ATOM      2  C   UNL     1       0.323   7.923  20.010  1.00  0.00     0.053 C 
BRANCH   2   3
ATOM      3  C   UNL     1       0.545   7.056  21.212  1.00  0.00     0.041 C 
ATOM      4  O   UNL     1       1.712   6.747  21.565  1.00  0.00    -0.550 OA
ATOM      5  O   UNL     1      -0.539   6.617  21.962  1.00  0.00    -0.550 OA
ENDBRANCH   2   3
ENDBRANCH   1   2
BRANCH   1   6
ATOM      6  C   UNL     1      -0.391   6.062  18.358  1.00  0.00     0.000 C 
BRANCH   6   7
ATOM      7  C   UNL     1      -0.143   5.342  17.017  1.00  0.00    -0.000 C 
BRANCH   7   8
ATOM      8  C   UNL     1      -1.360   4.592  16.449  1.00  0.00    -0.003 C 
ATOM      9  C   UNL     1      -1.397   3.120  16.856  1.00  0.00     0.004 C 
ENDBRANCH   7   8
ENDBRANCH   6   7
ENDBRANCH   1   6
TORSDOF 5
ENDMDL
MODEL 6
REMARK VINA RESULT:    -3.874      4.223      4.748
REMARK INTER + INTRA:          -5.113
REMARK INTER:                  -4.960
REMARK INTRA:                  -0.153
REMARK UNBOUND:                -0.107
REMARK SMILES CCCCCCC(=O)[O-]
REMARK SMILES IDX 5 1 6 2 7 3 8 4 9 5 4 6 3 7 2 8 1 9
REMARK H PARENT
REMARK Flexibility Score: inf
ROOT
ATOM      1  C   UNL     1      -0.084   5.334  17.694  1.00  0.00     0.006 C 
ENDROOT
BRANCH   1   2
ATOM      2  C   UNL     1      -1.367   5.202  16.857  1.00  0.00     0.053 C 
BRANCH   2   3
ATOM      3  C   UNL     1      -1.646   3.779  16.484  1.00  0.00     0.041 C 
ATOM      4  O   UNL     1      -1.253   2.839  17.224  1.00  0.00    -0.550 OA
ATOM      5  O   UNL     1      -2.370   3.491  15.333  1.00  0.00    -0.550 OA
ENDBRANCH   2   3
ENDBRANCH   1   2
BRANCH   1   6
ATOM      6  C   UNL     1      -0.156   6.396  18.809  1.00  0.00     0.000 C 
BRANCH   6   7
ATOM      7  C   UNL     1       0.618   7.699  18.524  1.00  0.00    -0.000 C 
BRANCH   7   8
ATOM      8  C   UNL     1       1.041   7.895  17.058  1.00  0.00    -0.003 C 
ATOM      9  C   UNL     1       2.193   8.885  16.897  1.00  0.00     0.004 C 
ENDBRANCH   7   8
ENDBRANCH   6   7
ENDBRANCH   1   6
TORSDOF 5
ENDMDL
MODEL 7
REMARK VINA RESULT:    -3.701      4.018      4.875
REMARK INTER + INTRA:          -4.891
REMARK INTER:                  -4.777
REMARK INTRA:                  -0.113
REMARK UNBOUND:                -0.107
REMARK SMILES CCCCCCC(=O)[O-]
REMARK SMILES IDX 5 1 6 2 7 3 8 4 9 5 4 6 3 7 2 8 1 9
REMARK H PARENT
REMARK Flexibility Score: inf
ROOT
ATOM      1  C   UNL     1      -0.024   5.982  17.354  1.00  0.00     0.006 C 
ENDROOT
BRANCH   1   2
ATOM      2  C   UNL     1      -0.065   5.796  18.880  1.00  0.00     0.053 C 
BRANCH   2   3
ATOM      3  C   UNL     1       0.206   7.078  19.606  1.00  0.00     0.041 C 
ATOM      4  O   UNL     1      -0.017   7.167  20.841  1.00  0.00    -0.550 OA
ATOM      5  O   UNL     1       0.737   8.165  18.923  1.00  0.00    -0.550 OA
ENDBRANCH   2   3
ENDBRANCH   1   2
BRANCH   1   6
ATOM      6  C   UNL     1      -1.176   5.292  16.596  1.00  0.00     0.000 C 
BRANCH   6   7
ATOM      7  C   UNL     1      -1.230   3.758  16.742  1.00  0.00    -0.000 C 
BRANCH   7   8
ATOM      8  C   UNL     1      -2.345   3.069  15.936  1.00  0.00    -0.003 C 
ATOM      9  C   UNL     1      -3.643   2.915  16.728  1.00  0.00     0.004 C 
ENDBRANCH   7   8
ENDBRANCH   6   7
ENDBRANCH   1   6
TORSDOF 5
ENDMDL
MODEL 8
REMARK VINA RESULT:    -3.667      5.978      6.786
REMARK INTER + INTRA:          -4.846
REMARK INTER:                  -4.703
REMARK INTRA:                  -0.143
REMARK UNBOUND:                -0.107
REMARK SMILES CCCCCCC(=O)[O-]
REMARK SMILES IDX 5 1 6 2 7 3 8 4 9 5 4 6 3 7 2 8 1 9
REMARK H PARENT
REMARK Flexibility Score: inf
ROOT
ATOM      1  C   UNL     1      -2.868   3.940  15.455  1.00  0.00     0.006 C 
ENDROOT
BRANCH   1   2
ATOM      2  C   UNL     1      -3.266   2.929  16.542  1.00  0.00     0.053 C 
BRANCH   2   3
ATOM      3  C   UNL     1      -4.752   2.845  16.708  1.00  0.00     0.041 C 
ATOM      4  O   UNL     1      -5.289   1.773  17.092  1.00  0.00    -0.550 OA
ATOM      5  O   UNL     1      -5.543   3.963  16.471  1.00  0.00    -0.550 OA
ENDBRANCH   2   3
ENDBRANCH   1   2
BRANCH   1   6
ATOM      6  C   UNL     1      -1.974   5.094  15.954  1.00  0.00     0.000 C 
BRANCH   6   7
ATOM      7  C   UNL     1      -0.906   4.694  16.991  1.00  0.00    -0.000 C 
BRANCH   7   8
ATOM      8  C   UNL     1       0.037   5.830  17.422  1.00  0.00    -0.003 C 
ATOM      9  C   UNL     1      -0.157   6.244  18.881  1.00  0.00     0.004 C 
ENDBRANCH   7   8
ENDBRANCH   6   7
ENDBRANCH   1   6
TORSDOF 5
ENDMDL
MODEL 9
REMARK VINA RESULT:    -3.509      5.790      6.646
REMARK INTER + INTRA:          -4.642
REMARK INTER:                  -4.475
REMARK INTRA:                  -0.167
REMARK UNBOUND:                -0.107
REMARK SMILES CCCCCCC(=O)[O-]
REMARK SMILES IDX 5 1 6 2 7 3 8 4 9 5 4 6 3 7 2 8 1 9
REMARK H PARENT
REMARK Flexibility Score: inf
ROOT
ATOM      1  C   UNL     1      -1.957   4.851  16.078  1.00  0.00     0.006 C 
ENDROOT
BRANCH   1   2
ATOM      2  C   UNL     1      -0.862   4.453  17.080  1.00  0.00     0.053 C 
BRANCH   2   3
ATOM      3  C   UNL     1      -0.150   5.649  17.634  1.00  0.00     0.041 C 
ATOM      4  O   UNL     1      -0.158   5.876  18.872  1.00  0.00    -0.550 OA
ATOM      5  O   UNL     1       0.550   6.496  16.784  1.00  0.00    -0.550 OA
ENDBRANCH   2   3
ENDBRANCH   1   2
BRANCH   1   6
ATOM      6  C   UNL     1      -2.833   3.679  15.591  1.00  0.00     0.000 C 
BRANCH   6   7
ATOM      7  C   UNL     1      -4.249   4.069  15.122  1.00  0.00    -0.000 C 
BRANCH   7   8
ATOM      8  C   UNL     1      -5.395   3.346  15.850  1.00  0.00    -0.003 C 
ATOM      9  C   UNL     1      -4.907   2.448  16.985  1.00  0.00     0.004 C 
ENDBRANCH   7   8
ENDBRANCH   6   7
ENDBRANCH   1   6
TORSDOF 5
ENDMDL
