MODEL 1
REMARK VINA RESULT:    -4.334      0.000      0.000
REMARK INTER + INTRA:          -5.305
REMARK INTER:                  -5.221
REMARK INTRA:                  -0.085
REMARK UNBOUND:                -0.085
REMARK SMILES O=c1c(O)c(-c2ccc(O)c(O)c2)oc2cc(O)cc(O)c12
REMARK SMILES IDX 5 1 3 2 2 3 1 4 22 5 20 6 19 7 17 8 16 9 15 10 14 11 6 12
REMARK SMILES IDX 7 13 8 14 9 15 13 16 11 17 10 18 12 20 4 22 21 24 18 26
REMARK H PARENT 10 19 12 21 4 23 21 25 18 27
REMARK Flexibility Score: inf
ROOT
ATOM      1  C   UNL     1       0.062  23.599 -13.935  1.00  0.00     0.180 A 
ATOM      2  C   UNL     1      -0.945  23.487 -14.909  1.00  0.00     0.208 A 
ATOM      3  C   UNL     1      -2.267  23.250 -14.498  1.00  0.00     0.238 A 
ATOM      4  O   UNL     1      -3.172  23.204 -15.372  1.00  0.00    -0.285 OA
ATOM      5  C   UNL     1      -2.562  23.110 -13.121  1.00  0.00     0.111 A 
ATOM      6  C   UNL     1      -3.859  22.828 -12.595  1.00  0.00     0.134 A 
ATOM      7  C   UNL     1      -4.059  22.842 -11.209  1.00  0.00     0.093 A 
ATOM      8  C   UNL     1      -3.000  23.062 -10.330  1.00  0.00     0.123 A 
ATOM      9  C   UNL     1      -1.716  23.280 -10.832  1.00  0.00     0.094 A 
ATOM     10  C   UNL     1      -1.491  23.309 -12.210  1.00  0.00     0.146 A 
ATOM     11  O   UNL     1      -0.258  23.530 -12.647  1.00  0.00    -0.452 OA
ENDROOT
BRANCH   1  12
ATOM     12  C   UNL     1       1.482  23.825 -14.290  1.00  0.00     0.025 A 
ATOM     13  C   UNL     1       1.877  24.945 -15.043  1.00  0.00     0.016 A 
ATOM     14  C   UNL     1       3.220  25.125 -15.388  1.00  0.00     0.051 A 
ATOM     15  C   UNL     1       4.182  24.188 -15.000  1.00  0.00     0.157 A 
ATOM     16  C   UNL     1       2.448  22.876 -13.920  1.00  0.00     0.062 A 
ATOM     17  C   UNL     1       3.796  23.056 -14.265  1.00  0.00     0.158 A 
BRANCH  15  18
ATOM     18  O   UNL     1       5.514  24.396 -15.357  1.00  0.00    -0.504 OA
ATOM     19  H   UNL     1       6.282  24.088 -14.773  1.00  0.00     0.293 HD
ENDBRANCH  15  18
BRANCH  17  20
ATOM     20  O   UNL     1       4.748  22.113 -13.881  1.00  0.00    -0.504 OA
ATOM     21  H   UNL     1       5.249  22.191 -13.003  1.00  0.00     0.293 HD
ENDBRANCH  17  20
ENDBRANCH   1  12
BRANCH   2  22
ATOM     22  O   UNL     1      -0.635  23.650 -16.263  1.00  0.00    -0.502 OA
ATOM     23  H   UNL     1       0.304  23.852 -16.585  1.00  0.00     0.293 HD
ENDBRANCH   2  22
BRANCH   6  24
ATOM     24  O   UNL     1      -4.967  22.504 -13.383  1.00  0.00    -0.507 OA
ATOM     25  H   UNL     1      -5.842  22.151 -13.026  1.00  0.00     0.293 HD
ENDBRANCH   6  24
BRANCH   8  26
ATOM     26  O   UNL     1      -3.233  23.052  -8.956  1.00  0.00    -0.508 OA
ATOM     27  H   UNL     1      -4.149  23.256  -8.572  1.00  0.00     0.293 HD
ENDBRANCH   8  26
TORSDOF 6
ENDMDL
MODEL 2
REMARK VINA RESULT:    -4.295      1.735      6.753
REMARK INTER + INTRA:          -5.259
REMARK INTER:                  -5.171
REMARK INTRA:                  -0.088
REMARK UNBOUND:                -0.085
REMARK SMILES O=c1c(O)c(-c2ccc(O)c(O)c2)oc2cc(O)cc(O)c12
REMARK SMILES IDX 5 1 3 2 2 3 1 4 22 5 20 6 19 7 17 8 16 9 15 10 14 11 6 12
REMARK SMILES IDX 7 13 8 14 9 15 13 16 11 17 10 18 12 20 4 22 21 24 18 26
REMARK H PARENT 10 19 12 21 4 23 21 25 18 27
REMARK Flexibility Score: inf
ROOT
ATOM      1  C   UNL     1       0.599  23.505 -14.064  1.00  0.00     0.180 A 
ATOM      2  C   UNL     1       0.687  22.971 -15.362  1.00  0.00     0.208 A 
ATOM      3  C   UNL     1       1.950  22.849 -15.964  1.00  0.00     0.238 A 
ATOM      4  O   UNL     1       2.026  22.320 -17.104  1.00  0.00    -0.285 OA
ATOM      5  C   UNL     1       3.106  23.278 -15.269  1.00  0.00     0.111 A 
ATOM      6  C   UNL     1       4.431  23.238 -15.799  1.00  0.00     0.134 A 
ATOM      7  C   UNL     1       5.514  23.566 -14.975  1.00  0.00     0.093 A 
ATOM      8  C   UNL     1       5.317  23.994 -13.663  1.00  0.00     0.123 A 
ATOM      9  C   UNL     1       4.022  24.093 -13.153  1.00  0.00     0.094 A 
ATOM     10  C   UNL     1       2.923  23.738 -13.939  1.00  0.00     0.146 A 
ATOM     11  O   UNL     1       1.708  23.837 -13.413  1.00  0.00    -0.452 OA
ENDROOT
BRANCH   1  12
ATOM     12  C   UNL     1      -0.698  23.687 -13.373  1.00  0.00     0.025 A 
ATOM     13  C   UNL     1      -1.738  24.432 -13.955  1.00  0.00     0.016 A 
ATOM     14  C   UNL     1      -2.945  24.612 -13.273  1.00  0.00     0.051 A 
ATOM     15  C   UNL     1      -3.127  24.064 -11.999  1.00  0.00     0.157 A 
ATOM     16  C   UNL     1      -0.876  23.156 -12.085  1.00  0.00     0.062 A 
ATOM     17  C   UNL     1      -2.087  23.335 -11.400  1.00  0.00     0.158 A 
BRANCH  15  18
ATOM     18  O   UNL     1      -4.343  24.258 -11.345  1.00  0.00    -0.504 OA
ATOM     19  H   UNL     1      -4.565  25.123 -10.866  1.00  0.00     0.293 HD
ENDBRANCH  15  18
BRANCH  17  20
ATOM     20  O   UNL     1      -2.258  22.792 -10.128  1.00  0.00    -0.504 OA
ATOM     21  H   UNL     1      -3.179  22.646  -9.731  1.00  0.00     0.293 HD
ENDBRANCH  17  20
ENDBRANCH   1  12
BRANCH   2  22
ATOM     22  O   UNL     1      -0.466  22.533 -16.021  1.00  0.00    -0.502 OA
ATOM     23  H   UNL     1      -1.213  23.163 -16.287  1.00  0.00     0.293 HD
ENDBRANCH   2  22
BRANCH   6  24
ATOM     24  O   UNL     1       4.731  22.913 -17.125  1.00  0.00    -0.507 OA
ATOM     25  H   UNL     1       4.229  23.257 -17.929  1.00  0.00     0.293 HD
ENDBRANCH   6  24
BRANCH   8  26
ATOM     26  O   UNL     1       6.417  24.328 -12.876  1.00  0.00    -0.508 OA
ATOM     27  H   UNL     1       6.488  25.230 -12.419  1.00  0.00     0.293 HD
ENDBRANCH   8  26
TORSDOF 6
ENDMDL
MODEL 3
REMARK VINA RESULT:    -4.073     14.599     16.969
REMARK INTER + INTRA:          -4.991
REMARK INTER:                  -4.693
REMARK INTRA:                  -0.298
REMARK UNBOUND:                -0.085
REMARK SMILES O=c1c(O)c(-c2ccc(O)c(O)c2)oc2cc(O)cc(O)c12
REMARK SMILES IDX 5 1 3 2 2 3 1 4 22 5 20 6 19 7 17 8 16 9 15 10 14 11 6 12
REMARK SMILES IDX 7 13 8 14 9 15 13 16 11 17 10 18 12 20 4 22 21 24 18 26
REMARK H PARENT 10 19 12 21 4 23 21 25 18 27
REMARK Flexibility Score: inf
ROOT
ATOM      1  C   UNL     1      11.756  23.222  -2.636  1.00  0.00     0.180 A 
ATOM      2  C   UNL     1      10.750  23.783  -1.831  1.00  0.00     0.208 A 
ATOM      3  C   UNL     1      10.565  23.290  -0.529  1.00  0.00     0.238 A 
ATOM      4  O   UNL     1       9.699  23.834   0.206  1.00  0.00    -0.285 OA
ATOM      5  C   UNL     1      11.377  22.232  -0.055  1.00  0.00     0.111 A 
ATOM      6  C   UNL     1      11.250  21.628   1.232  1.00  0.00     0.134 A 
ATOM      7  C   UNL     1      12.191  20.677   1.644  1.00  0.00     0.093 A 
ATOM      8  C   UNL     1      13.214  20.261   0.793  1.00  0.00     0.123 A 
ATOM      9  C   UNL     1      13.312  20.802  -0.489  1.00  0.00     0.094 A 
ATOM     10  C   UNL     1      12.410  21.779  -0.916  1.00  0.00     0.146 A 
ATOM     11  O   UNL     1      12.544  22.275  -2.140  1.00  0.00    -0.452 OA
ENDROOT
BRANCH   1  12
ATOM     12  C   UNL     1      11.995  23.671  -4.027  1.00  0.00     0.025 A 
ATOM     13  C   UNL     1      13.004  24.602  -4.331  1.00  0.00     0.016 A 
ATOM     14  C   UNL     1      13.197  25.031  -5.647  1.00  0.00     0.051 A 
ATOM     15  C   UNL     1      12.380  24.549  -6.675  1.00  0.00     0.157 A 
ATOM     16  C   UNL     1      11.164  23.206  -5.058  1.00  0.00     0.062 A 
ATOM     17  C   UNL     1      11.356  23.634  -6.380  1.00  0.00     0.158 A 
BRANCH  15  18
ATOM     18  O   UNL     1      12.598  24.993  -7.978  1.00  0.00    -0.504 OA
ATOM     19  H   UNL     1      11.890  25.495  -8.502  1.00  0.00     0.293 HD
ENDBRANCH  15  18
BRANCH  17  20
ATOM     20  O   UNL     1      10.533  23.155  -7.397  1.00  0.00    -0.504 OA
ATOM     21  H   UNL     1      10.079  23.780  -8.053  1.00  0.00     0.293 HD
ENDBRANCH  17  20
ENDBRANCH   1  12
BRANCH   2  22
ATOM     22  O   UNL     1       9.975  24.844  -2.312  1.00  0.00    -0.502 OA
ATOM     23  H   UNL     1      10.306  25.477  -3.029  1.00  0.00     0.293 HD
ENDBRANCH   2  22
BRANCH   6  24
ATOM     24  O   UNL     1      10.211  21.904   2.125  1.00  0.00    -0.507 OA
ATOM     25  H   UNL     1      10.149  22.734   2.695  1.00  0.00     0.293 HD
ENDBRANCH   6  24
BRANCH   8  26
ATOM     26  O   UNL     1      14.124  19.300   1.230  1.00  0.00    -0.508 OA
ATOM     27  H   UNL     1      14.095  18.933   2.175  1.00  0.00     0.293 HD
ENDBRANCH   8  26
TORSDOF 6
ENDMDL
MODEL 4
REMARK VINA RESULT:    -3.969     12.279     15.563
REMARK INTER + INTRA:          -4.866
REMARK INTER:                  -4.548
REMARK INTRA:                  -0.317
REMARK UNBOUND:                -0.085
REMARK SMILES O=c1c(O)c(-c2ccc(O)c(O)c2)oc2cc(O)cc(O)c12
REMARK SMILES IDX 5 1 3 2 2 3 1 4 22 5 20 6 19 7 17 8 16 9 15 10 14 11 6 12
REMARK SMILES IDX 7 13 8 14 9 15 13 16 11 17 10 18 12 20 4 22 21 24 18 26
REMARK H PARENT 10 19 12 21 4 23 21 25 18 27
REMARK Flexibility Score: inf
ROOT
ATOM      1  C   UNL     1      11.661  23.746  -4.604  1.00  0.00     0.180 A 
ATOM      2  C   UNL     1      12.919  23.731  -5.232  1.00  0.00     0.208 A 
ATOM      3  C   UNL     1      12.991  23.956  -6.616  1.00  0.00     0.238 A 
ATOM      4  O   UNL     1      14.125  23.995  -7.163  1.00  0.00    -0.285 OA
ATOM      5  C   UNL     1      11.806  24.177  -7.357  1.00  0.00     0.111 A 
ATOM      6  C   UNL     1      11.759  24.377  -8.770  1.00  0.00     0.134 A 
ATOM      7  C   UNL     1      10.544  24.716  -9.379  1.00  0.00     0.093 A 
ATOM      8  C   UNL     1       9.366  24.800  -8.639  1.00  0.00     0.123 A 
ATOM      9  C   UNL     1       9.390  24.549  -7.266  1.00  0.00     0.094 A 
ATOM     10  C   UNL     1      10.592  24.243  -6.624  1.00  0.00     0.146 A 
ATOM     11  O   UNL     1      10.574  24.022  -5.316  1.00  0.00    -0.452 OA
ENDROOT
BRANCH   1  12
ATOM     12  C   UNL     1      11.501  23.493  -3.154  1.00  0.00     0.025 A 
ATOM     13  C   UNL     1      11.641  24.527  -2.211  1.00  0.00     0.016 A 
ATOM     14  C   UNL     1      11.510  24.260  -0.846  1.00  0.00     0.051 A 
ATOM     15  C   UNL     1      11.251  22.960  -0.400  1.00  0.00     0.157 A 
ATOM     16  C   UNL     1      11.262  22.185  -2.701  1.00  0.00     0.062 A 
ATOM     17  C   UNL     1      11.129  21.916  -1.331  1.00  0.00     0.158 A 
BRANCH  15  18
ATOM     18  O   UNL     1      11.122  22.726   0.968  1.00  0.00    -0.504 OA
ATOM     19  H   UNL     1      11.589  23.301   1.659  1.00  0.00     0.293 HD
ENDBRANCH  15  18
BRANCH  17  20
ATOM     20  O   UNL     1      10.879  20.617  -0.894  1.00  0.00    -0.504 OA
ATOM     21  H   UNL     1      10.651  19.872  -1.543  1.00  0.00     0.293 HD
ENDBRANCH  17  20
ENDBRANCH   1  12
BRANCH   2  22
ATOM     22  O   UNL     1      14.079  23.533  -4.477  1.00  0.00    -0.502 OA
ATOM     23  H   UNL     1      14.223  22.707  -3.908  1.00  0.00     0.293 HD
ENDBRANCH   2  22
BRANCH   6  24
ATOM     24  O   UNL     1      12.861  24.227  -9.616  1.00  0.00    -0.507 OA
ATOM     25  H   UNL     1      13.112  24.870 -10.352  1.00  0.00     0.293 HD
ENDBRANCH   6  24
BRANCH   8  26
ATOM     26  O   UNL     1       8.172  25.125  -9.280  1.00  0.00    -0.508 OA
ATOM     27  H   UNL     1       7.272  24.943  -8.850  1.00  0.00     0.293 HD
ENDBRANCH   8  26
TORSDOF 6
ENDMDL
MODEL 5
REMARK VINA RESULT:    -3.937     14.224     16.862
REMARK INTER + INTRA:          -4.827
REMARK INTER:                  -4.761
REMARK INTRA:                  -0.066
REMARK UNBOUND:                -0.085
REMARK SMILES O=c1c(O)c(-c2ccc(O)c(O)c2)oc2cc(O)cc(O)c12
REMARK SMILES IDX 5 1 3 2 2 3 1 4 22 5 20 6 19 7 17 8 16 9 15 10 14 11 6 12
REMARK SMILES IDX 7 13 8 14 9 15 13 16 11 17 10 18 12 20 4 22 21 24 18 26
REMARK H PARENT 10 19 12 21 4 23 21 25 18 27
REMARK Flexibility Score: inf
ROOT
ATOM      1  C   UNL     1      12.516  23.267  -3.511  1.00  0.00     0.180 A 
ATOM      2  C   UNL     1      13.309  24.171  -2.783  1.00  0.00     0.208 A 
ATOM      3  C   UNL     1      13.342  24.074  -1.383  1.00  0.00     0.238 A 
ATOM      4  O   UNL     1      14.096  24.852  -0.741  1.00  0.00    -0.285 OA
ATOM      5  C   UNL     1      12.569  23.086  -0.727  1.00  0.00     0.111 A 
ATOM      6  C   UNL     1      12.496  22.924   0.690  1.00  0.00     0.134 A 
ATOM      7  C   UNL     1      11.803  21.831   1.223  1.00  0.00     0.093 A 
ATOM      8  C   UNL     1      11.128  20.933   0.398  1.00  0.00     0.123 A 
ATOM      9  C   UNL     1      11.144  21.116  -0.985  1.00  0.00     0.094 A 
ATOM     10  C   UNL     1      11.856  22.177  -1.550  1.00  0.00     0.146 A 
ATOM     11  O   UNL     1      11.854  22.310  -2.870  1.00  0.00    -0.452 OA
ENDROOT
BRANCH   1  12
ATOM     12  C   UNL     1      12.410  23.321  -4.987  1.00  0.00     0.025 A 
ATOM     13  C   UNL     1      13.551  23.238  -5.805  1.00  0.00     0.016 A 
ATOM     14  C   UNL     1      13.430  23.316  -7.195  1.00  0.00     0.051 A 
ATOM     15  C   UNL     1      12.176  23.490  -7.788  1.00  0.00     0.157 A 
ATOM     16  C   UNL     1      11.155  23.516  -5.585  1.00  0.00     0.062 A 
ATOM     17  C   UNL     1      11.032  23.594  -6.980  1.00  0.00     0.158 A 
BRANCH  15  18
ATOM     18  O   UNL     1      12.087  23.561  -9.177  1.00  0.00    -0.504 OA
ATOM     19  H   UNL     1      11.529  22.908  -9.715  1.00  0.00     0.293 HD
ENDBRANCH  15  18
BRANCH  17  20
ATOM     20  O   UNL     1       9.779  23.775  -7.563  1.00  0.00    -0.504 OA
ATOM     21  H   UNL     1       9.414  24.699  -7.764  1.00  0.00     0.293 HD
ENDBRANCH  17  20
ENDBRANCH   1  12
BRANCH   2  22
ATOM     22  O   UNL     1      14.082  25.125  -3.454  1.00  0.00    -0.502 OA
ATOM     23  H   UNL     1      14.858  25.603  -3.013  1.00  0.00     0.293 HD
ENDBRANCH   2  22
BRANCH   6  24
ATOM     24  O   UNL     1      13.058  23.815   1.608  1.00  0.00    -0.507 OA
ATOM     25  H   UNL     1      12.650  24.698   1.875  1.00  0.00     0.293 HD
ENDBRANCH   6  24
BRANCH   8  26
ATOM     26  O   UNL     1      10.434  19.865   0.966  1.00  0.00    -0.508 OA
ATOM     27  H   UNL     1       9.619  20.013   1.550  1.00  0.00     0.293 HD
ENDBRANCH   8  26
TORSDOF 6
ENDMDL
MODEL 6
REMARK VINA RESULT:    -3.823     13.448     16.045
REMARK INTER + INTRA:          -4.690
REMARK INTER:                  -4.684
REMARK INTRA:                  -0.006
REMARK UNBOUND:                -0.085
REMARK SMILES O=c1c(O)c(-c2ccc(O)c(O)c2)oc2cc(O)cc(O)c12
REMARK SMILES IDX 5 1 3 2 2 3 1 4 22 5 20 6 19 7 17 8 16 9 15 10 14 11 6 12
REMARK SMILES IDX 7 13 8 14 9 15 13 16 11 17 10 18 12 20 4 22 21 24 18 26
REMARK H PARENT 10 19 12 21 4 23 21 25 18 27
REMARK Flexibility Score: inf
ROOT
ATOM      1  C   UNL     1      12.027  23.641  -4.151  1.00  0.00     0.180 A 
ATOM      2  C   UNL     1      13.117  22.907  -3.651  1.00  0.00     0.208 A 
ATOM      3  C   UNL     1      13.170  22.615  -2.279  1.00  0.00     0.238 A 
ATOM      4  O   UNL     1      14.121  21.911  -1.847  1.00  0.00    -0.285 OA
ATOM      5  C   UNL     1      12.142  23.075  -1.421  1.00  0.00     0.111 A 
ATOM      6  C   UNL     1      12.115  22.871  -0.008  1.00  0.00     0.134 A 
ATOM      7  C   UNL     1      10.985  23.256   0.723  1.00  0.00     0.093 A 
ATOM      8  C   UNL     1       9.910  23.894   0.105  1.00  0.00     0.123 A 
ATOM      9  C   UNL     1       9.952  24.151  -1.266  1.00  0.00     0.094 A 
ATOM     10  C   UNL     1      11.050  23.747  -2.028  1.00  0.00     0.146 A 
ATOM     11  O   UNL     1      11.046  24.001  -3.331  1.00  0.00    -0.452 OA
ENDROOT
BRANCH   1  12
ATOM     12  C   UNL     1      11.913  24.008  -5.581  1.00  0.00     0.025 A 
ATOM     13  C   UNL     1      12.987  24.593  -6.273  1.00  0.00     0.016 A 
ATOM     14  C   UNL     1      12.849  24.954  -7.616  1.00  0.00     0.051 A 
ATOM     15  C   UNL     1      11.637  24.750  -8.283  1.00  0.00     0.157 A 
ATOM     16  C   UNL     1      10.691  23.823  -6.248  1.00  0.00     0.062 A 
ATOM     17  C   UNL     1      10.551  24.184  -7.596  1.00  0.00     0.158 A 
BRANCH  15  18
ATOM     18  O   UNL     1      11.530  25.117  -9.623  1.00  0.00    -0.504 OA
ATOM     19  H   UNL     1      11.897  24.540 -10.371  1.00  0.00     0.293 HD
ENDBRANCH  15  18
BRANCH  17  20
ATOM     20  O   UNL     1       9.337  23.983  -8.251  1.00  0.00    -0.504 OA
ATOM     21  H   UNL     1       9.069  23.073  -8.606  1.00  0.00     0.293 HD
ENDBRANCH  17  20
ENDBRANCH   1  12
BRANCH   2  22
ATOM     22  O   UNL     1      14.110  22.444  -4.520  1.00  0.00    -0.502 OA
ATOM     23  H   UNL     1      14.730  21.680  -4.280  1.00  0.00     0.293 HD
ENDBRANCH   2  22
BRANCH   6  24
ATOM     24  O   UNL     1      13.175  22.327   0.723  1.00  0.00    -0.507 OA
ATOM     25  H   UNL     1      13.520  21.384   0.618  1.00  0.00     0.293 HD
ENDBRANCH   6  24
BRANCH   8  26
ATOM     26  O   UNL     1       8.808  24.278   0.866  1.00  0.00    -0.508 OA
ATOM     27  H   UNL     1       8.908  24.589   1.826  1.00  0.00     0.293 HD
ENDBRANCH   8  26
TORSDOF 6
ENDMDL
MODEL 7
REMARK VINA RESULT:    -3.807      1.780      2.742
REMARK INTER + INTRA:          -4.671
REMARK INTER:                  -4.539
REMARK INTRA:                  -0.131
REMARK UNBOUND:                -0.085
REMARK SMILES O=c1c(O)c(-c2ccc(O)c(O)c2)oc2cc(O)cc(O)c12
REMARK SMILES IDX 5 1 3 2 2 3 1 4 22 5 20 6 19 7 17 8 16 9 15 10 14 11 6 12
REMARK SMILES IDX 7 13 8 14 9 15 13 16 11 17 10 18 12 20 4 22 21 24 18 26
REMARK H PARENT 10 19 12 21 4 23 21 25 18 27
REMARK Flexibility Score: inf
ROOT
ATOM      1  C   UNL     1      -2.040  23.605 -12.901  1.00  0.00     0.180 A 
ATOM      2  C   UNL     1      -3.095  22.768 -13.304  1.00  0.00     0.208 A 
ATOM      3  C   UNL     1      -4.138  22.504 -12.402  1.00  0.00     0.238 A 
ATOM      4  O   UNL     1      -5.107  21.798 -12.788  1.00  0.00    -0.285 OA
ATOM      5  C   UNL     1      -4.105  23.066 -11.103  1.00  0.00     0.111 A 
ATOM      6  C   UNL     1      -5.088  22.833 -10.094  1.00  0.00     0.134 A 
ATOM      7  C   UNL     1      -5.023  23.544  -8.890  1.00  0.00     0.093 A 
ATOM      8  C   UNL     1      -3.978  24.429  -8.632  1.00  0.00     0.123 A 
ATOM      9  C   UNL     1      -2.979  24.621  -9.588  1.00  0.00     0.094 A 
ATOM     10  C   UNL     1      -3.036  23.953 -10.813  1.00  0.00     0.146 A 
ATOM     11  O   UNL     1      -2.072  24.170 -11.699  1.00  0.00    -0.452 OA
ENDROOT
BRANCH   1  12
ATOM     12  C   UNL     1      -0.894  23.911 -13.786  1.00  0.00     0.025 A 
ATOM     13  C   UNL     1      -1.073  24.584 -15.008  1.00  0.00     0.016 A 
ATOM     14  C   UNL     1       0.021  24.841 -15.840  1.00  0.00     0.051 A 
ATOM     15  C   UNL     1       1.303  24.420 -15.473  1.00  0.00     0.157 A 
ATOM     16  C   UNL     1       0.392  23.472 -13.431  1.00  0.00     0.062 A 
ATOM     17  C   UNL     1       1.491  23.730 -14.265  1.00  0.00     0.158 A 
BRANCH  15  18
ATOM     18  O   UNL     1       2.375  24.693 -16.321  1.00  0.00    -0.504 OA
ATOM     19  H   UNL     1       2.760  25.625 -16.420  1.00  0.00     0.293 HD
ENDBRANCH  15  18
BRANCH  17  20
ATOM     20  O   UNL     1       2.764  23.301 -13.895  1.00  0.00    -0.504 OA
ATOM     21  H   UNL     1       3.429  23.926 -13.454  1.00  0.00     0.293 HD
ENDBRANCH  17  20
ENDBRANCH   1  12
BRANCH   2  22
ATOM     22  O   UNL     1      -3.119  22.242 -14.600  1.00  0.00    -0.502 OA
ATOM     23  H   UNL     1      -3.555  22.726 -15.375  1.00  0.00     0.293 HD
ENDBRANCH   2  22
BRANCH   6  24
ATOM     24  O   UNL     1      -6.123  21.901 -10.214  1.00  0.00    -0.507 OA
ATOM     25  H   UNL     1      -6.164  21.174 -10.912  1.00  0.00     0.293 HD
ENDBRANCH   6  24
BRANCH   8  26
ATOM     26  O   UNL     1      -3.936  25.109  -7.415  1.00  0.00    -0.508 OA
ATOM     27  H   UNL     1      -4.362  24.725  -6.579  1.00  0.00     0.293 HD
ENDBRANCH   8  26
TORSDOF 6
ENDMDL
MODEL 8
REMARK VINA RESULT:    -3.757     15.955     18.375
REMARK INTER + INTRA:          -4.610
REMARK INTER:                  -4.361
REMARK INTRA:                  -0.249
REMARK UNBOUND:                -0.085
REMARK SMILES O=c1c(O)c(-c2ccc(O)c(O)c2)oc2cc(O)cc(O)c12
REMARK SMILES IDX 5 1 3 2 2 3 1 4 22 5 20 6 19 7 17 8 16 9 15 10 14 11 6 12
REMARK SMILES IDX 7 13 8 14 9 15 13 16 11 17 10 18 12 20 4 22 21 24 18 26
REMARK H PARENT 10 19 12 21 4 23 21 25 18 27
REMARK Flexibility Score: inf
ROOT
ATOM      1  C   UNL     1       7.216  23.302   1.623  1.00  0.00     0.180 A 
ATOM      2  C   UNL     1       7.705  24.219   0.675  1.00  0.00     0.208 A 
ATOM      3  C   UNL     1       9.079  24.232   0.387  1.00  0.00     0.238 A 
ATOM      4  O   UNL     1       9.502  25.018  -0.502  1.00  0.00    -0.285 OA
ATOM      5  C   UNL     1       9.949  23.342   1.060  1.00  0.00     0.111 A 
ATOM      6  C   UNL     1      11.364  23.297   0.875  1.00  0.00     0.134 A 
ATOM      7  C   UNL     1      12.109  22.288   1.497  1.00  0.00     0.093 A 
ATOM      8  C   UNL     1      11.503  21.364   2.347  1.00  0.00     0.123 A 
ATOM      9  C   UNL     1      10.129  21.435   2.581  1.00  0.00     0.094 A 
ATOM     10  C   UNL     1       9.353  22.408   1.947  1.00  0.00     0.146 A 
ATOM     11  O   UNL     1       8.048  22.435   2.189  1.00  0.00    -0.452 OA
ENDROOT
BRANCH   1  12
ATOM     12  C   UNL     1       5.785  23.243   1.998  1.00  0.00     0.025 A 
ATOM     13  C   UNL     1       5.187  24.261   2.761  1.00  0.00     0.016 A 
ATOM     14  C   UNL     1       3.840  24.173   3.125  1.00  0.00     0.051 A 
ATOM     15  C   UNL     1       3.076  23.066   2.745  1.00  0.00     0.157 A 
ATOM     16  C   UNL     1       5.019  22.123   1.635  1.00  0.00     0.062 A 
ATOM     17  C   UNL     1       3.668  22.034   1.999  1.00  0.00     0.158 A 
BRANCH  15  18
ATOM     18  O   UNL     1       1.734  23.007   3.120  1.00  0.00    -0.504 OA
ATOM     19  H   UNL     1       1.050  22.477   2.593  1.00  0.00     0.293 HD
ENDBRANCH  15  18
BRANCH  17  20
ATOM     20  O   UNL     1       2.914  20.923   1.622  1.00  0.00    -0.504 OA
ATOM     21  H   UNL     1       1.946  21.010   1.334  1.00  0.00     0.293 HD
ENDBRANCH  17  20
ENDBRANCH   1  12
BRANCH   2  22
ATOM     22  O   UNL     1       6.824  25.074   0.006  1.00  0.00    -0.502 OA
ATOM     23  H   UNL     1       6.018  24.733  -0.505  1.00  0.00     0.293 HD
ENDBRANCH   2  22
BRANCH   6  24
ATOM     24  O   UNL     1      12.082  24.229   0.120  1.00  0.00    -0.507 OA
ATOM     25  H   UNL     1      12.295  24.131  -0.861  1.00  0.00     0.293 HD
ENDBRANCH   6  24
BRANCH   8  26
ATOM     26  O   UNL     1      12.279  20.383   2.962  1.00  0.00    -0.508 OA
ATOM     27  H   UNL     1      12.628  19.583   2.447  1.00  0.00     0.293 HD
ENDBRANCH   8  26
TORSDOF 6
ENDMDL
