MODEL 1
REMARK VINA RESULT:    21.786      0.000      0.000
REMARK INTER + INTRA:          45.372
REMARK INTER:                  31.976
REMARK INTRA:                  13.396
REMARK UNBOUND:                13.396
REMARK SMILES O=c1c(O[C@H]2O[C@H](CO)[C@@H](O)[C@@H](O)[C@H]2O)c(-c2ccc(O)c(O)c2)oc2cc(O)cc(O)c12
REMARK SMILES IDX 4 1 3 2 16 3 25 4 2 5 26 6 1 7 33 8 27 9 31 10 28 11 30 12
REMARK SMILES IDX 17 13 18 14 19 15 20 16 24 17 22 18 21 19 23 21 32 23 29 25
REMARK SMILES IDX 5 27 14 28 6 29 12 30 7 31 10 32 15 33 13 35 8 37 9 38 11 40
REMARK H PARENT 21 20 23 22 32 24 29 26 15 34 13 36 9 39 11 41
REMARK Flexibility Score: inf
ROOT
ATOM      1  O   UNL     1    -114.637 -97.772  33.778  1.00  0.00    -0.454 OA
ENDROOT
BRANCH   1   2
ATOM      2  C   UNL     1    -115.322 -98.088  34.972  1.00  0.00     0.214 A 
ATOM      3  C   UNL     1    -114.714 -97.745  36.197  1.00  0.00     0.180 A 
ATOM      4  O   UNL     1    -115.281 -98.083  37.349  1.00  0.00    -0.452 OA
ATOM      5  C   UNL     1    -116.570 -98.756  35.014  1.00  0.00     0.239 A 
ATOM      6  C   UNL     1    -116.442 -98.719  37.431  1.00  0.00     0.146 A 
ATOM      7  O   UNL     1    -117.164 -99.067  33.948  1.00  0.00    -0.285 OA
ATOM      8  C   UNL     1    -117.148 -99.080  36.261  1.00  0.00     0.111 A 
ATOM      9  C   UNL     1    -116.960 -99.026  38.692  1.00  0.00     0.094 A 
ATOM     10  C   UNL     1    -118.389 -99.751  36.388  1.00  0.00     0.134 A 
ATOM     11  C   UNL     1    -118.182 -99.686  38.812  1.00  0.00     0.123 A 
ATOM     12  C   UNL     1    -118.894-100.047  37.663  1.00  0.00     0.093 A 
BRANCH   3  13
ATOM     13  C   UNL     1    -113.428 -97.022  36.247  1.00  0.00     0.025 A 
ATOM     14  C   UNL     1    -113.346 -95.670  35.877  1.00  0.00     0.016 A 
ATOM     15  C   UNL     1    -112.127 -94.993  35.947  1.00  0.00     0.051 A 
ATOM     16  C   UNL     1    -110.977 -95.652  36.402  1.00  0.00     0.157 A 
ATOM     17  C   UNL     1    -112.281 -97.673  36.726  1.00  0.00     0.062 A 
ATOM     18  C   UNL     1    -111.057 -96.998  36.797  1.00  0.00     0.158 A 
BRANCH  16  19
ATOM     19  O   UNL     1    -109.760 -94.974  36.467  1.00  0.00    -0.504 OA
ATOM     20  H   UNL     1    -109.680 -94.001  36.195  1.00  0.00     0.293 HD
ENDBRANCH  16  19
BRANCH  18  21
ATOM     21  O   UNL     1    -109.933 -97.680  37.263  1.00  0.00    -0.504 OA
ATOM     22  H   UNL     1    -109.692 -97.710  38.246  1.00  0.00     0.293 HD
ENDBRANCH  18  21
ENDBRANCH   3  13
BRANCH  10  23
ATOM     23  O   UNL     1    -119.125-100.125  35.262  1.00  0.00    -0.507 OA
ATOM     24  H   UNL     1    -119.603 -99.442  34.686  1.00  0.00     0.293 HD
ENDBRANCH  10  23
BRANCH  11  25
ATOM     25  O   UNL     1    -118.683 -99.982  40.079  1.00  0.00    -0.508 OA
ATOM     26  H   UNL     1    -119.016-100.909  40.314  1.00  0.00     0.293 HD
ENDBRANCH  11  25
ENDBRANCH   1   2
BRANCH   1  27
ATOM     27  C   UNL     1    -115.066 -96.874  32.748  1.00  0.00     0.339 C 
ATOM     28  C   UNL     1    -115.910 -95.722  33.335  1.00  0.00     0.214 C 
ATOM     29  O   UNL     1    -115.776 -97.556  31.726  1.00  0.00    -0.332 OA
ATOM     30  C   UNL     1    -117.283 -96.224  33.818  1.00  0.00     0.180 C 
ATOM     31  C   UNL     1    -116.962 -98.157  32.222  1.00  0.00     0.179 C 
ATOM     32  C   UNL     1    -117.946 -97.076  32.721  1.00  0.00     0.177 C 
BRANCH  28  33
ATOM     33  O   UNL     1    -115.227 -95.101  34.394  1.00  0.00    -0.384 OA
ATOM     34  H   UNL     1    -114.471 -94.599  33.992  1.00  0.00     0.211 HD
ENDBRANCH  28  33
BRANCH  30  35
ATOM     35  O   UNL     1    -117.149 -96.986  34.992  1.00  0.00    -0.387 OA
ATOM     36  H   UNL     1    -117.673 -96.527  35.699  1.00  0.00     0.211 HD
ENDBRANCH  30  35
BRANCH  31  37
ATOM     37  C   UNL     1    -117.589 -98.988  31.094  1.00  0.00     0.191 C 
BRANCH  37  38
ATOM     38  O   UNL     1    -118.645 -98.283  30.498  1.00  0.00    -0.394 OA
ATOM     39  H   UNL     1    -118.507 -98.341  29.516  1.00  0.00     0.210 HD
ENDBRANCH  37  38
ENDBRANCH  31  37
BRANCH  32  40
ATOM     40  O   UNL     1    -119.111 -97.681  33.223  1.00  0.00    -0.387 OA
ATOM     41  H   UNL     1    -119.035 -97.670  34.213  1.00  0.00     0.211 HD
ENDBRANCH  32  40
ENDBRANCH   1  27
TORSDOF 12
ENDMDL
MODEL 2
REMARK VINA RESULT:    23.338      2.034      5.240
REMARK INTER + INTRA:          47.649
REMARK INTER:                  33.884
REMARK INTRA:                  13.765
REMARK UNBOUND:                13.396
REMARK SMILES O=c1c(O[C@H]2O[C@H](CO)[C@@H](O)[C@@H](O)[C@H]2O)c(-c2ccc(O)c(O)c2)oc2cc(O)cc(O)c12
REMARK SMILES IDX 4 1 3 2 16 3 25 4 2 5 26 6 1 7 33 8 27 9 31 10 28 11 30 12
REMARK SMILES IDX 17 13 18 14 19 15 20 16 24 17 22 18 21 19 23 21 32 23 29 25
REMARK SMILES IDX 5 27 14 28 6 29 12 30 7 31 10 32 15 33 13 35 8 37 9 38 11 40
REMARK H PARENT 21 20 23 22 32 24 29 26 15 34 13 36 9 39 11 41
REMARK Flexibility Score: inf
ROOT
ATOM      1  O   UNL     1    -115.413 -98.968  33.551  1.00  0.00    -0.454 OA
ENDROOT
BRANCH   1   2
ATOM      2  C   UNL     1    -115.995 -97.787  33.041  1.00  0.00     0.214 A 
ATOM      3  C   UNL     1    -115.603 -96.556  33.606  1.00  0.00     0.180 A 
ATOM      4  O   UNL     1    -116.172 -95.422  33.214  1.00  0.00    -0.452 OA
ATOM      5  C   UNL     1    -116.973 -97.766  32.017  1.00  0.00     0.239 A 
ATOM      6  C   UNL     1    -117.099 -95.361  32.268  1.00  0.00     0.146 A 
ATOM      7  O   UNL     1    -117.344 -98.836  31.466  1.00  0.00    -0.285 OA
ATOM      8  C   UNL     1    -117.539 -96.536  31.616  1.00  0.00     0.111 A 
ATOM      9  C   UNL     1    -117.633 -94.117  31.920  1.00  0.00     0.094 A 
ATOM     10  C   UNL     1    -118.525 -96.431  30.604  1.00  0.00     0.134 A 
ATOM     11  C   UNL     1    -118.603 -94.019  30.923  1.00  0.00     0.123 A 
ATOM     12  C   UNL     1    -119.046 -95.173  30.267  1.00  0.00     0.093 A 
BRANCH   3  13
ATOM     13  C   UNL     1    -114.570 -96.481  34.658  1.00  0.00     0.025 A 
ATOM     14  C   UNL     1    -114.277 -97.595  35.461  1.00  0.00     0.016 A 
ATOM     15  C   UNL     1    -113.284 -97.517  36.440  1.00  0.00     0.051 A 
ATOM     16  C   UNL     1    -112.561 -96.330  36.620  1.00  0.00     0.157 A 
ATOM     17  C   UNL     1    -113.828 -95.302  34.823  1.00  0.00     0.062 A 
ATOM     18  C   UNL     1    -112.832 -95.219  35.804  1.00  0.00     0.158 A 
BRANCH  16  19
ATOM     19  O   UNL     1    -111.573 -96.253  37.601  1.00  0.00    -0.504 OA
ATOM     20  H   UNL     1    -111.725 -95.755  38.470  1.00  0.00     0.293 HD
ENDBRANCH  16  19
BRANCH  18  21
ATOM     21  O   UNL     1    -112.125 -94.026  35.951  1.00  0.00    -0.504 OA
ATOM     22  H   UNL     1    -112.583 -93.123  35.931  1.00  0.00     0.293 HD
ENDBRANCH  18  21
ENDBRANCH   3  13
BRANCH  10  23
ATOM     23  O   UNL     1    -118.989 -97.562  29.930  1.00  0.00    -0.507 OA
ATOM     24  H   UNL     1    -118.746 -97.744  28.963  1.00  0.00     0.293 HD
ENDBRANCH  10  23
BRANCH  11  25
ATOM     25  O   UNL     1    -119.123 -92.770  30.590  1.00  0.00    -0.508 OA
ATOM     26  H   UNL     1    -118.860 -91.934  31.098  1.00  0.00     0.293 HD
ENDBRANCH  11  25
ENDBRANCH   1   2
BRANCH   1  27
ATOM     27  C   UNL     1    -116.092-100.070  34.163  1.00  0.00     0.339 C 
ATOM     28  C   UNL     1    -117.570-100.124  33.719  1.00  0.00     0.214 C 
ATOM     29  O   UNL     1    -115.987-100.025  35.578  1.00  0.00    -0.332 OA
ATOM     30  C   UNL     1    -118.380 -98.963  34.326  1.00  0.00     0.180 C 
ATOM     31  C   UNL     1    -116.597 -98.861  36.113  1.00  0.00     0.179 C 
ATOM     32  C   UNL     1    -118.117 -98.875  35.839  1.00  0.00     0.177 C 
BRANCH  28  33
ATOM     33  O   UNL     1    -117.664-100.095  32.318  1.00  0.00    -0.384 OA
ATOM     34  H   UNL     1    -118.551-100.475  32.082  1.00  0.00     0.211 HD
ENDBRANCH  28  33
BRANCH  30  35
ATOM     35  O   UNL     1    -118.036 -97.745  33.713  1.00  0.00    -0.387 OA
ATOM     36  H   UNL     1    -118.682 -97.064  34.036  1.00  0.00     0.211 HD
ENDBRANCH  30  35
BRANCH  31  37
ATOM     37  C   UNL     1    -116.314 -98.820  37.621  1.00  0.00     0.191 C 
BRANCH  37  38
ATOM     38  O   UNL     1    -116.846 -99.956  38.250  1.00  0.00    -0.394 OA
ATOM     39  H   UNL     1    -117.828 -99.930  38.101  1.00  0.00     0.210 HD
ENDBRANCH  37  38
ENDBRANCH  31  37
BRANCH  32  40
ATOM     40  O   UNL     1    -118.709 -97.712  36.360  1.00  0.00    -0.387 OA
ATOM     41  H   UNL     1    -118.823 -97.861  37.335  1.00  0.00     0.211 HD
ENDBRANCH  32  40
ENDBRANCH   1  27
TORSDOF 12
ENDMDL
