MODEL 1
REMARK VINA RESULT:    -5.175      0.000      0.000
REMARK INTER + INTRA:          -5.826
REMARK INTER:                  -5.629
REMARK INTRA:                  -0.197
REMARK UNBOUND:                -0.197
REMARK SMILES Cc1ccc(C(C)C)c(O)c1
REMARK SMILES IDX 1 1 2 2 11 3 9 4 5 5 4 6 3 7 10 8 6 10 7 11 8 12
REMARK H PARENT 10 9
REMARK Flexibility Score: inf
ROOT
ATOM      1  C   UNL     1      23.820   7.088 100.018  1.00  0.00     0.044 C 
ATOM      2  C   UNL     1      23.425   5.999 100.971  1.00  0.00    -0.047 A 
ATOM      3  C   UNL     1      24.374   5.439 101.836  1.00  0.00     0.049 A 
ATOM      4  C   UNL     1      24.023   4.394 102.703  1.00  0.00     0.119 A 
ATOM      5  C   UNL     1      22.704   3.889 102.704  1.00  0.00    -0.004 A 
ATOM      6  C   UNL     1      21.763   4.447 101.816  1.00  0.00     0.008 A 
ATOM      7  C   UNL     1      22.122   5.486 100.955  1.00  0.00     0.004 A 
ENDROOT
BRANCH   4   8
ATOM      8  O   UNL     1      24.985   3.860 103.561  1.00  0.00    -0.508 OA
ATOM      9  H   UNL     1      25.606   4.452 104.100  1.00  0.00     0.293 HD
ENDBRANCH   4   8
BRANCH   5  10
ATOM     10  C   UNL     1      22.297   2.756 103.636  1.00  0.00     0.017 C 
ATOM     11  C   UNL     1      21.304   3.243 104.698  1.00  0.00     0.012 C 
ATOM     12  C   UNL     1      21.725   1.572 102.848  1.00  0.00     0.012 C 
ENDBRANCH   5  10
TORSDOF 2
ENDMDL
MODEL 2
REMARK VINA RESULT:    -5.035      1.865      4.829
REMARK INTER + INTRA:          -5.674
REMARK INTER:                  -5.477
REMARK INTRA:                  -0.197
REMARK UNBOUND:                -0.197
REMARK SMILES Cc1ccc(C(C)C)c(O)c1
REMARK SMILES IDX 1 1 2 2 11 3 9 4 5 5 4 6 3 7 10 8 6 10 7 11 8 12
REMARK H PARENT 10 9
REMARK Flexibility Score: inf
ROOT
ATOM      1  C   UNL     1      19.413   1.479 106.005  1.00  0.00     0.044 C 
ATOM      2  C   UNL     1      20.410   2.333 105.279  1.00  0.00    -0.047 A 
ATOM      3  C   UNL     1      20.587   3.675 105.641  1.00  0.00     0.049 A 
ATOM      4  C   UNL     1      21.489   4.491 104.942  1.00  0.00     0.119 A 
ATOM      5  C   UNL     1      22.224   3.965 103.856  1.00  0.00    -0.004 A 
ATOM      6  C   UNL     1      22.023   2.619 103.490  1.00  0.00     0.008 A 
ATOM      7  C   UNL     1      21.121   1.815 104.190  1.00  0.00     0.004 A 
ENDROOT
BRANCH   4   8
ATOM      8  O   UNL     1      21.653   5.821 105.328  1.00  0.00    -0.508 OA
ATOM      9  H   UNL     1      20.884   6.481 105.307  1.00  0.00     0.293 HD
ENDBRANCH   4   8
BRANCH   5  10
ATOM     10  C   UNL     1      23.209   4.829 103.083  1.00  0.00     0.017 C 
ATOM     11  C   UNL     1      24.618   4.223 103.112  1.00  0.00     0.012 C 
ATOM     12  C   UNL     1      22.735   5.052 101.642  1.00  0.00     0.012 C 
ENDBRANCH   5  10
TORSDOF 2
ENDMDL
MODEL 3
REMARK VINA RESULT:    -4.999      1.604      4.662
REMARK INTER + INTRA:          -5.634
REMARK INTER:                  -5.436
REMARK INTRA:                  -0.198
REMARK UNBOUND:                -0.197
REMARK SMILES Cc1ccc(C(C)C)c(O)c1
REMARK SMILES IDX 1 1 2 2 11 3 9 4 5 5 4 6 3 7 10 8 6 10 7 11 8 12
REMARK H PARENT 10 9
REMARK Flexibility Score: inf
ROOT
ATOM      1  C   UNL     1      19.495   2.058 106.010  1.00  0.00     0.044 C 
ATOM      2  C   UNL     1      20.559   2.617 105.112  1.00  0.00    -0.047 A 
ATOM      3  C   UNL     1      21.151   1.810 104.132  1.00  0.00     0.049 A 
ATOM      4  C   UNL     1      22.173   2.314 103.313  1.00  0.00     0.119 A 
ATOM      5  C   UNL     1      22.621   3.644 103.478  1.00  0.00    -0.004 A 
ATOM      6  C   UNL     1      22.030   4.439 104.480  1.00  0.00     0.008 A 
ATOM      7  C   UNL     1      21.015   3.928 105.292  1.00  0.00     0.004 A 
ENDROOT
BRANCH   4   8
ATOM      8  O   UNL     1      22.741   1.492 102.340  1.00  0.00    -0.508 OA
ATOM      9  H   UNL     1      22.578   0.492 102.325  1.00  0.00     0.293 HD
ENDBRANCH   4   8
BRANCH   5  10
ATOM     10  C   UNL     1      23.728   4.214 102.603  1.00  0.00     0.017 C 
ATOM     11  C   UNL     1      23.169   5.225 101.595  1.00  0.00     0.012 C 
ATOM     12  C   UNL     1      24.838   4.840 103.455  1.00  0.00     0.012 C 
ENDBRANCH   5  10
TORSDOF 2
ENDMDL
MODEL 4
REMARK VINA RESULT:    -4.951      1.732      2.495
REMARK INTER + INTRA:          -5.583
REMARK INTER:                  -5.385
REMARK INTRA:                  -0.198
REMARK UNBOUND:                -0.197
REMARK SMILES Cc1ccc(C(C)C)c(O)c1
REMARK SMILES IDX 1 1 2 2 11 3 9 4 5 5 4 6 3 7 10 8 6 10 7 11 8 12
REMARK H PARENT 10 9
REMARK Flexibility Score: inf
ROOT
ATOM      1  C   UNL     1      24.744   7.201 100.000  1.00  0.00     0.044 C 
ATOM      2  C   UNL     1      23.950   6.231 100.824  1.00  0.00    -0.047 A 
ATOM      3  C   UNL     1      22.558   6.160 100.685  1.00  0.00     0.049 A 
ATOM      4  C   UNL     1      21.804   5.283 101.479  1.00  0.00     0.119 A 
ATOM      5  C   UNL     1      22.446   4.466 102.437  1.00  0.00    -0.004 A 
ATOM      6  C   UNL     1      23.844   4.561 102.580  1.00  0.00     0.008 A 
ATOM      7  C   UNL     1      24.587   5.439 101.787  1.00  0.00     0.004 A 
ENDROOT
BRANCH   4   8
ATOM      8  O   UNL     1      20.420   5.225 101.315  1.00  0.00    -0.508 OA
ATOM      9  H   UNL     1      19.998   5.005 100.420  1.00  0.00     0.293 HD
ENDBRANCH   4   8
BRANCH   5  10
ATOM     10  C   UNL     1      21.650   3.507 103.310  1.00  0.00     0.017 C 
ATOM     11  C   UNL     1      22.187   2.075 103.188  1.00  0.00     0.012 C 
ATOM     12  C   UNL     1      21.641   3.969 104.772  1.00  0.00     0.012 C 
ENDBRANCH   5  10
TORSDOF 2
ENDMDL
MODEL 5
REMARK VINA RESULT:    -4.844      9.444     10.182
REMARK INTER + INTRA:          -5.466
REMARK INTER:                  -5.265
REMARK INTRA:                  -0.200
REMARK UNBOUND:                -0.197
REMARK SMILES Cc1ccc(C(C)C)c(O)c1
REMARK SMILES IDX 1 1 2 2 11 3 9 4 5 5 4 6 3 7 10 8 6 10 7 11 8 12
REMARK H PARENT 10 9
REMARK Flexibility Score: inf
ROOT
ATOM      1  C   UNL     1      31.488   4.127  96.347  1.00  0.00     0.044 C 
ATOM      2  C   UNL     1      31.883   4.245  97.790  1.00  0.00    -0.047 A 
ATOM      3  C   UNL     1      32.258   5.486  98.320  1.00  0.00     0.049 A 
ATOM      4  C   UNL     1      32.665   5.598  99.658  1.00  0.00     0.119 A 
ATOM      5  C   UNL     1      32.710   4.451 100.482  1.00  0.00    -0.004 A 
ATOM      6  C   UNL     1      32.349   3.206  99.931  1.00  0.00     0.008 A 
ATOM      7  C   UNL     1      31.947   3.103  98.598  1.00  0.00     0.004 A 
ENDROOT
BRANCH   4   8
ATOM      8  O   UNL     1      33.025   6.847 100.164  1.00  0.00    -0.508 OA
ATOM      9  H   UNL     1      32.360   7.435 100.655  1.00  0.00     0.293 HD
ENDBRANCH   4   8
BRANCH   5  10
ATOM     10  C   UNL     1      33.148   4.546 101.937  1.00  0.00     0.017 C 
ATOM     11  C   UNL     1      31.937   4.549 102.879  1.00  0.00     0.012 C 
ATOM     12  C   UNL     1      34.123   3.418 102.294  1.00  0.00     0.012 C 
ENDBRANCH   5  10
TORSDOF 2
ENDMDL
MODEL 6
REMARK VINA RESULT:    -4.690      1.512      4.040
REMARK INTER + INTRA:          -5.298
REMARK INTER:                  -5.136
REMARK INTRA:                  -0.162
REMARK UNBOUND:                -0.197
REMARK SMILES Cc1ccc(C(C)C)c(O)c1
REMARK SMILES IDX 1 1 2 2 11 3 9 4 5 5 4 6 3 7 10 8 6 10 7 11 8 12
REMARK H PARENT 10 9
REMARK Flexibility Score: inf
ROOT
ATOM      1  C   UNL     1      21.449   4.399 106.137  1.00  0.00     0.044 C 
ATOM      2  C   UNL     1      21.743   4.658 104.689  1.00  0.00    -0.047 A 
ATOM      3  C   UNL     1      22.987   4.310 104.148  1.00  0.00     0.049 A 
ATOM      4  C   UNL     1      23.283   4.584 102.804  1.00  0.00     0.119 A 
ATOM      5  C   UNL     1      22.327   5.224 101.984  1.00  0.00    -0.004 A 
ATOM      6  C   UNL     1      21.087   5.586 102.546  1.00  0.00     0.008 A 
ATOM      7  C   UNL     1      20.801   5.311 103.885  1.00  0.00     0.004 A 
ENDROOT
BRANCH   4   8
ATOM      8  O   UNL     1      24.527   4.219 102.287  1.00  0.00    -0.508 OA
ATOM      9  H   UNL     1      24.961   4.735 101.530  1.00  0.00     0.293 HD
ENDBRANCH   4   8
BRANCH   5  10
ATOM     10  C   UNL     1      22.625   5.531 100.524  1.00  0.00     0.017 C 
ATOM     11  C   UNL     1      21.333   5.597  99.699  1.00  0.00     0.012 C 
ATOM     12  C   UNL     1      23.434   6.826 100.386  1.00  0.00     0.012 C 
ENDBRANCH   5  10
TORSDOF 2
ENDMDL
MODEL 7
REMARK VINA RESULT:    -4.582     10.434     11.807
REMARK INTER + INTRA:          -5.181
REMARK INTER:                  -4.996
REMARK INTRA:                  -0.184
REMARK UNBOUND:                -0.197
REMARK SMILES Cc1ccc(C(C)C)c(O)c1
REMARK SMILES IDX 1 1 2 2 11 3 9 4 5 5 4 6 3 7 10 8 6 10 7 11 8 12
REMARK H PARENT 10 9
REMARK Flexibility Score: inf
ROOT
ATOM      1  C   UNL     1      22.577  -5.637 108.986  1.00  0.00     0.044 C 
ATOM      2  C   UNL     1      22.467  -5.880 107.510  1.00  0.00    -0.047 A 
ATOM      3  C   UNL     1      21.276  -6.375 106.962  1.00  0.00     0.049 A 
ATOM      4  C   UNL     1      21.177  -6.641 105.588  1.00  0.00     0.119 A 
ATOM      5  C   UNL     1      22.287  -6.420 104.743  1.00  0.00    -0.004 A 
ATOM      6  C   UNL     1      23.485  -5.940 105.309  1.00  0.00     0.008 A 
ATOM      7  C   UNL     1      23.575  -5.680 106.678  1.00  0.00     0.004 A 
ENDROOT
BRANCH   4   8
ATOM      8  O   UNL     1      19.977  -7.125 105.067  1.00  0.00    -0.508 OA
ATOM      9  H   UNL     1      19.497  -7.916 105.481  1.00  0.00     0.293 HD
ENDBRANCH   4   8
BRANCH   5  10
ATOM     10  C   UNL     1      22.205  -6.700 103.250  1.00  0.00     0.017 C 
ATOM     11  C   UNL     1      21.647  -5.490 102.490  1.00  0.00     0.012 C 
ATOM     12  C   UNL     1      23.570  -7.120 102.691  1.00  0.00     0.012 C 
ENDBRANCH   5  10
TORSDOF 2
ENDMDL
MODEL 8
REMARK VINA RESULT:    -4.506      2.514      3.873
REMARK INTER + INTRA:          -5.097
REMARK INTER:                  -4.901
REMARK INTRA:                  -0.197
REMARK UNBOUND:                -0.197
REMARK SMILES Cc1ccc(C(C)C)c(O)c1
REMARK SMILES IDX 1 1 2 2 11 3 9 4 5 5 4 6 3 7 10 8 6 10 7 11 8 12
REMARK H PARENT 10 9
REMARK Flexibility Score: inf
ROOT
ATOM      1  C   UNL     1      20.995   5.325 106.447  1.00  0.00     0.044 C 
ATOM      2  C   UNL     1      21.351   4.283 105.428  1.00  0.00    -0.047 A 
ATOM      3  C   UNL     1      22.249   4.583 104.395  1.00  0.00     0.049 A 
ATOM      4  C   UNL     1      22.559   3.626 103.417  1.00  0.00     0.119 A 
ATOM      5  C   UNL     1      21.957   2.349 103.461  1.00  0.00    -0.004 A 
ATOM      6  C   UNL     1      21.041   2.066 104.493  1.00  0.00     0.008 A 
ATOM      7  C   UNL     1      20.737   3.025 105.462  1.00  0.00     0.004 A 
ENDROOT
BRANCH   4   8
ATOM      8  O   UNL     1      23.462   3.947 102.404  1.00  0.00    -0.508 OA
ATOM      9  H   UNL     1      23.911   3.232 101.842  1.00  0.00     0.293 HD
ENDBRANCH   4   8
BRANCH   5  10
ATOM     10  C   UNL     1      22.276   1.294 102.411  1.00  0.00     0.017 C 
ATOM     11  C   UNL     1      22.947   0.069 103.046  1.00  0.00     0.012 C 
ATOM     12  C   UNL     1      21.018   0.891 101.633  1.00  0.00     0.012 C 
ENDBRANCH   5  10
TORSDOF 2
ENDMDL
MODEL 9
REMARK VINA RESULT:    -4.408      9.059      9.868
REMARK INTER + INTRA:          -4.991
REMARK INTER:                  -4.794
REMARK INTRA:                  -0.197
REMARK UNBOUND:                -0.197
REMARK SMILES Cc1ccc(C(C)C)c(O)c1
REMARK SMILES IDX 1 1 2 2 11 3 9 4 5 5 4 6 3 7 10 8 6 10 7 11 8 12
REMARK H PARENT 10 9
REMARK Flexibility Score: inf
ROOT
ATOM      1  C   UNL     1      31.798   4.894  96.877  1.00  0.00     0.044 C 
ATOM      2  C   UNL     1      32.041   4.522  98.310  1.00  0.00    -0.047 A 
ATOM      3  C   UNL     1      31.868   3.198  98.735  1.00  0.00     0.049 A 
ATOM      4  C   UNL     1      32.057   2.849 100.081  1.00  0.00     0.119 A 
ATOM      5  C   UNL     1      32.416   3.837 101.025  1.00  0.00    -0.004 A 
ATOM      6  C   UNL     1      32.568   5.168 100.588  1.00  0.00     0.008 A 
ATOM      7  C   UNL     1      32.376   5.507  99.247  1.00  0.00     0.004 A 
ENDROOT
BRANCH   4   8
ATOM      8  O   UNL     1      31.886   1.523 100.477  1.00  0.00    -0.508 OA
ATOM      9  H   UNL     1      31.979   0.755  99.822  1.00  0.00     0.293 HD
ENDBRANCH   4   8
BRANCH   5  10
ATOM     10  C   UNL     1      32.626   3.484 102.490  1.00  0.00     0.017 C 
ATOM     11  C   UNL     1      34.045   3.847 102.947  1.00  0.00     0.012 C 
ATOM     12  C   UNL     1      31.572   4.157 103.377  1.00  0.00     0.012 C 
ENDBRANCH   5  10
TORSDOF 2
ENDMDL
