MODEL 1
REMARK VINA RESULT:    -5.751      0.000      0.000
REMARK INTER + INTRA:          -5.751
REMARK INTER:                  -5.751
REMARK INTRA:                   0.000
REMARK UNBOUND:                 0.000
REMARK SMILES C=C1CCC[C@@]2(C)CC(=O)C(=C(C)C)C[C@H]12
REMARK SMILES IDX 13 1 12 2 11 3 15 4 16 5 2 6 1 7 3 8 4 9 5 10 6 11 8 12 9 13
REMARK SMILES IDX 10 14 7 15 14 16
REMARK H PARENT
REMARK Flexibility Score: inf
ROOT
ATOM      1  C   UNL     1      15.826  41.509  20.082  1.00  0.00     0.039 C 
ATOM      2  C   UNL     1      16.028  42.956  19.692  1.00  0.00    -0.070 C 
ATOM      3  C   UNL     1      14.968  43.765  19.397  1.00  0.00    -0.006 C 
ATOM      4  C   UNL     1      13.538  43.247  19.469  1.00  0.00     0.047 C 
ATOM      5  C   UNL     1      12.518  44.353  19.842  1.00  0.00     0.025 C 
ATOM      6  C   UNL     1      11.058  43.900  19.891  1.00  0.00    -0.073 C 
ATOM      7  C   UNL     1      10.649  42.645  19.626  1.00  0.00     0.008 C 
ATOM      8  C   UNL     1      10.050  44.943  20.309  1.00  0.00     0.031 C 
ATOM      9  C   UNL     1      10.192  46.200  19.445  1.00  0.00     0.005 C 
ATOM     10  C   UNL     1      11.645  46.705  19.413  1.00  0.00     0.008 C 
ATOM     11  C   UNL     1      12.660  45.619  18.940  1.00  0.00    -0.018 C 
ATOM     12  C   UNL     1      14.089  46.189  19.109  1.00  0.00     0.088 C 
ATOM     13  C   UNL     1      15.145  45.149  18.870  1.00  0.00     0.159 C 
ATOM     14  O   UNL     1      16.168  45.471  18.207  1.00  0.00    -0.295 OA
ATOM     15  C   UNL     1      12.410  45.292  17.442  1.00  0.00     0.012 C 
ATOM     16  C   UNL     1      17.450  43.469  19.683  1.00  0.00     0.039 C 
ENDROOT
TORSDOF 0
ENDMDL
MODEL 2
REMARK VINA RESULT:    -5.730      2.059      4.814
REMARK INTER + INTRA:          -5.730
REMARK INTER:                  -5.730
REMARK INTRA:                   0.000
REMARK UNBOUND:                 0.000
REMARK SMILES C=C1CCC[C@@]2(C)CC(=O)C(=C(C)C)C[C@H]12
REMARK SMILES IDX 13 1 12 2 11 3 15 4 16 5 2 6 1 7 3 8 4 9 5 10 6 11 8 12 9 13
REMARK SMILES IDX 10 14 7 15 14 16
REMARK H PARENT
REMARK Flexibility Score: inf
ROOT
ATOM      1  C   UNL     1      10.051  41.847  20.233  1.00  0.00     0.039 C 
ATOM      2  C   UNL     1       9.807  43.253  19.733  1.00  0.00    -0.070 C 
ATOM      3  C   UNL     1      10.842  44.118  19.516  1.00  0.00    -0.006 C 
ATOM      4  C   UNL     1      12.285  43.694  19.749  1.00  0.00     0.047 C 
ATOM      5  C   UNL     1      13.282  44.422  18.814  1.00  0.00     0.025 C 
ATOM      6  C   UNL     1      14.754  44.066  19.029  1.00  0.00    -0.073 C 
ATOM      7  C   UNL     1      15.190  43.196  19.960  1.00  0.00     0.008 C 
ATOM      8  C   UNL     1      15.743  44.717  18.092  1.00  0.00     0.031 C 
ATOM      9  C   UNL     1      15.554  46.237  18.090  1.00  0.00     0.005 C 
ATOM     10  C   UNL     1      14.089  46.627  17.831  1.00  0.00     0.008 C 
ATOM     11  C   UNL     1      13.094  45.972  18.837  1.00  0.00    -0.018 C 
ATOM     12  C   UNL     1      11.654  46.302  18.376  1.00  0.00     0.088 C 
ATOM     13  C   UNL     1      10.620  45.551  19.164  1.00  0.00     0.159 C 
ATOM     14  O   UNL     1       9.579  46.161  19.528  1.00  0.00    -0.295 OA
ATOM     15  C   UNL     1      13.327  46.561  20.256  1.00  0.00     0.012 C 
ATOM     16  C   UNL     1       8.373  43.638  19.450  1.00  0.00     0.039 C 
ENDROOT
TORSDOF 0
ENDMDL
MODEL 3
REMARK VINA RESULT:    -5.603      3.713      6.097
REMARK INTER + INTRA:          -5.603
REMARK INTER:                  -5.603
REMARK INTRA:                   0.000
REMARK UNBOUND:                 0.000
REMARK SMILES C=C1CCC[C@@]2(C)CC(=O)C(=C(C)C)C[C@H]12
REMARK SMILES IDX 13 1 12 2 11 3 15 4 16 5 2 6 1 7 3 8 4 9 5 10 6 11 8 12 9 13
REMARK SMILES IDX 10 14 7 15 14 16
REMARK H PARENT
REMARK Flexibility Score: inf
ROOT
ATOM      1  C   UNL     1      17.750  49.810  21.712  1.00  0.00     0.039 C 
ATOM      2  C   UNL     1      18.859  48.871  21.294  1.00  0.00    -0.070 C 
ATOM      3  C   UNL     1      18.609  47.557  21.017  1.00  0.00    -0.006 C 
ATOM      4  C   UNL     1      17.198  46.990  21.097  1.00  0.00     0.047 C 
ATOM      5  C   UNL     1      16.963  45.825  20.103  1.00  0.00     0.025 C 
ATOM      6  C   UNL     1      15.574  45.188  20.166  1.00  0.00    -0.073 C 
ATOM      7  C   UNL     1      14.604  45.576  21.016  1.00  0.00     0.008 C 
ATOM      8  C   UNL     1      15.298  44.089  19.168  1.00  0.00     0.031 C 
ATOM      9  C   UNL     1      16.385  43.012  19.245  1.00  0.00     0.005 C 
ATOM     10  C   UNL     1      17.795  43.621  19.139  1.00  0.00     0.008 C 
ATOM     11  C   UNL     1      18.066  44.724  20.207  1.00  0.00    -0.018 C 
ATOM     12  C   UNL     1      19.438  45.369  19.895  1.00  0.00     0.088 C 
ATOM     13  C   UNL     1      19.702  46.578  20.745  1.00  0.00     0.159 C 
ATOM     14  O   UNL     1      20.855  46.735  21.229  1.00  0.00    -0.295 OA
ATOM     15  C   UNL     1      18.109  44.081  21.620  1.00  0.00     0.012 C 
ATOM     16  C   UNL     1      20.243  49.464  21.162  1.00  0.00     0.039 C 
ENDROOT
TORSDOF 0
ENDMDL
MODEL 4
REMARK VINA RESULT:    -5.546      3.990      6.446
REMARK INTER + INTRA:          -5.546
REMARK INTER:                  -5.546
REMARK INTRA:                   0.000
REMARK UNBOUND:                 0.000
REMARK SMILES C=C1CCC[C@@]2(C)CC(=O)C(=C(C)C)C[C@H]12
REMARK SMILES IDX 13 1 12 2 11 3 15 4 16 5 2 6 1 7 3 8 4 9 5 10 6 11 8 12 9 13
REMARK SMILES IDX 10 14 7 15 14 16
REMARK H PARENT
REMARK Flexibility Score: inf
ROOT
ATOM      1  C   UNL     1      20.382  47.410  20.938  1.00  0.00     0.039 C 
ATOM      2  C   UNL     1      18.914  47.220  20.630  1.00  0.00    -0.070 C 
ATOM      3  C   UNL     1      18.374  45.973  20.493  1.00  0.00    -0.006 C 
ATOM      4  C   UNL     1      19.225  44.722  20.668  1.00  0.00     0.047 C 
ATOM      5  C   UNL     1      18.417  43.518  21.212  1.00  0.00     0.025 C 
ATOM      6  C   UNL     1      19.211  42.221  21.371  1.00  0.00    -0.073 C 
ATOM      7  C   UNL     1      20.516  42.093  21.062  1.00  0.00     0.008 C 
ATOM      8  C   UNL     1      18.462  41.047  21.954  1.00  0.00     0.031 C 
ATOM      9  C   UNL     1      17.172  40.792  21.168  1.00  0.00     0.005 C 
ATOM     10  C   UNL     1      16.330  42.072  21.030  1.00  0.00     0.008 C 
ATOM     11  C   UNL     1      17.116  43.256  20.389  1.00  0.00    -0.018 C 
ATOM     12  C   UNL     1      16.225  44.520  20.457  1.00  0.00     0.088 C 
ATOM     13  C   UNL     1      16.967  45.759  20.047  1.00  0.00     0.159 C 
ATOM     14  O   UNL     1      16.379  46.598  19.312  1.00  0.00    -0.295 OA
ATOM     15  C   UNL     1      17.429  42.928  18.903  1.00  0.00     0.012 C 
ATOM     16  C   UNL     1      18.072  48.471  20.518  1.00  0.00     0.039 C 
ENDROOT
TORSDOF 0
ENDMDL
MODEL 5
REMARK VINA RESULT:    -5.500      1.900      2.833
REMARK INTER + INTRA:          -5.500
REMARK INTER:                  -5.500
REMARK INTRA:                   0.000
REMARK UNBOUND:                 0.000
REMARK SMILES C=C1CCC[C@@]2(C)CC(=O)C(=C(C)C)C[C@H]12
REMARK SMILES IDX 13 1 12 2 11 3 15 4 16 5 2 6 1 7 3 8 4 9 5 10 6 11 8 12 9 13
REMARK SMILES IDX 10 14 7 15 14 16
REMARK H PARENT
REMARK Flexibility Score: inf
ROOT
ATOM      1  C   UNL     1      18.228  41.264  19.611  1.00  0.00     0.039 C 
ATOM      2  C   UNL     1      18.491  42.673  20.091  1.00  0.00    -0.070 C 
ATOM      3  C   UNL     1      17.522  43.635  20.032  1.00  0.00    -0.006 C 
ATOM      4  C   UNL     1      16.131  43.320  19.499  1.00  0.00     0.047 C 
ATOM      5  C   UNL     1      15.028  44.189  20.153  1.00  0.00     0.025 C 
ATOM      6  C   UNL     1      13.612  43.945  19.628  1.00  0.00    -0.073 C 
ATOM      7  C   UNL     1      13.309  43.057  18.661  1.00  0.00     0.008 C 
ATOM      8  C   UNL     1      12.509  44.736  20.289  1.00  0.00     0.031 C 
ATOM      9  C   UNL     1      12.839  46.232  20.267  1.00  0.00     0.005 C 
ATOM     10  C   UNL     1      14.242  46.513  20.832  1.00  0.00     0.008 C 
ATOM     11  C   UNL     1      15.365  45.713  20.105  1.00  0.00    -0.018 C 
ATOM     12  C   UNL     1      16.693  45.949  20.863  1.00  0.00     0.088 C 
ATOM     13  C   UNL     1      17.798  45.064  20.362  1.00  0.00     0.159 C 
ATOM     14  O   UNL     1      18.948  45.559  20.216  1.00  0.00    -0.295 OA
ATOM     15  C   UNL     1      15.508  46.227  18.646  1.00  0.00     0.012 C 
ATOM     16  C   UNL     1      19.858  42.953  20.673  1.00  0.00     0.039 C 
ENDROOT
TORSDOF 0
ENDMDL
MODEL 6
REMARK VINA RESULT:    -5.344      4.364      6.973
REMARK INTER + INTRA:          -5.344
REMARK INTER:                  -5.344
REMARK INTRA:                   0.000
REMARK UNBOUND:                 0.000
REMARK SMILES C=C1CCC[C@@]2(C)CC(=O)C(=C(C)C)C[C@H]12
REMARK SMILES IDX 13 1 12 2 11 3 15 4 16 5 2 6 1 7 3 8 4 9 5 10 6 11 8 12 9 13
REMARK SMILES IDX 10 14 7 15 14 16
REMARK H PARENT
REMARK Flexibility Score: inf
ROOT
ATOM      1  C   UNL     1      17.856  47.638  20.080  1.00  0.00     0.039 C 
ATOM      2  C   UNL     1      19.162  46.955  20.418  1.00  0.00    -0.070 C 
ATOM      3  C   UNL     1      19.231  45.602  20.591  1.00  0.00    -0.006 C 
ATOM      4  C   UNL     1      17.998  44.724  20.429  1.00  0.00     0.047 C 
ATOM      5  C   UNL     1      18.339  43.299  19.927  1.00  0.00     0.025 C 
ATOM      6  C   UNL     1      17.142  42.357  19.782  1.00  0.00    -0.073 C 
ATOM      7  C   UNL     1      15.873  42.701  20.072  1.00  0.00     0.008 C 
ATOM      8  C   UNL     1      17.438  40.980  19.238  1.00  0.00     0.031 C 
ATOM      9  C   UNL     1      18.551  40.312  20.052  1.00  0.00     0.005 C 
ATOM     10  C   UNL     1      19.787  41.220  20.177  1.00  0.00     0.008 C 
ATOM     11  C   UNL     1      19.458  42.621  20.778  1.00  0.00    -0.018 C 
ATOM     12  C   UNL     1      20.736  43.491  20.697  1.00  0.00     0.088 C 
ATOM     13  C   UNL     1      20.471  44.922  21.067  1.00  0.00     0.159 C 
ATOM     14  O   UNL     1      21.308  45.522  21.793  1.00  0.00    -0.295 OA
ATOM     15  C   UNL     1      19.038  42.462  22.265  1.00  0.00     0.012 C 
ATOM     16  C   UNL     1      20.388  47.835  20.517  1.00  0.00     0.039 C 
ENDROOT
TORSDOF 0
ENDMDL
MODEL 7
REMARK VINA RESULT:    -5.230      1.917      5.726
REMARK INTER + INTRA:          -5.230
REMARK INTER:                  -5.230
REMARK INTRA:                   0.000
REMARK UNBOUND:                 0.000
REMARK SMILES C=C1CCC[C@@]2(C)CC(=O)C(=C(C)C)C[C@H]12
REMARK SMILES IDX 13 1 12 2 11 3 15 4 16 5 2 6 1 7 3 8 4 9 5 10 6 11 8 12 9 13
REMARK SMILES IDX 10 14 7 15 14 16
REMARK H PARENT
REMARK Flexibility Score: inf
ROOT
ATOM      1  C   UNL     1      12.203  46.612  19.876  1.00  0.00     0.039 C 
ATOM      2  C   UNL     1      12.488  45.131  19.761  1.00  0.00    -0.070 C 
ATOM      3  C   UNL     1      13.768  44.655  19.741  1.00  0.00    -0.006 C 
ATOM      4  C   UNL     1      14.960  45.596  19.854  1.00  0.00     0.047 C 
ATOM      5  C   UNL     1      16.182  44.934  20.539  1.00  0.00     0.025 C 
ATOM      6  C   UNL     1      17.425  45.819  20.645  1.00  0.00    -0.073 C 
ATOM      7  C   UNL     1      17.494  47.082  20.180  1.00  0.00     0.008 C 
ATOM      8  C   UNL     1      18.612  45.221  21.361  1.00  0.00     0.031 C 
ATOM      9  C   UNL     1      18.972  43.862  20.752  1.00  0.00     0.005 C 
ATOM     10  C   UNL     1      17.748  42.933  20.674  1.00  0.00     0.008 C 
ATOM     11  C   UNL     1      16.552  43.561  19.896  1.00  0.00    -0.018 C 
ATOM     12  C   UNL     1      15.339  42.610  20.028  1.00  0.00     0.088 C 
ATOM     13  C   UNL     1      14.079  43.219  19.483  1.00  0.00     0.159 C 
ATOM     14  O   UNL     1      13.308  42.496  18.797  1.00  0.00    -0.295 OA
ATOM     15  C   UNL     1      16.929  43.708  18.396  1.00  0.00     0.012 C 
ATOM     16  C   UNL     1      11.292  44.207  19.710  1.00  0.00     0.039 C 
ENDROOT
TORSDOF 0
ENDMDL
MODEL 8
REMARK VINA RESULT:    -5.200      3.298      7.376
REMARK INTER + INTRA:          -5.200
REMARK INTER:                  -5.200
REMARK INTRA:                   0.000
REMARK UNBOUND:                 0.000
REMARK SMILES C=C1CCC[C@@]2(C)CC(=O)C(=C(C)C)C[C@H]12
REMARK SMILES IDX 13 1 12 2 11 3 15 4 16 5 2 6 1 7 3 8 4 9 5 10 6 11 8 12 9 13
REMARK SMILES IDX 10 14 7 15 14 16
REMARK H PARENT
REMARK Flexibility Score: inf
ROOT
ATOM      1  C   UNL     1      17.364  47.068  20.292  1.00  0.00     0.039 C 
ATOM      2  C   UNL     1      16.586  45.772  20.235  1.00  0.00    -0.070 C 
ATOM      3  C   UNL     1      17.159  44.585  20.594  1.00  0.00    -0.006 C 
ATOM      4  C   UNL     1      18.598  44.521  21.086  1.00  0.00     0.047 C 
ATOM      5  C   UNL     1      18.836  43.370  22.095  1.00  0.00     0.025 C 
ATOM      6  C   UNL     1      20.275  43.231  22.595  1.00  0.00    -0.073 C 
ATOM      7  C   UNL     1      21.289  44.026  22.202  1.00  0.00     0.008 C 
ATOM      8  C   UNL     1      20.523  42.155  23.624  1.00  0.00     0.031 C 
ATOM      9  C   UNL     1      19.998  40.806  23.122  1.00  0.00     0.005 C 
ATOM     10  C   UNL     1      18.536  40.905  22.653  1.00  0.00     0.008 C 
ATOM     11  C   UNL     1      18.316  41.997  21.563  1.00  0.00    -0.018 C 
ATOM     12  C   UNL     1      16.796  42.114  21.298  1.00  0.00     0.088 C 
ATOM     13  C   UNL     1      16.463  43.278  20.409  1.00  0.00     0.159 C 
ATOM     14  O   UNL     1      15.600  43.118  19.504  1.00  0.00    -0.295 OA
ATOM     15  C   UNL     1      19.035  41.576  20.253  1.00  0.00     0.012 C 
ATOM     16  C   UNL     1      15.141  45.862  19.801  1.00  0.00     0.039 C 
ENDROOT
TORSDOF 0
ENDMDL
MODEL 9
REMARK VINA RESULT:    -5.164      2.599      7.054
REMARK INTER + INTRA:          -5.164
REMARK INTER:                  -5.164
REMARK INTRA:                   0.000
REMARK UNBOUND:                 0.000
REMARK SMILES C=C1CCC[C@@]2(C)CC(=O)C(=C(C)C)C[C@H]12
REMARK SMILES IDX 13 1 12 2 11 3 15 4 16 5 2 6 1 7 3 8 4 9 5 10 6 11 8 12 9 13
REMARK SMILES IDX 10 14 7 15 14 16
REMARK H PARENT
REMARK Flexibility Score: inf
ROOT
ATOM      1  C   UNL     1      15.118  45.587  18.761  1.00  0.00     0.039 C 
ATOM      2  C   UNL     1      15.039  44.198  19.353  1.00  0.00    -0.070 C 
ATOM      3  C   UNL     1      16.154  43.566  19.828  1.00  0.00    -0.006 C 
ATOM      4  C   UNL     1      17.517  44.243  19.799  1.00  0.00     0.047 C 
ATOM      5  C   UNL     1      18.438  43.787  20.958  1.00  0.00     0.025 C 
ATOM      6  C   UNL     1      19.837  44.405  20.958  1.00  0.00    -0.073 C 
ATOM      7  C   UNL     1      20.275  45.277  20.030  1.00  0.00     0.008 C 
ATOM      8  C   UNL     1      20.735  44.023  22.110  1.00  0.00     0.031 C 
ATOM      9  C   UNL     1      20.823  42.499  22.235  1.00  0.00     0.005 C 
ATOM     10  C   UNL     1      19.428  41.852  22.282  1.00  0.00     0.008 C 
ATOM     11  C   UNL     1      18.536  42.232  21.061  1.00  0.00    -0.018 C 
ATOM     12  C   UNL     1      17.117  41.663  21.305  1.00  0.00     0.088 C 
ATOM     13  C   UNL     1      16.130  42.144  20.282  1.00  0.00     0.159 C 
ATOM     14  O   UNL     1      15.298  41.322  19.813  1.00  0.00    -0.295 OA
ATOM     15  C   UNL     1      19.127  41.604  19.770  1.00  0.00     0.012 C 
ATOM     16  C   UNL     1      13.669  43.564  19.429  1.00  0.00     0.039 C 
ENDROOT
TORSDOF 0
ENDMDL
