MODEL 1
REMARK VINA RESULT:    -3.783      0.000      0.000
REMARK INTER + INTRA:          -6.006
REMARK INTER:                  -5.773
REMARK INTRA:                  -0.233
REMARK UNBOUND:                -0.233
REMARK SMILES CC1=CCC[C@H](C)C(=O)C[C@@H](C(C)C)C(=O)C1
REMARK SMILES IDX 8 1 9 2 6 3 7 4 5 5 4 6 3 7 2 8 1 9 10 11 11 12 15 13 16 14
REMARK SMILES IDX 17 15 12 17 13 18 14 19
REMARK H PARENT
REMARK Flexibility Score: 70.00
ROOT
ATOM      1  C   UNL     1     -62.678 -76.565 220.880  1.00  0.00     0.136 C 
ATOM      2  O   UNL     1     -63.348 -76.562 219.856  1.00  0.00    -0.299 OA
ENDROOT
BRANCH   1   3
ATOM      3  C   UNL     1     -63.290 -76.075 222.177  1.00  0.00     0.053 C 
ATOM      4  C   UNL     1     -63.531 -74.560 222.121  1.00  0.00     0.016 C 
BRANCH   3   5
ATOM      5  C   UNL     1     -64.604 -76.834 222.468  1.00  0.00     0.015 C 
BRANCH   5   6
ATOM      6  C   UNL     1     -64.360 -78.327 222.766  1.00  0.00     0.028 C 
BRANCH   6   7
ATOM      7  C   UNL     1     -63.510 -78.510 223.998  1.00  0.00    -0.028 C 
ATOM      8  C   UNL     1     -62.393 -79.268 224.067  1.00  0.00    -0.070 CG0
ATOM      9  C   UNL     1     -61.701 -79.386 225.401  1.00  0.00     0.039 C 
ATOM     10  G   UNL     1     -61.813 -80.013 222.875  1.00  0.00     0.000 G0
ENDBRANCH   6   7
ENDBRANCH   5   6
ENDBRANCH   3   5
ENDBRANCH   1   3
BRANCH   1  11
ATOM     11  C   UNL     1     -61.251 -77.059 220.824  1.00  0.00     0.087 C 
BRANCH  11  12
ATOM     12  C   UNL     1     -61.162 -78.604 220.726  1.00  0.00     0.066 C 
BRANCH  12  13
ATOM     13  C   UNL     1     -60.813 -79.215 222.078  1.00  0.00     0.140 C 
ATOM     14  O   UNL     1     -59.711 -78.991 222.558  1.00  0.00    -0.299 OA
BRANCH  13  15
ATOM     15  C   UNL     1     -61.813 -80.026 222.874  1.00  0.00     0.106 CG0
ATOM     16  G   UNL     1     -62.390 -79.243 224.043  1.00  0.00     0.000 G0
ENDBRANCH  13  15
ENDBRANCH  12  13
BRANCH  12  17
ATOM     17  C   UNL     1     -60.183 -79.090 219.607  1.00  0.00    -0.006 C 
ATOM     18  C   UNL     1     -59.686 -77.934 218.720  1.00  0.00     0.008 C 
ATOM     19  C   UNL     1     -60.852 -80.148 218.710  1.00  0.00     0.008 C 
ENDBRANCH  12  17
ENDBRANCH  11  12
ENDBRANCH   1  11
TORSDOF 1
ENDMDL
MODEL 2
REMARK VINA RESULT:    -3.755      2.349      4.507
REMARK INTER + INTRA:          -5.963
REMARK INTER:                  -5.720
REMARK INTRA:                  -0.243
REMARK UNBOUND:                -0.233
REMARK SMILES CC1=CCC[C@H](C)C(=O)C[C@@H](C(C)C)C(=O)C1
REMARK SMILES IDX 8 1 9 2 6 3 7 4 5 5 4 6 3 7 2 8 1 9 10 11 11 12 15 13 16 14
REMARK SMILES IDX 17 15 12 17 13 18 14 19
REMARK H PARENT
REMARK Flexibility Score: 70.00
ROOT
ATOM      1  C   UNL     1     -61.685 -79.019 223.218  1.00  0.00     0.136 C 
ATOM      2  O   UNL     1     -60.583 -78.488 223.216  1.00  0.00    -0.299 OA
ENDROOT
BRANCH   1   3
ATOM      3  C   UNL     1     -62.084 -79.915 224.374  1.00  0.00     0.053 C 
ATOM      4  C   UNL     1     -61.049 -81.032 224.572  1.00  0.00     0.016 C 
BRANCH   3   5
ATOM      5  C   UNL     1     -62.250 -79.079 225.664  1.00  0.00     0.015 C 
BRANCH   5   6
ATOM      6  C   UNL     1     -63.695 -78.577 225.850  1.00  0.00     0.028 C 
BRANCH   6   7
ATOM      7  C   UNL     1     -64.697 -79.667 225.565  1.00  0.00    -0.028 C 
ATOM      8  C   UNL     1     -65.699 -79.586 224.661  1.00  0.00    -0.070 CG0
ATOM      9  C   UNL     1     -66.648 -80.753 224.552  1.00  0.00     0.039 C 
ATOM     10  G   UNL     1     -65.922 -78.377 223.765  1.00  0.00     0.000 G0
ENDBRANCH   6   7
ENDBRANCH   5   6
ENDBRANCH   3   5
ENDBRANCH   1   3
BRANCH   1  11
ATOM     11  C   UNL     1     -62.624 -78.770 222.061  1.00  0.00     0.087 C 
BRANCH  11  12
ATOM     12  C   UNL     1     -63.731 -77.740 222.408  1.00  0.00     0.066 C 
BRANCH  12  13
ATOM     13  C   UNL     1     -65.095 -78.415 222.489  1.00  0.00     0.140 C 
ATOM     14  O   UNL     1     -65.491 -79.057 221.527  1.00  0.00    -0.299 OA
BRANCH  13  15
ATOM     15  C   UNL     1     -65.937 -78.374 223.746  1.00  0.00     0.106 CG0
ATOM     16  G   UNL     1     -65.695 -79.579 224.641  1.00  0.00     0.000 G0
ENDBRANCH  13  15
ENDBRANCH  12  13
BRANCH  12  17
ATOM     17  C   UNL     1     -63.753 -76.516 221.435  1.00  0.00    -0.006 C 
ATOM     18  C   UNL     1     -62.798 -76.698 220.242  1.00  0.00     0.008 C 
ATOM     19  C   UNL     1     -63.379 -75.217 222.174  1.00  0.00     0.008 C 
ENDBRANCH  12  17
ENDBRANCH  11  12
ENDBRANCH   1  11
TORSDOF 1
ENDMDL
MODEL 3
REMARK VINA RESULT:    -3.663      1.922      4.315
REMARK INTER + INTRA:          -5.824
REMARK INTER:                  -5.650
REMARK INTRA:                  -0.174
REMARK UNBOUND:                -0.233
REMARK SMILES CC1=CCC[C@H](C)C(=O)C[C@@H](C(C)C)C(=O)C1
REMARK SMILES IDX 8 1 9 2 6 3 7 4 5 5 4 6 3 7 2 8 1 9 10 11 11 12 15 13 16 14
REMARK SMILES IDX 17 15 12 17 13 18 14 19
REMARK H PARENT
REMARK Flexibility Score: 70.00
ROOT
ATOM      1  C   UNL     1     -64.959 -76.908 222.366  1.00  0.00     0.136 C 
ATOM      2  O   UNL     1     -65.939 -76.410 222.904  1.00  0.00    -0.299 OA
ENDROOT
BRANCH   1   3
ATOM      3  C   UNL     1     -64.053 -76.042 221.512  1.00  0.00     0.053 C 
ATOM      4  C   UNL     1     -63.422 -74.926 222.356  1.00  0.00     0.016 C 
BRANCH   3   5
ATOM      5  C   UNL     1     -62.966 -76.910 220.839  1.00  0.00     0.015 C 
BRANCH   5   6
ATOM      6  C   UNL     1     -61.619 -76.838 221.586  1.00  0.00     0.028 C 
BRANCH   6   7
ATOM      7  C   UNL     1     -60.902 -78.163 221.555  1.00  0.00    -0.028 C 
ATOM      8  C   UNL     1     -60.839 -79.038 222.584  1.00  0.00    -0.070 CG0
ATOM      9  C   UNL     1     -60.023 -80.292 222.396  1.00  0.00     0.039 C 
ATOM     10  G   UNL     1     -61.537 -78.814 223.916  1.00  0.00     0.000 G0
ENDBRANCH   6   7
ENDBRANCH   5   6
ENDBRANCH   3   5
ENDBRANCH   1   3
BRANCH   1  11
ATOM     11  C   UNL     1     -64.677 -78.378 222.566  1.00  0.00     0.087 C 
BRANCH  11  12
ATOM     12  C   UNL     1     -64.193 -78.698 224.005  1.00  0.00     0.066 C 
BRANCH  12  13
ATOM     13  C   UNL     1     -62.898 -79.500 223.978  1.00  0.00     0.140 C 
ATOM     14  O   UNL     1     -62.963 -80.720 223.938  1.00  0.00    -0.299 OA
BRANCH  13  15
ATOM     15  C   UNL     1     -61.542 -78.832 223.924  1.00  0.00     0.106 CG0
ATOM     16  G   UNL     1     -60.839 -79.060 222.595  1.00  0.00     0.000 G0
ENDBRANCH  13  15
ENDBRANCH  12  13
BRANCH  12  17
ATOM     17  C   UNL     1     -65.287 -79.403 224.873  1.00  0.00    -0.006 C 
ATOM     18  C   UNL     1     -66.503 -79.846 224.040  1.00  0.00     0.008 C 
ATOM     19  C   UNL     1     -65.773 -78.478 226.004  1.00  0.00     0.008 C 
ENDBRANCH  12  17
ENDBRANCH  11  12
ENDBRANCH   1  11
TORSDOF 1
ENDMDL
MODEL 4
REMARK VINA RESULT:    -3.593      2.279      2.923
REMARK INTER + INTRA:          -5.716
REMARK INTER:                  -5.558
REMARK INTRA:                  -0.159
REMARK UNBOUND:                -0.233
REMARK SMILES CC1=CCC[C@H](C)C(=O)C[C@@H](C(C)C)C(=O)C1
REMARK SMILES IDX 8 1 9 2 6 3 7 4 5 5 4 6 3 7 2 8 1 9 10 11 11 12 15 13 16 14
REMARK SMILES IDX 17 15 12 17 13 18 14 19
REMARK H PARENT
REMARK Flexibility Score: 70.00
ROOT
ATOM      1  C   UNL     1     -62.029 -77.249 222.587  1.00  0.00     0.136 C 
ATOM      2  O   UNL     1     -61.234 -76.755 221.799  1.00  0.00    -0.299 OA
ENDROOT
BRANCH   1   3
ATOM      3  C   UNL     1     -63.487 -76.836 222.539  1.00  0.00     0.053 C 
ATOM      4  C   UNL     1     -63.614 -75.347 222.186  1.00  0.00     0.016 C 
BRANCH   3   5
ATOM      5  C   UNL     1     -64.256 -77.713 221.525  1.00  0.00     0.015 C 
BRANCH   5   6
ATOM      6  C   UNL     1     -65.366 -78.544 222.199  1.00  0.00     0.028 C 
BRANCH   6   7
ATOM      7  C   UNL     1     -65.509 -78.190 223.657  1.00  0.00    -0.028 C 
ATOM      8  C   UNL     1     -65.108 -78.966 224.690  1.00  0.00    -0.070 CG0
ATOM      9  C   UNL     1     -65.388 -78.480 226.089  1.00  0.00     0.039 C 
ATOM     10  G   UNL     1     -64.405 -80.302 224.508  1.00  0.00     0.000 G0
ENDBRANCH   6   7
ENDBRANCH   5   6
ENDBRANCH   3   5
ENDBRANCH   1   3
BRANCH   1  11
ATOM     11  C   UNL     1     -61.534 -78.261 223.595  1.00  0.00     0.087 C 
BRANCH  11  12
ATOM     12  C   UNL     1     -62.096 -79.682 223.332  1.00  0.00     0.066 C 
BRANCH  12  13
ATOM     13  C   UNL     1     -62.887 -80.185 224.533  1.00  0.00     0.140 C 
ATOM     14  O   UNL     1     -62.286 -80.444 225.566  1.00  0.00    -0.299 OA
BRANCH  13  15
ATOM     15  C   UNL     1     -64.395 -80.303 224.508  1.00  0.00     0.106 CG0
ATOM     16  G   UNL     1     -65.081 -78.959 224.689  1.00  0.00     0.000 G0
ENDBRANCH  13  15
ENDBRANCH  12  13
BRANCH  12  17
ATOM     17  C   UNL     1     -60.993 -80.704 222.901  1.00  0.00    -0.006 C 
ATOM     18  C   UNL     1     -59.595 -80.064 222.829  1.00  0.00     0.008 C 
ATOM     19  C   UNL     1     -61.322 -81.326 221.531  1.00  0.00     0.008 C 
ENDBRANCH  12  17
ENDBRANCH  11  12
ENDBRANCH   1  11
TORSDOF 1
ENDMDL
MODEL 5
REMARK VINA RESULT:    -3.546      2.447      5.651
REMARK INTER + INTRA:          -5.644
REMARK INTER:                  -5.436
REMARK INTRA:                  -0.208
REMARK UNBOUND:                -0.233
REMARK SMILES CC1=CCC[C@H](C)C(=O)C[C@@H](C(C)C)C(=O)C1
REMARK SMILES IDX 8 1 9 2 6 3 7 4 5 5 4 6 3 7 2 8 1 9 10 11 11 12 15 13 16 14
REMARK SMILES IDX 17 15 12 17 13 18 14 19
REMARK H PARENT
REMARK Flexibility Score: 70.00
ROOT
ATOM      1  C   UNL     1     -62.463 -79.456 225.056  1.00  0.00     0.136 C 
ATOM      2  O   UNL     1     -62.444 -80.650 225.322  1.00  0.00    -0.299 OA
ENDROOT
BRANCH   1   3
ATOM      3  C   UNL     1     -61.233 -78.802 224.456  1.00  0.00     0.053 C 
ATOM      4  C   UNL     1     -60.115 -78.695 225.504  1.00  0.00     0.016 C 
BRANCH   3   5
ATOM      5  C   UNL     1     -60.757 -79.596 223.218  1.00  0.00     0.015 C 
BRANCH   5   6
ATOM      6  C   UNL     1     -61.644 -79.337 221.984  1.00  0.00     0.028 C 
BRANCH   6   7
ATOM      7  C   UNL     1     -61.947 -77.869 221.823  1.00  0.00    -0.028 C 
ATOM      8  C   UNL     1     -63.187 -77.330 221.784  1.00  0.00    -0.070 CG0
ATOM      9  C   UNL     1     -63.304 -75.844 221.554  1.00  0.00     0.039 C 
ATOM     10  G   UNL     1     -64.459 -78.147 221.945  1.00  0.00     0.000 G0
ENDBRANCH   6   7
ENDBRANCH   5   6
ENDBRANCH   3   5
ENDBRANCH   1   3
BRANCH   1  11
ATOM     11  C   UNL     1     -63.716 -78.659 225.334  1.00  0.00     0.087 C 
BRANCH  11  12
ATOM     12  C   UNL     1     -64.889 -79.054 224.399  1.00  0.00     0.066 C 
BRANCH  12  13
ATOM     13  C   UNL     1     -65.096 -78.004 223.313  1.00  0.00     0.140 C 
ATOM     14  O   UNL     1     -65.737 -76.999 223.583  1.00  0.00    -0.299 OA
BRANCH  13  15
ATOM     15  C   UNL     1     -64.472 -78.135 221.941  1.00  0.00     0.106 CG0
ATOM     16  G   UNL     1     -63.194 -77.322 221.809  1.00  0.00     0.000 G0
ENDBRANCH  13  15
ENDBRANCH  12  13
BRANCH  12  17
ATOM     17  C   UNL     1     -66.215 -79.348 225.174  1.00  0.00    -0.006 C 
ATOM     18  C   UNL     1     -66.036 -79.253 226.700  1.00  0.00     0.008 C 
ATOM     19  C   UNL     1     -66.758 -80.746 224.826  1.00  0.00     0.008 C 
ENDBRANCH  12  17
ENDBRANCH  11  12
ENDBRANCH   1  11
TORSDOF 1
ENDMDL
MODEL 6
REMARK VINA RESULT:    -3.502     10.267     11.652
REMARK INTER + INTRA:          -5.577
REMARK INTER:                  -5.515
REMARK INTRA:                  -0.063
REMARK UNBOUND:                -0.233
REMARK SMILES CC1=CCC[C@H](C)C(=O)C[C@@H](C(C)C)C(=O)C1
REMARK SMILES IDX 8 1 9 2 6 3 7 4 5 5 4 6 3 7 2 8 1 9 10 11 11 12 15 13 16 14
REMARK SMILES IDX 17 15 12 17 13 18 14 19
REMARK H PARENT
REMARK Flexibility Score: 70.00
ROOT
ATOM      1  C   UNL     1     -69.138 -75.589 216.153  1.00  0.00     0.136 C 
ATOM      2  O   UNL     1     -68.147 -74.939 216.458  1.00  0.00    -0.299 OA
ENDROOT
BRANCH   1   3
ATOM      3  C   UNL     1     -70.518 -75.032 216.445  1.00  0.00     0.053 C 
ATOM      4  C   UNL     1     -70.628 -74.611 217.918  1.00  0.00     0.016 C 
BRANCH   3   5
ATOM      5  C   UNL     1     -70.824 -73.844 215.506  1.00  0.00     0.015 C 
BRANCH   5   6
ATOM      6  C   UNL     1     -72.068 -74.098 214.632  1.00  0.00     0.028 C 
BRANCH   6   7
ATOM      7  C   UNL     1     -72.742 -75.396 214.999  1.00  0.00    -0.028 C 
ATOM      8  C   UNL     1     -72.586 -76.566 214.340  1.00  0.00    -0.070 CG0
ATOM      9  C   UNL     1     -73.388 -77.754 214.810  1.00  0.00     0.039 C 
ATOM     10  G   UNL     1     -71.658 -76.738 213.147  1.00  0.00     0.000 G0
ENDBRANCH   6   7
ENDBRANCH   5   6
ENDBRANCH   3   5
ENDBRANCH   1   3
BRANCH   1  11
ATOM     11  C   UNL     1     -68.961 -76.936 215.492  1.00  0.00     0.087 C 
BRANCH  11  12
ATOM     12  C   UNL     1     -69.115 -76.864 213.950  1.00  0.00     0.066 C 
BRANCH  12  13
ATOM     13  C   UNL     1     -70.409 -77.532 213.501  1.00  0.00     0.140 C 
ATOM     14  O   UNL     1     -70.463 -78.753 213.481  1.00  0.00    -0.299 OA
BRANCH  13  15
ATOM     15  C   UNL     1     -71.645 -76.733 213.151  1.00  0.00     0.106 CG0
ATOM     16  G   UNL     1     -72.584 -76.575 214.337  1.00  0.00     0.000 G0
ENDBRANCH  13  15
ENDBRANCH  12  13
BRANCH  12  17
ATOM     17  C   UNL     1     -67.877 -77.437 213.185  1.00  0.00    -0.006 C 
ATOM     18  C   UNL     1     -66.677 -77.686 214.115  1.00  0.00     0.008 C 
ATOM     19  C   UNL     1     -67.438 -76.486 212.056  1.00  0.00     0.008 C 
ENDBRANCH  12  17
ENDBRANCH  11  12
ENDBRANCH   1  11
TORSDOF 1
ENDMDL
MODEL 7
REMARK VINA RESULT:    -3.326      2.154      3.418
REMARK INTER + INTRA:          -5.309
REMARK INTER:                  -5.183
REMARK INTRA:                  -0.126
REMARK UNBOUND:                -0.233
REMARK SMILES CC1=CCC[C@H](C)C(=O)C[C@@H](C(C)C)C(=O)C1
REMARK SMILES IDX 8 1 9 2 6 3 7 4 5 5 4 6 3 7 2 8 1 9 10 11 11 12 15 13 16 14
REMARK SMILES IDX 17 15 12 17 13 18 14 19
REMARK H PARENT
REMARK Flexibility Score: 70.00
ROOT
ATOM      1  C   UNL     1     -65.451 -77.658 223.332  1.00  0.00     0.136 C 
ATOM      2  O   UNL     1     -66.123 -76.737 222.888  1.00  0.00    -0.299 OA
ENDROOT
BRANCH   1   3
ATOM      3  C   UNL     1     -66.124 -78.966 223.702  1.00  0.00     0.053 C 
ATOM      4  C   UNL     1     -66.419 -79.795 222.443  1.00  0.00     0.016 C 
BRANCH   3   5
ATOM      5  C   UNL     1     -65.241 -79.758 224.692  1.00  0.00     0.015 C 
BRANCH   5   6
ATOM      6  C   UNL     1     -64.591 -80.991 224.034  1.00  0.00     0.028 C 
BRANCH   6   7
ATOM      7  C   UNL     1     -63.173 -81.185 224.510  1.00  0.00    -0.028 C 
ATOM      8  C   UNL     1     -62.065 -80.850 223.812  1.00  0.00    -0.070 CG0
ATOM      9  C   UNL     1     -60.723 -81.174 224.418  1.00  0.00     0.039 C 
ATOM     10  G   UNL     1     -62.107 -80.179 222.448  1.00  0.00     0.000 G0
ENDBRANCH   6   7
ENDBRANCH   5   6
ENDBRANCH   3   5
ENDBRANCH   1   3
BRANCH   1  11
ATOM     11  C   UNL     1     -63.962 -77.468 223.502  1.00  0.00     0.087 C 
BRANCH  11  12
ATOM     12  C   UNL     1     -63.173 -77.778 222.203  1.00  0.00     0.066 C 
BRANCH  12  13
ATOM     13  C   UNL     1     -61.986 -78.688 222.492  1.00  0.00     0.140 C 
ATOM     14  O   UNL     1     -60.928 -78.182 222.837  1.00  0.00    -0.299 OA
BRANCH  13  15
ATOM     15  C   UNL     1     -62.098 -80.196 222.436  1.00  0.00     0.106 CG0
ATOM     16  G   UNL     1     -62.064 -80.829 223.818  1.00  0.00     0.000 G0
ENDBRANCH  13  15
ENDBRANCH  12  13
BRANCH  12  17
ATOM     17  C   UNL     1     -62.734 -76.489 221.433  1.00  0.00    -0.006 C 
ATOM     18  C   UNL     1     -63.250 -75.202 222.102  1.00  0.00     0.008 C 
ATOM     19  C   UNL     1     -63.229 -76.522 219.975  1.00  0.00     0.008 C 
ENDBRANCH  12  17
ENDBRANCH  11  12
ENDBRANCH   1  11
TORSDOF 1
ENDMDL
MODEL 8
REMARK VINA RESULT:    -3.291      2.275      3.682
REMARK INTER + INTRA:          -5.254
REMARK INTER:                  -5.150
REMARK INTRA:                  -0.105
REMARK UNBOUND:                -0.233
REMARK SMILES CC1=CCC[C@H](C)C(=O)C[C@@H](C(C)C)C(=O)C1
REMARK SMILES IDX 8 1 9 2 6 3 7 4 5 5 4 6 3 7 2 8 1 9 10 11 11 12 15 13 16 14
REMARK SMILES IDX 17 15 12 17 13 18 14 19
REMARK H PARENT
REMARK Flexibility Score: 70.00
ROOT
ATOM      1  C   UNL     1     -62.215 -77.482 222.546  1.00  0.00     0.136 C 
ATOM      2  O   UNL     1     -61.081 -77.192 222.192  1.00  0.00    -0.299 OA
ENDROOT
BRANCH   1   3
ATOM      3  C   UNL     1     -63.399 -77.035 221.710  1.00  0.00     0.053 C 
ATOM      4  C   UNL     1     -63.396 -75.508 221.547  1.00  0.00     0.016 C 
BRANCH   3   5
ATOM      5  C   UNL     1     -63.377 -77.739 220.335  1.00  0.00     0.015 C 
BRANCH   5   6
ATOM      6  C   UNL     1     -63.968 -79.161 220.400  1.00  0.00     0.028 C 
BRANCH   6   7
ATOM      7  C   UNL     1     -65.016 -79.272 221.477  1.00  0.00    -0.028 C 
ATOM      8  C   UNL     1     -64.994 -80.160 222.497  1.00  0.00    -0.070 CG0
ATOM      9  C   UNL     1     -66.161 -80.170 223.451  1.00  0.00     0.039 C 
ATOM     10  G   UNL     1     -63.861 -81.151 222.718  1.00  0.00     0.000 G0
ENDBRANCH   6   7
ENDBRANCH   5   6
ENDBRANCH   3   5
ENDBRANCH   1   3
BRANCH   1  11
ATOM     11  C   UNL     1     -62.409 -78.280 223.815  1.00  0.00     0.087 C 
BRANCH  11  12
ATOM     12  C   UNL     1     -61.842 -79.719 223.702  1.00  0.00     0.066 C 
BRANCH  12  13
ATOM     13  C   UNL     1     -62.948 -80.754 223.866  1.00  0.00     0.140 C 
ATOM     14  O   UNL     1     -63.146 -81.232 224.974  1.00  0.00    -0.299 OA
BRANCH  13  15
ATOM     15  C   UNL     1     -63.853 -81.151 222.720  1.00  0.00     0.106 CG0
ATOM     16  G   UNL     1     -64.987 -80.159 222.512  1.00  0.00     0.000 G0
ENDBRANCH  13  15
ENDBRANCH  12  13
BRANCH  12  17
ATOM     17  C   UNL     1     -60.655 -79.986 224.684  1.00  0.00    -0.006 C 
ATOM     18  C   UNL     1     -60.525 -78.892 225.759  1.00  0.00     0.008 C 
ATOM     19  C   UNL     1     -59.321 -80.091 223.922  1.00  0.00     0.008 C 
ENDBRANCH  12  17
ENDBRANCH  11  12
ENDBRANCH   1  11
TORSDOF 1
ENDMDL
MODEL 9
REMARK VINA RESULT:    -3.123     10.365     11.764
REMARK INTER + INTRA:          -4.999
REMARK INTER:                  -4.729
REMARK INTRA:                  -0.270
REMARK UNBOUND:                -0.233
REMARK SMILES CC1=CCC[C@H](C)C(=O)C[C@@H](C(C)C)C(=O)C1
REMARK SMILES IDX 8 1 9 2 6 3 7 4 5 5 4 6 3 7 2 8 1 9 10 11 11 12 15 13 16 14
REMARK SMILES IDX 17 15 12 17 13 18 14 19
REMARK H PARENT
REMARK Flexibility Score: 70.00
ROOT
ATOM      1  C   UNL     1     -71.435 -77.734 213.830  1.00  0.00     0.136 C 
ATOM      2  O   UNL     1     -71.142 -78.790 214.375  1.00  0.00    -0.299 OA
ENDROOT
BRANCH   1   3
ATOM      3  C   UNL     1     -72.890 -77.419 213.542  1.00  0.00     0.053 C 
ATOM      4  C   UNL     1     -73.598 -78.643 212.941  1.00  0.00     0.016 C 
BRANCH   3   5
ATOM      5  C   UNL     1     -73.599 -76.948 214.832  1.00  0.00     0.015 C 
BRANCH   5   6
ATOM      6  C   UNL     1     -73.420 -75.436 215.075  1.00  0.00     0.028 C 
BRANCH   6   7
ATOM      7  C   UNL     1     -72.680 -75.170 216.361  1.00  0.00    -0.028 C 
ATOM      8  C   UNL     1     -71.403 -74.735 216.448  1.00  0.00    -0.070 CG0
ATOM      9  C   UNL     1     -70.801 -74.582 217.823  1.00  0.00     0.039 C 
ATOM     10  G   UNL     1     -70.546 -74.409 215.235  1.00  0.00     0.000 G0
ENDBRANCH   6   7
ENDBRANCH   5   6
ENDBRANCH   3   5
ENDBRANCH   1   3
BRANCH   1  11
ATOM     11  C   UNL     1     -70.335 -76.768 213.455  1.00  0.00     0.087 C 
BRANCH  11  12
ATOM     12  C   UNL     1     -69.261 -76.633 214.566  1.00  0.00     0.066 C 
BRANCH  12  13
ATOM     13  C   UNL     1     -69.277 -75.235 215.171  1.00  0.00     0.140 C 
ATOM     14  O   UNL     1     -68.225 -74.754 215.567  1.00  0.00    -0.299 OA
BRANCH  13  15
ATOM     15  C   UNL     1     -70.538 -74.400 215.228  1.00  0.00     0.106 CG0
ATOM     16  G   UNL     1     -71.396 -74.735 216.438  1.00  0.00     0.000 G0
ENDBRANCH  13  15
ENDBRANCH  12  13
BRANCH  12  17
ATOM     17  C   UNL     1     -67.829 -77.034 214.082  1.00  0.00    -0.006 C 
ATOM     18  C   UNL     1     -67.724 -77.095 212.548  1.00  0.00     0.008 C 
ATOM     19  C   UNL     1     -67.413 -78.399 214.662  1.00  0.00     0.008 C 
ENDBRANCH  12  17
ENDBRANCH  11  12
ENDBRANCH   1  11
TORSDOF 1
ENDMDL
