MODEL 1
REMARK VINA RESULT:    -4.158      0.000      0.000
REMARK INTER + INTRA:          -4.417
REMARK INTER:                  -4.401
REMARK INTRA:                  -0.016
REMARK UNBOUND:                -0.016
REMARK SMILES O=C([O-])c1cccnc1
REMARK SMILES IDX 4 1 5 2 9 3 6 4 8 5 7 6 2 7 1 8 3 9
REMARK H PARENT
REMARK Flexibility Score: inf
ROOT
ATOM      1  C   UNL     1      31.747  13.249  14.889  1.00  0.00     0.016 A 
ATOM      2  C   UNL     1      33.077  12.934  15.212  1.00  0.00     0.013 A 
ATOM      3  C   UNL     1      31.415  14.595  14.658  1.00  0.00     0.120 A 
ATOM      4  C   UNL     1      34.036  13.946  15.297  1.00  0.00     0.021 A 
ATOM      5  N   UNL     1      32.368  15.561  14.748  1.00  0.00    -0.264 NA
ATOM      6  C   UNL     1      33.658  15.268  15.059  1.00  0.00     0.111 A 
ENDROOT
BRANCH   1   7
ATOM      7  C   UNL     1      30.722  12.186  14.796  1.00  0.00     0.073 C 
ATOM      8  O   UNL     1      30.366  11.736  13.675  1.00  0.00    -0.545 OA
ATOM      9  O   UNL     1      30.137  11.670  15.947  1.00  0.00    -0.545 OA
ENDBRANCH   1   7
TORSDOF 1
ENDMDL
MODEL 2
REMARK VINA RESULT:    -4.101      6.754      7.499
REMARK INTER + INTRA:          -4.357
REMARK INTER:                  -4.341
REMARK INTRA:                  -0.016
REMARK UNBOUND:                -0.016
REMARK SMILES O=C([O-])c1cccnc1
REMARK SMILES IDX 4 1 5 2 9 3 6 4 8 5 7 6 2 7 1 8 3 9
REMARK H PARENT
REMARK Flexibility Score: inf
ROOT
ATOM      1  C   UNL     1      35.787  18.532  11.819  1.00  0.00     0.016 A 
ATOM      2  C   UNL     1      36.687  18.597  12.895  1.00  0.00     0.013 A 
ATOM      3  C   UNL     1      36.281  18.172  10.554  1.00  0.00     0.120 A 
ATOM      4  C   UNL     1      38.039  18.307  12.697  1.00  0.00     0.021 A 
ATOM      5  N   UNL     1      37.602  17.894  10.387  1.00  0.00    -0.264 NA
ATOM      6  C   UNL     1      38.482  17.954  11.421  1.00  0.00     0.111 A 
ENDROOT
BRANCH   1   7
ATOM      7  C   UNL     1      34.353  18.837  12.018  1.00  0.00     0.073 C 
ATOM      8  O   UNL     1      33.920  20.009  11.863  1.00  0.00    -0.545 OA
ATOM      9  O   UNL     1      33.463  17.831  12.379  1.00  0.00    -0.545 OA
ENDBRANCH   1   7
TORSDOF 1
ENDMDL
MODEL 3
REMARK VINA RESULT:    -4.060      2.687      3.492
REMARK INTER + INTRA:          -4.313
REMARK INTER:                  -4.294
REMARK INTRA:                  -0.019
REMARK UNBOUND:                -0.016
REMARK SMILES O=C([O-])c1cccnc1
REMARK SMILES IDX 4 1 5 2 9 3 6 4 8 5 7 6 2 7 1 8 3 9
REMARK H PARENT
REMARK Flexibility Score: inf
ROOT
ATOM      1  C   UNL     1      32.418  13.685  15.254  1.00  0.00     0.016 A 
ATOM      2  C   UNL     1      32.365  12.286  15.139  1.00  0.00     0.013 A 
ATOM      3  C   UNL     1      31.364  14.440  14.711  1.00  0.00     0.120 A 
ATOM      4  C   UNL     1      31.285  11.675  14.498  1.00  0.00     0.021 A 
ATOM      5  N   UNL     1      30.324  13.821  14.091  1.00  0.00    -0.264 NA
ATOM      6  C   UNL     1      30.263  12.468  13.974  1.00  0.00     0.111 A 
ENDROOT
BRANCH   1   7
ATOM      7  C   UNL     1      33.556  14.343  15.931  1.00  0.00     0.073 C 
ATOM      8  O   UNL     1      34.741  14.060  15.613  1.00  0.00    -0.545 OA
ATOM      9  O   UNL     1      33.332  15.283  16.931  1.00  0.00    -0.545 OA
ENDBRANCH   1   7
TORSDOF 1
ENDMDL
MODEL 4
REMARK VINA RESULT:    -4.050      7.994      9.018
REMARK INTER + INTRA:          -4.303
REMARK INTER:                  -4.282
REMARK INTRA:                  -0.021
REMARK UNBOUND:                -0.016
REMARK SMILES O=C([O-])c1cccnc1
REMARK SMILES IDX 4 1 5 2 9 3 6 4 8 5 7 6 2 7 1 8 3 9
REMARK H PARENT
REMARK Flexibility Score: inf
ROOT
ATOM      1  C   UNL     1      37.965  18.078  10.667  1.00  0.00     0.016 A 
ATOM      2  C   UNL     1      38.329  18.217  12.016  1.00  0.00     0.013 A 
ATOM      3  C   UNL     1      36.601  18.136  10.333  1.00  0.00     0.120 A 
ATOM      4  C   UNL     1      37.347  18.408  12.991  1.00  0.00     0.021 A 
ATOM      5  N   UNL     1      35.664  18.323  11.301  1.00  0.00    -0.264 NA
ATOM      6  C   UNL     1      36.005  18.458  12.610  1.00  0.00     0.111 A 
ENDROOT
BRANCH   1   7
ATOM      7  C   UNL     1      38.995  17.876   9.626  1.00  0.00     0.073 C 
ATOM      8  O   UNL     1      38.766  17.136   8.632  1.00  0.00    -0.545 OA
ATOM      9  O   UNL     1      40.233  18.500   9.730  1.00  0.00    -0.545 OA
ENDBRANCH   1   7
TORSDOF 1
ENDMDL
MODEL 5
REMARK VINA RESULT:    -4.012      8.178      9.261
REMARK INTER + INTRA:          -4.263
REMARK INTER:                  -4.243
REMARK INTRA:                  -0.020
REMARK UNBOUND:                -0.016
REMARK SMILES O=C([O-])c1cccnc1
REMARK SMILES IDX 4 1 5 2 9 3 6 4 8 5 7 6 2 7 1 8 3 9
REMARK H PARENT
REMARK Flexibility Score: inf
ROOT
ATOM      1  C   UNL     1      38.608  18.134  11.586  1.00  0.00     0.016 A 
ATOM      2  C   UNL     1      39.876  18.181  12.188  1.00  0.00     0.013 A 
ATOM      3  C   UNL     1      38.531  18.178  10.183  1.00  0.00     0.120 A 
ATOM      4  C   UNL     1      41.024  18.270  11.398  1.00  0.00     0.021 A 
ATOM      5  N   UNL     1      39.665  18.265   9.437  1.00  0.00    -0.264 NA
ATOM      6  C   UNL     1      40.897  18.311  10.009  1.00  0.00     0.111 A 
ENDROOT
BRANCH   1   7
ATOM      7  C   UNL     1      37.384  18.039  12.412  1.00  0.00     0.073 C 
ATOM      8  O   UNL     1      37.238  18.772  13.426  1.00  0.00    -0.545 OA
ATOM      9  O   UNL     1      36.379  17.137  12.080  1.00  0.00    -0.545 OA
ENDBRANCH   1   7
TORSDOF 1
ENDMDL
MODEL 6
REMARK VINA RESULT:    -3.994      6.646      7.571
REMARK INTER + INTRA:          -4.244
REMARK INTER:                  -4.228
REMARK INTRA:                  -0.016
REMARK UNBOUND:                -0.016
REMARK SMILES O=C([O-])c1cccnc1
REMARK SMILES IDX 4 1 5 2 9 3 6 4 8 5 7 6 2 7 1 8 3 9
REMARK H PARENT
REMARK Flexibility Score: inf
ROOT
ATOM      1  C   UNL     1      35.868  18.519  11.834  1.00  0.00     0.016 A 
ATOM      2  C   UNL     1      36.329  18.288  10.527  1.00  0.00     0.013 A 
ATOM      3  C   UNL     1      36.801  18.503  12.885  1.00  0.00     0.120 A 
ATOM      4  C   UNL     1      37.686  18.052  10.294  1.00  0.00     0.021 A 
ATOM      5  N   UNL     1      38.117  18.270  12.631  1.00  0.00    -0.264 NA
ATOM      6  C   UNL     1      38.574  18.046  11.370  1.00  0.00     0.111 A 
ENDROOT
BRANCH   1   7
ATOM      7  C   UNL     1      34.434  18.771  12.093  1.00  0.00     0.073 C 
ATOM      8  O   UNL     1      33.932  19.903  11.868  1.00  0.00    -0.545 OA
ATOM      9  O   UNL     1      33.620  17.759  12.590  1.00  0.00    -0.545 OA
ENDBRANCH   1   7
TORSDOF 1
ENDMDL
MODEL 7
REMARK VINA RESULT:    -3.971      6.994      7.831
REMARK INTER + INTRA:          -4.219
REMARK INTER:                  -4.203
REMARK INTRA:                  -0.016
REMARK UNBOUND:                -0.016
REMARK SMILES O=C([O-])c1cccnc1
REMARK SMILES IDX 4 1 5 2 9 3 6 4 8 5 7 6 2 7 1 8 3 9
REMARK H PARENT
REMARK Flexibility Score: inf
ROOT
ATOM      1  C   UNL     1      36.021  18.150  11.214  1.00  0.00     0.016 A 
ATOM      2  C   UNL     1      35.105  18.782  12.071  1.00  0.00     0.013 A 
ATOM      3  C   UNL     1      36.062  18.548   9.867  1.00  0.00     0.120 A 
ATOM      4  C   UNL     1      34.262  19.782  11.580  1.00  0.00     0.021 A 
ATOM      5  N   UNL     1      35.230  19.524   9.415  1.00  0.00    -0.264 NA
ATOM      6  C   UNL     1      34.340  20.143  10.235  1.00  0.00     0.111 A 
ENDROOT
BRANCH   1   7
ATOM      7  C   UNL     1      36.919  17.090  11.722  1.00  0.00     0.073 C 
ATOM      8  O   UNL     1      38.092  17.366  12.090  1.00  0.00    -0.545 OA
ATOM      9  O   UNL     1      36.480  15.773  11.799  1.00  0.00    -0.545 OA
ENDBRANCH   1   7
TORSDOF 1
ENDMDL
MODEL 8
REMARK VINA RESULT:    -3.915      6.035      7.138
REMARK INTER + INTRA:          -4.160
REMARK INTER:                  -4.143
REMARK INTRA:                  -0.017
REMARK UNBOUND:                -0.016
REMARK SMILES O=C([O-])c1cccnc1
REMARK SMILES IDX 4 1 5 2 9 3 6 4 8 5 7 6 2 7 1 8 3 9
REMARK H PARENT
REMARK Flexibility Score: inf
ROOT
ATOM      1  C   UNL     1      35.305  18.096  12.380  1.00  0.00     0.016 A 
ATOM      2  C   UNL     1      34.694  19.250  11.862  1.00  0.00     0.013 A 
ATOM      3  C   UNL     1      34.483  17.041  12.812  1.00  0.00     0.120 A 
ATOM      4  C   UNL     1      33.302  19.331  11.785  1.00  0.00     0.021 A 
ATOM      5  N   UNL     1      33.130  17.145  12.726  1.00  0.00    -0.264 NA
ATOM      6  C   UNL     1      32.529  18.257  12.227  1.00  0.00     0.111 A 
ENDROOT
BRANCH   1   7
ATOM      7  C   UNL     1      36.778  17.997  12.466  1.00  0.00     0.073 C 
ATOM      8  O   UNL     1      37.425  18.736  13.255  1.00  0.00    -0.545 OA
ATOM      9  O   UNL     1      37.471  17.087  11.674  1.00  0.00    -0.545 OA
ENDBRANCH   1   7
TORSDOF 1
ENDMDL
MODEL 9
REMARK VINA RESULT:    -3.887      8.008      9.019
REMARK INTER + INTRA:          -4.130
REMARK INTER:                  -4.114
REMARK INTRA:                  -0.016
REMARK UNBOUND:                -0.016
REMARK SMILES O=C([O-])c1cccnc1
REMARK SMILES IDX 4 1 5 2 9 3 6 4 8 5 7 6 2 7 1 8 3 9
REMARK H PARENT
REMARK Flexibility Score: inf
ROOT
ATOM      1  C   UNL     1      37.399  18.043  10.357  1.00  0.00     0.016 A 
ATOM      2  C   UNL     1      38.381  18.155   9.359  1.00  0.00     0.013 A 
ATOM      3  C   UNL     1      36.086  18.440  10.052  1.00  0.00     0.120 A 
ATOM      4  C   UNL     1      38.044  18.651   8.097  1.00  0.00     0.021 A 
ATOM      5  N   UNL     1      35.784  18.920   8.815  1.00  0.00    -0.264 NA
ATOM      6  C   UNL     1      36.726  19.033   7.842  1.00  0.00     0.111 A 
ENDROOT
BRANCH   1   7
ATOM      7  C   UNL     1      37.743  17.519  11.697  1.00  0.00     0.073 C 
ATOM      8  O   UNL     1      37.386  16.361  12.043  1.00  0.00    -0.545 OA
ATOM      9  O   UNL     1      38.465  18.299  12.594  1.00  0.00    -0.545 OA
ENDBRANCH   1   7
TORSDOF 1
ENDMDL
