MODEL 1
REMARK VINA RESULT:    -3.936      0.000      0.000
REMARK INTER + INTRA:          -4.831
REMARK INTER:                  -4.742
REMARK INTRA:                  -0.089
REMARK UNBOUND:                -0.089
REMARK SMILES O=c1c(O)c(-c2ccc(O)cc2O)oc2cc(O)cc(O)c12
REMARK SMILES IDX 5 1 3 2 2 3 1 4 22 5 20 6 19 7 17 8 16 9 15 10 14 11 6 12
REMARK SMILES IDX 8 13 7 14 9 15 11 16 12 17 10 18 13 20 4 22 21 24 18 26
REMARK H PARENT 10 19 13 21 4 23 21 25 18 27
REMARK Flexibility Score: inf
ROOT
ATOM      1  C   UNL     1      -2.328  -5.415  -2.085  1.00  0.00     0.184 A 
ATOM      2  C   UNL     1      -2.538  -5.694  -0.725  1.00  0.00     0.208 A 
ATOM      3  C   UNL     1      -2.678  -4.626   0.174  1.00  0.00     0.238 A 
ATOM      4  O   UNL     1      -2.918  -4.881   1.383  1.00  0.00    -0.285 OA
ATOM      5  C   UNL     1      -2.589  -3.293  -0.297  1.00  0.00     0.111 A 
ATOM      6  C   UNL     1      -2.674  -2.134   0.532  1.00  0.00     0.134 A 
ATOM      7  C   UNL     1      -2.703  -0.864  -0.058  1.00  0.00     0.093 A 
ATOM      8  C   UNL     1      -2.584  -0.708  -1.438  1.00  0.00     0.123 A 
ATOM      9  C   UNL     1      -2.440  -1.832  -2.253  1.00  0.00     0.094 A 
ATOM     10  C   UNL     1      -2.444  -3.114  -1.697  1.00  0.00     0.146 A 
ATOM     11  O   UNL     1      -2.316  -4.157  -2.508  1.00  0.00    -0.451 OA
ENDROOT
BRANCH   1  12
ATOM     12  C   UNL     1      -2.157  -6.493  -3.082  1.00  0.00     0.063 A 
ATOM     13  C   UNL     1      -2.897  -8.627  -3.982  1.00  0.00     0.047 A 
ATOM     14  C   UNL     1      -3.028  -7.593  -3.051  1.00  0.00     0.020 A 
ATOM     15  C   UNL     1      -1.905  -8.567  -4.963  1.00  0.00     0.119 A 
ATOM     16  C   UNL     1      -1.046  -7.462  -5.018  1.00  0.00     0.093 A 
ATOM     17  C   UNL     1      -1.174  -6.418  -4.090  1.00  0.00     0.130 A 
BRANCH  15  18
ATOM     18  O   UNL     1      -1.784  -9.607  -5.883  1.00  0.00    -0.508 OA
ATOM     19  H   UNL     1      -1.418  -9.450  -6.815  1.00  0.00     0.293 HD
ENDBRANCH  15  18
BRANCH  17  20
ATOM     20  O   UNL     1      -0.344  -5.300  -4.184  1.00  0.00    -0.507 OA
ATOM     21  H   UNL     1      -0.720  -4.358  -4.195  1.00  0.00     0.293 HD
ENDBRANCH  17  20
ENDBRANCH   1  12
BRANCH   2  22
ATOM     22  O   UNL     1      -2.640  -7.018  -0.291  1.00  0.00    -0.502 OA
ATOM     23  H   UNL     1      -3.084  -7.740  -0.847  1.00  0.00     0.293 HD
ENDBRANCH   2  22
BRANCH   6  24
ATOM     24  O   UNL     1      -2.706  -2.174   1.929  1.00  0.00    -0.507 OA
ATOM     25  H   UNL     1      -3.281  -1.582   2.508  1.00  0.00     0.293 HD
ENDBRANCH   6  24
BRANCH   8  26
ATOM     26  O   UNL     1      -2.602   0.571  -1.989  1.00  0.00    -0.508 OA
ATOM     27  H   UNL     1      -3.466   1.090  -2.096  1.00  0.00     0.293 HD
ENDBRANCH   8  26
TORSDOF 6
ENDMDL
MODEL 2
REMARK VINA RESULT:    -3.922      1.417      7.089
REMARK INTER + INTRA:          -4.813
REMARK INTER:                  -4.649
REMARK INTRA:                  -0.165
REMARK UNBOUND:                -0.089
REMARK SMILES O=c1c(O)c(-c2ccc(O)cc2O)oc2cc(O)cc(O)c12
REMARK SMILES IDX 5 1 3 2 2 3 1 4 22 5 20 6 19 7 17 8 16 9 15 10 14 11 6 12
REMARK SMILES IDX 8 13 7 14 9 15 11 16 12 17 10 18 13 20 4 22 21 24 18 26
REMARK H PARENT 10 19 13 21 4 23 21 25 18 27
REMARK Flexibility Score: inf
ROOT
ATOM      1  C   UNL     1      -1.747  -4.621  -2.839  1.00  0.00     0.184 A 
ATOM      2  C   UNL     1      -0.853  -4.356  -3.888  1.00  0.00     0.208 A 
ATOM      3  C   UNL     1      -0.580  -5.370  -4.820  1.00  0.00     0.238 A 
ATOM      4  O   UNL     1       0.182  -5.112  -5.789  1.00  0.00    -0.285 OA
ATOM      5  C   UNL     1      -1.192  -6.639  -4.679  1.00  0.00     0.111 A 
ATOM      6  C   UNL     1      -0.956  -7.752  -5.542  1.00  0.00     0.134 A 
ATOM      7  C   UNL     1      -1.715  -8.919  -5.386  1.00  0.00     0.093 A 
ATOM      8  C   UNL     1      -2.653  -9.037  -4.361  1.00  0.00     0.123 A 
ATOM      9  C   UNL     1      -2.849  -7.977  -3.475  1.00  0.00     0.094 A 
ATOM     10  C   UNL     1      -2.133  -6.786  -3.627  1.00  0.00     0.146 A 
ATOM     11  O   UNL     1      -2.357  -5.798  -2.770  1.00  0.00    -0.451 OA
ENDROOT
BRANCH   1  12
ATOM     12  C   UNL     1      -2.066  -3.604  -1.816  1.00  0.00     0.063 A 
ATOM     13  C   UNL     1      -2.755  -1.332  -1.287  1.00  0.00     0.047 A 
ATOM     14  C   UNL     1      -2.441  -2.316  -2.229  1.00  0.00     0.020 A 
ATOM     15  C   UNL     1      -2.710  -1.627   0.078  1.00  0.00     0.119 A 
ATOM     16  C   UNL     1      -2.360  -2.915   0.500  1.00  0.00     0.093 A 
ATOM     17  C   UNL     1      -2.049  -3.910  -0.438  1.00  0.00     0.130 A 
BRANCH  15  18
ATOM     18  O   UNL     1      -3.021  -0.635   1.005  1.00  0.00    -0.508 OA
ATOM     19  H   UNL     1      -2.950   0.349   0.772  1.00  0.00     0.293 HD
ENDBRANCH  15  18
BRANCH  17  20
ATOM     20  O   UNL     1      -1.748  -5.202  -0.008  1.00  0.00    -0.507 OA
ATOM     21  H   UNL     1      -0.808  -5.577  -0.068  1.00  0.00     0.293 HD
ENDBRANCH  17  20
ENDBRANCH   1  12
BRANCH   2  22
ATOM     22  O   UNL     1      -0.277  -3.090  -4.013  1.00  0.00    -0.502 OA
ATOM     23  H   UNL     1      -0.374  -2.376  -3.301  1.00  0.00     0.293 HD
ENDBRANCH   2  22
BRANCH   6  24
ATOM     24  O   UNL     1       0.022  -7.773  -6.540  1.00  0.00    -0.507 OA
ATOM     25  H   UNL     1      -0.106  -7.421  -7.477  1.00  0.00     0.293 HD
ENDBRANCH   6  24
BRANCH   8  26
ATOM     26  O   UNL     1      -3.379 -10.218  -4.226  1.00  0.00    -0.508 OA
ATOM     27  H   UNL     1      -4.243 -10.370  -4.734  1.00  0.00     0.293 HD
ENDBRANCH   8  26
TORSDOF 6
ENDMDL
MODEL 3
REMARK VINA RESULT:    -3.888      7.601      8.541
REMARK INTER + INTRA:          -4.773
REMARK INTER:                  -4.356
REMARK INTRA:                  -0.416
REMARK UNBOUND:                -0.089
REMARK SMILES O=c1c(O)c(-c2ccc(O)cc2O)oc2cc(O)cc(O)c12
REMARK SMILES IDX 5 1 3 2 2 3 1 4 22 5 20 6 19 7 17 8 16 9 15 10 14 11 6 12
REMARK SMILES IDX 8 13 7 14 9 15 11 16 12 17 10 18 13 20 4 22 21 24 18 26
REMARK H PARENT 10 19 13 21 4 23 21 25 18 27
REMARK Flexibility Score: inf
ROOT
ATOM      1  C   UNL     1       5.437  -3.871  -1.066  1.00  0.00     0.184 A 
ATOM      2  C   UNL     1       5.732  -3.353  -2.336  1.00  0.00     0.208 A 
ATOM      3  C   UNL     1       5.654  -1.966  -2.539  1.00  0.00     0.238 A 
ATOM      4  O   UNL     1       5.970  -1.501  -3.665  1.00  0.00    -0.285 OA
ATOM      5  C   UNL     1       5.266  -1.119  -1.472  1.00  0.00     0.111 A 
ATOM      6  C   UNL     1       5.113   0.296  -1.576  1.00  0.00     0.134 A 
ATOM      7  C   UNL     1       4.851   1.049  -0.424  1.00  0.00     0.093 A 
ATOM      8  C   UNL     1       4.671   0.432   0.813  1.00  0.00     0.123 A 
ATOM      9  C   UNL     1       4.759  -0.956   0.915  1.00  0.00     0.094 A 
ATOM     10  C   UNL     1       5.055  -1.731  -0.209  1.00  0.00     0.146 A 
ATOM     11  O   UNL     1       5.141  -3.048  -0.067  1.00  0.00    -0.451 OA
ENDROOT
BRANCH   1  12
ATOM     12  C   UNL     1       5.485  -5.322  -0.789  1.00  0.00     0.063 A 
ATOM     13  C   UNL     1       6.814  -7.322  -0.409  1.00  0.00     0.047 A 
ATOM     14  C   UNL     1       6.733  -5.953  -0.675  1.00  0.00     0.020 A 
ATOM     15  C   UNL     1       5.649  -8.075  -0.239  1.00  0.00     0.119 A 
ATOM     16  C   UNL     1       4.399  -7.451  -0.326  1.00  0.00     0.093 A 
ATOM     17  C   UNL     1       4.309  -6.076  -0.588  1.00  0.00     0.130 A 
BRANCH  15  18
ATOM     18  O   UNL     1       5.746  -9.440   0.023  1.00  0.00    -0.508 OA
ATOM     19  H   UNL     1       6.619  -9.863   0.316  1.00  0.00     0.293 HD
ENDBRANCH  15  18
BRANCH  17  20
ATOM     20  O   UNL     1       3.060  -5.456  -0.626  1.00  0.00    -0.507 OA
ATOM     21  H   UNL     1       2.541  -5.253   0.221  1.00  0.00     0.293 HD
ENDBRANCH  17  20
ENDBRANCH   1  12
BRANCH   2  22
ATOM     22  O   UNL     1       6.130  -4.209  -3.365  1.00  0.00    -0.502 OA
ATOM     23  H   UNL     1       5.602  -4.308  -4.224  1.00  0.00     0.293 HD
ENDBRANCH   2  22
BRANCH   6  24
ATOM     24  O   UNL     1       5.182   1.003  -2.780  1.00  0.00    -0.507 OA
ATOM     25  H   UNL     1       5.992   1.510  -3.104  1.00  0.00     0.293 HD
ENDBRANCH   6  24
BRANCH   8  26
ATOM     26  O   UNL     1       4.397   1.211   1.936  1.00  0.00    -0.508 OA
ATOM     27  H   UNL     1       4.602   2.203   1.955  1.00  0.00     0.293 HD
ENDBRANCH   8  26
TORSDOF 6
ENDMDL
MODEL 4
REMARK VINA RESULT:    -3.850      8.682      9.305
REMARK INTER + INTRA:          -4.726
REMARK INTER:                  -4.382
REMARK INTRA:                  -0.345
REMARK UNBOUND:                -0.089
REMARK SMILES O=c1c(O)c(-c2ccc(O)cc2O)oc2cc(O)cc(O)c12
REMARK SMILES IDX 5 1 3 2 2 3 1 4 22 5 20 6 19 7 17 8 16 9 15 10 14 11 6 12
REMARK SMILES IDX 8 13 7 14 9 15 11 16 12 17 10 18 13 20 4 22 21 24 18 26
REMARK H PARENT 10 19 13 21 4 23 21 25 18 27
REMARK Flexibility Score: inf
ROOT
ATOM      1  C   UNL     1       5.175  -7.278   2.336  1.00  0.00     0.184 A 
ATOM      2  C   UNL     1       4.616  -8.061   3.358  1.00  0.00     0.208 A 
ATOM      3  C   UNL     1       4.576  -7.546   4.663  1.00  0.00     0.238 A 
ATOM      4  O   UNL     1       4.026  -8.229   5.566  1.00  0.00    -0.285 OA
ATOM      5  C   UNL     1       5.110  -6.261   4.930  1.00  0.00     0.111 A 
ATOM      6  C   UNL     1       5.159  -5.657   6.222  1.00  0.00     0.134 A 
ATOM      7  C   UNL     1       5.590  -4.331   6.348  1.00  0.00     0.093 A 
ATOM      8  C   UNL     1       6.036  -3.610   5.241  1.00  0.00     0.123 A 
ATOM      9  C   UNL     1       6.048  -4.211   3.982  1.00  0.00     0.094 A 
ATOM     10  C   UNL     1       5.589  -5.521   3.818  1.00  0.00     0.146 A 
ATOM     11  O   UNL     1       5.608  -6.052   2.602  1.00  0.00    -0.451 OA
ENDROOT
BRANCH   1  12
ATOM     12  C   UNL     1       5.264  -7.767   0.944  1.00  0.00     0.063 A 
ATOM     13  C   UNL     1       6.100  -9.423  -0.627  1.00  0.00     0.047 A 
ATOM     14  C   UNL     1       6.001  -8.931   0.677  1.00  0.00     0.020 A 
ATOM     15  C   UNL     1       5.454  -8.767  -1.678  1.00  0.00     0.119 A 
ATOM     16  C   UNL     1       4.697  -7.618  -1.418  1.00  0.00     0.093 A 
ATOM     17  C   UNL     1       4.587  -7.120  -0.112  1.00  0.00     0.130 A 
BRANCH  15  18
ATOM     18  O   UNL     1       5.566  -9.267  -2.973  1.00  0.00    -0.508 OA
ATOM     19  H   UNL     1       6.254  -8.905  -3.623  1.00  0.00     0.293 HD
ENDBRANCH  15  18
BRANCH  17  20
ATOM     20  O   UNL     1       3.791  -6.003   0.142  1.00  0.00    -0.507 OA
ATOM     21  H   UNL     1       3.660  -5.645   1.082  1.00  0.00     0.293 HD
ENDBRANCH  17  20
ENDBRANCH   1  12
BRANCH   2  22
ATOM     22  O   UNL     1       4.081  -9.317   3.064  1.00  0.00    -0.502 OA
ATOM     23  H   UNL     1       3.119  -9.443   2.771  1.00  0.00     0.293 HD
ENDBRANCH   2  22
BRANCH   6  24
ATOM     24  O   UNL     1       4.823  -6.319   7.407  1.00  0.00    -0.507 OA
ATOM     25  H   UNL     1       4.588  -5.861   8.274  1.00  0.00     0.293 HD
ENDBRANCH   6  24
BRANCH   8  26
ATOM     26  O   UNL     1       6.472  -2.297   5.406  1.00  0.00    -0.508 OA
ATOM     27  H   UNL     1       7.423  -2.023   5.185  1.00  0.00     0.293 HD
ENDBRANCH   8  26
TORSDOF 6
ENDMDL
MODEL 5
REMARK VINA RESULT:    -3.820      1.795      6.519
REMARK INTER + INTRA:          -4.690
REMARK INTER:                  -4.265
REMARK INTRA:                  -0.425
REMARK UNBOUND:                -0.089
REMARK SMILES O=c1c(O)c(-c2ccc(O)cc2O)oc2cc(O)cc(O)c12
REMARK SMILES IDX 5 1 3 2 2 3 1 4 22 5 20 6 19 7 17 8 16 9 15 10 14 11 6 12
REMARK SMILES IDX 8 13 7 14 9 15 11 16 12 17 10 18 13 20 4 22 21 24 18 26
REMARK H PARENT 10 19 13 21 4 23 21 25 18 27
REMARK Flexibility Score: inf
ROOT
ATOM      1  C   UNL     1      -2.856  -5.687  -1.906  1.00  0.00     0.184 A 
ATOM      2  C   UNL     1      -3.460  -6.939  -1.710  1.00  0.00     0.208 A 
ATOM      3  C   UNL     1      -3.203  -7.969  -2.629  1.00  0.00     0.238 A 
ATOM      4  O   UNL     1      -3.704  -9.105  -2.419  1.00  0.00    -0.285 OA
ATOM      5  C   UNL     1      -2.358  -7.727  -3.739  1.00  0.00     0.111 A 
ATOM      6  C   UNL     1      -2.061  -8.686  -4.754  1.00  0.00     0.134 A 
ATOM      7  C   UNL     1      -1.110  -8.379  -5.736  1.00  0.00     0.093 A 
ATOM      8  C   UNL     1      -0.496  -7.128  -5.778  1.00  0.00     0.123 A 
ATOM      9  C   UNL     1      -0.823  -6.163  -4.826  1.00  0.00     0.094 A 
ATOM     10  C   UNL     1      -1.741  -6.451  -3.812  1.00  0.00     0.146 A 
ATOM     11  O   UNL     1      -2.017  -5.509  -2.919  1.00  0.00    -0.451 OA
ENDROOT
BRANCH   1  12
ATOM     12  C   UNL     1      -3.097  -4.556  -0.987  1.00  0.00     0.063 A 
ATOM     13  C   UNL     1      -4.602  -2.834  -0.162  1.00  0.00     0.047 A 
ATOM     14  C   UNL     1      -4.339  -3.904  -1.021  1.00  0.00     0.020 A 
ATOM     15  C   UNL     1      -3.633  -2.411   0.752  1.00  0.00     0.119 A 
ATOM     16  C   UNL     1      -2.399  -3.071   0.811  1.00  0.00     0.093 A 
ATOM     17  C   UNL     1      -2.129  -4.149  -0.045  1.00  0.00     0.130 A 
BRANCH  15  18
ATOM     18  O   UNL     1      -3.908  -1.341   1.600  1.00  0.00    -0.508 OA
ATOM     19  H   UNL     1      -3.371  -0.483   1.560  1.00  0.00     0.293 HD
ENDBRANCH  15  18
BRANCH  17  20
ATOM     20  O   UNL     1      -0.915  -4.829   0.056  1.00  0.00    -0.507 OA
ATOM     21  H   UNL     1      -0.808  -5.641   0.653  1.00  0.00     0.293 HD
ENDBRANCH  17  20
ENDBRANCH   1  12
BRANCH   2  22
ATOM     22  O   UNL     1      -4.274  -7.156  -0.596  1.00  0.00    -0.502 OA
ATOM     23  H   UNL     1      -4.747  -8.037  -0.431  1.00  0.00     0.293 HD
ENDBRANCH   2  22
BRANCH   6  24
ATOM     24  O   UNL     1      -2.685  -9.932  -4.859  1.00  0.00    -0.507 OA
ATOM     25  H   UNL     1      -2.201 -10.811  -4.960  1.00  0.00     0.293 HD
ENDBRANCH   6  24
BRANCH   8  26
ATOM     26  O   UNL     1       0.434  -6.852  -6.778  1.00  0.00    -0.508 OA
ATOM     27  H   UNL     1       1.035  -7.575  -7.157  1.00  0.00     0.293 HD
ENDBRANCH   8  26
TORSDOF 6
ENDMDL
MODEL 6
REMARK VINA RESULT:    -3.800      8.146      9.422
REMARK INTER + INTRA:          -4.666
REMARK INTER:                  -4.259
REMARK INTRA:                  -0.408
REMARK UNBOUND:                -0.089
REMARK SMILES O=c1c(O)c(-c2ccc(O)cc2O)oc2cc(O)cc(O)c12
REMARK SMILES IDX 5 1 3 2 2 3 1 4 22 5 20 6 19 7 17 8 16 9 15 10 14 11 6 12
REMARK SMILES IDX 8 13 7 14 9 15 11 16 12 17 10 18 13 20 4 22 21 24 18 26
REMARK H PARENT 10 19 13 21 4 23 21 25 18 27
REMARK Flexibility Score: inf
ROOT
ATOM      1  C   UNL     1       5.127  -7.018   1.236  1.00  0.00     0.184 A 
ATOM      2  C   UNL     1       5.796  -6.024   1.967  1.00  0.00     0.208 A 
ATOM      3  C   UNL     1       5.707  -6.035   3.368  1.00  0.00     0.238 A 
ATOM      4  O   UNL     1       6.352  -5.173   4.021  1.00  0.00    -0.285 OA
ATOM      5  C   UNL     1       4.938  -7.031   4.017  1.00  0.00     0.111 A 
ATOM      6  C   UNL     1       4.745  -7.113   5.429  1.00  0.00     0.134 A 
ATOM      7  C   UNL     1       4.071  -8.215   5.970  1.00  0.00     0.093 A 
ATOM      8  C   UNL     1       3.527  -9.202   5.149  1.00  0.00     0.123 A 
ATOM      9  C   UNL     1       3.658  -9.100   3.764  1.00  0.00     0.094 A 
ATOM     10  C   UNL     1       4.356  -8.031   3.195  1.00  0.00     0.146 A 
ATOM     11  O   UNL     1       4.468  -7.977   1.874  1.00  0.00    -0.451 OA
ENDROOT
BRANCH   1  12
ATOM     12  C   UNL     1       5.166  -7.055  -0.241  1.00  0.00     0.063 A 
ATOM     13  C   UNL     1       6.147  -7.963  -2.271  1.00  0.00     0.047 A 
ATOM     14  C   UNL     1       6.088  -7.900  -0.877  1.00  0.00     0.020 A 
ATOM     15  C   UNL     1       5.277  -7.193  -3.047  1.00  0.00     0.119 A 
ATOM     16  C   UNL     1       4.338  -6.363  -2.423  1.00  0.00     0.093 A 
ATOM     17  C   UNL     1       4.268  -6.298  -1.023  1.00  0.00     0.130 A 
BRANCH  15  18
ATOM     18  O   UNL     1       5.351  -7.263  -4.437  1.00  0.00    -0.508 OA
ATOM     19  H   UNL     1       4.678  -6.788  -5.027  1.00  0.00     0.293 HD
ENDBRANCH  15  18
BRANCH  17  20
ATOM     20  O   UNL     1       3.297  -5.505  -0.412  1.00  0.00    -0.507 OA
ATOM     21  H   UNL     1       3.349  -5.263   0.571  1.00  0.00     0.293 HD
ENDBRANCH  17  20
ENDBRANCH   1  12
BRANCH   2  22
ATOM     22  O   UNL     1       6.563  -5.064   1.302  1.00  0.00    -0.502 OA
ATOM     23  H   UNL     1       6.168  -4.198   0.955  1.00  0.00     0.293 HD
ENDBRANCH   2  22
BRANCH   6  24
ATOM     24  O   UNL     1       5.168  -6.135   6.333  1.00  0.00    -0.507 OA
ATOM     25  H   UNL     1       4.596  -5.373   6.665  1.00  0.00     0.293 HD
ENDBRANCH   6  24
BRANCH   8  26
ATOM     26  O   UNL     1       2.850 -10.277   5.721  1.00  0.00    -0.508 OA
ATOM     27  H   UNL     1       1.846 -10.379   5.631  1.00  0.00     0.293 HD
ENDBRANCH   8  26
TORSDOF 6
ENDMDL
MODEL 7
REMARK VINA RESULT:    -3.761      5.599      8.305
REMARK INTER + INTRA:          -4.619
REMARK INTER:                  -4.198
REMARK INTRA:                  -0.422
REMARK UNBOUND:                -0.089
REMARK SMILES O=c1c(O)c(-c2ccc(O)cc2O)oc2cc(O)cc(O)c12
REMARK SMILES IDX 5 1 3 2 2 3 1 4 22 5 20 6 19 7 17 8 16 9 15 10 14 11 6 12
REMARK SMILES IDX 8 13 7 14 9 15 11 16 12 17 10 18 13 20 4 22 21 24 18 26
REMARK H PARENT 10 19 13 21 4 23 21 25 18 27
REMARK Flexibility Score: inf
ROOT
ATOM      1  C   UNL     1      -2.840 -10.552   1.974  1.00  0.00     0.184 A 
ATOM      2  C   UNL     1      -2.682 -11.566   1.016  1.00  0.00     0.208 A 
ATOM      3  C   UNL     1      -2.848 -11.251  -0.341  1.00  0.00     0.238 A 
ATOM      4  O   UNL     1      -2.654 -12.151  -1.199  1.00  0.00    -0.285 OA
ATOM      5  C   UNL     1      -3.185  -9.928  -0.721  1.00  0.00     0.111 A 
ATOM      6  C   UNL     1      -3.418  -9.506  -2.064  1.00  0.00     0.134 A 
ATOM      7  C   UNL     1      -3.618  -8.146  -2.335  1.00  0.00     0.093 A 
ATOM      8  C   UNL     1      -3.659  -7.205  -1.307  1.00  0.00     0.123 A 
ATOM      9  C   UNL     1      -3.492  -7.616   0.015  1.00  0.00     0.094 A 
ATOM     10  C   UNL     1      -3.255  -8.961   0.315  1.00  0.00     0.146 A 
ATOM     11  O   UNL     1      -3.091  -9.308   1.585  1.00  0.00    -0.451 OA
ENDROOT
BRANCH   1  12
ATOM     12  C   UNL     1      -2.695 -10.820   3.420  1.00  0.00     0.063 A 
ATOM     13  C   UNL     1      -3.579 -11.839   5.443  1.00  0.00     0.047 A 
ATOM     14  C   UNL     1      -3.688 -11.563   4.077  1.00  0.00     0.020 A 
ATOM     15  C   UNL     1      -2.471 -11.388   6.165  1.00  0.00     0.119 A 
ATOM     16  C   UNL     1      -1.463 -10.666   5.514  1.00  0.00     0.093 A 
ATOM     17  C   UNL     1      -1.562 -10.390   4.142  1.00  0.00     0.130 A 
BRANCH  15  18
ATOM     18  O   UNL     1      -2.379 -11.667   7.527  1.00  0.00    -0.508 OA
ATOM     19  H   UNL     1      -2.473 -10.938   8.225  1.00  0.00     0.293 HD
ENDBRANCH  15  18
BRANCH  17  20
ATOM     20  O   UNL     1      -0.529  -9.712   3.494  1.00  0.00    -0.507 OA
ATOM     21  H   UNL     1       0.280 -10.201   3.127  1.00  0.00     0.293 HD
ENDBRANCH  17  20
ENDBRANCH   1  12
BRANCH   2  22
ATOM     22  O   UNL     1      -2.331 -12.858   1.417  1.00  0.00    -0.502 OA
ATOM     23  H   UNL     1      -2.501 -13.671   0.837  1.00  0.00     0.293 HD
ENDBRANCH   2  22
BRANCH   6  24
ATOM     24  O   UNL     1      -3.489 -10.376  -3.155  1.00  0.00    -0.507 OA
ATOM     25  H   UNL     1      -2.821 -11.106  -3.354  1.00  0.00     0.293 HD
ENDBRANCH   6  24
BRANCH   8  26
ATOM     26  O   UNL     1      -3.875  -5.863  -1.612  1.00  0.00    -0.508 OA
ATOM     27  H   UNL     1      -3.461  -5.432  -2.431  1.00  0.00     0.293 HD
ENDBRANCH   8  26
TORSDOF 6
ENDMDL
MODEL 8
REMARK VINA RESULT:    -3.731      2.638      7.375
REMARK INTER + INTRA:          -4.583
REMARK INTER:                  -4.164
REMARK INTRA:                  -0.419
REMARK UNBOUND:                -0.089
REMARK SMILES O=c1c(O)c(-c2ccc(O)cc2O)oc2cc(O)cc(O)c12
REMARK SMILES IDX 5 1 3 2 2 3 1 4 22 5 20 6 19 7 17 8 16 9 15 10 14 11 6 12
REMARK SMILES IDX 8 13 7 14 9 15 11 16 12 17 10 18 13 20 4 22 21 24 18 26
REMARK H PARENT 10 19 13 21 4 23 21 25 18 27
REMARK Flexibility Score: inf
ROOT
ATOM      1  C   UNL     1      -3.569  -6.270  -0.612  1.00  0.00     0.184 A 
ATOM      2  C   UNL     1      -4.032  -6.369  -1.934  1.00  0.00     0.208 A 
ATOM      3  C   UNL     1      -4.050  -7.628  -2.555  1.00  0.00     0.238 A 
ATOM      4  O   UNL     1      -4.515  -7.720  -3.721  1.00  0.00    -0.285 OA
ATOM      5  C   UNL     1      -3.590  -8.767  -1.851  1.00  0.00     0.111 A 
ATOM      6  C   UNL     1      -3.525 -10.085  -2.397  1.00  0.00     0.134 A 
ATOM      7  C   UNL     1      -3.175 -11.158  -1.568  1.00  0.00     0.093 A 
ATOM      8  C   UNL     1      -2.825 -10.954  -0.234  1.00  0.00     0.123 A 
ATOM      9  C   UNL     1      -2.827  -9.663   0.294  1.00  0.00     0.094 A 
ATOM     10  C   UNL     1      -3.207  -8.576  -0.498  1.00  0.00     0.146 A 
ATOM     11  O   UNL     1      -3.206  -7.365   0.046  1.00  0.00    -0.451 OA
ENDROOT
BRANCH   1  12
ATOM     12  C   UNL     1      -3.509  -4.974   0.095  1.00  0.00     0.063 A 
ATOM     13  C   UNL     1      -4.670  -3.202   1.288  1.00  0.00     0.047 A 
ATOM     14  C   UNL     1      -4.692  -4.424   0.610  1.00  0.00     0.020 A 
ATOM     15  C   UNL     1      -3.463  -2.523   1.472  1.00  0.00     0.119 A 
ATOM     16  C   UNL     1      -2.273  -3.074   0.982  1.00  0.00     0.093 A 
ATOM     17  C   UNL     1      -2.286  -4.303   0.305  1.00  0.00     0.130 A 
BRANCH  15  18
ATOM     18  O   UNL     1      -3.457  -1.304   2.147  1.00  0.00    -0.508 OA
ATOM     19  H   UNL     1      -4.085  -1.125   2.922  1.00  0.00     0.293 HD
ENDBRANCH  15  18
BRANCH  17  20
ATOM     20  O   UNL     1      -1.088  -4.866  -0.136  1.00  0.00    -0.507 OA
ATOM     21  H   UNL     1      -0.513  -5.436   0.474  1.00  0.00     0.293 HD
ENDBRANCH  17  20
ENDBRANCH   1  12
BRANCH   2  22
ATOM     22  O   UNL     1      -4.497  -5.232  -2.598  1.00  0.00    -0.502 OA
ATOM     23  H   UNL     1      -5.147  -5.284  -3.374  1.00  0.00     0.293 HD
ENDBRANCH   2  22
BRANCH   6  24
ATOM     24  O   UNL     1      -3.766 -10.386  -3.740  1.00  0.00    -0.507 OA
ATOM     25  H   UNL     1      -3.644  -9.741  -4.505  1.00  0.00     0.293 HD
ENDBRANCH   6  24
BRANCH   8  26
ATOM     26  O   UNL     1      -2.467 -12.044   0.557  1.00  0.00    -0.508 OA
ATOM     27  H   UNL     1      -1.957 -12.832   0.175  1.00  0.00     0.293 HD
ENDBRANCH   8  26
TORSDOF 6
ENDMDL
MODEL 9
REMARK VINA RESULT:    -3.726      2.668      3.669
REMARK INTER + INTRA:          -4.577
REMARK INTER:                  -4.299
REMARK INTRA:                  -0.279
REMARK UNBOUND:                -0.089
REMARK SMILES O=c1c(O)c(-c2ccc(O)cc2O)oc2cc(O)cc(O)c12
REMARK SMILES IDX 5 1 3 2 2 3 1 4 22 5 20 6 19 7 17 8 16 9 15 10 14 11 6 12
REMARK SMILES IDX 8 13 7 14 9 15 11 16 12 17 10 18 13 20 4 22 21 24 18 26
REMARK H PARENT 10 19 13 21 4 23 21 25 18 27
REMARK Flexibility Score: inf
ROOT
ATOM      1  C   UNL     1      -3.401  -7.633  -0.766  1.00  0.00     0.184 A 
ATOM      2  C   UNL     1      -4.275  -7.104   0.197  1.00  0.00     0.208 A 
ATOM      3  C   UNL     1      -4.363  -5.711   0.341  1.00  0.00     0.238 A 
ATOM      4  O   UNL     1      -5.187  -5.240   1.168  1.00  0.00    -0.285 OA
ATOM      5  C   UNL     1      -3.565  -4.867  -0.469  1.00  0.00     0.111 A 
ATOM      6  C   UNL     1      -3.544  -3.442  -0.380  1.00  0.00     0.134 A 
ATOM      7  C   UNL     1      -2.813  -2.703  -1.318  1.00  0.00     0.093 A 
ATOM      8  C   UNL     1      -2.052  -3.336  -2.300  1.00  0.00     0.123 A 
ATOM      9  C   UNL     1      -2.017  -4.729  -2.359  1.00  0.00     0.094 A 
ATOM     10  C   UNL     1      -2.765  -5.495  -1.459  1.00  0.00     0.146 A 
ATOM     11  O   UNL     1      -2.714  -6.817  -1.556  1.00  0.00    -0.451 OA
ENDROOT
BRANCH   1  12
ATOM     12  C   UNL     1      -3.247  -9.090  -0.958  1.00  0.00     0.063 A 
ATOM     13  C   UNL     1      -3.463 -11.029  -2.410  1.00  0.00     0.047 A 
ATOM     14  C   UNL     1      -3.601  -9.655  -2.193  1.00  0.00     0.020 A 
ATOM     15  C   UNL     1      -2.958 -11.852  -1.401  1.00  0.00     0.119 A 
ATOM     16  C   UNL     1      -2.580 -11.295  -0.173  1.00  0.00     0.093 A 
ATOM     17  C   UNL     1      -2.710  -9.917   0.051  1.00  0.00     0.130 A 
BRANCH  15  18
ATOM     18  O   UNL     1      -2.830 -13.220  -1.630  1.00  0.00    -0.508 OA
ATOM     19  H   UNL     1      -2.467 -13.579  -2.506  1.00  0.00     0.293 HD
ENDBRANCH  15  18
BRANCH  17  20
ATOM     20  O   UNL     1      -2.285  -9.366   1.261  1.00  0.00    -0.507 OA
ATOM     21  H   UNL     1      -1.319  -9.427   1.563  1.00  0.00     0.293 HD
ENDBRANCH  17  20
ENDBRANCH   1  12
BRANCH   2  22
ATOM     22  O   UNL     1      -5.064  -7.959   0.970  1.00  0.00    -0.502 OA
ATOM     23  H   UNL     1      -6.076  -7.925   0.955  1.00  0.00     0.293 HD
ENDBRANCH   2  22
BRANCH   6  24
ATOM     24  O   UNL     1      -4.196  -2.712   0.618  1.00  0.00    -0.507 OA
ATOM     25  H   UNL     1      -4.505  -1.757   0.523  1.00  0.00     0.293 HD
ENDBRANCH   6  24
BRANCH   8  26
ATOM     26  O   UNL     1      -1.325  -2.569  -3.208  1.00  0.00    -0.508 OA
ATOM     27  H   UNL     1      -0.506  -2.938  -3.677  1.00  0.00     0.293 HD
ENDBRANCH   8  26
TORSDOF 6
ENDMDL
