MODEL 1
REMARK VINA RESULT:    -4.467      0.000      0.000
REMARK INTER + INTRA:          -4.598
REMARK INTER:                  -4.598
REMARK INTRA:                   0.000
REMARK UNBOUND:                 0.000
REMARK SMILES C[C@@H]1CC[C@H]2C(C)(C)[C@H]3C[C@@]12CC[C@]3(C)O
REMARK SMILES IDX 1 1 2 2 3 3 4 4 5 5 11 6 12 7 13 8 14 9 9 10 10 11 6 12 7 13
REMARK SMILES IDX 8 14 15 15 16 16
REMARK H PARENT 16 17
REMARK Flexibility Score: inf
ROOT
ATOM      1  C   UNL     1     145.966 142.838 138.444  1.00  0.00     0.008 C 
ATOM      2  C   UNL     1     147.283 143.403 137.891  1.00  0.00    -0.008 C 
ATOM      3  C   UNL     1     148.421 142.389 137.996  1.00  0.00     0.004 C 
ATOM      4  C   UNL     1     149.687 143.224 137.955  1.00  0.00     0.005 C 
ATOM      5  C   UNL     1     149.339 144.479 138.769  1.00  0.00     0.001 C 
ATOM      6  C   UNL     1     147.823 144.700 138.572  1.00  0.00    -0.023 C 
ATOM      7  C   UNL     1     147.141 145.084 139.925  1.00  0.00     0.010 C 
ATOM      8  C   UNL     1     147.792 146.319 140.598  1.00  0.00     0.036 C 
ATOM      9  C   UNL     1     148.180 147.442 139.591  1.00  0.00     0.065 C 
ATOM     10  C   UNL     1     148.818 146.834 138.273  1.00  0.00     0.027 C 
ATOM     11  C   UNL     1     147.749 145.923 137.656  1.00  0.00     0.014 C 
ATOM     12  C   UNL     1     150.034 145.842 138.409  1.00  0.00    -0.026 C 
ATOM     13  C   UNL     1     150.805 145.819 137.056  1.00  0.00     0.012 C 
ATOM     14  C   UNL     1     151.090 146.217 139.475  1.00  0.00     0.012 C 
ATOM     15  C   UNL     1     149.092 148.488 140.278  1.00  0.00     0.042 C 
ENDROOT
BRANCH   9  16
ATOM     16  O   UNL     1     146.985 148.114 139.251  1.00  0.00    -0.390 OA
ATOM     17  H   UNL     1     147.222 148.901 138.691  1.00  0.00     0.211 HD
ENDBRANCH   9  16
TORSDOF 1
ENDMDL
MODEL 2
REMARK VINA RESULT:    -4.371      2.129      4.472
REMARK INTER + INTRA:          -4.498
REMARK INTER:                  -4.498
REMARK INTRA:                   0.000
REMARK UNBOUND:                 0.000
REMARK SMILES C[C@@H]1CC[C@H]2C(C)(C)[C@H]3C[C@@]12CC[C@]3(C)O
REMARK SMILES IDX 1 1 2 2 3 3 4 4 5 5 11 6 12 7 13 8 14 9 9 10 10 11 6 12 7 13
REMARK SMILES IDX 8 14 15 15 16 16
REMARK H PARENT 16 17
REMARK Flexibility Score: inf
ROOT
ATOM      1  C   UNL     1     149.986 144.152 137.983  1.00  0.00     0.008 C 
ATOM      2  C   UNL     1     148.977 143.060 138.370  1.00  0.00    -0.008 C 
ATOM      3  C   UNL     1     148.678 142.127 137.198  1.00  0.00     0.004 C 
ATOM      4  C   UNL     1     147.335 141.506 137.532  1.00  0.00     0.005 C 
ATOM      5  C   UNL     1     146.538 142.652 138.173  1.00  0.00     0.001 C 
ATOM      6  C   UNL     1     147.582 143.549 138.873  1.00  0.00    -0.023 C 
ATOM      7  C   UNL     1     147.268 145.060 138.623  1.00  0.00     0.010 C 
ATOM      8  C   UNL     1     145.832 145.454 139.052  1.00  0.00     0.036 C 
ATOM      9  C   UNL     1     145.376 144.788 140.383  1.00  0.00     0.065 C 
ATOM     10  C   UNL     1     145.830 143.271 140.449  1.00  0.00     0.027 C 
ATOM     11  C   UNL     1     147.362 143.273 140.361  1.00  0.00     0.014 C 
ATOM     12  C   UNL     1     145.450 142.314 139.256  1.00  0.00    -0.026 C 
ATOM     13  C   UNL     1     145.502 140.845 139.767  1.00  0.00     0.012 C 
ATOM     14  C   UNL     1     144.027 142.496 138.678  1.00  0.00     0.012 C 
ATOM     15  C   UNL     1     143.852 144.973 140.582  1.00  0.00     0.042 C 
ENDROOT
BRANCH   9  16
ATOM     16  O   UNL     1     146.006 145.498 141.429  1.00  0.00    -0.390 OA
ATOM     17  H   UNL     1     146.851 145.027 141.657  1.00  0.00     0.211 HD
ENDBRANCH   9  16
TORSDOF 1
ENDMDL
MODEL 3
REMARK VINA RESULT:    -4.345      9.119     11.143
REMARK INTER + INTRA:          -4.472
REMARK INTER:                  -4.472
REMARK INTRA:                   0.000
REMARK UNBOUND:                 0.000
REMARK SMILES C[C@@H]1CC[C@H]2C(C)(C)[C@H]3C[C@@]12CC[C@]3(C)O
REMARK SMILES IDX 1 1 2 2 3 3 4 4 5 5 11 6 12 7 13 8 14 9 9 10 10 11 6 12 7 13
REMARK SMILES IDX 8 14 15 15 16 16
REMARK H PARENT 16 17
REMARK Flexibility Score: inf
ROOT
ATOM      1  C   UNL     1     137.332 149.947 138.012  1.00  0.00     0.008 C 
ATOM      2  C   UNL     1     138.435 148.943 138.381  1.00  0.00    -0.008 C 
ATOM      3  C   UNL     1     139.356 148.655 137.197  1.00  0.00     0.004 C 
ATOM      4  C   UNL     1     139.988 147.313 137.518  1.00  0.00     0.005 C 
ATOM      5  C   UNL     1     138.855 146.508 138.170  1.00  0.00     0.001 C 
ATOM      6  C   UNL     1     137.960 147.543 138.884  1.00  0.00    -0.023 C 
ATOM      7  C   UNL     1     136.449 147.221 138.652  1.00  0.00     0.010 C 
ATOM      8  C   UNL     1     136.068 145.781 139.079  1.00  0.00     0.036 C 
ATOM      9  C   UNL     1     136.752 145.324 140.401  1.00  0.00     0.065 C 
ATOM     10  C   UNL     1     138.268 145.787 140.451  1.00  0.00     0.027 C 
ATOM     11  C   UNL     1     138.256 147.319 140.368  1.00  0.00     0.014 C 
ATOM     12  C   UNL     1     139.212 145.417 139.244  1.00  0.00    -0.026 C 
ATOM     13  C   UNL     1     140.687 145.476 139.737  1.00  0.00     0.012 C 
ATOM     14  C   UNL     1     139.031 143.995 138.663  1.00  0.00     0.012 C 
ATOM     15  C   UNL     1     136.578 143.799 140.596  1.00  0.00     0.042 C 
ENDROOT
BRANCH   9  16
ATOM     16  O   UNL     1     136.052 145.946 141.458  1.00  0.00    -0.390 OA
ATOM     17  H   UNL     1     135.126 145.585 141.470  1.00  0.00     0.211 HD
ENDBRANCH   9  16
TORSDOF 1
ENDMDL
MODEL 4
REMARK VINA RESULT:    -4.342      9.247     11.996
REMARK INTER + INTRA:          -4.469
REMARK INTER:                  -4.469
REMARK INTRA:                   0.000
REMARK UNBOUND:                 0.000
REMARK SMILES C[C@@H]1CC[C@H]2C(C)(C)[C@H]3C[C@@]12CC[C@]3(C)O
REMARK SMILES IDX 1 1 2 2 3 3 4 4 5 5 11 6 12 7 13 8 14 9 9 10 10 11 6 12 7 13
REMARK SMILES IDX 8 14 15 15 16 16
REMARK H PARENT 16 17
REMARK Flexibility Score: inf
ROOT
ATOM      1  C   UNL     1     144.124 131.634 137.998  1.00  0.00     0.008 C 
ATOM      2  C   UNL     1     143.053 132.658 138.405  1.00  0.00    -0.008 C 
ATOM      3  C   UNL     1     142.134 133.009 137.236  1.00  0.00     0.004 C 
ATOM      4  C   UNL     1     141.543 134.358 137.601  1.00  0.00     0.005 C 
ATOM      5  C   UNL     1     142.702 135.110 138.270  1.00  0.00     0.001 C 
ATOM      6  C   UNL     1     143.571 134.027 138.947  1.00  0.00    -0.023 C 
ATOM      7  C   UNL     1     145.089 134.313 138.715  1.00  0.00     0.010 C 
ATOM      8  C   UNL     1     145.514 135.727 139.184  1.00  0.00     0.036 C 
ATOM      9  C   UNL     1     144.850 136.164 140.523  1.00  0.00     0.065 C 
ATOM     10  C   UNL     1     143.322 135.743 140.568  1.00  0.00     0.027 C 
ATOM     11  C   UNL     1     143.289 134.215 140.439  1.00  0.00     0.014 C 
ATOM     12  C   UNL     1     142.383 136.177 139.379  1.00  0.00    -0.026 C 
ATOM     13  C   UNL     1     140.909 136.146 139.879  1.00  0.00     0.012 C 
ATOM     14  C   UNL     1     142.601 137.610 138.840  1.00  0.00     0.012 C 
ATOM     15  C   UNL     1     145.069 137.677 140.763  1.00  0.00     0.042 C 
ENDROOT
BRANCH   9  16
ATOM     16  O   UNL     1     145.538 135.490 141.556  1.00  0.00    -0.390 OA
ATOM     17  H   UNL     1     146.238 134.921 141.141  1.00  0.00     0.211 HD
ENDBRANCH   9  16
TORSDOF 1
ENDMDL
MODEL 5
REMARK VINA RESULT:    -4.329     13.185     15.752
REMARK INTER + INTRA:          -4.456
REMARK INTER:                  -4.456
REMARK INTRA:                   0.000
REMARK UNBOUND:                 0.000
REMARK SMILES C[C@@H]1CC[C@H]2C(C)(C)[C@H]3C[C@@]12CC[C@]3(C)O
REMARK SMILES IDX 1 1 2 2 3 3 4 4 5 5 11 6 12 7 13 8 14 9 9 10 10 11 6 12 7 13
REMARK SMILES IDX 8 14 15 15 16 16
REMARK H PARENT 16 17
REMARK Flexibility Score: inf
ROOT
ATOM      1  C   UNL     1     131.614 137.326 138.015  1.00  0.00     0.008 C 
ATOM      2  C   UNL     1     132.615 138.429 138.391  1.00  0.00    -0.008 C 
ATOM      3  C   UNL     1     132.903 139.356 137.212  1.00  0.00     0.004 C 
ATOM      4  C   UNL     1     134.242 139.990 137.538  1.00  0.00     0.005 C 
ATOM      5  C   UNL     1     135.050 138.856 138.186  1.00  0.00     0.001 C 
ATOM      6  C   UNL     1     134.015 137.955 138.894  1.00  0.00    -0.023 C 
ATOM      7  C   UNL     1     134.341 136.446 138.654  1.00  0.00     0.010 C 
ATOM      8  C   UNL     1     135.782 136.066 139.082  1.00  0.00     0.036 C 
ATOM      9  C   UNL     1     136.235 136.745 140.408  1.00  0.00     0.065 C 
ATOM     10  C   UNL     1     135.769 138.259 140.464  1.00  0.00     0.027 C 
ATOM     11  C   UNL     1     134.237 138.244 140.380  1.00  0.00     0.014 C 
ATOM     12  C   UNL     1     136.138 139.210 139.263  1.00  0.00    -0.026 C 
ATOM     13  C   UNL     1     136.075 140.683 139.763  1.00  0.00     0.012 C 
ATOM     14  C   UNL     1     137.561 139.036 138.683  1.00  0.00     0.012 C 
ATOM     15  C   UNL     1     137.761 136.574 140.604  1.00  0.00     0.042 C 
ENDROOT
BRANCH   9  16
ATOM     16  O   UNL     1     135.614 136.038 141.460  1.00  0.00    -0.390 OA
ATOM     17  H   UNL     1     134.663 136.324 141.505  1.00  0.00     0.211 HD
ENDBRANCH   9  16
TORSDOF 1
ENDMDL
MODEL 6
REMARK VINA RESULT:    -4.214      9.860     11.621
REMARK INTER + INTRA:          -4.337
REMARK INTER:                  -4.337
REMARK INTRA:                   0.000
REMARK UNBOUND:                 0.000
REMARK SMILES C[C@@H]1CC[C@H]2C(C)(C)[C@H]3C[C@@]12CC[C@]3(C)O
REMARK SMILES IDX 1 1 2 2 3 3 4 4 5 5 11 6 12 7 13 8 14 9 9 10 10 11 6 12 7 13
REMARK SMILES IDX 8 14 15 15 16 16
REMARK H PARENT 16 17
REMARK Flexibility Score: inf
ROOT
ATOM      1  C   UNL     1     140.637 145.393 138.664  1.00  0.00     0.008 C 
ATOM      2  C   UNL     1     139.463 146.265 138.196  1.00  0.00    -0.008 C 
ATOM      3  C   UNL     1     139.943 147.586 137.599  1.00  0.00     0.004 C 
ATOM      4  C   UNL     1     138.749 148.516 137.708  1.00  0.00     0.005 C 
ATOM      5  C   UNL     1     138.114 148.159 139.060  1.00  0.00     0.001 C 
ATOM      6  C   UNL     1     138.414 146.661 139.283  1.00  0.00    -0.023 C 
ATOM      7  C   UNL     1     138.845 146.397 140.762  1.00  0.00     0.010 C 
ATOM      8  C   UNL     1     137.805 146.906 141.791  1.00  0.00     0.036 C 
ATOM      9  C   UNL     1     136.330 146.643 141.366  1.00  0.00     0.065 C 
ATOM     10  C   UNL     1     136.119 146.933 139.822  1.00  0.00     0.027 C 
ATOM     11  C   UNL     1     137.059 145.983 139.070  1.00  0.00     0.014 C 
ATOM     12  C   UNL     1     136.564 148.331 139.247  1.00  0.00    -0.026 C 
ATOM     13  C   UNL     1     135.793 148.586 137.919  1.00  0.00     0.012 C 
ATOM     14  C   UNL     1     136.251 149.554 140.141  1.00  0.00     0.012 C 
ATOM     15  C   UNL     1     135.360 147.441 142.270  1.00  0.00     0.042 C 
ENDROOT
BRANCH   9  16
ATOM     16  O   UNL     1     136.074 145.276 141.611  1.00  0.00    -0.390 OA
ATOM     17  H   UNL     1     136.747 144.948 142.264  1.00  0.00     0.211 HD
ENDBRANCH   9  16
TORSDOF 1
ENDMDL
MODEL 7
REMARK VINA RESULT:    -4.206     11.133     12.505
REMARK INTER + INTRA:          -4.329
REMARK INTER:                  -4.329
REMARK INTRA:                   0.000
REMARK UNBOUND:                 0.000
REMARK SMILES C[C@@H]1CC[C@H]2C(C)(C)[C@H]3C[C@@]12CC[C@]3(C)O
REMARK SMILES IDX 1 1 2 2 3 3 4 4 5 5 11 6 12 7 13 8 14 9 9 10 10 11 6 12 7 13
REMARK SMILES IDX 8 14 15 15 16 16
REMARK H PARENT 16 17
REMARK Flexibility Score: inf
ROOT
ATOM      1  C   UNL     1     140.992 135.856 138.651  1.00  0.00     0.008 C 
ATOM      2  C   UNL     1     142.164 134.983 138.179  1.00  0.00    -0.008 C 
ATOM      3  C   UNL     1     141.682 133.656 137.596  1.00  0.00     0.004 C 
ATOM      4  C   UNL     1     142.879 132.731 137.701  1.00  0.00     0.005 C 
ATOM      5  C   UNL     1     143.525 133.099 139.044  1.00  0.00     0.001 C 
ATOM      6  C   UNL     1     143.224 134.598 139.258  1.00  0.00    -0.023 C 
ATOM      7  C   UNL     1     142.806 134.872 140.739  1.00  0.00     0.010 C 
ATOM      8  C   UNL     1     143.858 134.373 141.763  1.00  0.00     0.036 C 
ATOM      9  C   UNL     1     145.328 134.637 141.322  1.00  0.00     0.065 C 
ATOM     10  C   UNL     1     145.525 134.336 139.778  1.00  0.00     0.027 C 
ATOM     11  C   UNL     1     144.575 135.278 139.028  1.00  0.00     0.014 C 
ATOM     12  C   UNL     1     145.078 132.932 139.217  1.00  0.00    -0.026 C 
ATOM     13  C   UNL     1     145.837 132.670 137.884  1.00  0.00     0.012 C 
ATOM     14  C   UNL     1     145.402 131.717 140.118  1.00  0.00     0.012 C 
ATOM     15  C   UNL     1     146.308 133.848 142.222  1.00  0.00     0.042 C 
ENDROOT
BRANCH   9  16
ATOM     16  O   UNL     1     145.583 136.006 141.554  1.00  0.00    -0.390 OA
ATOM     17  H   UNL     1     146.440 136.081 142.052  1.00  0.00     0.211 HD
ENDBRANCH   9  16
TORSDOF 1
ENDMDL
MODEL 8
REMARK VINA RESULT:    -4.136      1.816      2.441
REMARK INTER + INTRA:          -4.257
REMARK INTER:                  -4.257
REMARK INTRA:                   0.000
REMARK UNBOUND:                 0.000
REMARK SMILES C[C@@H]1CC[C@H]2C(C)(C)[C@H]3C[C@@]12CC[C@]3(C)O
REMARK SMILES IDX 1 1 2 2 3 3 4 4 5 5 11 6 12 7 13 8 14 9 9 10 10 11 6 12 7 13
REMARK SMILES IDX 8 14 15 15 16 16
REMARK H PARENT 16 17
REMARK Flexibility Score: inf
ROOT
ATOM      1  C   UNL     1     145.431 140.934 138.755  1.00  0.00     0.008 C 
ATOM      2  C   UNL     1     146.283 142.109 138.251  1.00  0.00    -0.008 C 
ATOM      3  C   UNL     1     147.600 141.631 137.644  1.00  0.00     0.004 C 
ATOM      4  C   UNL     1     148.518 142.838 137.715  1.00  0.00     0.005 C 
ATOM      5  C   UNL     1     148.174 143.494 139.060  1.00  0.00     0.001 C 
ATOM      6  C   UNL     1     146.683 143.182 139.311  1.00  0.00    -0.023 C 
ATOM      7  C   UNL     1     146.447 142.778 140.802  1.00  0.00     0.010 C 
ATOM      8  C   UNL     1     146.960 143.843 141.804  1.00  0.00     0.036 C 
ATOM      9  C   UNL     1     146.673 145.307 141.354  1.00  0.00     0.065 C 
ATOM     10  C   UNL     1     146.938 145.491 139.802  1.00  0.00     0.027 C 
ATOM     11  C   UNL     1     145.987 144.525 139.083  1.00  0.00     0.014 C 
ATOM     12  C   UNL     1     148.332 145.050 139.214  1.00  0.00    -0.026 C 
ATOM     13  C   UNL     1     148.557 145.798 137.867  1.00  0.00     0.012 C 
ATOM     14  C   UNL     1     149.565 145.393 140.083  1.00  0.00     0.012 C 
ATOM     15  C   UNL     1     147.474 146.303 142.227  1.00  0.00     0.042 C 
ENDROOT
BRANCH   9  16
ATOM     16  O   UNL     1     145.307 145.553 141.615  1.00  0.00    -0.390 OA
ATOM     17  H   UNL     1     145.028 146.343 141.082  1.00  0.00     0.211 HD
ENDBRANCH   9  16
TORSDOF 1
ENDMDL
MODEL 9
REMARK VINA RESULT:    -4.098     14.273     17.328
REMARK INTER + INTRA:          -4.218
REMARK INTER:                  -4.218
REMARK INTRA:                   0.000
REMARK UNBOUND:                 0.000
REMARK SMILES C[C@@H]1CC[C@H]2C(C)(C)[C@H]3C[C@@]12CC[C@]3(C)O
REMARK SMILES IDX 1 1 2 2 3 3 4 4 5 5 11 6 12 7 13 8 14 9 9 10 10 11 6 12 7 13
REMARK SMILES IDX 8 14 15 15 16 16
REMARK H PARENT 16 17
REMARK Flexibility Score: inf
ROOT
ATOM      1  C   UNL     1     135.623 140.394 138.386  1.00  0.00     0.008 C 
ATOM      2  C   UNL     1     134.654 139.279 137.964  1.00  0.00    -0.008 C 
ATOM      3  C   UNL     1     133.320 139.844 137.480  1.00  0.00     0.004 C 
ATOM      4  C   UNL     1     132.336 138.700 137.638  1.00  0.00     0.005 C 
ATOM      5  C   UNL     1     132.759 138.016 138.946  1.00  0.00     0.001 C 
ATOM      6  C   UNL     1     134.284 138.229 139.058  1.00  0.00    -0.023 C 
ATOM      7  C   UNL     1     134.682 138.611 140.520  1.00  0.00     0.010 C 
ATOM      8  C   UNL     1     134.195 137.576 141.566  1.00  0.00     0.036 C 
ATOM      9  C   UNL     1     134.342 136.099 141.094  1.00  0.00     0.065 C 
ATOM     10  C   UNL     1     133.925 135.940 139.573  1.00  0.00     0.027 C 
ATOM     11  C   UNL     1     134.867 136.845 138.768  1.00  0.00     0.014 C 
ATOM     12  C   UNL     1     132.514 136.473 139.116  1.00  0.00    -0.026 C 
ATOM     13  C   UNL     1     132.117 135.748 137.797  1.00  0.00     0.012 C 
ATOM     14  C   UNL     1     131.347 136.207 140.095  1.00  0.00     0.012 C 
ATOM     15  C   UNL     1     133.562 135.153 142.038  1.00  0.00     0.042 C 
ENDROOT
BRANCH   9  16
ATOM     16  O   UNL     1     135.708 135.764 141.229  1.00  0.00    -0.390 OA
ATOM     17  H   UNL     1     136.149 135.907 140.350  1.00  0.00     0.211 HD
ENDBRANCH   9  16
TORSDOF 1
ENDMDL
