MODEL 1
REMARK VINA RESULT:    -6.752      0.000      0.000
REMARK INTER + INTRA:          -8.507
REMARK INTER:                  -8.134
REMARK INTRA:                  -0.373
REMARK UNBOUND:                -0.373
REMARK SMILES Oc1cc(O)c2c(c1)O[C@H](c1ccc(O)c(O)c1)[C@@H](O)C2
REMARK SMILES IDX 21 1 19 2 10 3 9 4 7 5 8 6 2 7 3 8 4 9 6 10 20 11 11 13
REMARK SMILES IDX 18 14 12 15 16 16 13 17 14 18 17 19 15 21 5 23 1 25
REMARK H PARENT 20 12 17 20 15 22 5 24 1 26
REMARK Flexibility Score: inf
ROOT
ATOM      1  C   UNL     1      18.264  18.930  43.456  1.00  0.00     0.079 C 
ATOM      2  C   UNL     1      17.151  17.939  43.070  1.00  0.00     0.164 C 
ATOM      3  C   UNL     1      16.933  17.971  41.546  1.00  0.00     0.232 C 
ATOM      4  O   UNL     1      16.640  19.303  41.118  1.00  0.00    -0.482 OA
ATOM      5  C   UNL     1      17.247  20.426  41.692  1.00  0.00     0.131 A 
ATOM      6  C   UNL     1      17.045  21.683  41.116  1.00  0.00     0.093 A 
ATOM      7  C   UNL     1      17.643  22.819  41.675  1.00  0.00     0.122 A 
ATOM      8  C   UNL     1      18.447  22.693  42.812  1.00  0.00     0.092 A 
ATOM      9  C   UNL     1      18.651  21.437  43.403  1.00  0.00     0.126 A 
ATOM     10  C   UNL     1      18.034  20.297  42.855  1.00  0.00     0.039 A 
ENDROOT
BRANCH   2  11
ATOM     11  O   UNL     1      17.512  16.641  43.470  1.00  0.00    -0.389 OA
ATOM     12  H   UNL     1      17.573  16.094  42.644  1.00  0.00     0.211 HD
ENDBRANCH   2  11
BRANCH   3  13
ATOM     13  C   UNL     1      15.808  17.050  41.137  1.00  0.00    -0.001 A 
ATOM     14  C   UNL     1      16.056  15.943  40.306  1.00  0.00     0.057 A 
ATOM     15  C   UNL     1      14.491  17.317  41.544  1.00  0.00     0.012 A 
ATOM     16  C   UNL     1      15.011  15.105  39.905  1.00  0.00     0.157 A 
ATOM     17  C   UNL     1      13.445  16.481  41.145  1.00  0.00     0.050 A 
ATOM     18  C   UNL     1      13.699  15.372  40.326  1.00  0.00     0.157 A 
BRANCH  16  19
ATOM     19  O   UNL     1      15.296  14.013  39.085  1.00  0.00    -0.504 OA
ATOM     20  H   UNL     1      15.466  13.087  39.461  1.00  0.00     0.293 HD
ENDBRANCH  16  19
BRANCH  18  21
ATOM     21  O   UNL     1      12.652  14.540  39.931  1.00  0.00    -0.504 OA
ATOM     22  H   UNL     1      12.075  14.758  39.126  1.00  0.00     0.293 HD
ENDBRANCH  18  21
ENDBRANCH   3  13
BRANCH   9  23
ATOM     23  O   UNL     1      19.466  21.321  44.529  1.00  0.00    -0.507 OA
ATOM     24  H   UNL     1      20.471  21.218  44.449  1.00  0.00     0.293 HD
ENDBRANCH   9  23
BRANCH   7  25
ATOM     25  O   UNL     1      17.450  24.076  41.105  1.00  0.00    -0.508 OA
ATOM     26  H   UNL     1      17.807  24.916  41.543  1.00  0.00     0.293 HD
ENDBRANCH   7  25
TORSDOF 6
ENDMDL
MODEL 2
REMARK VINA RESULT:    -6.751      2.343      7.890
REMARK INTER + INTRA:          -8.506
REMARK INTER:                  -8.243
REMARK INTRA:                  -0.263
REMARK UNBOUND:                -0.373
REMARK SMILES Oc1cc(O)c2c(c1)O[C@H](c1ccc(O)c(O)c1)[C@@H](O)C2
REMARK SMILES IDX 21 1 19 2 10 3 9 4 7 5 8 6 2 7 3 8 4 9 6 10 20 11 11 13
REMARK SMILES IDX 18 14 12 15 16 16 13 17 14 18 17 19 15 21 5 23 1 25
REMARK H PARENT 20 12 17 20 15 22 5 24 1 26
REMARK Flexibility Score: inf
ROOT
ATOM      1  C   UNL     1      12.991  14.561  41.490  1.00  0.00     0.079 C 
ATOM      2  C   UNL     1      13.904  15.577  42.200  1.00  0.00     0.164 C 
ATOM      3  C   UNL     1      14.946  16.122  41.206  1.00  0.00     0.232 C 
ATOM      4  O   UNL     1      15.685  15.044  40.627  1.00  0.00    -0.482 OA
ATOM      5  C   UNL     1      15.097  13.814  40.313  1.00  0.00     0.131 A 
ATOM      6  C   UNL     1      15.833  12.866  39.596  1.00  0.00     0.093 A 
ATOM      7  C   UNL     1      15.263  11.630  39.271  1.00  0.00     0.122 A 
ATOM      8  C   UNL     1      13.952  11.344  39.665  1.00  0.00     0.092 A 
ATOM      9  C   UNL     1      13.206  12.285  40.390  1.00  0.00     0.126 A 
ATOM     10  C   UNL     1      13.785  13.521  40.736  1.00  0.00     0.039 A 
ENDROOT
BRANCH   2  11
ATOM     11  O   UNL     1      13.133  16.636  42.707  1.00  0.00    -0.389 OA
ATOM     12  H   UNL     1      13.176  16.572  43.696  1.00  0.00     0.211 HD
ENDBRANCH   2  11
BRANCH   3  13
ATOM     13  C   UNL     1      15.896  17.081  41.883  1.00  0.00    -0.001 A 
ATOM     14  C   UNL     1      16.372  16.819  43.181  1.00  0.00     0.057 A 
ATOM     15  C   UNL     1      16.277  18.271  41.242  1.00  0.00     0.012 A 
ATOM     16  C   UNL     1      17.230  17.720  43.820  1.00  0.00     0.157 A 
ATOM     17  C   UNL     1      17.135  19.172  41.878  1.00  0.00     0.050 A 
ATOM     18  C   UNL     1      17.615  18.902  43.167  1.00  0.00     0.157 A 
BRANCH  16  19
ATOM     19  O   UNL     1      17.686  17.425  45.105  1.00  0.00    -0.504 OA
ATOM     20  H   UNL     1      17.443  17.995  45.906  1.00  0.00     0.293 HD
ENDBRANCH  16  19
BRANCH  18  21
ATOM     21  O   UNL     1      18.471  19.804  43.798  1.00  0.00    -0.504 OA
ATOM     22  H   UNL     1      18.481  19.911  44.805  1.00  0.00     0.293 HD
ENDBRANCH  18  21
ENDBRANCH   3  13
BRANCH   9  23
ATOM     23  O   UNL     1      11.894  11.995  40.766  1.00  0.00    -0.507 OA
ATOM     24  H   UNL     1      11.575  11.041  40.886  1.00  0.00     0.293 HD
ENDBRANCH   9  23
BRANCH   7  25
ATOM     25  O   UNL     1      15.988  10.680  38.554  1.00  0.00    -0.508 OA
ATOM     26  H   UNL     1      16.921  10.403  38.836  1.00  0.00     0.293 HD
ENDBRANCH   7  25
TORSDOF 6
ENDMDL
MODEL 3
REMARK VINA RESULT:    -6.647      2.081      6.939
REMARK INTER + INTRA:          -8.380
REMARK INTER:                  -8.035
REMARK INTRA:                  -0.345
REMARK UNBOUND:                -0.373
REMARK SMILES Oc1cc(O)c2c(c1)O[C@H](c1ccc(O)c(O)c1)[C@@H](O)C2
REMARK SMILES IDX 21 1 19 2 10 3 9 4 7 5 8 6 2 7 3 8 4 9 6 10 20 11 11 13
REMARK SMILES IDX 18 14 12 15 16 16 13 17 14 18 17 19 15 21 5 23 1 25
REMARK H PARENT 20 12 17 20 15 22 5 24 1 26
REMARK Flexibility Score: inf
ROOT
ATOM      1  C   UNL     1      16.817  18.989  44.129  1.00  0.00     0.079 C 
ATOM      2  C   UNL     1      17.956  19.942  43.724  1.00  0.00     0.164 C 
ATOM      3  C   UNL     1      17.632  20.590  42.365  1.00  0.00     0.232 C 
ATOM      4  O   UNL     1      17.397  19.581  41.381  1.00  0.00    -0.482 OA
ATOM      5  C   UNL     1      16.743  18.380  41.678  1.00  0.00     0.131 A 
ATOM      6  C   UNL     1      16.397  17.513  40.638  1.00  0.00     0.093 A 
ATOM      7  C   UNL     1      15.742  16.307  40.914  1.00  0.00     0.122 A 
ATOM      8  C   UNL     1      15.433  15.971  42.236  1.00  0.00     0.092 A 
ATOM      9  C   UNL     1      15.781  16.830  43.288  1.00  0.00     0.126 A 
ATOM     10  C   UNL     1      16.458  18.034  43.015  1.00  0.00     0.039 A 
ENDROOT
BRANCH   2  11
ATOM     11  O   UNL     1      18.111  20.939  44.701  1.00  0.00    -0.389 OA
ATOM     12  H   UNL     1      19.085  21.103  44.790  1.00  0.00     0.211 HD
ENDBRANCH   2  11
BRANCH   3  13
ATOM     13  C   UNL     1      18.755  21.491  41.910  1.00  0.00    -0.001 A 
ATOM     14  C   UNL     1      20.082  21.024  41.888  1.00  0.00     0.057 A 
ATOM     15  C   UNL     1      18.493  22.822  41.548  1.00  0.00     0.012 A 
ATOM     16  C   UNL     1      21.127  21.865  41.493  1.00  0.00     0.157 A 
ATOM     17  C   UNL     1      19.535  23.665  41.151  1.00  0.00     0.050 A 
ATOM     18  C   UNL     1      20.854  23.192  41.121  1.00  0.00     0.157 A 
BRANCH  16  19
ATOM     19  O   UNL     1      22.429  21.366  41.478  1.00  0.00    -0.504 OA
ATOM     20  H   UNL     1      22.654  20.460  41.084  1.00  0.00     0.293 HD
ENDBRANCH  16  19
BRANCH  18  21
ATOM     21  O   UNL     1      21.891  24.036  40.724  1.00  0.00    -0.504 OA
ATOM     22  H   UNL     1      22.061  24.246  39.747  1.00  0.00     0.293 HD
ENDBRANCH  18  21
ENDBRANCH   3  13
BRANCH   9  23
ATOM     23  O   UNL     1      15.456  16.492  44.602  1.00  0.00    -0.507 OA
ATOM     24  H   UNL     1      15.184  17.195  45.279  1.00  0.00     0.293 HD
ENDBRANCH   9  23
BRANCH   7  25
ATOM     25  O   UNL     1      15.390  15.439  39.883  1.00  0.00    -0.508 OA
ATOM     26  H   UNL     1      15.575  14.444  39.942  1.00  0.00     0.293 HD
ENDBRANCH   7  25
TORSDOF 6
ENDMDL
MODEL 4
REMARK VINA RESULT:    -6.647      1.770      6.951
REMARK INTER + INTRA:          -8.380
REMARK INTER:                  -8.016
REMARK INTRA:                  -0.364
REMARK UNBOUND:                -0.373
REMARK SMILES Oc1cc(O)c2c(c1)O[C@H](c1ccc(O)c(O)c1)[C@@H](O)C2
REMARK SMILES IDX 21 1 19 2 10 3 9 4 7 5 8 6 2 7 3 8 4 9 6 10 20 11 11 13
REMARK SMILES IDX 18 14 12 15 16 16 13 17 14 18 17 19 15 21 5 23 1 25
REMARK H PARENT 20 12 17 20 15 22 5 24 1 26
REMARK Flexibility Score: inf
ROOT
ATOM      1  C   UNL     1      15.186  16.246  40.604  1.00  0.00     0.079 C 
ATOM      2  C   UNL     1      16.121  17.469  40.628  1.00  0.00     0.164 C 
ATOM      3  C   UNL     1      15.999  18.189  41.984  1.00  0.00     0.232 C 
ATOM      4  O   UNL     1      14.638  18.546  42.232  1.00  0.00    -0.482 OA
ATOM      5  C   UNL     1      13.567  17.729  41.853  1.00  0.00     0.131 A 
ATOM      6  C   UNL     1      12.274  18.054  42.274  1.00  0.00     0.093 A 
ATOM      7  C   UNL     1      11.189  17.250  41.906  1.00  0.00     0.122 A 
ATOM      8  C   UNL     1      11.401  16.116  41.116  1.00  0.00     0.092 A 
ATOM      9  C   UNL     1      12.693  15.782  40.683  1.00  0.00     0.126 A 
ATOM     10  C   UNL     1      13.783  16.602  41.034  1.00  0.00     0.039 A 
ENDROOT
BRANCH   2  11
ATOM     11  O   UNL     1      17.449  17.056  40.428  1.00  0.00    -0.389 OA
ATOM     12  H   UNL     1      17.752  17.469  39.579  1.00  0.00     0.211 HD
ENDBRANCH   2  11
BRANCH   3  13
ATOM     13  C   UNL     1      16.863  19.427  42.023  1.00  0.00    -0.001 A 
ATOM     14  C   UNL     1      17.802  19.612  43.054  1.00  0.00     0.057 A 
ATOM     15  C   UNL     1      16.702  20.432  41.056  1.00  0.00     0.012 A 
ATOM     16  C   UNL     1      18.583  20.771  43.106  1.00  0.00     0.157 A 
ATOM     17  C   UNL     1      17.481  21.591  41.105  1.00  0.00     0.050 A 
ATOM     18  C   UNL     1      18.424  21.766  42.128  1.00  0.00     0.157 A 
BRANCH  16  19
ATOM     19  O   UNL     1      19.508  20.918  44.139  1.00  0.00    -0.504 OA
ATOM     20  H   UNL     1      20.488  21.107  43.962  1.00  0.00     0.293 HD
ENDBRANCH  16  19
BRANCH  18  21
ATOM     21  O   UNL     1      19.200  22.924  42.173  1.00  0.00    -0.504 OA
ATOM     22  H   UNL     1      18.817  23.830  41.930  1.00  0.00     0.293 HD
ENDBRANCH  18  21
ENDBRANCH   3  13
BRANCH   9  23
ATOM     23  O   UNL     1      12.895  14.641  39.906  1.00  0.00    -0.507 OA
ATOM     24  H   UNL     1      12.130  14.024  39.660  1.00  0.00     0.293 HD
ENDBRANCH   9  23
BRANCH   7  25
ATOM     25  O   UNL     1       9.898  17.565  42.324  1.00  0.00    -0.508 OA
ATOM     26  H   UNL     1       9.670  18.480  42.694  1.00  0.00     0.293 HD
ENDBRANCH   7  25
TORSDOF 6
ENDMDL
MODEL 5
REMARK VINA RESULT:    -6.628      2.628      8.174
REMARK INTER + INTRA:          -8.358
REMARK INTER:                  -7.992
REMARK INTRA:                  -0.366
REMARK UNBOUND:                -0.373
REMARK SMILES Oc1cc(O)c2c(c1)O[C@H](c1ccc(O)c(O)c1)[C@@H](O)C2
REMARK SMILES IDX 21 1 19 2 10 3 9 4 7 5 8 6 2 7 3 8 4 9 6 10 20 11 11 13
REMARK SMILES IDX 18 14 12 15 16 16 13 17 14 18 17 19 15 21 5 23 1 25
REMARK H PARENT 20 12 17 20 15 22 5 24 1 26
REMARK Flexibility Score: inf
ROOT
ATOM      1  C   UNL     1      12.676  13.722  41.514  1.00  0.00     0.079 C 
ATOM      2  C   UNL     1      13.435  15.030  41.802  1.00  0.00     0.164 C 
ATOM      3  C   UNL     1      14.105  15.537  40.511  1.00  0.00     0.232 C 
ATOM      4  O   UNL     1      14.957  14.526  39.969  1.00  0.00    -0.482 OA
ATOM      5  C   UNL     1      14.634  13.166  40.019  1.00  0.00     0.131 A 
ATOM      6  C   UNL     1      15.426  12.248  39.323  1.00  0.00     0.093 A 
ATOM      7  C   UNL     1      15.120  10.882  39.361  1.00  0.00     0.122 A 
ATOM      8  C   UNL     1      14.017  10.437  40.096  1.00  0.00     0.092 A 
ATOM      9  C   UNL     1      13.220  11.348  40.803  1.00  0.00     0.126 A 
ATOM     10  C   UNL     1      13.538  12.719  40.784  1.00  0.00     0.039 A 
ENDROOT
BRANCH   2  11
ATOM     11  O   UNL     1      12.543  16.000  42.287  1.00  0.00    -0.389 OA
ATOM     12  H   UNL     1      12.057  15.588  43.047  1.00  0.00     0.211 HD
ENDBRANCH   2  11
BRANCH   3  13
ATOM     13  C   UNL     1      14.906  16.790  40.770  1.00  0.00    -0.001 A 
ATOM     14  C   UNL     1      14.504  18.022  40.222  1.00  0.00     0.057 A 
ATOM     15  C   UNL     1      16.091  16.730  41.521  1.00  0.00     0.012 A 
ATOM     16  C   UNL     1      15.261  19.178  40.438  1.00  0.00     0.157 A 
ATOM     17  C   UNL     1      16.849  17.884  41.739  1.00  0.00     0.050 A 
ATOM     18  C   UNL     1      16.438  19.112  41.200  1.00  0.00     0.157 A 
BRANCH  16  19
ATOM     19  O   UNL     1      14.828  20.383  39.884  1.00  0.00    -0.504 OA
ATOM     20  H   UNL     1      13.847  20.579  39.722  1.00  0.00     0.293 HD
ENDBRANCH  16  19
BRANCH  18  21
ATOM     21  O   UNL     1      17.196  20.261  41.420  1.00  0.00    -0.504 OA
ATOM     22  H   UNL     1      17.775  20.365  42.245  1.00  0.00     0.293 HD
ENDBRANCH  18  21
ENDBRANCH   3  13
BRANCH   9  23
ATOM     23  O   UNL     1      12.114  10.895  41.523  1.00  0.00    -0.507 OA
ATOM     24  H   UNL     1      12.101  10.900  42.536  1.00  0.00     0.293 HD
ENDBRANCH   9  23
BRANCH   7  25
ATOM     25  O   UNL     1      15.902   9.961  38.667  1.00  0.00    -0.508 OA
ATOM     26  H   UNL     1      16.788   9.636  39.034  1.00  0.00     0.293 HD
ENDBRANCH   7  25
TORSDOF 6
ENDMDL
MODEL 6
REMARK VINA RESULT:    -6.613      2.608      3.919
REMARK INTER + INTRA:          -8.339
REMARK INTER:                  -7.986
REMARK INTRA:                  -0.354
REMARK UNBOUND:                -0.373
REMARK SMILES Oc1cc(O)c2c(c1)O[C@H](c1ccc(O)c(O)c1)[C@@H](O)C2
REMARK SMILES IDX 21 1 19 2 10 3 9 4 7 5 8 6 2 7 3 8 4 9 6 10 20 11 11 13
REMARK SMILES IDX 18 14 12 15 16 16 13 17 14 18 17 19 15 21 5 23 1 25
REMARK H PARENT 20 12 17 20 15 22 5 24 1 26
REMARK Flexibility Score: inf
ROOT
ATOM      1  C   UNL     1      19.539  21.811  44.415  1.00  0.00     0.079 C 
ATOM      2  C   UNL     1      18.314  21.106  43.805  1.00  0.00     0.164 C 
ATOM      3  C   UNL     1      18.767  20.157  42.681  1.00  0.00     0.232 C 
ATOM      4  O   UNL     1      19.518  20.876  41.701  1.00  0.00    -0.482 OA
ATOM      5  C   UNL     1      20.392  21.915  42.040  1.00  0.00     0.131 A 
ATOM      6  C   UNL     1      21.220  22.462  41.055  1.00  0.00     0.093 A 
ATOM      7  C   UNL     1      22.102  23.502  41.374  1.00  0.00     0.122 A 
ATOM      8  C   UNL     1      22.155  23.992  42.682  1.00  0.00     0.092 A 
ATOM      9  C   UNL     1      21.324  23.456  43.677  1.00  0.00     0.126 A 
ATOM     10  C   UNL     1      20.422  22.424  43.354  1.00  0.00     0.039 A 
ENDROOT
BRANCH   2  11
ATOM     11  O   UNL     1      17.641  20.377  44.800  1.00  0.00    -0.389 OA
ATOM     12  H   UNL     1      18.135  19.524  44.912  1.00  0.00     0.211 HD
ENDBRANCH   2  11
BRANCH   3  13
ATOM     13  C   UNL     1      17.583  19.489  42.022  1.00  0.00    -0.001 A 
ATOM     14  C   UNL     1      16.690  20.235  41.232  1.00  0.00     0.057 A 
ATOM     15  C   UNL     1      17.334  18.123  42.230  1.00  0.00     0.012 A 
ATOM     16  C   UNL     1      15.578  19.623  40.644  1.00  0.00     0.157 A 
ATOM     17  C   UNL     1      16.225  17.509  41.643  1.00  0.00     0.050 A 
ATOM     18  C   UNL     1      15.343  18.254  40.848  1.00  0.00     0.157 A 
BRANCH  16  19
ATOM     19  O   UNL     1      14.717  20.393  39.862  1.00  0.00    -0.504 OA
ATOM     20  H   UNL     1      14.484  20.140  38.908  1.00  0.00     0.293 HD
ENDBRANCH  16  19
BRANCH  18  21
ATOM     21  O   UNL     1      14.238  17.638  40.263  1.00  0.00    -0.504 OA
ATOM     22  H   UNL     1      13.336  18.098  40.217  1.00  0.00     0.293 HD
ENDBRANCH  18  21
ENDBRANCH   3  13
BRANCH   9  23
ATOM     23  O   UNL     1      21.394  23.943  44.982  1.00  0.00    -0.507 OA
ATOM     24  H   UNL     1      21.254  23.338  45.782  1.00  0.00     0.293 HD
ENDBRANCH   9  23
BRANCH   7  25
ATOM     25  O   UNL     1      22.933  24.050  40.399  1.00  0.00    -0.508 OA
ATOM     26  H   UNL     1      23.715  23.532  40.017  1.00  0.00     0.293 HD
ENDBRANCH   7  25
TORSDOF 6
ENDMDL
MODEL 7
REMARK VINA RESULT:    -6.586      3.098      7.368
REMARK INTER + INTRA:          -8.307
REMARK INTER:                  -7.962
REMARK INTRA:                  -0.345
REMARK UNBOUND:                -0.373
REMARK SMILES Oc1cc(O)c2c(c1)O[C@H](c1ccc(O)c(O)c1)[C@@H](O)C2
REMARK SMILES IDX 21 1 19 2 10 3 9 4 7 5 8 6 2 7 3 8 4 9 6 10 20 11 11 13
REMARK SMILES IDX 18 14 12 15 16 16 13 17 14 18 17 19 15 21 5 23 1 25
REMARK H PARENT 20 12 17 20 15 22 5 24 1 26
REMARK Flexibility Score: inf
ROOT
ATOM      1  C   UNL     1      15.901  20.465  41.518  1.00  0.00     0.079 C 
ATOM      2  C   UNL     1      17.222  21.256  41.539  1.00  0.00     0.164 C 
ATOM      3  C   UNL     1      18.412  20.278  41.562  1.00  0.00     0.232 C 
ATOM      4  O   UNL     1      18.297  19.389  42.675  1.00  0.00    -0.482 OA
ATOM      5  C   UNL     1      17.066  18.893  43.116  1.00  0.00     0.131 A 
ATOM      6  C   UNL     1      17.039  17.899  44.098  1.00  0.00     0.093 A 
ATOM      7  C   UNL     1      15.817  17.389  44.552  1.00  0.00     0.122 A 
ATOM      8  C   UNL     1      14.620  17.876  44.020  1.00  0.00     0.092 A 
ATOM      9  C   UNL     1      14.634  18.878  43.038  1.00  0.00     0.126 A 
ATOM     10  C   UNL     1      15.861  19.407  42.595  1.00  0.00     0.039 A 
ENDROOT
BRANCH   2  11
ATOM     11  O   UNL     1      17.303  22.076  40.401  1.00  0.00    -0.389 OA
ATOM     12  H   UNL     1      17.326  21.471  39.615  1.00  0.00     0.211 HD
ENDBRANCH   2  11
BRANCH   3  13
ATOM     13  C   UNL     1      19.725  21.021  41.640  1.00  0.00    -0.001 A 
ATOM     14  C   UNL     1      20.104  21.681  42.822  1.00  0.00     0.057 A 
ATOM     15  C   UNL     1      20.560  21.100  40.514  1.00  0.00     0.012 A 
ATOM     16  C   UNL     1      21.307  22.391  42.887  1.00  0.00     0.157 A 
ATOM     17  C   UNL     1      21.763  21.809  40.576  1.00  0.00     0.050 A 
ATOM     18  C   UNL     1      22.143  22.456  41.760  1.00  0.00     0.157 A 
BRANCH  16  19
ATOM     19  O   UNL     1      21.654  23.029  44.078  1.00  0.00    -0.504 OA
ATOM     20  H   UNL     1      21.988  22.516  44.885  1.00  0.00     0.293 HD
ENDBRANCH  16  19
BRANCH  18  21
ATOM     21  O   UNL     1      23.344  23.161  41.817  1.00  0.00    -0.504 OA
ATOM     22  H   UNL     1      24.220  22.701  42.033  1.00  0.00     0.293 HD
ENDBRANCH  18  21
ENDBRANCH   3  13
BRANCH   9  23
ATOM     23  O   UNL     1      13.434  19.347  42.504  1.00  0.00    -0.507 OA
ATOM     24  H   UNL     1      12.864  18.773  41.894  1.00  0.00     0.293 HD
ENDBRANCH   9  23
BRANCH   7  25
ATOM     25  O   UNL     1      15.782  16.396  45.528  1.00  0.00    -0.508 OA
ATOM     26  H   UNL     1      16.522  15.709  45.612  1.00  0.00     0.293 HD
ENDBRANCH   7  25
TORSDOF 6
ENDMDL
MODEL 8
REMARK VINA RESULT:    -6.469      1.753      7.178
REMARK INTER + INTRA:          -8.166
REMARK INTER:                  -7.793
REMARK INTRA:                  -0.372
REMARK UNBOUND:                -0.373
REMARK SMILES Oc1cc(O)c2c(c1)O[C@H](c1ccc(O)c(O)c1)[C@@H](O)C2
REMARK SMILES IDX 21 1 19 2 10 3 9 4 7 5 8 6 2 7 3 8 4 9 6 10 20 11 11 13
REMARK SMILES IDX 18 14 12 15 16 16 13 17 14 18 17 19 15 21 5 23 1 25
REMARK H PARENT 20 12 17 20 15 22 5 24 1 26
REMARK Flexibility Score: inf
ROOT
ATOM      1  C   UNL     1      12.896  18.647  41.566  1.00  0.00     0.079 C 
ATOM      2  C   UNL     1      14.173  19.334  42.083  1.00  0.00     0.164 C 
ATOM      3  C   UNL     1      15.324  19.111  41.085  1.00  0.00     0.232 C 
ATOM      4  O   UNL     1      15.517  17.713  40.861  1.00  0.00    -0.482 OA
ATOM      5  C   UNL     1      14.453  16.807  40.809  1.00  0.00     0.131 A 
ATOM      6  C   UNL     1      14.695  15.487  40.419  1.00  0.00     0.093 A 
ATOM      7  C   UNL     1      13.644  14.564  40.360  1.00  0.00     0.122 A 
ATOM      8  C   UNL     1      12.347  14.967  40.690  1.00  0.00     0.092 A 
ATOM      9  C   UNL     1      12.092  16.288  41.089  1.00  0.00     0.126 A 
ATOM     10  C   UNL     1      13.151  17.212  41.169  1.00  0.00     0.039 A 
ENDROOT
BRANCH   2  11
ATOM     11  O   UNL     1      13.940  20.711  42.240  1.00  0.00    -0.389 OA
ATOM     12  H   UNL     1      13.930  20.890  43.216  1.00  0.00     0.211 HD
ENDBRANCH   2  11
BRANCH   3  13
ATOM     13  C   UNL     1      16.608  19.726  41.588  1.00  0.00    -0.001 A 
ATOM     14  C   UNL     1      17.283  20.696  40.825  1.00  0.00     0.057 A 
ATOM     15  C   UNL     1      17.169  19.300  42.803  1.00  0.00     0.012 A 
ATOM     16  C   UNL     1      18.487  21.246  41.277  1.00  0.00     0.157 A 
ATOM     17  C   UNL     1      18.371  19.848  43.257  1.00  0.00     0.050 A 
ATOM     18  C   UNL     1      19.035  20.823  42.499  1.00  0.00     0.157 A 
BRANCH  16  19
ATOM     19  O   UNL     1      19.126  22.210  40.497  1.00  0.00    -0.504 OA
ATOM     20  H   UNL     1      19.491  22.001  39.575  1.00  0.00     0.293 HD
ENDBRANCH  16  19
BRANCH  18  21
ATOM     21  O   UNL     1      20.234  21.368  42.956  1.00  0.00    -0.504 OA
ATOM     22  H   UNL     1      20.881  20.830  43.520  1.00  0.00     0.293 HD
ENDBRANCH  18  21
ENDBRANCH   3  13
BRANCH   9  23
ATOM     23  O   UNL     1      10.792  16.683  41.403  1.00  0.00    -0.507 OA
ATOM     24  H   UNL     1      10.607  17.382  42.114  1.00  0.00     0.293 HD
ENDBRANCH   9  23
BRANCH   7  25
ATOM     25  O   UNL     1      13.876  13.247  39.970  1.00  0.00    -0.508 OA
ATOM     26  H   UNL     1      13.168  12.704  39.491  1.00  0.00     0.293 HD
ENDBRANCH   7  25
TORSDOF 6
ENDMDL
MODEL 9
REMARK VINA RESULT:    -6.450      3.085      4.649
REMARK INTER + INTRA:          -8.144
REMARK INTER:                  -7.814
REMARK INTRA:                  -0.330
REMARK UNBOUND:                -0.373
REMARK SMILES Oc1cc(O)c2c(c1)O[C@H](c1ccc(O)c(O)c1)[C@@H](O)C2
REMARK SMILES IDX 21 1 19 2 10 3 9 4 7 5 8 6 2 7 3 8 4 9 6 10 20 11 11 13
REMARK SMILES IDX 18 14 12 15 16 16 13 17 14 18 17 19 15 21 5 23 1 25
REMARK H PARENT 20 12 17 20 15 22 5 24 1 26
REMARK Flexibility Score: inf
ROOT
ATOM      1  C   UNL     1      12.558  18.198  41.858  1.00  0.00     0.079 C 
ATOM      2  C   UNL     1      12.877  16.954  41.010  1.00  0.00     0.164 C 
ATOM      3  C   UNL     1      13.445  15.843  41.911  1.00  0.00     0.232 C 
ATOM      4  O   UNL     1      14.591  16.320  42.620  1.00  0.00    -0.482 OA
ATOM      5  C   UNL     1      14.683  17.631  43.101  1.00  0.00     0.131 A 
ATOM      6  C   UNL     1      15.752  17.983  43.929  1.00  0.00     0.093 A 
ATOM      7  C   UNL     1      15.862  19.289  44.421  1.00  0.00     0.122 A 
ATOM      8  C   UNL     1      14.897  20.243  44.084  1.00  0.00     0.092 A 
ATOM      9  C   UNL     1      13.823  19.903  43.248  1.00  0.00     0.126 A 
ATOM     10  C   UNL     1      13.722  18.595  42.735  1.00  0.00     0.039 A 
ENDROOT
BRANCH   2  11
ATOM     11  O   UNL     1      11.709  16.500  40.375  1.00  0.00    -0.389 OA
ATOM     12  H   UNL     1      11.970  15.719  39.821  1.00  0.00     0.211 HD
ENDBRANCH   2  11
BRANCH   3  13
ATOM     13  C   UNL     1      13.822  14.624  41.101  1.00  0.00    -0.001 A 
ATOM     14  C   UNL     1      13.016  13.473  41.125  1.00  0.00     0.057 A 
ATOM     15  C   UNL     1      15.011  14.612  40.353  1.00  0.00     0.012 A 
ATOM     16  C   UNL     1      13.378  12.334  40.398  1.00  0.00     0.157 A 
ATOM     17  C   UNL     1      15.375  13.477  39.625  1.00  0.00     0.050 A 
ATOM     18  C   UNL     1      14.562  12.335  39.642  1.00  0.00     0.157 A 
BRANCH  16  19
ATOM     19  O   UNL     1      12.551  11.212  40.440  1.00  0.00    -0.504 OA
ATOM     20  H   UNL     1      11.923  11.035  41.215  1.00  0.00     0.293 HD
ENDBRANCH  16  19
BRANCH  18  21
ATOM     21  O   UNL     1      14.929  11.204  38.914  1.00  0.00    -0.504 OA
ATOM     22  H   UNL     1      15.847  11.118  38.492  1.00  0.00     0.293 HD
ENDBRANCH  18  21
ENDBRANCH   3  13
BRANCH   9  23
ATOM     23  O   UNL     1      12.858  20.858  42.929  1.00  0.00    -0.507 OA
ATOM     24  H   UNL     1      12.408  21.417  43.644  1.00  0.00     0.293 HD
ENDBRANCH   9  23
BRANCH   7  25
ATOM     25  O   UNL     1      16.923  19.648  45.250  1.00  0.00    -0.508 OA
ATOM     26  H   UNL     1      17.509  20.448  45.044  1.00  0.00     0.293 HD
ENDBRANCH   7  25
TORSDOF 6
ENDMDL
