MODEL 1
REMARK VINA RESULT:    -5.914      0.000      0.000
REMARK INTER + INTRA:         -10.378
REMARK INTER:                  -8.853
REMARK INTRA:                  -1.525
REMARK UNBOUND:                -1.525
REMARK SMILES C=C(CC[C@H](C(=O)[O-])[C@H]1[C@H](O)C[C@@]2(C)C3=C(CC[C@@]12C)[C@]1(C)CC[C@@H](OC(C)=O)C(C)(C)[C@@H]1CC3)C(C)C
REMARK SMILES IDX 4 1 5 2 6 3 7 4 8 5 9 6 10 7 19 8 12 9 13 10 18 11 20 12
REMARK SMILES IDX 14 13 15 14 17 15 16 16 35 17 21 18 34 19 33 20 23 21 22 22
REMARK SMILES IDX 30 23 24 24 25 25 31 26 32 27 11 28 26 30 27 31 29 32 28 33
REMARK SMILES IDX 3 34 2 35 1 36 36 37 37 38 38 39
REMARK H PARENT 11 29
REMARK Flexibility Score: inf
ROOT
ATOM      1  C   UNL     1     -12.874  25.090  40.988  1.00  0.00     0.014 C 
ENDROOT
BRANCH   1   2
ATOM      2  C   UNL     1     -12.857  26.479  41.671  1.00  0.00     0.042 C 
BRANCH   2   3
ATOM      3  C   UNL     1     -14.164  27.192  41.410  1.00  0.00     0.045 C 
ATOM      4  O   UNL     1     -14.862  27.624  42.365  1.00  0.00    -0.550 OA
ATOM      5  O   UNL     1     -14.609  27.364  40.103  1.00  0.00    -0.550 OA
ENDBRANCH   2   3
BRANCH   2   6
ATOM      6  C   UNL     1     -11.653  27.381  41.209  1.00  0.00     0.033 C 
ATOM      7  C   UNL     1     -12.060  28.874  41.147  1.00  0.00     0.119 C 
ATOM      8  C   UNL     1     -10.322  27.359  42.046  1.00  0.00    -0.017 C 
ATOM      9  C   UNL     1     -10.850  29.705  41.574  1.00  0.00     0.043 C 
ATOM     10  C   UNL     1      -9.654  28.746  41.718  1.00  0.00    -0.003 C 
ATOM     11  C   UNL     1     -10.617  27.299  43.564  1.00  0.00     0.012 C 
ATOM     12  C   UNL     1      -9.396  26.165  41.650  1.00  0.00     0.013 C 
ATOM     13  C   UNL     1      -8.889  28.695  40.357  1.00  0.00     0.017 C 
ATOM     14  C   UNL     1      -8.713  29.282  42.823  1.00  0.00    -0.064 C 
ATOM     15  C   UNL     1      -9.343  27.436  44.389  1.00  0.00     0.032 C 
ATOM     16  C   UNL     1      -8.505  28.649  44.014  1.00  0.00    -0.064 C 
ATOM     17  C   UNL     1      -8.010  30.601  42.611  1.00  0.00     0.032 C 
ATOM     18  C   UNL     1      -7.538  29.259  45.076  1.00  0.00    -0.008 C 
ATOM     19  C   UNL     1      -6.542  30.384  42.904  1.00  0.00     0.009 C 
ATOM     20  C   UNL     1      -6.297  30.056  44.417  1.00  0.00     0.009 C 
ATOM     21  C   UNL     1      -8.443  30.166  45.959  1.00  0.00     0.015 C 
ATOM     22  C   UNL     1      -6.964  28.098  45.942  1.00  0.00     0.016 C 
ATOM     23  C   UNL     1      -5.674  31.253  45.296  1.00  0.00     0.005 C 
ATOM     24  C   UNL     1      -7.686  31.113  46.872  1.00  0.00     0.047 C 
ATOM     25  C   UNL     1      -6.785  32.037  46.057  1.00  0.00     0.182 C 
ATOM     26  C   UNL     1      -4.882  32.275  44.428  1.00  0.00     0.015 C 
ATOM     27  C   UNL     1      -4.618  30.702  46.305  1.00  0.00     0.015 C 
BRANCH   7  28
ATOM     28  O   UNL     1     -12.455  29.215  39.841  1.00  0.00    -0.393 OA
ATOM     29  H   UNL     1     -13.163  28.571  39.580  1.00  0.00     0.210 HD
ENDBRANCH   7  28
BRANCH  25  30
ATOM     30  O   UNL     1      -6.215  33.000  46.954  1.00  0.00    -0.462 OA
BRANCH  30  31
ATOM     31  C   UNL     1      -6.958  33.923  47.697  1.00  0.00     0.302 C 
ATOM     32  O   UNL     1      -7.870  34.608  47.157  1.00  0.00    -0.253 OA
ATOM     33  C   UNL     1      -6.626  34.133  49.134  1.00  0.00     0.139 C 
ENDBRANCH  30  31
ENDBRANCH  25  30
ENDBRANCH   2   6
ENDBRANCH   1   2
BRANCH   1  34
ATOM     34  C   UNL     1     -12.359  23.938  41.879  1.00  0.00     0.031 C 
BRANCH  34  35
ATOM     35  C   UNL     1     -11.548  22.910  41.114  1.00  0.00    -0.075 C 
ATOM     36  C   UNL     1     -11.314  21.702  41.657  1.00  0.00     0.008 C 
BRANCH  35  37
ATOM     37  C   UNL     1     -10.936  23.295  39.772  1.00  0.00     0.008 C 
ATOM     38  C   UNL     1     -11.651  22.604  38.604  1.00  0.00     0.012 C 
ATOM     39  C   UNL     1      -9.432  23.004  39.745  1.00  0.00     0.012 C 
ENDBRANCH  35  37
ENDBRANCH  34  35
ENDBRANCH   1  34
TORSDOF 9
ENDMDL
MODEL 2
REMARK VINA RESULT:    -5.849      1.824      2.618
REMARK INTER + INTRA:         -10.280
REMARK INTER:                  -8.432
REMARK INTRA:                  -1.848
REMARK UNBOUND:                -1.525
REMARK SMILES C=C(CC[C@H](C(=O)[O-])[C@H]1[C@H](O)C[C@@]2(C)C3=C(CC[C@@]12C)[C@]1(C)CC[C@@H](OC(C)=O)C(C)(C)[C@@H]1CC3)C(C)C
REMARK SMILES IDX 4 1 5 2 6 3 7 4 8 5 9 6 10 7 19 8 12 9 13 10 18 11 20 12
REMARK SMILES IDX 14 13 15 14 17 15 16 16 35 17 21 18 34 19 33 20 23 21 22 22
REMARK SMILES IDX 30 23 24 24 25 25 31 26 32 27 11 28 26 30 27 31 29 32 28 33
REMARK SMILES IDX 3 34 2 35 1 36 36 37 37 38 38 39
REMARK H PARENT 11 29
REMARK Flexibility Score: inf
ROOT
ATOM      1  C   UNL     1     -12.725  27.404  39.248  1.00  0.00     0.014 C 
ENDROOT
BRANCH   1   2
ATOM      2  C   UNL     1     -12.558  28.836  39.813  1.00  0.00     0.042 C 
BRANCH   2   3
ATOM      3  C   UNL     1     -13.403  29.801  39.014  1.00  0.00     0.045 C 
ATOM      4  O   UNL     1     -13.207  29.954  37.780  1.00  0.00    -0.550 OA
ATOM      5  O   UNL     1     -14.399  30.538  39.648  1.00  0.00    -0.550 OA
ENDBRANCH   2   3
BRANCH   2   6
ATOM      6  C   UNL     1     -11.061  29.322  39.833  1.00  0.00     0.033 C 
ATOM      7  C   UNL     1     -10.969  30.846  40.087  1.00  0.00     0.119 C 
ATOM      8  C   UNL     1     -10.067  28.677  40.866  1.00  0.00    -0.017 C 
ATOM      9  C   UNL     1      -9.720  31.103  40.932  1.00  0.00     0.043 C 
ATOM     10  C   UNL     1      -8.951  29.774  41.040  1.00  0.00    -0.003 C 
ATOM     11  C   UNL     1     -10.753  28.449  42.235  1.00  0.00     0.012 C 
ATOM     12  C   UNL     1      -9.473  27.328  40.352  1.00  0.00     0.013 C 
ATOM     13  C   UNL     1      -7.908  29.706  39.879  1.00  0.00     0.017 C 
ATOM     14  C   UNL     1      -8.215  29.731  42.401  1.00  0.00    -0.064 C 
ATOM     15  C   UNL     1      -9.759  27.973  43.288  1.00  0.00     0.032 C 
ATOM     16  C   UNL     1      -8.527  28.859  43.403  1.00  0.00    -0.064 C 
ATOM     17  C   UNL     1      -7.118  30.731  42.673  1.00  0.00     0.032 C 
ATOM     18  C   UNL     1      -7.734  28.882  44.747  1.00  0.00    -0.008 C 
ATOM     19  C   UNL     1      -5.914  29.959  43.166  1.00  0.00     0.009 C 
ATOM     20  C   UNL     1      -6.184  29.295  44.560  1.00  0.00     0.009 C 
ATOM     21  C   UNL     1      -8.522  29.872  45.653  1.00  0.00     0.015 C 
ATOM     22  C   UNL     1      -7.785  27.455  45.372  1.00  0.00     0.016 C 
ATOM     23  C   UNL     1      -5.482  30.011  45.819  1.00  0.00     0.005 C 
ATOM     24  C   UNL     1      -7.782  30.306  46.904  1.00  0.00     0.047 C 
ATOM     25  C   UNL     1      -6.464  30.985  46.540  1.00  0.00     0.182 C 
ATOM     26  C   UNL     1      -4.221  30.828  45.410  1.00  0.00     0.015 C 
ATOM     27  C   UNL     1      -4.944  28.949  46.828  1.00  0.00     0.015 C 
BRANCH   7  28
ATOM     28  O   UNL     1     -10.886  31.538  38.866  1.00  0.00    -0.393 OA
ATOM     29  H   UNL     1     -10.614  30.874  38.180  1.00  0.00     0.210 HD
ENDBRANCH   7  28
BRANCH  25  30
ATOM     30  O   UNL     1      -5.886  31.502  47.745  1.00  0.00    -0.462 OA
BRANCH  30  31
ATOM     31  C   UNL     1      -5.807  32.862  48.062  1.00  0.00     0.302 C 
ATOM     32  O   UNL     1      -6.843  33.581  48.109  1.00  0.00    -0.253 OA
ATOM     33  C   UNL     1      -4.469  33.476  48.293  1.00  0.00     0.139 C 
ENDBRANCH  30  31
ENDBRANCH  25  30
ENDBRANCH   2   6
ENDBRANCH   1   2
BRANCH   1  34
ATOM     34  C   UNL     1     -14.006  26.680  39.719  1.00  0.00     0.031 C 
BRANCH  34  35
ATOM     35  C   UNL     1     -13.969  26.298  41.185  1.00  0.00    -0.075 C 
ATOM     36  C   UNL     1     -14.352  27.187  42.119  1.00  0.00     0.008 C 
BRANCH  35  37
ATOM     37  C   UNL     1     -13.417  24.935  41.585  1.00  0.00     0.008 C 
ATOM     38  C   UNL     1     -11.921  25.005  41.920  1.00  0.00     0.012 C 
ATOM     39  C   UNL     1     -13.687  23.887  40.498  1.00  0.00     0.012 C 
ENDBRANCH  35  37
ENDBRANCH  34  35
ENDBRANCH   1  34
TORSDOF 9
ENDMDL
MODEL 3
REMARK VINA RESULT:    -5.809      2.644     10.072
REMARK INTER + INTRA:         -10.221
REMARK INTER:                  -9.136
REMARK INTRA:                  -1.085
REMARK UNBOUND:                -1.525
REMARK SMILES C=C(CC[C@H](C(=O)[O-])[C@H]1[C@H](O)C[C@@]2(C)C3=C(CC[C@@]12C)[C@]1(C)CC[C@@H](OC(C)=O)C(C)(C)[C@@H]1CC3)C(C)C
REMARK SMILES IDX 4 1 5 2 6 3 7 4 8 5 9 6 10 7 19 8 12 9 13 10 18 11 20 12
REMARK SMILES IDX 14 13 15 14 17 15 16 16 35 17 21 18 34 19 33 20 23 21 22 22
REMARK SMILES IDX 30 23 24 24 25 25 31 26 32 27 11 28 26 30 27 31 29 32 28 33
REMARK SMILES IDX 3 34 2 35 1 36 36 37 37 38 38 39
REMARK H PARENT 11 29
REMARK Flexibility Score: inf
ROOT
ATOM      1  C   UNL     1      -7.954  30.313  45.663  1.00  0.00     0.014 C 
ENDROOT
BRANCH   1   2
ATOM      2  C   UNL     1      -7.329  28.922  45.393  1.00  0.00     0.042 C 
BRANCH   2   3
ATOM      3  C   UNL     1      -5.909  28.893  45.909  1.00  0.00     0.045 C 
ATOM      4  O   UNL     1      -5.047  29.694  45.461  1.00  0.00    -0.550 OA
ATOM      5  O   UNL     1      -5.544  27.966  46.880  1.00  0.00    -0.550 OA
ENDBRANCH   2   3
BRANCH   2   6
ATOM      6  C   UNL     1      -7.354  28.519  43.871  1.00  0.00     0.033 C 
ATOM      7  C   UNL     1      -6.585  27.198  43.627  1.00  0.00     0.119 C 
ATOM      8  C   UNL     1      -8.743  28.316  43.163  1.00  0.00    -0.017 C 
ATOM      9  C   UNL     1      -7.312  26.432  42.521  1.00  0.00     0.043 C 
ATOM     10  C   UNL     1      -8.409  27.356  41.961  1.00  0.00    -0.003 C 
ATOM     11  C   UNL     1      -9.750  27.604  44.099  1.00  0.00     0.012 C 
ATOM     12  C   UNL     1      -9.357  29.664  42.670  1.00  0.00     0.013 C 
ATOM     13  C   UNL     1      -7.823  28.150  40.751  1.00  0.00     0.017 C 
ATOM     14  C   UNL     1      -9.598  26.487  41.484  1.00  0.00    -0.064 C 
ATOM     15  C   UNL     1     -11.045  27.261  43.373  1.00  0.00     0.032 C 
ATOM     16  C   UNL     1     -10.828  26.497  42.076  1.00  0.00    -0.064 C 
ATOM     17  C   UNL     1      -9.395  25.536  40.330  1.00  0.00     0.032 C 
ATOM     18  C   UNL     1     -11.975  25.588  41.531  1.00  0.00    -0.008 C 
ATOM     19  C   UNL     1     -10.512  25.779  39.341  1.00  0.00     0.009 C 
ATOM     20  C   UNL     1     -11.907  25.375  39.932  1.00  0.00     0.009 C 
ATOM     21  C   UNL     1     -11.837  24.260  42.329  1.00  0.00     0.015 C 
ATOM     22  C   UNL     1     -13.338  26.260  41.874  1.00  0.00     0.016 C 
ATOM     23  C   UNL     1     -12.527  23.999  39.371  1.00  0.00     0.005 C 
ATOM     24  C   UNL     1     -12.641  23.102  41.766  1.00  0.00     0.047 C 
ATOM     25  C   UNL     1     -12.221  22.806  40.328  1.00  0.00     0.182 C 
ATOM     26  C   UNL     1     -11.973  23.629  37.963  1.00  0.00     0.015 C 
ATOM     27  C   UNL     1     -14.067  24.135  39.158  1.00  0.00     0.015 C 
BRANCH   7  28
ATOM     28  O   UNL     1      -5.259  27.472  43.245  1.00  0.00    -0.393 OA
ATOM     29  H   UNL     1      -5.188  27.250  42.281  1.00  0.00     0.210 HD
ENDBRANCH   7  28
BRANCH  25  30
ATOM     30  O   UNL     1     -12.903  21.618  39.905  1.00  0.00    -0.462 OA
BRANCH  30  31
ATOM     31  C   UNL     1     -12.386  20.324  40.033  1.00  0.00     0.302 C 
ATOM     32  O   UNL     1     -13.067  19.316  39.700  1.00  0.00    -0.253 OA
ATOM     33  C   UNL     1     -11.030  20.140  40.623  1.00  0.00     0.139 C 
ENDBRANCH  30  31
ENDBRANCH  25  30
ENDBRANCH   2   6
ENDBRANCH   1   2
BRANCH   1  34
ATOM     34  C   UNL     1      -7.717  30.849  47.093  1.00  0.00     0.031 C 
BRANCH  34  35
ATOM     35  C   UNL     1      -7.114  32.240  47.114  1.00  0.00    -0.075 C 
ATOM     36  C   UNL     1      -7.478  33.142  46.186  1.00  0.00     0.008 C 
BRANCH  35  37
ATOM     37  C   UNL     1      -6.038  32.568  48.142  1.00  0.00     0.008 C 
ATOM     38  C   UNL     1      -6.374  33.842  48.929  1.00  0.00     0.012 C 
ATOM     39  C   UNL     1      -4.658  32.679  47.484  1.00  0.00     0.012 C 
ENDBRANCH  35  37
ENDBRANCH  34  35
ENDBRANCH   1  34
TORSDOF 9
ENDMDL
MODEL 4
REMARK VINA RESULT:    -5.748      2.393      9.559
REMARK INTER + INTRA:         -10.130
REMARK INTER:                  -8.193
REMARK INTRA:                  -1.937
REMARK UNBOUND:                -1.525
REMARK SMILES C=C(CC[C@H](C(=O)[O-])[C@H]1[C@H](O)C[C@@]2(C)C3=C(CC[C@@]12C)[C@]1(C)CC[C@@H](OC(C)=O)C(C)(C)[C@@H]1CC3)C(C)C
REMARK SMILES IDX 4 1 5 2 6 3 7 4 8 5 9 6 10 7 19 8 12 9 13 10 18 11 20 12
REMARK SMILES IDX 14 13 15 14 17 15 16 16 35 17 21 18 34 19 33 20 23 21 22 22
REMARK SMILES IDX 30 23 24 24 25 25 31 26 32 27 11 28 26 30 27 31 29 32 28 33
REMARK SMILES IDX 3 34 2 35 1 36 36 37 37 38 38 39
REMARK H PARENT 11 29
REMARK Flexibility Score: inf
ROOT
ATOM      1  C   UNL     1      -5.730  30.225  47.248  1.00  0.00     0.014 C 
ENDROOT
BRANCH   1   2
ATOM      2  C   UNL     1      -6.209  29.070  46.334  1.00  0.00     0.042 C 
BRANCH   2   3
ATOM      3  C   UNL     1      -5.102  28.055  46.172  1.00  0.00     0.045 C 
ATOM      4  O   UNL     1      -3.910  28.426  46.011  1.00  0.00    -0.550 OA
ATOM      5  O   UNL     1      -5.400  26.696  46.190  1.00  0.00    -0.550 OA
ENDBRANCH   2   3
BRANCH   2   6
ATOM      6  C   UNL     1      -6.696  29.562  44.920  1.00  0.00     0.033 C 
ATOM      7  C   UNL     1      -5.865  28.918  43.784  1.00  0.00     0.119 C 
ATOM      8  C   UNL     1      -8.196  29.327  44.509  1.00  0.00    -0.017 C 
ATOM      9  C   UNL     1      -6.802  28.676  42.601  1.00  0.00     0.043 C 
ATOM     10  C   UNL     1      -8.154  29.333  42.936  1.00  0.00    -0.003 C 
ATOM     11  C   UNL     1      -8.695  27.941  44.985  1.00  0.00     0.012 C 
ATOM     12  C   UNL     1      -9.142  30.438  45.065  1.00  0.00     0.013 C 
ATOM     13  C   UNL     1      -8.150  30.793  42.378  1.00  0.00     0.017 C 
ATOM     14  C   UNL     1      -9.285  28.522  42.260  1.00  0.00    -0.064 C 
ATOM     15  C   UNL     1     -10.092  27.637  44.457  1.00  0.00     0.032 C 
ATOM     16  C   UNL     1     -10.222  27.809  42.951  1.00  0.00    -0.064 C 
ATOM     17  C   UNL     1      -9.349  28.467  40.753  1.00  0.00     0.032 C 
ATOM     18  C   UNL     1     -11.331  27.017  42.191  1.00  0.00    -0.008 C 
ATOM     19  C   UNL     1     -10.763  28.818  40.347  1.00  0.00     0.009 C 
ATOM     20  C   UNL     1     -11.787  27.729  40.816  1.00  0.00     0.009 C 
ATOM     21  C   UNL     1     -10.724  25.601  41.971  1.00  0.00     0.015 C 
ATOM     22  C   UNL     1     -12.579  26.907  43.119  1.00  0.00     0.016 C 
ATOM     23  C   UNL     1     -12.344  26.755  39.661  1.00  0.00     0.005 C 
ATOM     24  C   UNL     1     -11.485  24.737  40.981  1.00  0.00     0.047 C 
ATOM     25  C   UNL     1     -11.547  25.415  39.615  1.00  0.00     0.182 C 
ATOM     26  C   UNL     1     -12.260  27.403  38.247  1.00  0.00     0.015 C 
ATOM     27  C   UNL     1     -13.864  26.469  39.866  1.00  0.00     0.015 C 
BRANCH   7  28
ATOM     28  O   UNL     1      -4.812  29.772  43.410  1.00  0.00    -0.393 OA
ATOM     29  H   UNL     1      -4.633  30.361  44.188  1.00  0.00     0.210 HD
ENDBRANCH   7  28
BRANCH  25  30
ATOM     30  O   UNL     1     -12.142  24.493  38.692  1.00  0.00    -0.462 OA
BRANCH  30  31
ATOM     31  C   UNL     1     -11.422  23.567  37.928  1.00  0.00     0.302 C 
ATOM     32  O   UNL     1     -11.588  22.327  38.085  1.00  0.00    -0.253 OA
ATOM     33  C   UNL     1     -10.408  24.062  36.955  1.00  0.00     0.139 C 
ENDBRANCH  30  31
ENDBRANCH  25  30
ENDBRANCH   2   6
ENDBRANCH   1   2
BRANCH   1  34
ATOM     34  C   UNL     1      -5.541  31.574  46.519  1.00  0.00     0.031 C 
BRANCH  34  35
ATOM     35  C   UNL     1      -6.353  32.699  47.130  1.00  0.00    -0.075 C 
ATOM     36  C   UNL     1      -6.155  33.049  48.413  1.00  0.00     0.008 C 
BRANCH  35  37
ATOM     37  C   UNL     1      -7.446  33.363  46.300  1.00  0.00     0.008 C 
ATOM     38  C   UNL     1      -7.042  33.486  44.825  1.00  0.00     0.012 C 
ATOM     39  C   UNL     1      -7.829  34.729  46.879  1.00  0.00     0.012 C 
ENDBRANCH  35  37
ENDBRANCH  34  35
ENDBRANCH   1  34
TORSDOF 9
ENDMDL
MODEL 5
REMARK VINA RESULT:    -5.525      6.200     10.054
REMARK INTER + INTRA:          -9.796
REMARK INTER:                  -7.721
REMARK INTRA:                  -2.075
REMARK UNBOUND:                -1.525
REMARK SMILES C=C(CC[C@H](C(=O)[O-])[C@H]1[C@H](O)C[C@@]2(C)C3=C(CC[C@@]12C)[C@]1(C)CC[C@@H](OC(C)=O)C(C)(C)[C@@H]1CC3)C(C)C
REMARK SMILES IDX 4 1 5 2 6 3 7 4 8 5 9 6 10 7 19 8 12 9 13 10 18 11 20 12
REMARK SMILES IDX 14 13 15 14 17 15 16 16 35 17 21 18 34 19 33 20 23 21 22 22
REMARK SMILES IDX 30 23 24 24 25 25 31 26 32 27 11 28 26 30 27 31 29 32 28 33
REMARK SMILES IDX 3 34 2 35 1 36 36 37 37 38 38 39
REMARK H PARENT 11 29
REMARK Flexibility Score: inf
ROOT
ATOM      1  C   UNL     1     -18.221  25.849  31.875  1.00  0.00     0.014 C 
ENDROOT
BRANCH   1   2
ATOM      2  C   UNL     1     -17.691  26.363  33.236  1.00  0.00     0.042 C 
BRANCH   2   3
ATOM      3  C   UNL     1     -17.755  27.872  33.271  1.00  0.00     0.045 C 
ATOM      4  O   UNL     1     -18.080  28.476  34.327  1.00  0.00    -0.550 OA
ATOM      5  O   UNL     1     -17.462  28.604  32.124  1.00  0.00    -0.550 OA
ENDBRANCH   2   3
BRANCH   2   6
ATOM      6  C   UNL     1     -16.225  25.881  33.550  1.00  0.00     0.033 C 
ATOM      7  C   UNL     1     -15.268  27.082  33.747  1.00  0.00     0.119 C 
ATOM      8  C   UNL     1     -15.980  24.959  34.800  1.00  0.00    -0.017 C 
ATOM      9  C   UNL     1     -14.254  26.699  34.824  1.00  0.00     0.043 C 
ATOM     10  C   UNL     1     -14.467  25.210  35.154  1.00  0.00    -0.003 C 
ATOM     11  C   UNL     1     -16.850  25.402  36.001  1.00  0.00     0.012 C 
ATOM     12  C   UNL     1     -16.256  23.454  34.487  1.00  0.00     0.013 C 
ATOM     13  C   UNL     1     -13.526  24.357  34.245  1.00  0.00     0.017 C 
ATOM     14  C   UNL     1     -14.108  24.972  36.641  1.00  0.00    -0.064 C 
ATOM     15  C   UNL     1     -16.506  24.618  37.262  1.00  0.00     0.032 C 
ATOM     16  C   UNL     1     -15.022  24.624  37.594  1.00  0.00    -0.064 C 
ATOM     17  C   UNL     1     -12.683  25.173  37.093  1.00  0.00     0.032 C 
ATOM     18  C   UNL     1     -14.576  24.402  39.073  1.00  0.00    -0.008 C 
ATOM     19  C   UNL     1     -12.274  23.939  37.866  1.00  0.00     0.009 C 
ATOM     20  C   UNL     1     -13.084  23.797  39.200  1.00  0.00     0.009 C 
ATOM     21  C   UNL     1     -14.725  25.798  39.743  1.00  0.00     0.015 C 
ATOM     22  C   UNL     1     -15.565  23.399  39.739  1.00  0.00     0.016 C 
ATOM     23  C   UNL     1     -12.279  24.166  40.544  1.00  0.00     0.005 C 
ATOM     24  C   UNL     1     -14.059  25.919  41.102  1.00  0.00     0.047 C 
ATOM     25  C   UNL     1     -12.564  25.631  40.994  1.00  0.00     0.182 C 
ATOM     26  C   UNL     1     -10.738  24.014  40.374  1.00  0.00     0.015 C 
ATOM     27  C   UNL     1     -12.640  23.173  41.693  1.00  0.00     0.015 C 
BRANCH   7  28
ATOM     28  O   UNL     1     -14.614  27.384  32.539  1.00  0.00    -0.393 OA
ATOM     29  H   UNL     1     -15.212  27.993  32.034  1.00  0.00     0.210 HD
ENDBRANCH   7  28
BRANCH  25  30
ATOM     30  O   UNL     1     -11.969  25.905  42.269  1.00  0.00    -0.462 OA
BRANCH  30  31
ATOM     31  C   UNL     1     -11.318  27.100  42.596  1.00  0.00     0.302 C 
ATOM     32  O   UNL     1     -10.966  27.345  43.782  1.00  0.00    -0.253 OA
ATOM     33  C   UNL     1     -11.087  28.115  41.530  1.00  0.00     0.139 C 
ENDBRANCH  30  31
ENDBRANCH  25  30
ENDBRANCH   2   6
ENDBRANCH   1   2
BRANCH   1  34
ATOM     34  C   UNL     1     -19.569  25.098  31.962  1.00  0.00     0.031 C 
BRANCH  34  35
ATOM     35  C   UNL     1     -19.447  23.729  32.602  1.00  0.00    -0.075 C 
ATOM     36  C   UNL     1     -18.719  22.771  32.003  1.00  0.00     0.008 C 
BRANCH  35  37
ATOM     37  C   UNL     1     -20.225  23.435  33.879  1.00  0.00     0.008 C 
ATOM     38  C   UNL     1     -20.128  24.591  34.883  1.00  0.00     0.012 C 
ATOM     39  C   UNL     1     -19.768  22.117  34.515  1.00  0.00     0.012 C 
ENDBRANCH  35  37
ENDBRANCH  34  35
ENDBRANCH   1  34
TORSDOF 9
ENDMDL
MODEL 6
REMARK VINA RESULT:    -5.506     10.274     13.326
REMARK INTER + INTRA:          -9.767
REMARK INTER:                  -8.150
REMARK INTRA:                  -1.618
REMARK UNBOUND:                -1.525
REMARK SMILES C=C(CC[C@H](C(=O)[O-])[C@H]1[C@H](O)C[C@@]2(C)C3=C(CC[C@@]12C)[C@]1(C)CC[C@@H](OC(C)=O)C(C)(C)[C@@H]1CC3)C(C)C
REMARK SMILES IDX 4 1 5 2 6 3 7 4 8 5 9 6 10 7 19 8 12 9 13 10 18 11 20 12
REMARK SMILES IDX 14 13 15 14 17 15 16 16 35 17 21 18 34 19 33 20 23 21 22 22
REMARK SMILES IDX 30 23 24 24 25 25 31 26 32 27 11 28 26 30 27 31 29 32 28 33
REMARK SMILES IDX 3 34 2 35 1 36 36 37 37 38 38 39
REMARK H PARENT 11 29
REMARK Flexibility Score: inf
ROOT
ATOM      1  C   UNL     1     -22.515  24.379  41.018  1.00  0.00     0.014 C 
ENDROOT
BRANCH   1   2
ATOM      2  C   UNL     1     -21.637  23.809  39.876  1.00  0.00     0.042 C 
BRANCH   2   3
ATOM      3  C   UNL     1     -21.654  22.299  39.925  1.00  0.00     0.045 C 
ATOM      4  O   UNL     1     -21.768  21.624  38.868  1.00  0.00    -0.550 OA
ATOM      5  O   UNL     1     -21.554  21.645  41.149  1.00  0.00    -0.550 OA
ENDBRANCH   2   3
BRANCH   2   6
ATOM      6  C   UNL     1     -20.153  24.331  39.918  1.00  0.00     0.033 C 
ATOM      7  C   UNL     1     -19.166  23.190  40.269  1.00  0.00     0.119 C 
ATOM      8  C   UNL     1     -19.549  25.009  38.634  1.00  0.00    -0.017 C 
ATOM      9  C   UNL     1     -17.875  23.434  39.487  1.00  0.00     0.043 C 
ATOM     10  C   UNL     1     -17.997  24.809  38.806  1.00  0.00    -0.003 C 
ATOM     11  C   UNL     1     -20.003  24.276  37.349  1.00  0.00     0.012 C 
ATOM     12  C   UNL     1     -19.927  26.520  38.531  1.00  0.00     0.013 C 
ATOM     13  C   UNL     1     -17.390  25.891  39.755  1.00  0.00     0.017 C 
ATOM     14  C   UNL     1     -17.203  24.781  37.477  1.00  0.00    -0.064 C 
ATOM     15  C   UNL     1     -19.300  24.824  36.113  1.00  0.00     0.032 C 
ATOM     16  C   UNL     1     -17.785  24.866  36.245  1.00  0.00    -0.064 C 
ATOM     17  C   UNL     1     -15.705  24.604  37.522  1.00  0.00     0.032 C 
ATOM     18  C   UNL     1     -16.910  24.830  34.953  1.00  0.00    -0.008 C 
ATOM     19  C   UNL     1     -15.095  25.692  36.666  1.00  0.00     0.009 C 
ATOM     20  C   UNL     1     -15.459  25.510  35.153  1.00  0.00     0.009 C 
ATOM     21  C   UNL     1     -16.829  23.323  34.575  1.00  0.00     0.015 C 
ATOM     22  C   UNL     1     -17.661  25.607  33.831  1.00  0.00     0.016 C 
ATOM     23  C   UNL     1     -14.276  24.950  34.215  1.00  0.00     0.005 C 
ATOM     24  C   UNL     1     -15.777  22.992  33.532  1.00  0.00     0.047 C 
ATOM     25  C   UNL     1     -14.391  23.408  34.017  1.00  0.00     0.182 C 
ATOM     26  C   UNL     1     -12.864  25.248  34.801  1.00  0.00     0.015 C 
ATOM     27  C   UNL     1     -14.282  25.671  32.831  1.00  0.00     0.015 C 
BRANCH   7  28
ATOM     28  O   UNL     1     -18.909  23.180  41.651  1.00  0.00    -0.393 OA
ATOM     29  H   UNL     1     -19.780  23.035  42.103  1.00  0.00     0.210 HD
ENDBRANCH   7  28
BRANCH  25  30
ATOM     30  O   UNL     1     -13.430  22.938  33.062  1.00  0.00    -0.462 OA
BRANCH  30  31
ATOM     31  C   UNL     1     -12.593  21.835  33.263  1.00  0.00     0.302 C 
ATOM     32  O   UNL     1     -12.553  20.888  32.430  1.00  0.00    -0.253 OA
ATOM     33  C   UNL     1     -11.777  21.761  34.508  1.00  0.00     0.139 C 
ENDBRANCH  30  31
ENDBRANCH  25  30
ENDBRANCH   2   6
ENDBRANCH   1   2
BRANCH   1  34
ATOM     34  C   UNL     1     -21.762  25.315  41.990  1.00  0.00     0.031 C 
BRANCH  34  35
ATOM     35  C   UNL     1     -22.230  26.754  41.913  1.00  0.00    -0.075 C 
ATOM     36  C   UNL     1     -22.779  27.221  40.777  1.00  0.00     0.008 C 
BRANCH  35  37
ATOM     37  C   UNL     1     -21.994  27.678  43.102  1.00  0.00     0.008 C 
ATOM     38  C   UNL     1     -22.871  27.294  44.302  1.00  0.00     0.012 C 
ATOM     39  C   UNL     1     -22.206  29.146  42.715  1.00  0.00     0.012 C 
ENDBRANCH  35  37
ENDBRANCH  34  35
ENDBRANCH   1  34
TORSDOF 9
ENDMDL
MODEL 7
REMARK VINA RESULT:    -5.337      4.731      8.529
REMARK INTER + INTRA:          -9.515
REMARK INTER:                  -7.862
REMARK INTRA:                  -1.653
REMARK UNBOUND:                -1.525
REMARK SMILES C=C(CC[C@H](C(=O)[O-])[C@H]1[C@H](O)C[C@@]2(C)C3=C(CC[C@@]12C)[C@]1(C)CC[C@@H](OC(C)=O)C(C)(C)[C@@H]1CC3)C(C)C
REMARK SMILES IDX 4 1 5 2 6 3 7 4 8 5 9 6 10 7 19 8 12 9 13 10 18 11 20 12
REMARK SMILES IDX 14 13 15 14 17 15 16 16 35 17 21 18 34 19 33 20 23 21 22 22
REMARK SMILES IDX 30 23 24 24 25 25 31 26 32 27 11 28 26 30 27 31 29 32 28 33
REMARK SMILES IDX 3 34 2 35 1 36 36 37 37 38 38 39
REMARK H PARENT 11 29
REMARK Flexibility Score: inf
ROOT
ATOM      1  C   UNL     1      -8.757  18.258  37.016  1.00  0.00     0.014 C 
ENDROOT
BRANCH   1   2
ATOM      2  C   UNL     1      -8.541  18.528  38.526  1.00  0.00     0.042 C 
BRANCH   2   3
ATOM      3  C   UNL     1      -8.142  17.247  39.220  1.00  0.00     0.045 C 
ATOM      4  O   UNL     1      -7.034  17.155  39.811  1.00  0.00    -0.550 OA
ATOM      5  O   UNL     1      -9.000  16.152  39.200  1.00  0.00    -0.550 OA
ENDBRANCH   2   3
BRANCH   2   6
ATOM      6  C   UNL     1      -9.806  19.148  39.229  1.00  0.00     0.033 C 
ATOM      7  C   UNL     1      -9.698  19.045  40.770  1.00  0.00     0.119 C 
ATOM      8  C   UNL     1     -10.170  20.651  38.948  1.00  0.00    -0.017 C 
ATOM      9  C   UNL     1     -10.342  20.296  41.367  1.00  0.00     0.043 C 
ATOM     10  C   UNL     1     -11.004  21.073  40.214  1.00  0.00    -0.003 C 
ATOM     11  C   UNL     1      -8.899  21.531  38.878  1.00  0.00     0.012 C 
ATOM     12  C   UNL     1     -10.994  20.823  37.632  1.00  0.00     0.013 C 
ATOM     13  C   UNL     1     -12.491  20.610  40.090  1.00  0.00     0.017 C 
ATOM     14  C   UNL     1     -10.958  22.586  40.539  1.00  0.00    -0.064 C 
ATOM     15  C   UNL     1      -9.247  23.011  38.764  1.00  0.00     0.032 C 
ATOM     16  C   UNL     1     -10.218  23.489  39.832  1.00  0.00    -0.064 C 
ATOM     17  C   UNL     1     -11.729  23.105  41.727  1.00  0.00     0.032 C 
ATOM     18  C   UNL     1     -10.227  24.999  40.226  1.00  0.00    -0.008 C 
ATOM     19  C   UNL     1     -12.551  24.283  41.254  1.00  0.00     0.009 C 
ATOM     20  C   UNL     1     -11.643  25.488  40.828  1.00  0.00     0.009 C 
ATOM     21  C   UNL     1      -9.053  25.150  41.236  1.00  0.00     0.015 C 
ATOM     22  C   UNL     1      -9.924  25.841  38.951  1.00  0.00     0.016 C 
ATOM     23  C   UNL     1     -11.589  26.718  41.866  1.00  0.00     0.005 C 
ATOM     24  C   UNL     1      -9.047  26.459  42.004  1.00  0.00     0.047 C 
ATOM     25  C   UNL     1     -10.341  26.623  42.795  1.00  0.00     0.182 C 
ATOM     26  C   UNL     1     -12.852  26.783  42.774  1.00  0.00     0.015 C 
ATOM     27  C   UNL     1     -11.589  28.081  41.104  1.00  0.00     0.015 C 
BRANCH   7  28
ATOM     28  O   UNL     1     -10.357  17.888  41.226  1.00  0.00    -0.393 OA
ATOM     29  H   UNL     1      -9.823  17.537  41.985  1.00  0.00     0.210 HD
ENDBRANCH   7  28
BRANCH  25  30
ATOM     30  O   UNL     1     -10.215  27.795  43.610  1.00  0.00    -0.462 OA
BRANCH  30  31
ATOM     31  C   UNL     1      -8.994  28.348  44.013  1.00  0.00     0.302 C 
ATOM     32  O   UNL     1      -8.556  29.408  43.487  1.00  0.00    -0.253 OA
ATOM     33  C   UNL     1      -8.180  27.640  45.040  1.00  0.00     0.139 C 
ENDBRANCH  30  31
ENDBRANCH  25  30
ENDBRANCH   2   6
ENDBRANCH   1   2
BRANCH   1  34
ATOM     34  C   UNL     1      -7.833  19.077  36.087  1.00  0.00     0.031 C 
BRANCH  34  35
ATOM     35  C   UNL     1      -8.587  19.815  34.997  1.00  0.00    -0.075 C 
ATOM     36  C   UNL     1      -8.531  21.157  34.934  1.00  0.00     0.008 C 
BRANCH  35  37
ATOM     37  C   UNL     1      -9.469  19.024  34.038  1.00  0.00     0.008 C 
ATOM     38  C   UNL     1      -8.945  19.092  32.598  1.00  0.00     0.012 C 
ATOM     39  C   UNL     1     -10.928  19.492  34.113  1.00  0.00     0.012 C 
ENDBRANCH  35  37
ENDBRANCH  34  35
ENDBRANCH   1  34
TORSDOF 9
ENDMDL
MODEL 8
REMARK VINA RESULT:    -5.280      9.803     12.682
REMARK INTER + INTRA:          -9.429
REMARK INTER:                  -7.529
REMARK INTRA:                  -1.900
REMARK UNBOUND:                -1.525
REMARK SMILES C=C(CC[C@H](C(=O)[O-])[C@H]1[C@H](O)C[C@@]2(C)C3=C(CC[C@@]12C)[C@]1(C)CC[C@@H](OC(C)=O)C(C)(C)[C@@H]1CC3)C(C)C
REMARK SMILES IDX 4 1 5 2 6 3 7 4 8 5 9 6 10 7 19 8 12 9 13 10 18 11 20 12
REMARK SMILES IDX 14 13 15 14 17 15 16 16 35 17 21 18 34 19 33 20 23 21 22 22
REMARK SMILES IDX 30 23 24 24 25 25 31 26 32 27 11 28 26 30 27 31 29 32 28 33
REMARK SMILES IDX 3 34 2 35 1 36 36 37 37 38 38 39
REMARK H PARENT 11 29
REMARK Flexibility Score: inf
ROOT
ATOM      1  C   UNL     1     -16.973  26.597  34.643  1.00  0.00     0.014 C 
ENDROOT
BRANCH   1   2
ATOM      2  C   UNL     1     -16.015  25.500  35.167  1.00  0.00     0.042 C 
BRANCH   2   3
ATOM      3  C   UNL     1     -16.097  25.429  36.675  1.00  0.00     0.045 C 
ATOM      4  O   UNL     1     -16.184  26.481  37.362  1.00  0.00    -0.550 OA
ATOM      5  O   UNL     1     -16.064  24.193  37.313  1.00  0.00    -0.550 OA
ENDBRANCH   2   3
BRANCH   2   6
ATOM      6  C   UNL     1     -14.521  25.719  34.721  1.00  0.00     0.033 C 
ATOM      7  C   UNL     1     -13.578  25.816  35.945  1.00  0.00     0.119 C 
ATOM      8  C   UNL     1     -13.849  24.660  33.774  1.00  0.00    -0.017 C 
ATOM      9  C   UNL     1     -12.250  25.161  35.563  1.00  0.00     0.043 C 
ATOM     10  C   UNL     1     -12.311  24.831  34.060  1.00  0.00    -0.003 C 
ATOM     11  C   UNL     1     -14.267  23.220  34.158  1.00  0.00     0.012 C 
ATOM     12  C   UNL     1     -14.186  24.914  32.270  1.00  0.00     0.013 C 
ATOM     13  C   UNL     1     -11.718  26.035  33.260  1.00  0.00     0.017 C 
ATOM     14  C   UNL     1     -11.463  23.563  33.792  1.00  0.00    -0.064 C 
ATOM     15  C   UNL     1     -13.500  22.179  33.351  1.00  0.00     0.032 C 
ATOM     16  C   UNL     1     -11.992  22.370  33.392  1.00  0.00    -0.064 C 
ATOM     17  C   UNL     1      -9.973  23.615  34.024  1.00  0.00     0.032 C 
ATOM     18  C   UNL     1     -11.065  21.139  33.144  1.00  0.00    -0.008 C 
ATOM     19  C   UNL     1      -9.302  23.071  32.783  1.00  0.00     0.009 C 
ATOM     20  C   UNL     1      -9.608  21.547  32.581  1.00  0.00     0.009 C 
ATOM     21  C   UNL     1     -11.004  20.408  34.516  1.00  0.00     0.015 C 
ATOM     22  C   UNL     1     -11.750  20.213  32.094  1.00  0.00     0.016 C 
ATOM     23  C   UNL     1      -8.401  20.543  32.937  1.00  0.00     0.005 C 
ATOM     24  C   UNL     1      -9.918  19.353  34.620  1.00  0.00     0.047 C 
ATOM     25  C   UNL     1      -8.544  19.972  34.380  1.00  0.00     0.182 C 
ATOM     26  C   UNL     1      -7.008  21.231  32.836  1.00  0.00     0.015 C 
ATOM     27  C   UNL     1      -8.332  19.376  31.902  1.00  0.00     0.015 C 
BRANCH   7  28
ATOM     28  O   UNL     1     -13.378  27.162  36.298  1.00  0.00    -0.393 OA
ATOM     29  H   UNL     1     -12.475  27.220  36.703  1.00  0.00     0.210 HD
ENDBRANCH   7  28
BRANCH  25  30
ATOM     30  O   UNL     1      -7.556  18.965  34.637  1.00  0.00    -0.462 OA
BRANCH  30  31
ATOM     31  C   UNL     1      -6.904  18.794  35.863  1.00  0.00     0.302 C 
ATOM     32  O   UNL     1      -6.108  19.667  36.304  1.00  0.00    -0.253 OA
ATOM     33  C   UNL     1      -7.119  17.533  36.629  1.00  0.00     0.139 C 
ENDBRANCH  30  31
ENDBRANCH  25  30
ENDBRANCH   2   6
ENDBRANCH   1   2
BRANCH   1  34
ATOM     34  C   UNL     1     -18.396  26.093  34.313  1.00  0.00     0.031 C 
BRANCH  34  35
ATOM     35  C   UNL     1     -18.401  24.861  33.430  1.00  0.00    -0.075 C 
ATOM     36  C   UNL     1     -17.970  24.945  32.160  1.00  0.00     0.008 C 
BRANCH  35  37
ATOM     37  C   UNL     1     -18.977  23.559  33.975  1.00  0.00     0.008 C 
ATOM     38  C   UNL     1     -19.699  23.772  35.311  1.00  0.00     0.012 C 
ATOM     39  C   UNL     1     -17.891  22.484  34.103  1.00  0.00     0.012 C 
ENDBRANCH  35  37
ENDBRANCH  34  35
ENDBRANCH   1  34
TORSDOF 9
ENDMDL
