MODEL 1
REMARK VINA RESULT:    60.149      0.000      0.000
REMARK INTER + INTRA:          87.253
REMARK INTER:                  84.763
REMARK INTRA:                   2.490
REMARK UNBOUND:                 2.490
REMARK SMILES COc1c(O[C@@H]2O[C@@H](C(=O)[O-])[C@@H](O)[C@H](O)[C@H]2O)cc(O)c2c(=O)cc(-c3ccccc3)oc12
REMARK SMILES IDX 5 1 6 2 8 3 12 4 7 5 14 6 16 7 9 8 10 9 11 10 13 11 15 13
REMARK SMILES IDX 17 15 4 17 3 18 18 19 33 20 19 21 21 22 32 23 22 24 25 25
REMARK SMILES IDX 24 26 23 27 2 28 1 29 20 30 26 32 27 33 31 34 28 35 30 36
REMARK SMILES IDX 29 37
REMARK H PARENT 13 12 15 14 17 16 20 31
REMARK Flexibility Score: inf
ROOT
ATOM      1  O   UNL     1      13.078  10.763  18.678  1.00  0.00    -0.458 OA
ENDROOT
BRANCH   1   2
ATOM      2  C   UNL     1      14.493  10.841  18.422  1.00  0.00     0.339 C 
ATOM      3  C   UNL     1      14.403  12.270  16.534  1.00  0.00     0.199 C 
ATOM      4  C   UNL     1      15.107  11.277  15.620  1.00  0.00     0.180 C 
ATOM      5  O   UNL     1      14.884  12.087  17.862  1.00  0.00    -0.328 OA
ATOM      6  C   UNL     1      14.739   9.847  16.104  1.00  0.00     0.181 C 
ATOM      7  C   UNL     1      15.032   9.650  17.601  1.00  0.00     0.214 C 
BRANCH   3   8
ATOM      8  C   UNL     1      14.648  13.716  16.168  1.00  0.00     0.073 C 
ATOM      9  O   UNL     1      15.243  14.026  15.108  1.00  0.00    -0.547 OA
ATOM     10  O   UNL     1      14.319  14.732  17.075  1.00  0.00    -0.547 OA
ENDBRANCH   3   8
BRANCH   4  11
ATOM     11  O   UNL     1      16.485  11.518  15.693  1.00  0.00    -0.387 OA
ATOM     12  H   UNL     1      16.674  12.321  15.143  1.00  0.00     0.211 HD
ENDBRANCH   4  11
BRANCH   6  13
ATOM     13  O   UNL     1      13.372   9.578  15.880  1.00  0.00    -0.387 OA
ATOM     14  H   UNL     1      13.146   8.792  16.462  1.00  0.00     0.211 HD
ENDBRANCH   6  13
BRANCH   7  15
ATOM     15  O   UNL     1      16.431   9.620  17.793  1.00  0.00    -0.384 OA
ATOM     16  H   UNL     1      16.599   8.878  18.438  1.00  0.00     0.211 HD
ENDBRANCH   7  15
ENDBRANCH   1   2
BRANCH   1  17
ATOM     17  C   UNL     1      12.211   9.842  18.065  1.00  0.00     0.172 A 
ATOM     18  C   UNL     1      11.115  10.309  17.323  1.00  0.00     0.205 A 
ATOM     19  C   UNL     1      12.427   8.460  18.184  1.00  0.00     0.097 A 
ATOM     20  C   UNL     1      10.183   9.388  16.800  1.00  0.00     0.188 A 
ATOM     21  C   UNL     1      11.519   7.537  17.669  1.00  0.00     0.134 A 
ATOM     22  C   UNL     1      10.358   7.989  17.008  1.00  0.00     0.111 A 
ATOM     23  O   UNL     1       9.107   9.831  16.165  1.00  0.00    -0.452 OA
ATOM     24  C   UNL     1       9.353   7.123  16.530  1.00  0.00     0.197 A 
ATOM     25  C   UNL     1       8.156   9.033  15.682  1.00  0.00     0.138 A 
ATOM     26  C   UNL     1       8.261   7.647  15.845  1.00  0.00     0.100 A 
ATOM     27  O   UNL     1       9.378   5.877  16.763  1.00  0.00    -0.289 OA
BRANCH  18  28
ATOM     28  O   UNL     1      10.984  11.692  17.131  1.00  0.00    -0.490 OA
ATOM     29  C   UNL     1      11.240  12.647  18.163  1.00  0.00     0.278 C 
ENDBRANCH  18  28
BRANCH  21  30
ATOM     30  O   UNL     1      11.771   6.177  17.833  1.00  0.00    -0.507 OA
ATOM     31  H   UNL     1      12.496   5.685  17.324  1.00  0.00     0.293 HD
ENDBRANCH  21  30
BRANCH  25  32
ATOM     32  C   UNL     1       7.005   9.625  14.985  1.00  0.00     0.017 A 
ATOM     33  C   UNL     1       7.058  10.927  14.438  1.00  0.00     0.012 A 
ATOM     34  C   UNL     1       5.833   8.867  14.825  1.00  0.00     0.012 A 
ATOM     35  C   UNL     1       5.947  11.468  13.784  1.00  0.00     0.001 A 
ATOM     36  C   UNL     1       4.725   9.414  14.167  1.00  0.00     0.001 A 
ATOM     37  C   UNL     1       4.783  10.708  13.651  1.00  0.00     0.000 A 
ENDBRANCH  25  32
ENDBRANCH   1  17
TORSDOF 9
ENDMDL
