MODEL 1
REMARK VINA RESULT:    -3.537      0.000      0.000
REMARK INTER + INTRA:          -8.618
REMARK INTER:                  -6.639
REMARK INTRA:                  -1.978
REMARK UNBOUND:                -1.978
REMARK SMILES O=C([O-])CCCCCCCCCCCCCCC(=O)[O-]
REMARK SMILES IDX 10 1 9 2 8 3 7 4 6 5 5 6 4 7 2 8 1 9 3 10 11 11 12 12 13 13
REMARK SMILES IDX 14 14 15 15 16 16 17 17 18 18 19 19 20 20
REMARK H PARENT
REMARK Flexibility Score: inf
ROOT
ATOM      1  C   UNL     1     -99.750  69.259  23.133  1.00  0.00     0.000 C 
ENDROOT
BRANCH   1   2
ATOM      2  C   UNL     1     -98.766  70.186  22.396  1.00  0.00     0.000 C 
BRANCH   2   3
ATOM      3  C   UNL     1     -99.238  71.643  22.219  1.00  0.00     0.000 C 
BRANCH   3   4
ATOM      4  C   UNL     1     -98.760  72.621  23.308  1.00  0.00     0.000 C 
BRANCH   4   5
ATOM      5  C   UNL     1     -97.448  72.181  23.970  1.00  0.00     0.000 C 
BRANCH   5   6
ATOM      6  C   UNL     1     -96.354  73.243  23.780  1.00  0.00     0.006 C 
BRANCH   6   7
ATOM      7  C   UNL     1     -95.262  72.784  22.804  1.00  0.00     0.053 C 
BRANCH   7   8
ATOM      8  C   UNL     1     -95.600  73.138  21.389  1.00  0.00     0.041 C 
ATOM      9  O   UNL     1     -96.104  72.275  20.622  1.00  0.00    -0.550 OA
ATOM     10  O   UNL     1     -95.388  74.430  20.926  1.00  0.00    -0.550 OA
ENDBRANCH   7   8
ENDBRANCH   6   7
ENDBRANCH   5   6
ENDBRANCH   4   5
ENDBRANCH   3   4
ENDBRANCH   2   3
ENDBRANCH   1   2
BRANCH   1  11
ATOM     11  C   UNL     1     -99.108  68.534  24.327  1.00  0.00     0.000 C 
BRANCH  11  12
ATOM     12  C   UNL     1     -99.701  68.968  25.680  1.00  0.00     0.000 C 
BRANCH  12  13
ATOM     13  C   UNL     1    -100.349  70.367  25.695  1.00  0.00     0.000 C 
BRANCH  13  14
ATOM     14  C   UNL     1    -100.191  71.147  27.015  1.00  0.00     0.000 C 
BRANCH  14  15
ATOM     15  C   UNL     1     -98.756  71.622  27.323  1.00  0.00     0.000 C 
BRANCH  15  16
ATOM     16  C   UNL     1     -98.068  70.896  28.494  1.00  0.00     0.006 C 
BRANCH  16  17
ATOM     17  C   UNL     1     -99.061  70.169  29.409  1.00  0.00     0.053 C 
BRANCH  17  18
ATOM     18  C   UNL     1     -98.672  68.733  29.565  1.00  0.00     0.041 C 
ATOM     19  O   UNL     1     -98.171  68.103  28.596  1.00  0.00    -0.550 OA
ATOM     20  O   UNL     1     -98.907  68.075  30.766  1.00  0.00    -0.550 OA
ENDBRANCH  17  18
ENDBRANCH  16  17
ENDBRANCH  15  16
ENDBRANCH  14  15
ENDBRANCH  13  14
ENDBRANCH  12  13
ENDBRANCH  11  12
ENDBRANCH   1  11
TORSDOF 15
ENDMDL
MODEL 2
REMARK VINA RESULT:    -3.527      1.580      7.081
REMARK INTER + INTRA:          -8.597
REMARK INTER:                  -6.598
REMARK INTRA:                  -1.999
REMARK UNBOUND:                -1.978
REMARK SMILES O=C([O-])CCCCCCCCCCCCCCC(=O)[O-]
REMARK SMILES IDX 10 1 9 2 8 3 7 4 6 5 5 6 4 7 2 8 1 9 3 10 11 11 12 12 13 13
REMARK SMILES IDX 14 14 15 15 16 16 17 17 18 18 19 19 20 20
REMARK H PARENT
REMARK Flexibility Score: inf
ROOT
ATOM      1  C   UNL     1     -99.596  71.371  26.568  1.00  0.00     0.000 C 
ENDROOT
BRANCH   1   2
ATOM      2  C   UNL     1    -100.795  71.856  25.733  1.00  0.00     0.000 C 
BRANCH   2   3
ATOM      3  C   UNL     1    -102.153  71.217  26.094  1.00  0.00     0.000 C 
BRANCH   3   4
ATOM      4  C   UNL     1    -102.078  70.042  27.085  1.00  0.00     0.000 C 
BRANCH   4   5
ATOM      5  C   UNL     1    -102.381  70.462  28.530  1.00  0.00     0.000 C 
BRANCH   5   6
ATOM      6  C   UNL     1    -101.413  69.785  29.512  1.00  0.00     0.006 C 
BRANCH   6   7
ATOM      7  C   UNL     1    -100.526  68.738  28.825  1.00  0.00     0.053 C 
BRANCH   7   8
ATOM      8  C   UNL     1     -99.109  68.811  29.304  1.00  0.00     0.041 C 
ATOM      9  O   UNL     1     -98.427  67.760  29.433  1.00  0.00    -0.550 OA
ATOM     10  O   UNL     1     -98.531  70.045  29.580  1.00  0.00    -0.550 OA
ENDBRANCH   7   8
ENDBRANCH   6   7
ENDBRANCH   5   6
ENDBRANCH   4   5
ENDBRANCH   3   4
ENDBRANCH   2   3
ENDBRANCH   1   2
BRANCH   1  11
ATOM     11  C   UNL     1     -98.614  70.509  25.758  1.00  0.00     0.000 C 
BRANCH  11  12
ATOM     12  C   UNL     1     -99.206  69.145  25.356  1.00  0.00     0.000 C 
BRANCH  12  13
ATOM     13  C   UNL     1     -99.185  68.841  23.844  1.00  0.00     0.000 C 
BRANCH  13  14
ATOM     14  C   UNL     1    -100.218  69.621  23.006  1.00  0.00     0.000 C 
BRANCH  14  15
ATOM     15  C   UNL     1     -99.648  70.819  22.220  1.00  0.00     0.000 C 
BRANCH  15  16
ATOM     16  C   UNL     1     -98.116  70.821  22.059  1.00  0.00     0.006 C 
BRANCH  16  17
ATOM     17  C   UNL     1     -97.454  72.054  22.685  1.00  0.00     0.053 C 
BRANCH  17  18
ATOM     18  C   UNL     1     -96.159  72.355  22.000  1.00  0.00     0.041 C 
ATOM     19  O   UNL     1     -96.043  72.179  20.758  1.00  0.00    -0.550 OA
ATOM     20  O   UNL     1     -95.063  72.783  22.739  1.00  0.00    -0.550 OA
ENDBRANCH  17  18
ENDBRANCH  16  17
ENDBRANCH  15  16
ENDBRANCH  14  15
ENDBRANCH  13  14
ENDBRANCH  12  13
ENDBRANCH  11  12
ENDBRANCH   1  11
TORSDOF 15
ENDMDL
MODEL 3
REMARK VINA RESULT:    -3.459      1.817      6.982
REMARK INTER + INTRA:          -8.471
REMARK INTER:                  -7.022
REMARK INTRA:                  -1.449
REMARK UNBOUND:                -1.978
REMARK SMILES O=C([O-])CCCCCCCCCCCCCCC(=O)[O-]
REMARK SMILES IDX 10 1 9 2 8 3 7 4 6 5 5 6 4 7 2 8 1 9 3 10 11 11 12 12 13 13
REMARK SMILES IDX 14 14 15 15 16 16 17 17 18 18 19 19 20 20
REMARK H PARENT
REMARK Flexibility Score: inf
ROOT
ATOM      1  C   UNL     1     -98.620  70.431  22.853  1.00  0.00     0.000 C 
ENDROOT
BRANCH   1   2
ATOM      2  C   UNL     1     -99.511  69.203  23.117  1.00  0.00     0.000 C 
BRANCH   2   3
ATOM      3  C   UNL     1     -99.105  68.342  24.331  1.00  0.00     0.000 C 
BRANCH   3   4
ATOM      4  C   UNL     1     -99.069  69.087  25.677  1.00  0.00     0.000 C 
BRANCH   4   5
ATOM      5  C   UNL     1    -100.469  69.412  26.216  1.00  0.00     0.000 C 
BRANCH   5   6
ATOM      6  C   UNL     1    -100.735  68.673  27.536  1.00  0.00     0.006 C 
BRANCH   6   7
ATOM      7  C   UNL     1    -100.281  69.484  28.758  1.00  0.00     0.053 C 
BRANCH   7   8
ATOM      8  C   UNL     1     -99.183  68.793  29.505  1.00  0.00     0.041 C 
ATOM      9  O   UNL     1     -98.217  68.279  28.882  1.00  0.00    -0.550 OA
ATOM     10  O   UNL     1     -99.210  68.744  30.894  1.00  0.00    -0.550 OA
ENDBRANCH   7   8
ENDBRANCH   6   7
ENDBRANCH   5   6
ENDBRANCH   4   5
ENDBRANCH   3   4
ENDBRANCH   2   3
ENDBRANCH   1   2
BRANCH   1  11
ATOM     11  C   UNL     1     -99.319  71.503  22.001  1.00  0.00     0.000 C 
BRANCH  11  12
ATOM     12  C   UNL     1     -98.382  72.148  20.964  1.00  0.00     0.000 C 
BRANCH  12  13
ATOM     13  C   UNL     1     -96.909  71.694  21.037  1.00  0.00     0.000 C 
BRANCH  13  14
ATOM     14  C   UNL     1     -95.875  72.765  20.639  1.00  0.00     0.000 C 
BRANCH  14  15
ATOM     15  C   UNL     1     -95.205  73.495  21.821  1.00  0.00     0.000 C 
BRANCH  15  16
ATOM     16  C   UNL     1     -95.506  72.897  23.208  1.00  0.00     0.006 C 
BRANCH  16  17
ATOM     17  C   UNL     1     -96.047  73.935  24.199  1.00  0.00     0.053 C 
BRANCH  17  18
ATOM     18  C   UNL     1     -97.533  73.815  24.319  1.00  0.00     0.041 C 
ATOM     19  O   UNL     1     -98.286  74.521  23.596  1.00  0.00    -0.550 OA
ATOM     20  O   UNL     1     -98.090  72.961  25.263  1.00  0.00    -0.550 OA
ENDBRANCH  17  18
ENDBRANCH  16  17
ENDBRANCH  15  16
ENDBRANCH  14  15
ENDBRANCH  13  14
ENDBRANCH  12  13
ENDBRANCH  11  12
ENDBRANCH   1  11
TORSDOF 15
ENDMDL
MODEL 4
REMARK VINA RESULT:    -3.417      1.508      2.382
REMARK INTER + INTRA:          -8.391
REMARK INTER:                  -5.967
REMARK INTRA:                  -2.424
REMARK UNBOUND:                -1.978
REMARK SMILES O=C([O-])CCCCCCCCCCCCCCC(=O)[O-]
REMARK SMILES IDX 10 1 9 2 8 3 7 4 6 5 5 6 4 7 2 8 1 9 3 10 11 11 12 12 13 13
REMARK SMILES IDX 14 14 15 15 16 16 17 17 18 18 19 19 20 20
REMARK H PARENT
REMARK Flexibility Score: inf
ROOT
ATOM      1  C   UNL     1     -99.445  69.013  25.801  1.00  0.00     0.000 C 
ENDROOT
BRANCH   1   2
ATOM      2  C   UNL     1     -99.453  68.408  24.386  1.00  0.00     0.000 C 
BRANCH   2   3
ATOM      3  C   UNL     1     -98.815  69.286  23.289  1.00  0.00     0.000 C 
BRANCH   3   4
ATOM      4  C   UNL     1     -99.774  70.278  22.606  1.00  0.00     0.000 C 
BRANCH   4   5
ATOM      5  C   UNL     1     -99.296  71.733  22.704  1.00  0.00     0.000 C 
BRANCH   5   6
ATOM      6  C   UNL     1     -97.984  71.828  23.497  1.00  0.00     0.006 C 
BRANCH   6   7
ATOM      7  C   UNL     1     -97.602  73.280  23.816  1.00  0.00     0.053 C 
BRANCH   7   8
ATOM      8  C   UNL     1     -96.117  73.459  23.888  1.00  0.00     0.041 C 
ATOM      9  O   UNL     1     -95.619  74.315  24.666  1.00  0.00    -0.550 OA
ATOM     10  O   UNL     1     -95.282  72.658  23.120  1.00  0.00    -0.550 OA
ENDBRANCH   7   8
ENDBRANCH   6   7
ENDBRANCH   5   6
ENDBRANCH   4   5
ENDBRANCH   3   4
ENDBRANCH   2   3
ENDBRANCH   1   2
BRANCH   1  11
ATOM     11  C   UNL     1    -100.785  68.834  26.535  1.00  0.00     0.000 C 
BRANCH  11  12
ATOM     12  C   UNL     1    -101.547  70.158  26.721  1.00  0.00     0.000 C 
BRANCH  12  13
ATOM     13  C   UNL     1    -100.941  71.373  25.989  1.00  0.00     0.000 C 
BRANCH  13  14
ATOM     14  C   UNL     1    -100.453  72.512  26.906  1.00  0.00     0.000 C 
BRANCH  14  15
ATOM     15  C   UNL     1     -98.927  72.566  27.122  1.00  0.00     0.000 C 
BRANCH  15  16
ATOM     16  C   UNL     1     -98.459  72.192  28.540  1.00  0.00     0.006 C 
BRANCH  16  17
ATOM     17  C   UNL     1     -97.945  70.750  28.636  1.00  0.00     0.053 C 
BRANCH  17  18
ATOM     18  C   UNL     1     -98.870  69.921  29.469  1.00  0.00     0.041 C 
ATOM     19  O   UNL     1     -98.668  68.684  29.599  1.00  0.00    -0.550 OA
ATOM     20  O   UNL     1     -99.983  70.503  30.062  1.00  0.00    -0.550 OA
ENDBRANCH  17  18
ENDBRANCH  16  17
ENDBRANCH  15  16
ENDBRANCH  14  15
ENDBRANCH  13  14
ENDBRANCH  12  13
ENDBRANCH  11  12
ENDBRANCH   1  11
TORSDOF 15
ENDMDL
MODEL 5
REMARK VINA RESULT:    -3.397      2.494      6.865
REMARK INTER + INTRA:          -8.354
REMARK INTER:                  -6.569
REMARK INTRA:                  -1.784
REMARK UNBOUND:                -1.978
REMARK SMILES O=C([O-])CCCCCCCCCCCCCCC(=O)[O-]
REMARK SMILES IDX 10 1 9 2 8 3 7 4 6 5 5 6 4 7 2 8 1 9 3 10 11 11 12 12 13 13
REMARK SMILES IDX 14 14 15 15 16 16 17 17 18 18 19 19 20 20
REMARK H PARENT
REMARK Flexibility Score: inf
ROOT
ATOM      1  C   UNL     1     -96.234  74.035  24.213  1.00  0.00     0.000 C 
ENDROOT
BRANCH   1   2
ATOM      2  C   UNL     1     -97.733  73.781  24.453  1.00  0.00     0.000 C 
BRANCH   2   3
ATOM      3  C   UNL     1     -98.099  73.273  25.863  1.00  0.00     0.000 C 
BRANCH   3   4
ATOM      4  C   UNL     1     -98.899  71.958  25.897  1.00  0.00     0.000 C 
BRANCH   4   5
ATOM      5  C   UNL     1     -98.728  71.190  27.215  1.00  0.00     0.000 C 
BRANCH   5   6
ATOM      6  C   UNL     1     -98.608  69.680  26.959  1.00  0.00     0.006 C 
BRANCH   6   7
ATOM      7  C   UNL     1     -99.796  68.897  27.533  1.00  0.00     0.053 C 
BRANCH   7   8
ATOM      8  C   UNL     1     -99.678  68.718  29.015  1.00  0.00     0.041 C 
ATOM      9  O   UNL     1    -100.450  69.339  29.792  1.00  0.00    -0.550 OA
ATOM     10  O   UNL     1     -98.735  67.841  29.537  1.00  0.00    -0.550 OA
ENDBRANCH   7   8
ENDBRANCH   6   7
ENDBRANCH   5   6
ENDBRANCH   4   5
ENDBRANCH   3   4
ENDBRANCH   2   3
ENDBRANCH   1   2
BRANCH   1  11
ATOM     11  C   UNL     1     -95.575  72.948  23.347  1.00  0.00     0.000 C 
BRANCH  11  12
ATOM     12  C   UNL     1     -95.153  73.462  21.959  1.00  0.00     0.000 C 
BRANCH  12  13
ATOM     13  C   UNL     1     -95.855  72.783  20.765  1.00  0.00     0.000 C 
BRANCH  13  14
ATOM     14  C   UNL     1     -96.826  71.646  21.140  1.00  0.00     0.000 C 
BRANCH  14  15
ATOM     15  C   UNL     1     -98.322  72.006  21.038  1.00  0.00     0.000 C 
BRANCH  15  16
ATOM     16  C   UNL     1     -99.235  71.281  22.045  1.00  0.00     0.006 C 
BRANCH  16  17
ATOM     17  C   UNL     1     -98.550  70.083  22.714  1.00  0.00     0.053 C 
BRANCH  17  18
ATOM     18  C   UNL     1     -99.547  69.273  23.479  1.00  0.00     0.041 C 
ATOM     19  O   UNL     1    -100.636  69.789  23.845  1.00  0.00    -0.550 OA
ATOM     20  O   UNL     1     -99.254  67.962  23.833  1.00  0.00    -0.550 OA
ENDBRANCH  17  18
ENDBRANCH  16  17
ENDBRANCH  15  16
ENDBRANCH  14  15
ENDBRANCH  13  14
ENDBRANCH  12  13
ENDBRANCH  11  12
ENDBRANCH   1  11
TORSDOF 15
ENDMDL
MODEL 6
REMARK VINA RESULT:    -3.338      3.310      5.029
REMARK INTER + INTRA:          -8.242
REMARK INTER:                  -5.723
REMARK INTRA:                  -2.520
REMARK UNBOUND:                -1.978
REMARK SMILES O=C([O-])CCCCCCCCCCCCCCC(=O)[O-]
REMARK SMILES IDX 10 1 9 2 8 3 7 4 6 5 5 6 4 7 2 8 1 9 3 10 11 11 12 12 13 13
REMARK SMILES IDX 14 14 15 15 16 16 17 17 18 18 19 19 20 20
REMARK H PARENT
REMARK Flexibility Score: inf
ROOT
ATOM      1  C   UNL     1     -97.843  72.329  22.737  1.00  0.00     0.000 C 
ENDROOT
BRANCH   1   2
ATOM      2  C   UNL     1     -97.508  72.159  24.230  1.00  0.00     0.000 C 
BRANCH   2   3
ATOM      3  C   UNL     1     -98.637  72.545  25.208  1.00  0.00     0.000 C 
BRANCH   3   4
ATOM      4  C   UNL     1     -99.845  73.250  24.565  1.00  0.00     0.000 C 
BRANCH   4   5
ATOM      5  C   UNL     1    -101.185  72.799  25.161  1.00  0.00     0.000 C 
BRANCH   5   6
ATOM      6  C   UNL     1    -102.211  72.516  24.054  1.00  0.00     0.006 C 
BRANCH   6   7
ATOM      7  C   UNL     1    -103.116  71.323  24.391  1.00  0.00     0.053 C 
BRANCH   7   8
ATOM      8  C   UNL     1    -103.944  70.905  23.215  1.00  0.00     0.041 C 
ATOM      9  O   UNL     1    -103.402  70.347  22.224  1.00  0.00    -0.550 OA
ATOM     10  O   UNL     1    -105.319  71.104  23.226  1.00  0.00    -0.550 OA
ENDBRANCH   7   8
ENDBRANCH   6   7
ENDBRANCH   5   6
ENDBRANCH   4   5
ENDBRANCH   3   4
ENDBRANCH   2   3
ENDBRANCH   1   2
BRANCH   1  11
ATOM     11  C   UNL     1     -98.142  70.994  22.035  1.00  0.00     0.000 C 
BRANCH  11  12
ATOM     12  C   UNL     1     -99.644  70.659  22.003  1.00  0.00     0.000 C 
BRANCH  12  13
ATOM     13  C   UNL     1    -100.122  69.677  23.093  1.00  0.00     0.000 C 
BRANCH  13  14
ATOM     14  C   UNL     1     -99.032  68.742  23.653  1.00  0.00     0.000 C 
BRANCH  14  15
ATOM     15  C   UNL     1     -99.107  68.491  25.172  1.00  0.00     0.000 C 
BRANCH  15  16
ATOM     16  C   UNL     1    -100.093  69.397  25.933  1.00  0.00     0.006 C 
BRANCH  16  17
ATOM     17  C   UNL     1    -100.140  69.095  27.436  1.00  0.00     0.053 C 
BRANCH  17  18
ATOM     18  C   UNL     1     -98.787  69.278  28.047  1.00  0.00     0.041 C 
ATOM     19  O   UNL     1     -98.176  70.371  27.919  1.00  0.00    -0.550 OA
ATOM     20  O   UNL     1     -98.178  68.224  28.717  1.00  0.00    -0.550 OA
ENDBRANCH  17  18
ENDBRANCH  16  17
ENDBRANCH  15  16
ENDBRANCH  14  15
ENDBRANCH  13  14
ENDBRANCH  12  13
ENDBRANCH  11  12
ENDBRANCH   1  11
TORSDOF 15
ENDMDL
MODEL 7
REMARK VINA RESULT:    -3.337      2.799      6.855
REMARK INTER + INTRA:          -8.241
REMARK INTER:                  -5.526
REMARK INTRA:                  -2.715
REMARK UNBOUND:                -1.978
REMARK SMILES O=C([O-])CCCCCCCCCCCCCCC(=O)[O-]
REMARK SMILES IDX 10 1 9 2 8 3 7 4 6 5 5 6 4 7 2 8 1 9 3 10 11 11 12 12 13 13
REMARK SMILES IDX 14 14 15 15 16 16 17 17 18 18 19 19 20 20
REMARK H PARENT
REMARK Flexibility Score: inf
ROOT
ATOM      1  C   UNL     1     -98.288  71.893  22.771  1.00  0.00     0.000 C 
ENDROOT
BRANCH   1   2
ATOM      2  C   UNL     1     -98.365  70.396  22.424  1.00  0.00     0.000 C 
BRANCH   2   3
ATOM      3  C   UNL     1     -99.498  69.614  23.121  1.00  0.00     0.000 C 
BRANCH   3   4
ATOM      4  C   UNL     1     -99.038  68.632  24.214  1.00  0.00     0.000 C 
BRANCH   4   5
ATOM      5  C   UNL     1     -99.747  68.860  25.556  1.00  0.00     0.000 C 
BRANCH   5   6
ATOM      6  C   UNL     1     -98.761  69.372  26.617  1.00  0.00     0.006 C 
BRANCH   6   7
ATOM      7  C   UNL     1     -99.467  70.132  27.748  1.00  0.00     0.053 C 
BRANCH   7   8
ATOM      8  C   UNL     1    -100.388  69.241  28.523  1.00  0.00     0.041 C 
ATOM      9  O   UNL     1    -101.595  69.563  28.684  1.00  0.00    -0.550 OA
ATOM     10  O   UNL     1     -99.922  68.039  29.041  1.00  0.00    -0.550 OA
ENDBRANCH   7   8
ENDBRANCH   6   7
ENDBRANCH   5   6
ENDBRANCH   4   5
ENDBRANCH   3   4
ENDBRANCH   2   3
ENDBRANCH   1   2
BRANCH   1  11
ATOM     11  C   UNL     1     -97.706  72.153  24.171  1.00  0.00     0.000 C 
BRANCH  11  12
ATOM     12  C   UNL     1     -98.743  72.731  25.152  1.00  0.00     0.000 C 
BRANCH  12  13
ATOM     13  C   UNL     1    -100.158  72.926  24.572  1.00  0.00     0.000 C 
BRANCH  13  14
ATOM     14  C   UNL     1    -101.297  72.308  25.407  1.00  0.00     0.000 C 
BRANCH  14  15
ATOM     15  C   UNL     1    -102.269  71.407  24.619  1.00  0.00     0.000 C 
BRANCH  15  16
ATOM     16  C   UNL     1    -102.492  71.820  23.152  1.00  0.00     0.006 C 
BRANCH  16  17
ATOM     17  C   UNL     1    -102.875  70.638  22.253  1.00  0.00     0.053 C 
BRANCH  17  18
ATOM     18  C   UNL     1    -102.257  70.791  20.899  1.00  0.00     0.041 C 
ATOM     19  O   UNL     1    -101.285  71.573  20.731  1.00  0.00    -0.550 OA
ATOM     20  O   UNL     1    -102.786  70.108  19.811  1.00  0.00    -0.550 OA
ENDBRANCH  17  18
ENDBRANCH  16  17
ENDBRANCH  15  16
ENDBRANCH  14  15
ENDBRANCH  13  14
ENDBRANCH  12  13
ENDBRANCH  11  12
ENDBRANCH   1  11
TORSDOF 15
ENDMDL
MODEL 8
REMARK VINA RESULT:    -3.334      3.360      6.863
REMARK INTER + INTRA:          -8.235
REMARK INTER:                  -5.899
REMARK INTRA:                  -2.336
REMARK UNBOUND:                -1.978
REMARK SMILES O=C([O-])CCCCCCCCCCCCCCC(=O)[O-]
REMARK SMILES IDX 10 1 9 2 8 3 7 4 6 5 5 6 4 7 2 8 1 9 3 10 11 11 12 12 13 13
REMARK SMILES IDX 14 14 15 15 16 16 17 17 18 18 19 19 20 20
REMARK H PARENT
REMARK Flexibility Score: inf
ROOT
ATOM      1  C   UNL     1     -99.921  71.700  25.705  1.00  0.00     0.000 C 
ENDROOT
BRANCH   1   2
ATOM      2  C   UNL     1    -101.189  70.833  25.803  1.00  0.00     0.000 C 
BRANCH   2   3
ATOM      3  C   UNL     1    -102.042  71.050  27.069  1.00  0.00     0.000 C 
BRANCH   3   4
ATOM      4  C   UNL     1    -101.886  69.969  28.154  1.00  0.00     0.000 C 
BRANCH   4   5
ATOM      5  C   UNL     1    -101.070  68.759  27.678  1.00  0.00     0.000 C 
BRANCH   5   6
ATOM      6  C   UNL     1    -100.026  68.353  28.728  1.00  0.00     0.006 C 
BRANCH   6   7
ATOM      7  C   UNL     1     -98.637  68.930  28.419  1.00  0.00     0.053 C 
BRANCH   7   8
ATOM      8  C   UNL     1     -98.424  70.251  29.093  1.00  0.00     0.041 C 
ATOM      9  O   UNL     1     -97.751  71.151  28.525  1.00  0.00    -0.550 OA
ATOM     10  O   UNL     1     -98.995  70.498  30.335  1.00  0.00    -0.550 OA
ENDBRANCH   7   8
ENDBRANCH   6   7
ENDBRANCH   5   6
ENDBRANCH   4   5
ENDBRANCH   3   4
ENDBRANCH   2   3
ENDBRANCH   1   2
BRANCH   1  11
ATOM     11  C   UNL     1     -98.695  70.914  25.211  1.00  0.00     0.000 C 
BRANCH  11  12
ATOM     12  C   UNL     1     -99.050  69.498  24.722  1.00  0.00     0.000 C 
BRANCH  12  13
ATOM     13  C   UNL     1     -99.084  69.322  23.190  1.00  0.00     0.000 C 
BRANCH  13  14
ATOM     14  C   UNL     1     -98.619  70.548  22.381  1.00  0.00     0.000 C 
BRANCH  14  15
ATOM     15  C   UNL     1     -99.747  71.339  21.689  1.00  0.00     0.000 C 
BRANCH  15  16
ATOM     16  C   UNL     1    -101.152  70.725  21.830  1.00  0.00     0.006 C 
BRANCH  16  17
ATOM     17  C   UNL     1    -102.180  71.714  22.394  1.00  0.00     0.053 C 
BRANCH  17  18
ATOM     18  C   UNL     1    -103.395  70.986  22.874  1.00  0.00     0.041 C 
ATOM     19  O   UNL     1    -103.764  69.925  22.305  1.00  0.00    -0.550 OA
ATOM     20  O   UNL     1    -104.150  71.505  23.919  1.00  0.00    -0.550 OA
ENDBRANCH  17  18
ENDBRANCH  16  17
ENDBRANCH  15  16
ENDBRANCH  14  15
ENDBRANCH  13  14
ENDBRANCH  12  13
ENDBRANCH  11  12
ENDBRANCH   1  11
TORSDOF 15
ENDMDL
MODEL 9
REMARK VINA RESULT:    -3.320      1.411      7.275
REMARK INTER + INTRA:          -8.208
REMARK INTER:                  -6.352
REMARK INTRA:                  -1.857
REMARK UNBOUND:                -1.978
REMARK SMILES O=C([O-])CCCCCCCCCCCCCCC(=O)[O-]
REMARK SMILES IDX 10 1 9 2 8 3 7 4 6 5 5 6 4 7 2 8 1 9 3 10 11 11 12 12 13 13
REMARK SMILES IDX 14 14 15 15 16 16 17 17 18 18 19 19 20 20
REMARK H PARENT
REMARK Flexibility Score: inf
ROOT
ATOM      1  C   UNL     1     -99.456  71.145  22.443  1.00  0.00     0.000 C 
ENDROOT
BRANCH   1   2
ATOM      2  C   UNL     1     -98.680  69.853  22.759  1.00  0.00     0.000 C 
BRANCH   2   3
ATOM      3  C   UNL     1     -99.429  68.832  23.640  1.00  0.00     0.000 C 
BRANCH   3   4
ATOM      4  C   UNL     1     -99.002  68.809  25.119  1.00  0.00     0.000 C 
BRANCH   4   5
ATOM      5  C   UNL     1    -100.169  69.075  26.080  1.00  0.00     0.000 C 
BRANCH   5   6
ATOM      6  C   UNL     1    -100.064  70.478  26.697  1.00  0.00     0.006 C 
BRANCH   6   7
ATOM      7  C   UNL     1     -98.607  70.906  26.922  1.00  0.00     0.053 C 
BRANCH   7   8
ATOM      8  C   UNL     1     -98.189  70.722  28.348  1.00  0.00     0.041 C 
ATOM      9  O   UNL     1     -97.657  71.672  28.980  1.00  0.00    -0.550 OA
ATOM     10  O   UNL     1     -98.417  69.510  28.989  1.00  0.00    -0.550 OA
ENDBRANCH   7   8
ENDBRANCH   6   7
ENDBRANCH   5   6
ENDBRANCH   4   5
ENDBRANCH   3   4
ENDBRANCH   2   3
ENDBRANCH   1   2
BRANCH   1  11
ATOM     11  C   UNL     1     -98.913  72.368  23.201  1.00  0.00     0.000 C 
BRANCH  11  12
ATOM     12  C   UNL     1     -97.448  72.197  23.642  1.00  0.00     0.000 C 
BRANCH  12  13
ATOM     13  C   UNL     1     -96.794  73.454  24.250  1.00  0.00     0.000 C 
BRANCH  13  14
ATOM     14  C   UNL     1     -95.812  74.195  23.321  1.00  0.00     0.000 C 
BRANCH  14  15
ATOM     15  C   UNL     1     -96.472  75.121  22.280  1.00  0.00     0.000 C 
BRANCH  15  16
ATOM     16  C   UNL     1     -96.058  74.858  20.820  1.00  0.00     0.006 C 
BRANCH  16  17
ATOM     17  C   UNL     1     -95.260  73.559  20.653  1.00  0.00     0.053 C 
BRANCH  17  18
ATOM     18  C   UNL     1     -95.995  72.607  19.763  1.00  0.00     0.041 C 
ATOM     19  O   UNL     1     -97.170  72.254  20.045  1.00  0.00    -0.550 OA
ATOM     20  O   UNL     1     -95.365  72.070  18.647  1.00  0.00    -0.550 OA
ENDBRANCH  17  18
ENDBRANCH  16  17
ENDBRANCH  15  16
ENDBRANCH  14  15
ENDBRANCH  13  14
ENDBRANCH  12  13
ENDBRANCH  11  12
ENDBRANCH   1  11
TORSDOF 15
ENDMDL
