MODEL 1
REMARK VINA RESULT:    -4.308      0.000      0.000
REMARK INTER + INTRA:          -6.688
REMARK INTER:                  -6.574
REMARK INTRA:                  -0.113
REMARK UNBOUND:                -0.113
REMARK SMILES CC1=CCC[C@H](C)C(=O)C[C@@H](C(C)C)C(=O)C1
REMARK SMILES IDX 8 1 9 2 6 3 7 4 5 5 4 6 3 7 2 8 1 9 10 11 11 12 15 13 16 14
REMARK SMILES IDX 17 15 12 17 13 18 14 19
REMARK H PARENT
REMARK Flexibility Score: 70.00
ROOT
ATOM      1  C   UNL     1      13.172  16.590  24.748  1.00  0.00     0.136 C 
ATOM      2  O   UNL     1      12.575  16.060  23.821  1.00  0.00    -0.299 OA
ENDROOT
BRANCH   1   3
ATOM      3  C   UNL     1      12.990  16.062  26.153  1.00  0.00     0.053 C 
ATOM      4  C   UNL     1      12.398  14.648  26.142  1.00  0.00     0.016 C 
BRANCH   3   5
ATOM      5  C   UNL     1      14.355  16.101  26.885  1.00  0.00     0.015 C 
BRANCH   5   6
ATOM      6  C   UNL     1      15.421  15.111  26.376  1.00  0.00     0.028 C 
BRANCH   6   7
ATOM      7  C   UNL     1      16.835  15.634  26.233  1.00  0.00    -0.028 C 
ATOM      8  C   UNL     1      17.496  15.890  25.078  1.00  0.00    -0.070 CG0
ATOM      9  C   UNL     1      18.946  16.296  25.178  1.00  0.00     0.039 C 
ATOM     10  G   UNL     1      16.851  15.877  23.703  1.00  0.00     0.000 G0
ENDBRANCH   6   7
ENDBRANCH   5   6
ENDBRANCH   3   5
ENDBRANCH   1   3
BRANCH   1  11
ATOM     11  C   UNL     1      14.139  17.715  24.457  1.00  0.00     0.087 C 
BRANCH  11  12
ATOM     12  C   UNL     1      14.856  17.546  23.084  1.00  0.00     0.066 C 
BRANCH  12  13
ATOM     13  C   UNL     1      16.337  17.242  23.273  1.00  0.00     0.140 C 
ATOM     14  O   UNL     1      17.158  18.121  23.059  1.00  0.00    -0.299 OA
BRANCH  13  15
ATOM     15  C   UNL     1      16.832  15.869  23.684  1.00  0.00     0.106 CG0
ATOM     16  G   UNL     1      17.473  15.917  25.060  1.00  0.00     0.000 G0
ENDBRANCH  13  15
ENDBRANCH  12  13
BRANCH  12  17
ATOM     17  C   UNL     1      14.668  18.768  22.128  1.00  0.00    -0.006 C 
ATOM     18  C   UNL     1      13.754  19.873  22.689  1.00  0.00     0.008 C 
ATOM     19  C   UNL     1      14.168  18.329  20.741  1.00  0.00     0.008 C 
ENDBRANCH  12  17
ENDBRANCH  11  12
ENDBRANCH   1  11
TORSDOF 1
ENDMDL
MODEL 2
REMARK VINA RESULT:    -4.114      1.533      4.142
REMARK INTER + INTRA:          -6.392
REMARK INTER:                  -6.754
REMARK INTRA:                   0.362
REMARK UNBOUND:                -0.113
REMARK SMILES CC1=CCC[C@H](C)C(=O)C[C@@H](C(C)C)C(=O)C1
REMARK SMILES IDX 8 1 9 2 6 3 7 4 5 5 4 6 3 7 2 8 1 9 10 11 11 12 15 13 16 14
REMARK SMILES IDX 17 15 12 17 13 18 14 19
REMARK H PARENT
REMARK Flexibility Score: 70.00
ROOT
ATOM      1  C   UNL     1      13.445  17.505  23.666  1.00  0.00     0.136 C 
ATOM      2  O   UNL     1      13.094  18.460  24.344  1.00  0.00    -0.299 OA
ENDROOT
BRANCH   1   3
ATOM      3  C   UNL     1      14.584  17.662  22.685  1.00  0.00     0.053 C 
ATOM      4  C   UNL     1      14.353  18.858  21.753  1.00  0.00     0.016 C 
BRANCH   3   5
ATOM      5  C   UNL     1      15.910  17.803  23.472  1.00  0.00     0.015 C 
BRANCH   5   6
ATOM      6  C   UNL     1      16.883  16.610  23.372  1.00  0.00     0.028 C 
BRANCH   6   7
ATOM      7  C   UNL     1      17.376  16.011  24.671  1.00  0.00    -0.028 C 
ATOM      8  C   UNL     1      16.653  15.287  25.561  1.00  0.00    -0.070 CG0
ATOM      9  C   UNL     1      17.328  14.890  26.851  1.00  0.00     0.039 C 
ATOM     10  G   UNL     1      15.244  14.781  25.306  1.00  0.00     0.000 G0
ENDBRANCH   6   7
ENDBRANCH   5   6
ENDBRANCH   3   5
ENDBRANCH   1   3
BRANCH   1  11
ATOM     11  C   UNL     1      12.778  16.164  23.878  1.00  0.00     0.087 C 
BRANCH  11  12
ATOM     12  C   UNL     1      12.776  15.729  25.375  1.00  0.00     0.066 C 
BRANCH  12  13
ATOM     13  C   UNL     1      14.195  15.648  25.923  1.00  0.00     0.140 C 
ATOM     14  O   UNL     1      14.503  16.340  26.883  1.00  0.00    -0.299 OA
BRANCH  13  15
ATOM     15  C   UNL     1      15.253  14.762  25.296  1.00  0.00     0.106 CG0
ATOM     16  G   UNL     1      16.644  15.303  25.573  1.00  0.00     0.000 G0
ENDBRANCH  13  15
ENDBRANCH  12  13
BRANCH  12  17
ATOM     17  C   UNL     1      12.015  14.389  25.632  1.00  0.00    -0.006 C 
ATOM     18  C   UNL     1      10.868  14.114  24.641  1.00  0.00     0.008 C 
ATOM     19  C   UNL     1      11.490  14.306  27.076  1.00  0.00     0.008 C 
ENDBRANCH  12  17
ENDBRANCH  11  12
ENDBRANCH   1  11
TORSDOF 1
ENDMDL
MODEL 3
REMARK VINA RESULT:    -3.887      3.012      4.989
REMARK INTER + INTRA:          -6.046
REMARK INTER:                  -6.131
REMARK INTRA:                   0.085
REMARK UNBOUND:                -0.113
REMARK SMILES CC1=CCC[C@H](C)C(=O)C[C@@H](C(C)C)C(=O)C1
REMARK SMILES IDX 8 1 9 2 6 3 7 4 5 5 4 6 3 7 2 8 1 9 10 11 11 12 15 13 16 14
REMARK SMILES IDX 17 15 12 17 13 18 14 19
REMARK H PARENT
REMARK Flexibility Score: 70.00
ROOT
ATOM      1  C   UNL     1      14.553  16.585  24.452  1.00  0.00     0.136 C 
ATOM      2  O   UNL     1      15.473  17.359  24.674  1.00  0.00    -0.299 OA
ENDROOT
BRANCH   1   3
ATOM      3  C   UNL     1      14.103  15.628  25.533  1.00  0.00     0.053 C 
ATOM      4  C   UNL     1      14.719  15.993  26.889  1.00  0.00     0.016 C 
BRANCH   3   5
ATOM      5  C   UNL     1      12.556  15.628  25.593  1.00  0.00     0.015 C 
BRANCH   5   6
ATOM      6  C   UNL     1      11.861  14.355  25.071  1.00  0.00     0.028 C 
BRANCH   6   7
ATOM      7  C   UNL     1      10.484  14.520  24.463  1.00  0.00    -0.028 C 
ATOM      8  C   UNL     1      10.172  15.175  23.318  1.00  0.00    -0.070 CG0
ATOM      9  C   UNL     1       8.711  15.312  22.967  1.00  0.00     0.039 C 
ATOM     10  G   UNL     1      11.197  15.703  22.330  1.00  0.00     0.000 G0
ENDBRANCH   6   7
ENDBRANCH   5   6
ENDBRANCH   3   5
ENDBRANCH   1   3
BRANCH   1  11
ATOM     11  C   UNL     1      13.834  16.655  23.124  1.00  0.00     0.087 C 
BRANCH  11  12
ATOM     12  C   UNL     1      12.713  17.737  23.108  1.00  0.00     0.066 C 
BRANCH  12  13
ATOM     13  C   UNL     1      11.432  17.190  22.492  1.00  0.00     0.140 C 
ATOM     14  O   UNL     1      10.557  17.970  22.144  1.00  0.00    -0.299 OA
BRANCH  13  15
ATOM     15  C   UNL     1      11.188  15.702  22.327  1.00  0.00     0.106 CG0
ATOM     16  G   UNL     1      10.154  15.211  23.326  1.00  0.00     0.000 G0
ENDBRANCH  13  15
ENDBRANCH  12  13
BRANCH  12  17
ATOM     17  C   UNL     1      13.137  19.062  22.397  1.00  0.00    -0.006 C 
ATOM     18  C   UNL     1      14.340  18.912  21.448  1.00  0.00     0.008 C 
ATOM     19  C   UNL     1      13.409  20.186  23.412  1.00  0.00     0.008 C 
ENDBRANCH  12  17
ENDBRANCH  11  12
ENDBRANCH   1  11
TORSDOF 1
ENDMDL
MODEL 4
REMARK VINA RESULT:    -3.732      2.779      5.917
REMARK INTER + INTRA:          -5.809
REMARK INTER:                  -5.491
REMARK INTRA:                  -0.318
REMARK UNBOUND:                -0.113
REMARK SMILES CC1=CCC[C@H](C)C(=O)C[C@@H](C(C)C)C(=O)C1
REMARK SMILES IDX 8 1 9 2 6 3 7 4 5 5 4 6 3 7 2 8 1 9 10 11 11 12 15 13 16 14
REMARK SMILES IDX 17 15 12 17 13 18 14 19
REMARK H PARENT
REMARK Flexibility Score: 70.00
ROOT
ATOM      1  C   UNL     1      13.860  18.558  23.890  1.00  0.00     0.136 C 
ATOM      2  O   UNL     1      15.065  18.496  23.690  1.00  0.00    -0.299 OA
ENDROOT
BRANCH   1   3
ATOM      3  C   UNL     1      13.015  19.512  23.077  1.00  0.00     0.053 C 
ATOM      4  C   UNL     1      13.384  20.971  23.374  1.00  0.00     0.016 C 
BRANCH   3   5
ATOM      5  C   UNL     1      13.182  19.178  21.574  1.00  0.00     0.015 C 
BRANCH   5   6
ATOM      6  C   UNL     1      12.414  17.940  21.070  1.00  0.00     0.028 C 
BRANCH   6   7
ATOM      7  C   UNL     1      11.058  17.670  21.688  1.00  0.00    -0.028 C 
ATOM      8  C   UNL     1      10.658  16.536  22.312  1.00  0.00    -0.070 CG0
ATOM      9  C   UNL     1       9.215  16.450  22.748  1.00  0.00     0.039 C 
ATOM     10  G   UNL     1      11.584  15.388  22.675  1.00  0.00     0.000 G0
ENDBRANCH   6   7
ENDBRANCH   5   6
ENDBRANCH   3   5
ENDBRANCH   1   3
BRANCH   1  11
ATOM     11  C   UNL     1      13.230  17.621  24.895  1.00  0.00     0.087 C 
BRANCH  11  12
ATOM     12  C   UNL     1      13.394  16.122  24.500  1.00  0.00     0.066 C 
BRANCH  12  13
ATOM     13  C   UNL     1      12.053  15.503  24.131  1.00  0.00     0.140 C 
ATOM     14  O   UNL     1      11.342  15.050  25.016  1.00  0.00    -0.299 OA
BRANCH  13  15
ATOM     15  C   UNL     1      11.583  15.395  22.693  1.00  0.00     0.106 CG0
ATOM     16  G   UNL     1      10.670  16.555  22.336  1.00  0.00     0.000 G0
ENDBRANCH  13  15
ENDBRANCH  12  13
BRANCH  12  17
ATOM     17  C   UNL     1      14.109  15.265  25.594  1.00  0.00    -0.006 C 
ATOM     18  C   UNL     1      14.220  15.957  26.965  1.00  0.00     0.008 C 
ATOM     19  C   UNL     1      15.500  14.800  25.128  1.00  0.00     0.008 C 
ENDBRANCH  12  17
ENDBRANCH  11  12
ENDBRANCH   1  11
TORSDOF 1
ENDMDL
MODEL 5
REMARK VINA RESULT:    -3.708      3.057      5.033
REMARK INTER + INTRA:          -5.773
REMARK INTER:                  -5.414
REMARK INTRA:                  -0.359
REMARK UNBOUND:                -0.113
REMARK SMILES CC1=CCC[C@H](C)C(=O)C[C@@H](C(C)C)C(=O)C1
REMARK SMILES IDX 8 1 9 2 6 3 7 4 5 5 4 6 3 7 2 8 1 9 10 11 11 12 15 13 16 14
REMARK SMILES IDX 17 15 12 17 13 18 14 19
REMARK H PARENT
REMARK Flexibility Score: 70.00
ROOT
ATOM      1  C   UNL     1      17.860  17.105  23.974  1.00  0.00     0.136 C 
ATOM      2  O   UNL     1      17.310  17.767  23.106  1.00  0.00    -0.299 OA
ENDROOT
BRANCH   1   3
ATOM      3  C   UNL     1      17.154  15.904  24.560  1.00  0.00     0.053 C 
ATOM      4  C   UNL     1      15.713  16.246  24.956  1.00  0.00     0.016 C 
BRANCH   3   5
ATOM      5  C   UNL     1      17.202  14.743  23.536  1.00  0.00     0.015 C 
BRANCH   5   6
ATOM      6  C   UNL     1      18.144  13.573  23.886  1.00  0.00     0.028 C 
BRANCH   6   7
ATOM      7  C   UNL     1      18.699  13.533  25.294  1.00  0.00    -0.028 C 
ATOM      8  C   UNL     1      19.987  13.726  25.668  1.00  0.00    -0.070 CG0
ATOM      9  C   UNL     1      20.331  13.521  27.123  1.00  0.00     0.039 C 
ATOM     10  G   UNL     1      21.083  14.215  24.737  1.00  0.00     0.000 G0
ENDBRANCH   6   7
ENDBRANCH   5   6
ENDBRANCH   3   5
ENDBRANCH   1   3
BRANCH   1  11
ATOM     11  C   UNL     1      19.270  17.461  24.391  1.00  0.00     0.087 C 
BRANCH  11  12
ATOM     12  C   UNL     1      20.341  16.568  23.695  1.00  0.00     0.066 C 
BRANCH  12  13
ATOM     13  C   UNL     1      21.117  15.747  24.716  1.00  0.00     0.140 C 
ATOM     14  O   UNL     1      21.818  16.323  25.536  1.00  0.00    -0.299 OA
BRANCH  13  15
ATOM     15  C   UNL     1      21.079  14.231  24.728  1.00  0.00     0.106 CG0
ATOM     16  G   UNL     1      20.011  13.726  25.681  1.00  0.00     0.000 G0
ENDBRANCH  13  15
ENDBRANCH  12  13
BRANCH  12  17
ATOM     17  C   UNL     1      21.322  17.371  22.781  1.00  0.00    -0.006 C 
ATOM     18  C   UNL     1      20.952  18.856  22.611  1.00  0.00     0.008 C 
ATOM     19  C   UNL     1      21.478  16.709  21.401  1.00  0.00     0.008 C 
ENDBRANCH  12  17
ENDBRANCH  11  12
ENDBRANCH   1  11
TORSDOF 1
ENDMDL
MODEL 6
REMARK VINA RESULT:    -3.571     10.269     12.684
REMARK INTER + INTRA:          -5.563
REMARK INTER:                  -5.307
REMARK INTRA:                  -0.256
REMARK UNBOUND:                -0.113
REMARK SMILES CC1=CCC[C@H](C)C(=O)C[C@@H](C(C)C)C(=O)C1
REMARK SMILES IDX 8 1 9 2 6 3 7 4 5 5 4 6 3 7 2 8 1 9 10 11 11 12 15 13 16 14
REMARK SMILES IDX 17 15 12 17 13 18 14 19
REMARK H PARENT
REMARK Flexibility Score: 70.00
ROOT
ATOM      1  C   UNL     1      18.192  16.281  14.690  1.00  0.00     0.136 C 
ATOM      2  O   UNL     1      18.345  17.095  15.590  1.00  0.00    -0.299 OA
ENDROOT
BRANCH   1   3
ATOM      3  C   UNL     1      16.833  16.125  14.046  1.00  0.00     0.053 C 
ATOM      4  C   UNL     1      15.839  15.455  15.002  1.00  0.00     0.016 C 
BRANCH   3   5
ATOM      5  C   UNL     1      16.330  17.516  13.587  1.00  0.00     0.015 C 
BRANCH   5   6
ATOM      6  C   UNL     1      16.840  17.997  12.213  1.00  0.00     0.028 C 
BRANCH   6   7
ATOM      7  C   UNL     1      17.271  16.933  11.226  1.00  0.00    -0.028 C 
ATOM      8  C   UNL     1      18.526  16.704  10.771  1.00  0.00    -0.070 CG0
ATOM      9  C   UNL     1      18.700  15.660   9.695  1.00  0.00     0.039 C 
ATOM     10  G   UNL     1      19.772  17.369  11.330  1.00  0.00     0.000 G0
ENDBRANCH   6   7
ENDBRANCH   5   6
ENDBRANCH   3   5
ENDBRANCH   1   3
BRANCH   1  11
ATOM     11  C   UNL     1      19.386  15.500  14.190  1.00  0.00     0.087 C 
BRANCH  11  12
ATOM     12  C   UNL     1      20.536  16.424  13.689  1.00  0.00     0.066 C 
BRANCH  12  13
ATOM     13  C   UNL     1      20.613  16.427  12.168  1.00  0.00     0.140 C 
ATOM     14  O   UNL     1      21.385  15.662  11.608  1.00  0.00    -0.299 OA
BRANCH  13  15
ATOM     15  C   UNL     1      19.787  17.375  11.320  1.00  0.00     0.106 CG0
ATOM     16  G   UNL     1      18.550  16.679  10.781  1.00  0.00     0.000 G0
ENDBRANCH  13  15
ENDBRANCH  12  13
BRANCH  12  17
ATOM     17  C   UNL     1      21.929  16.075  14.305  1.00  0.00    -0.006 C 
ATOM     18  C   UNL     1      21.857  15.432  15.703  1.00  0.00     0.008 C 
ATOM     19  C   UNL     1      22.855  17.302  14.340  1.00  0.00     0.008 C 
ENDBRANCH  12  17
ENDBRANCH  11  12
ENDBRANCH   1  11
TORSDOF 1
ENDMDL
MODEL 7
REMARK VINA RESULT:    -3.546      2.237      4.472
REMARK INTER + INTRA:          -5.525
REMARK INTER:                  -5.346
REMARK INTRA:                  -0.179
REMARK UNBOUND:                -0.113
REMARK SMILES CC1=CCC[C@H](C)C(=O)C[C@@H](C(C)C)C(=O)C1
REMARK SMILES IDX 8 1 9 2 6 3 7 4 5 5 4 6 3 7 2 8 1 9 10 11 11 12 15 13 16 14
REMARK SMILES IDX 17 15 12 17 13 18 14 19
REMARK H PARENT
REMARK Flexibility Score: 70.00
ROOT
ATOM      1  C   UNL     1      14.337  15.458  25.332  1.00  0.00     0.136 C 
ATOM      2  O   UNL     1      14.430  14.241  25.256  1.00  0.00    -0.299 OA
ENDROOT
BRANCH   1   3
ATOM      3  C   UNL     1      15.576  16.288  25.578  1.00  0.00     0.053 C 
ATOM      4  C   UNL     1      16.202  15.961  26.940  1.00  0.00     0.016 C 
BRANCH   3   5
ATOM      5  C   UNL     1      16.579  16.053  24.421  1.00  0.00     0.015 C 
BRANCH   5   6
ATOM      6  C   UNL     1      16.299  16.830  23.119  1.00  0.00     0.028 C 
BRANCH   6   7
ATOM      7  C   UNL     1      15.481  18.099  23.235  1.00  0.00    -0.028 C 
ATOM      8  C   UNL     1      14.285  18.354  22.653  1.00  0.00    -0.070 CG0
ATOM      9  C   UNL     1      13.708  19.739  22.816  1.00  0.00     0.039 C 
ATOM     10  G   UNL     1      13.452  17.315  21.922  1.00  0.00     0.000 G0
ENDBRANCH   6   7
ENDBRANCH   5   6
ENDBRANCH   3   5
ENDBRANCH   1   3
BRANCH   1  11
ATOM     11  C   UNL     1      12.994  16.113  25.101  1.00  0.00     0.087 C 
BRANCH  11  12
ATOM     12  C   UNL     1      12.350  15.692  23.745  1.00  0.00     0.066 C 
BRANCH  12  13
ATOM     13  C   UNL     1      12.269  16.874  22.788  1.00  0.00     0.140 C 
ATOM     14  O   UNL     1      11.214  17.480  22.677  1.00  0.00    -0.299 OA
BRANCH  13  15
ATOM     15  C   UNL     1      13.448  17.305  21.937  1.00  0.00     0.106 CG0
ATOM     16  G   UNL     1      14.275  18.357  22.654  1.00  0.00     0.000 G0
ENDBRANCH  13  15
ENDBRANCH  12  13
BRANCH  12  17
ATOM     17  C   UNL     1      10.948  15.021  23.903  1.00  0.00    -0.006 C 
ATOM     18  C   UNL     1      10.750  14.282  25.240  1.00  0.00     0.008 C 
ATOM     19  C   UNL     1      10.639  14.074  22.731  1.00  0.00     0.008 C 
ENDBRANCH  12  17
ENDBRANCH  11  12
ENDBRANCH   1  11
TORSDOF 1
ENDMDL
MODEL 8
REMARK VINA RESULT:    -3.459      2.089      4.757
REMARK INTER + INTRA:          -5.393
REMARK INTER:                  -5.853
REMARK INTRA:                   0.461
REMARK UNBOUND:                -0.113
REMARK SMILES CC1=CCC[C@H](C)C(=O)C[C@@H](C(C)C)C(=O)C1
REMARK SMILES IDX 8 1 9 2 6 3 7 4 5 5 4 6 3 7 2 8 1 9 10 11 11 12 15 13 16 14
REMARK SMILES IDX 17 15 12 17 13 18 14 19
REMARK H PARENT
REMARK Flexibility Score: 70.00
ROOT
ATOM      1  C   UNL     1      14.836  18.277  23.257  1.00  0.00     0.136 C 
ATOM      2  O   UNL     1      15.218  18.302  22.095  1.00  0.00    -0.299 OA
ENDROOT
BRANCH   1   3
ATOM      3  C   UNL     1      13.494  18.872  23.616  1.00  0.00     0.053 C 
ATOM      4  C   UNL     1      13.471  20.384  23.364  1.00  0.00     0.016 C 
BRANCH   3   5
ATOM      5  C   UNL     1      12.389  18.145  22.809  1.00  0.00     0.015 C 
BRANCH   5   6
ATOM      6  C   UNL     1      12.532  16.614  22.699  1.00  0.00     0.028 C 
BRANCH   6   7
ATOM      7  C   UNL     1      11.835  15.779  23.752  1.00  0.00    -0.028 C 
ATOM      8  C   UNL     1      12.338  15.392  24.951  1.00  0.00    -0.070 CG0
ATOM      9  C   UNL     1      11.501  14.460  25.792  1.00  0.00     0.039 C 
ATOM     10  G   UNL     1      13.644  15.903  25.534  1.00  0.00     0.000 G0
ENDBRANCH   6   7
ENDBRANCH   5   6
ENDBRANCH   3   5
ENDBRANCH   1   3
BRANCH   1  11
ATOM     11  C   UNL     1      15.685  17.583  24.298  1.00  0.00     0.087 C 
BRANCH  11  12
ATOM     12  C   UNL     1      15.817  16.052  24.037  1.00  0.00     0.066 C 
BRANCH  12  13
ATOM     13  C   UNL     1      14.841  15.263  24.899  1.00  0.00     0.140 C 
ATOM     14  O   UNL     1      15.016  14.063  25.053  1.00  0.00    -0.299 OA
BRANCH  13  15
ATOM     15  C   UNL     1      13.633  15.911  25.548  1.00  0.00     0.106 CG0
ATOM     16  G   UNL     1      12.346  15.379  24.944  1.00  0.00     0.000 G0
ENDBRANCH  13  15
ENDBRANCH  12  13
BRANCH  12  17
ATOM     17  C   UNL     1      17.271  15.511  24.224  1.00  0.00    -0.006 C 
ATOM     18  C   UNL     1      18.372  16.552  23.946  1.00  0.00     0.008 C 
ATOM     19  C   UNL     1      17.518  14.249  23.380  1.00  0.00     0.008 C 
ENDBRANCH  12  17
ENDBRANCH  11  12
ENDBRANCH   1  11
TORSDOF 1
ENDMDL
MODEL 9
REMARK VINA RESULT:    -3.388      3.099      5.153
REMARK INTER + INTRA:          -5.284
REMARK INTER:                  -5.297
REMARK INTRA:                   0.013
REMARK UNBOUND:                -0.113
REMARK SMILES CC1=CCC[C@H](C)C(=O)C[C@@H](C(C)C)C(=O)C1
REMARK SMILES IDX 8 1 9 2 6 3 7 4 5 5 4 6 3 7 2 8 1 9 10 11 11 12 15 13 16 14
REMARK SMILES IDX 17 15 12 17 13 18 14 19
REMARK H PARENT
REMARK Flexibility Score: 70.00
ROOT
ATOM      1  C   UNL     1      18.582  13.732  26.187  1.00  0.00     0.136 C 
ATOM      2  O   UNL     1      17.953  12.704  26.391  1.00  0.00    -0.299 OA
ENDROOT
BRANCH   1   3
ATOM      3  C   UNL     1      20.043  13.653  25.807  1.00  0.00     0.053 C 
ATOM      4  C   UNL     1      20.883  13.067  26.948  1.00  0.00     0.016 C 
BRANCH   3   5
ATOM      5  C   UNL     1      20.181  12.815  24.512  1.00  0.00     0.015 C 
BRANCH   5   6
ATOM      6  C   UNL     1      20.148  13.608  23.189  1.00  0.00     0.028 C 
BRANCH   6   7
ATOM      7  C   UNL     1      21.110  14.770  23.058  1.00  0.00    -0.028 C 
ATOM      8  C   UNL     1      20.791  16.077  22.899  1.00  0.00    -0.070 CG0
ATOM      9  C   UNL     1      21.922  17.050  22.671  1.00  0.00     0.039 C 
ATOM     10  G   UNL     1      19.383  16.634  23.020  1.00  0.00     0.000 G0
ENDBRANCH   6   7
ENDBRANCH   5   6
ENDBRANCH   3   5
ENDBRANCH   1   3
BRANCH   1  11
ATOM     11  C   UNL     1      17.863  15.062  26.246  1.00  0.00     0.087 C 
BRANCH  11  12
ATOM     12  C   UNL     1      17.675  15.702  24.838  1.00  0.00     0.066 C 
BRANCH  12  13
ATOM     13  C   UNL     1      18.882  16.549  24.456  1.00  0.00     0.140 C 
ATOM     14  O   UNL     1      19.454  17.196  25.321  1.00  0.00    -0.299 OA
BRANCH  13  15
ATOM     15  C   UNL     1      19.380  16.645  23.027  1.00  0.00     0.106 CG0
ATOM     16  G   UNL     1      20.782  16.076  22.905  1.00  0.00     0.000 G0
ENDBRANCH  13  15
ENDBRANCH  12  13
BRANCH  12  17
ATOM     17  C   UNL     1      16.360  16.534  24.703  1.00  0.00    -0.006 C 
ATOM     18  C   UNL     1      15.373  16.347  25.870  1.00  0.00     0.008 C 
ATOM     19  C   UNL     1      15.649  16.256  23.367  1.00  0.00     0.008 C 
ENDBRANCH  12  17
ENDBRANCH  11  12
ENDBRANCH   1  11
TORSDOF 1
ENDMDL
