MODEL 1
REMARK VINA RESULT:    -4.628      0.000      0.000
REMARK INTER + INTRA:          -5.029
REMARK INTER:                  -4.899
REMARK INTRA:                  -0.130
REMARK UNBOUND:                -0.130
REMARK SMILES C=C(C)[C@H]1CC=C(C)CC1
REMARK SMILES IDX 8 1 7 2 6 3 5 4 4 5 10 6 9 7 2 8 1 9 3 10
REMARK H PARENT
REMARK Flexibility Score: inf
ROOT
ATOM      1  C   UNL     1     183.023 182.431 155.293  1.00  0.00     0.039 C 
ATOM      2  C   UNL     1     181.567 182.765 155.468  1.00  0.00    -0.077 C 
ATOM      3  C   UNL     1     181.229 183.928 156.066  1.00  0.00    -0.027 C 
ATOM      4  C   UNL     1     179.799 184.329 156.335  1.00  0.00     0.035 C 
ATOM      5  C   UNL     1     178.808 183.601 155.411  1.00  0.00     0.018 C 
ATOM      6  C   UNL     1     179.115 182.096 155.396  1.00  0.00     0.013 C 
ATOM      7  C   UNL     1     180.526 181.850 154.851  1.00  0.00     0.031 C 
ENDROOT
BRANCH   5   8
ATOM      8  C   UNL     1     177.366 183.875 155.818  1.00  0.00    -0.077 C 
ATOM      9  C   UNL     1     177.057 184.991 156.495  1.00  0.00     0.008 C 
ATOM     10  C   UNL     1     176.258 182.904 155.486  1.00  0.00     0.039 C 
ENDBRANCH   5   8
TORSDOF 1
ENDMDL
MODEL 2
REMARK VINA RESULT:    -4.505      1.118      4.549
REMARK INTER + INTRA:          -4.899
REMARK INTER:                  -4.771
REMARK INTRA:                  -0.128
REMARK UNBOUND:                -0.130
REMARK SMILES C=C(C)[C@H]1CC=C(C)CC1
REMARK SMILES IDX 8 1 7 2 6 3 5 4 4 5 10 6 9 7 2 8 1 9 3 10
REMARK H PARENT
REMARK Flexibility Score: inf
ROOT
ATOM      1  C   UNL     1     176.047 182.722 155.898  1.00  0.00     0.039 C 
ATOM      2  C   UNL     1     177.539 182.669 155.712  1.00  0.00    -0.077 C 
ATOM      3  C   UNL     1     178.180 181.494 155.887  1.00  0.00    -0.027 C 
ATOM      4  C   UNL     1     179.679 181.350 155.775  1.00  0.00     0.035 C 
ATOM      5  C   UNL     1     180.310 182.474 154.936  1.00  0.00     0.018 C 
ATOM      6  C   UNL     1     179.777 183.837 155.402  1.00  0.00     0.013 C 
ATOM      7  C   UNL     1     178.258 183.906 155.206  1.00  0.00     0.031 C 
ENDROOT
BRANCH   5   8
ATOM      8  C   UNL     1     181.830 182.419 154.988  1.00  0.00    -0.077 C 
ATOM      9  C   UNL     1     182.503 183.194 155.853  1.00  0.00     0.008 C 
ATOM     10  C   UNL     1     182.616 181.511 154.073  1.00  0.00     0.039 C 
ENDBRANCH   5   8
TORSDOF 1
ENDMDL
MODEL 3
REMARK VINA RESULT:    -4.496      1.284      4.477
REMARK INTER + INTRA:          -4.889
REMARK INTER:                  -4.761
REMARK INTRA:                  -0.128
REMARK UNBOUND:                -0.130
REMARK SMILES C=C(C)[C@H]1CC=C(C)CC1
REMARK SMILES IDX 8 1 7 2 6 3 5 4 4 5 10 6 9 7 2 8 1 9 3 10
REMARK H PARENT
REMARK Flexibility Score: inf
ROOT
ATOM      1  C   UNL     1     176.032 182.905 156.666  1.00  0.00     0.039 C 
ATOM      2  C   UNL     1     177.424 182.700 156.135  1.00  0.00    -0.077 C 
ATOM      3  C   UNL     1     177.966 183.642 155.333  1.00  0.00    -0.027 C 
ATOM      4  C   UNL     1     179.333 183.503 154.708  1.00  0.00     0.035 C 
ATOM      5  C   UNL     1     180.227 182.517 155.478  1.00  0.00     0.018 C 
ATOM      6  C   UNL     1     179.455 181.217 155.753  1.00  0.00     0.013 C 
ATOM      7  C   UNL     1     178.225 181.506 156.621  1.00  0.00     0.031 C 
ENDROOT
BRANCH   5   8
ATOM      8  C   UNL     1     181.528 182.249 154.734  1.00  0.00    -0.077 C 
ATOM      9  C   UNL     1     181.501 181.753 153.488  1.00  0.00     0.008 C 
ATOM     10  C   UNL     1     182.869 182.520 155.373  1.00  0.00     0.039 C 
ENDBRANCH   5   8
TORSDOF 1
ENDMDL
MODEL 4
REMARK VINA RESULT:    -4.493      1.078      2.104
REMARK INTER + INTRA:          -4.886
REMARK INTER:                  -4.759
REMARK INTRA:                  -0.128
REMARK UNBOUND:                -0.130
REMARK SMILES C=C(C)[C@H]1CC=C(C)CC1
REMARK SMILES IDX 8 1 7 2 6 3 5 4 4 5 10 6 9 7 2 8 1 9 3 10
REMARK H PARENT
REMARK Flexibility Score: inf
ROOT
ATOM      1  C   UNL     1     182.412 182.492 155.374  1.00  0.00     0.039 C 
ATOM      2  C   UNL     1     180.921 182.558 155.553  1.00  0.00    -0.077 C 
ATOM      3  C   UNL     1     180.219 181.408 155.640  1.00  0.00    -0.027 C 
ATOM      4  C   UNL     1     178.715 181.370 155.768  1.00  0.00     0.035 C 
ATOM      5  C   UNL     1     178.145 182.684 156.328  1.00  0.00     0.018 C 
ATOM      6  C   UNL     1     178.747 183.879 155.573  1.00  0.00     0.013 C 
ATOM      7  C   UNL     1     180.267 183.912 155.762  1.00  0.00     0.031 C 
ENDROOT
BRANCH   5   8
ATOM      8  C   UNL     1     176.624 182.697 156.274  1.00  0.00    -0.077 C 
ATOM      9  C   UNL     1     175.990 182.692 155.092  1.00  0.00     0.008 C 
ATOM     10  C   UNL     1     175.793 182.726 157.536  1.00  0.00     0.039 C 
ENDBRANCH   5   8
TORSDOF 1
ENDMDL
MODEL 5
REMARK VINA RESULT:    -4.428      1.218      4.580
REMARK INTER + INTRA:          -4.818
REMARK INTER:                  -4.696
REMARK INTRA:                  -0.121
REMARK UNBOUND:                -0.130
REMARK SMILES C=C(C)[C@H]1CC=C(C)CC1
REMARK SMILES IDX 8 1 7 2 6 3 5 4 4 5 10 6 9 7 2 8 1 9 3 10
REMARK H PARENT
REMARK Flexibility Score: inf
ROOT
ATOM      1  C   UNL     1     175.926 182.901 156.912  1.00  0.00     0.039 C 
ATOM      2  C   UNL     1     177.320 182.758 156.367  1.00  0.00    -0.077 C 
ATOM      3  C   UNL     1     178.099 181.749 156.813  1.00  0.00    -0.027 C 
ATOM      4  C   UNL     1     179.528 181.553 156.367  1.00  0.00     0.035 C 
ATOM      5  C   UNL     1     179.812 182.227 155.014  1.00  0.00     0.018 C 
ATOM      6  C   UNL     1     179.280 183.668 155.025  1.00  0.00     0.013 C 
ATOM      7  C   UNL     1     177.762 183.670 155.237  1.00  0.00     0.031 C 
ENDROOT
BRANCH   5   8
ATOM      8  C   UNL     1     181.294 182.179 154.670  1.00  0.00    -0.077 C 
ATOM      9  C   UNL     1     181.694 181.735 153.469  1.00  0.00     0.008 C 
ATOM     10  C   UNL     1     182.345 182.613 155.664  1.00  0.00     0.039 C 
ENDBRANCH   5   8
TORSDOF 1
ENDMDL
MODEL 6
REMARK VINA RESULT:    -4.227      1.497      1.946
REMARK INTER + INTRA:          -4.604
REMARK INTER:                  -4.473
REMARK INTRA:                  -0.132
REMARK UNBOUND:                -0.130
REMARK SMILES C=C(C)[C@H]1CC=C(C)CC1
REMARK SMILES IDX 8 1 7 2 6 3 5 4 4 5 10 6 9 7 2 8 1 9 3 10
REMARK H PARENT
REMARK Flexibility Score: inf
ROOT
ATOM      1  C   UNL     1     181.156 182.121 154.132  1.00  0.00     0.039 C 
ATOM      2  C   UNL     1     179.955 182.393 154.995  1.00  0.00    -0.077 C 
ATOM      3  C   UNL     1     179.364 183.605 154.933  1.00  0.00    -0.027 C 
ATOM      4  C   UNL     1     178.188 183.992 155.796  1.00  0.00     0.035 C 
ATOM      5  C   UNL     1     177.416 182.766 156.311  1.00  0.00     0.018 C 
ATOM      6  C   UNL     1     178.397 181.738 156.896  1.00  0.00     0.013 C 
ATOM      7  C   UNL     1     179.366 181.256 155.811  1.00  0.00     0.031 C 
ENDROOT
BRANCH   5   8
ATOM      8  C   UNL     1     176.353 183.165 157.325  1.00  0.00    -0.077 C 
ATOM      9  C   UNL     1     176.360 184.395 157.861  1.00  0.00     0.008 C 
ATOM     10  C   UNL     1     175.280 182.196 157.761  1.00  0.00     0.039 C 
ENDBRANCH   5   8
TORSDOF 1
ENDMDL
MODEL 7
REMARK VINA RESULT:    -4.132      1.815      4.649
REMARK INTER + INTRA:          -4.504
REMARK INTER:                  -4.381
REMARK INTRA:                  -0.123
REMARK UNBOUND:                -0.130
REMARK SMILES C=C(C)[C@H]1CC=C(C)CC1
REMARK SMILES IDX 8 1 7 2 6 3 5 4 4 5 10 6 9 7 2 8 1 9 3 10
REMARK H PARENT
REMARK Flexibility Score: inf
ROOT
ATOM      1  C   UNL     1     174.849 182.253 158.365  1.00  0.00     0.039 C 
ATOM      2  C   UNL     1     176.108 182.531 157.593  1.00  0.00    -0.077 C 
ATOM      3  C   UNL     1     177.297 182.469 158.231  1.00  0.00    -0.027 C 
ATOM      4  C   UNL     1     178.610 182.782 157.556  1.00  0.00     0.035 C 
ATOM      5  C   UNL     1     178.529 182.631 156.028  1.00  0.00     0.018 C 
ATOM      6  C   UNL     1     177.286 183.359 155.495  1.00  0.00     0.013 C 
ATOM      7  C   UNL     1     176.016 182.742 156.093  1.00  0.00     0.031 C 
ENDROOT
BRANCH   5   8
ATOM      8  C   UNL     1     179.801 183.127 155.353  1.00  0.00    -0.077 C 
ATOM      9  C   UNL     1     180.309 182.465 154.303  1.00  0.00     0.008 C 
ATOM     10  C   UNL     1     180.525 184.357 155.848  1.00  0.00     0.039 C 
ENDBRANCH   5   8
TORSDOF 1
ENDMDL
MODEL 8
REMARK VINA RESULT:    -4.078     15.634     16.908
REMARK INTER + INTRA:          -4.447
REMARK INTER:                  -4.316
REMARK INTRA:                  -0.132
REMARK UNBOUND:                -0.130
REMARK SMILES C=C(C)[C@H]1CC=C(C)CC1
REMARK SMILES IDX 8 1 7 2 6 3 5 4 4 5 10 6 9 7 2 8 1 9 3 10
REMARK H PARENT
REMARK Flexibility Score: inf
ROOT
ATOM      1  C   UNL     1     173.112 167.210 156.266  1.00  0.00     0.039 C 
ATOM      2  C   UNL     1     173.372 167.613 157.691  1.00  0.00    -0.077 C 
ATOM      3  C   UNL     1     174.177 168.669 157.938  1.00  0.00    -0.027 C 
ATOM      4  C   UNL     1     174.540 169.119 159.332  1.00  0.00     0.035 C 
ATOM      5  C   UNL     1     173.519 168.646 160.380  1.00  0.00     0.018 C 
ATOM      6  C   UNL     1     173.226 167.151 160.188  1.00  0.00     0.013 C 
ATOM      7  C   UNL     1     172.619 166.905 158.802  1.00  0.00     0.031 C 
ENDROOT
BRANCH   5   8
ATOM      8  C   UNL     1     173.996 168.947 161.795  1.00  0.00    -0.077 C 
ATOM      9  C   UNL     1     174.989 169.825 161.999  1.00  0.00     0.008 C 
ATOM     10  C   UNL     1     173.381 168.264 162.993  1.00  0.00     0.039 C 
ENDBRANCH   5   8
TORSDOF 1
ENDMDL
MODEL 9
REMARK VINA RESULT:    -4.077     15.799     17.091
REMARK INTER + INTRA:          -4.446
REMARK INTER:                  -4.316
REMARK INTRA:                  -0.130
REMARK UNBOUND:                -0.130
REMARK SMILES C=C(C)[C@H]1CC=C(C)CC1
REMARK SMILES IDX 8 1 7 2 6 3 5 4 4 5 10 6 9 7 2 8 1 9 3 10
REMARK H PARENT
REMARK Flexibility Score: inf
ROOT
ATOM      1  C   UNL     1     175.103 169.775 162.278  1.00  0.00     0.039 C 
ATOM      2  C   UNL     1     174.421 169.067 161.140  1.00  0.00    -0.077 C 
ATOM      3  C   UNL     1     174.816 169.327 159.875  1.00  0.00    -0.027 C 
ATOM      4  C   UNL     1     174.160 168.708 158.665  1.00  0.00     0.035 C 
ATOM      5  C   UNL     1     173.423 167.403 159.007  1.00  0.00     0.018 C 
ATOM      6  C   UNL     1     172.538 167.610 160.245  1.00  0.00     0.013 C 
ATOM      7  C   UNL     1     173.402 167.988 161.454  1.00  0.00     0.031 C 
ENDROOT
BRANCH   5   8
ATOM      8  C   UNL     1     172.616 166.894 157.820  1.00  0.00    -0.077 C 
ATOM      9  C   UNL     1     171.503 166.172 158.022  1.00  0.00     0.008 C 
ATOM     10  C   UNL     1     173.045 167.173 156.400  1.00  0.00     0.039 C 
ENDBRANCH   5   8
TORSDOF 1
ENDMDL
