MODEL 1
REMARK VINA RESULT:    -3.742      0.000      0.000
REMARK INTER + INTRA:          -8.391
REMARK INTER:                  -6.804
REMARK INTRA:                  -1.587
REMARK UNBOUND:                -1.587
REMARK SMILES CCCCCCCCCCCCCCCC(=O)[O-]
REMARK SMILES IDX 9 1 10 2 11 3 12 4 13 5 14 6 15 7 16 8 17 9 18 10 8 11 7 12
REMARK SMILES IDX 6 13 5 14 4 15 3 16 2 17 1 18
REMARK H PARENT
REMARK Flexibility Score: inf
ROOT
ATOM      1  C   UNL     1      -4.564  93.863 -11.763  1.00  0.00     0.000 C 
ENDROOT
BRANCH   1   2
ATOM      2  C   UNL     1      -3.377  94.622 -11.149  1.00  0.00     0.000 C 
BRANCH   2   3
ATOM      3  C   UNL     1      -3.399  94.655  -9.604  1.00  0.00     0.000 C 
BRANCH   3   4
ATOM      4  C   UNL     1      -4.814  94.559  -9.003  1.00  0.00     0.000 C 
BRANCH   4   5
ATOM      5  C   UNL     1      -5.063  93.327  -8.107  1.00  0.00     0.000 C 
BRANCH   5   6
ATOM      6  C   UNL     1      -4.138  92.124  -8.367  1.00  0.00     0.006 C 
BRANCH   6   7
ATOM      7  C   UNL     1      -4.902  90.857  -8.770  1.00  0.00     0.053 C 
BRANCH   7   8
ATOM      8  C   UNL     1      -4.530  89.716  -7.876  1.00  0.00     0.041 C 
ATOM      9  O   UNL     1      -3.815  89.915  -6.858  1.00  0.00    -0.550 OA
ATOM     10  O   UNL     1      -4.932  88.425  -8.192  1.00  0.00    -0.550 OA
ENDBRANCH   7   8
ENDBRANCH   6   7
ENDBRANCH   5   6
ENDBRANCH   4   5
ENDBRANCH   3   4
ENDBRANCH   2   3
ENDBRANCH   1   2
BRANCH   1  11
ATOM     11  C   UNL     1      -4.127  92.866 -12.850  1.00  0.00     0.000 C 
BRANCH  11  12
ATOM     12  C   UNL     1      -4.264  91.402 -12.397  1.00  0.00    -0.000 C 
BRANCH  12  13
ATOM     13  C   UNL     1      -4.029  90.406 -13.545  1.00  0.00    -0.000 C 
BRANCH  13  14
ATOM     14  C   UNL     1      -5.153  89.362 -13.663  1.00  0.00    -0.000 C 
BRANCH  14  15
ATOM     15  C   UNL     1      -6.080  89.623 -14.863  1.00  0.00    -0.000 C 
BRANCH  15  16
ATOM     16  C   UNL     1      -5.325  90.180 -16.080  1.00  0.00    -0.000 C 
BRANCH  16  17
ATOM     17  C   UNL     1      -5.793  91.588 -16.476  1.00  0.00    -0.003 C 
ATOM     18  C   UNL     1      -6.960  92.045 -15.604  1.00  0.00     0.004 C 
ENDBRANCH  16  17
ENDBRANCH  15  16
ENDBRANCH  14  15
ENDBRANCH  13  14
ENDBRANCH  12  13
ENDBRANCH  11  12
ENDBRANCH   1  11
TORSDOF 14
ENDMDL
MODEL 2
REMARK VINA RESULT:    -3.679      8.280     11.064
REMARK INTER + INTRA:          -8.277
REMARK INTER:                  -6.474
REMARK INTRA:                  -1.803
REMARK UNBOUND:                -1.587
REMARK SMILES CCCCCCCCCCCCCCCC(=O)[O-]
REMARK SMILES IDX 9 1 10 2 11 3 12 4 13 5 14 6 15 7 16 8 17 9 18 10 8 11 7 12
REMARK SMILES IDX 6 13 5 14 4 15 3 16 2 17 1 18
REMARK H PARENT
REMARK Flexibility Score: inf
ROOT
ATOM      1  C   UNL     1      -5.243  84.126  -9.999  1.00  0.00     0.000 C 
ENDROOT
BRANCH   1   2
ATOM      2  C   UNL     1      -6.505  84.556  -9.234  1.00  0.00     0.000 C 
BRANCH   2   3
ATOM      3  C   UNL     1      -7.388  83.369  -8.786  1.00  0.00     0.000 C 
BRANCH   3   4
ATOM      4  C   UNL     1      -8.803  83.384  -9.398  1.00  0.00     0.000 C 
BRANCH   4   5
ATOM      5  C   UNL     1      -9.567  82.047  -9.311  1.00  0.00     0.000 C 
BRANCH   5   6
ATOM      6  C   UNL     1     -10.839  82.067  -8.444  1.00  0.00     0.006 C 
BRANCH   6   7
ATOM      7  C   UNL     1     -11.863  83.111  -8.907  1.00  0.00     0.053 C 
BRANCH   7   8
ATOM      8  C   UNL     1     -12.879  82.481  -9.808  1.00  0.00     0.041 C 
ATOM      9  O   UNL     1     -13.504  83.183 -10.646  1.00  0.00    -0.550 OA
ATOM     10  O   UNL     1     -13.171  81.129  -9.689  1.00  0.00    -0.550 OA
ENDBRANCH   7   8
ENDBRANCH   6   7
ENDBRANCH   5   6
ENDBRANCH   4   5
ENDBRANCH   3   4
ENDBRANCH   2   3
ENDBRANCH   1   2
BRANCH   1  11
ATOM     11  C   UNL     1      -4.924  82.633  -9.818  1.00  0.00     0.000 C 
BRANCH  11  12
ATOM     12  C   UNL     1      -3.416  82.364  -9.679  1.00  0.00    -0.000 C 
BRANCH  12  13
ATOM     13  C   UNL     1      -2.992  82.120  -8.221  1.00  0.00    -0.000 C 
BRANCH  13  14
ATOM     14  C   UNL     1      -4.193  81.996  -7.268  1.00  0.00    -0.000 C 
BRANCH  14  15
ATOM     15  C   UNL     1      -4.177  83.056  -6.153  1.00  0.00    -0.000 C 
BRANCH  15  16
ATOM     16  C   UNL     1      -3.147  84.166  -6.410  1.00  0.00    -0.000 C 
BRANCH  16  17
ATOM     17  C   UNL     1      -3.796  85.495  -6.821  1.00  0.00    -0.003 C 
ATOM     18  C   UNL     1      -2.974  86.200  -7.897  1.00  0.00     0.004 C 
ENDBRANCH  16  17
ENDBRANCH  15  16
ENDBRANCH  14  15
ENDBRANCH  13  14
ENDBRANCH  12  13
ENDBRANCH  11  12
ENDBRANCH   1  11
TORSDOF 14
ENDMDL
MODEL 3
REMARK VINA RESULT:    -3.655      4.918      7.809
REMARK INTER + INTRA:          -8.234
REMARK INTER:                  -6.330
REMARK INTRA:                  -1.904
REMARK UNBOUND:                -1.587
REMARK SMILES CCCCCCCCCCCCCCCC(=O)[O-]
REMARK SMILES IDX 9 1 10 2 11 3 12 4 13 5 14 6 15 7 16 8 17 9 18 10 8 11 7 12
REMARK SMILES IDX 6 13 5 14 4 15 3 16 2 17 1 18
REMARK H PARENT
REMARK Flexibility Score: inf
ROOT
ATOM      1  C   UNL     1      -3.726  84.914  -6.452  1.00  0.00     0.000 C 
ENDROOT
BRANCH   1   2
ATOM      2  C   UNL     1      -2.672  85.491  -7.410  1.00  0.00     0.000 C 
BRANCH   2   3
ATOM      3  C   UNL     1      -2.585  87.034  -7.377  1.00  0.00     0.000 C 
BRANCH   3   4
ATOM      4  C   UNL     1      -3.153  87.658  -6.087  1.00  0.00     0.000 C 
BRANCH   4   5
ATOM      5  C   UNL     1      -4.161  88.806  -6.305  1.00  0.00     0.000 C 
BRANCH   5   6
ATOM      6  C   UNL     1      -3.596  90.057  -7.003  1.00  0.00     0.006 C 
BRANCH   6   7
ATOM      7  C   UNL     1      -4.401  90.466  -8.243  1.00  0.00     0.053 C 
BRANCH   7   8
ATOM      8  C   UNL     1      -4.581  91.951  -8.283  1.00  0.00     0.041 C 
ATOM      9  O   UNL     1      -4.767  92.596  -7.217  1.00  0.00    -0.550 OA
ATOM     10  O   UNL     1      -4.592  92.617  -9.501  1.00  0.00    -0.550 OA
ENDBRANCH   7   8
ENDBRANCH   6   7
ENDBRANCH   5   6
ENDBRANCH   4   5
ENDBRANCH   3   4
ENDBRANCH   2   3
ENDBRANCH   1   2
BRANCH   1  11
ATOM     11  C   UNL     1      -3.633  83.384  -6.325  1.00  0.00     0.000 C 
BRANCH  11  12
ATOM     12  C   UNL     1      -2.625  82.770  -7.312  1.00  0.00    -0.000 C 
BRANCH  12  13
ATOM     13  C   UNL     1      -3.305  81.899  -8.381  1.00  0.00    -0.000 C 
BRANCH  13  14
ATOM     14  C   UNL     1      -3.584  82.669  -9.683  1.00  0.00    -0.000 C 
BRANCH  14  15
ATOM     15  C   UNL     1      -5.087  82.789  -9.990  1.00  0.00    -0.000 C 
BRANCH  15  16
ATOM     16  C   UNL     1      -5.713  84.055  -9.384  1.00  0.00    -0.000 C 
BRANCH  16  17
ATOM     17  C   UNL     1      -5.204  85.344 -10.045  1.00  0.00    -0.003 C 
ATOM     18  C   UNL     1      -5.739  86.579  -9.325  1.00  0.00     0.004 C 
ENDBRANCH  16  17
ENDBRANCH  15  16
ENDBRANCH  14  15
ENDBRANCH  13  14
ENDBRANCH  12  13
ENDBRANCH  11  12
ENDBRANCH   1  11
TORSDOF 14
ENDMDL
MODEL 4
REMARK VINA RESULT:    -3.654      3.118      7.035
REMARK INTER + INTRA:          -8.231
REMARK INTER:                  -6.706
REMARK INTRA:                  -1.525
REMARK UNBOUND:                -1.587
REMARK SMILES CCCCCCCCCCCCCCCC(=O)[O-]
REMARK SMILES IDX 9 1 10 2 11 3 12 4 13 5 14 6 15 7 16 8 17 9 18 10 8 11 7 12
REMARK SMILES IDX 6 13 5 14 4 15 3 16 2 17 1 18
REMARK H PARENT
REMARK Flexibility Score: inf
ROOT
ATOM      1  C   UNL     1      -4.089  93.022 -12.527  1.00  0.00     0.000 C 
ENDROOT
BRANCH   1   2
ATOM      2  C   UNL     1      -4.548  91.724 -11.843  1.00  0.00     0.000 C 
BRANCH   2   3
ATOM      3  C   UNL     1      -5.835  91.126 -12.456  1.00  0.00     0.000 C 
BRANCH   3   4
ATOM      4  C   UNL     1      -5.702  89.642 -12.850  1.00  0.00     0.000 C 
BRANCH   4   5
ATOM      5  C   UNL     1      -5.988  89.331 -14.333  1.00  0.00     0.000 C 
BRANCH   5   6
ATOM      6  C   UNL     1      -5.896  90.534 -15.291  1.00  0.00     0.006 C 
BRANCH   6   7
ATOM      7  C   UNL     1      -5.150  90.209 -16.591  1.00  0.00     0.053 C 
BRANCH   7   8
ATOM      8  C   UNL     1      -3.778  90.805 -16.568  1.00  0.00     0.041 C 
ATOM      9  O   UNL     1      -3.173  91.046 -17.646  1.00  0.00    -0.550 OA
ATOM     10  O   UNL     1      -3.146  91.050 -15.356  1.00  0.00    -0.550 OA
ENDBRANCH   7   8
ENDBRANCH   6   7
ENDBRANCH   5   6
ENDBRANCH   4   5
ENDBRANCH   3   4
ENDBRANCH   2   3
ENDBRANCH   1   2
BRANCH   1  11
ATOM     11  C   UNL     1      -4.441  94.275 -11.708  1.00  0.00     0.000 C 
BRANCH  11  12
ATOM     12  C   UNL     1      -3.229  94.845 -10.951  1.00  0.00    -0.000 C 
BRANCH  12  13
ATOM     13  C   UNL     1      -3.353  94.673  -9.427  1.00  0.00    -0.000 C 
BRANCH  13  14
ATOM     14  C   UNL     1      -4.796  94.390  -8.979  1.00  0.00    -0.000 C 
BRANCH  14  15
ATOM     15  C   UNL     1      -4.872  93.353  -7.844  1.00  0.00    -0.000 C 
BRANCH  15  16
ATOM     16  C   UNL     1      -5.506  92.029  -8.297  1.00  0.00    -0.000 C 
BRANCH  16  17
ATOM     17  C   UNL     1      -4.506  90.864  -8.305  1.00  0.00    -0.003 C 
ATOM     18  C   UNL     1      -3.739  90.788  -6.987  1.00  0.00     0.004 C 
ENDBRANCH  16  17
ENDBRANCH  15  16
ENDBRANCH  14  15
ENDBRANCH  13  14
ENDBRANCH  12  13
ENDBRANCH  11  12
ENDBRANCH   1  11
TORSDOF 14
ENDMDL
MODEL 5
REMARK VINA RESULT:    -3.641      2.510      6.168
REMARK INTER + INTRA:          -8.208
REMARK INTER:                  -5.999
REMARK INTRA:                  -2.210
REMARK UNBOUND:                -1.587
REMARK SMILES CCCCCCCCCCCCCCCC(=O)[O-]
REMARK SMILES IDX 9 1 10 2 11 3 12 4 13 5 14 6 15 7 16 8 17 9 18 10 8 11 7 12
REMARK SMILES IDX 6 13 5 14 4 15 3 16 2 17 1 18
REMARK H PARENT
REMARK Flexibility Score: inf
ROOT
ATOM      1  C   UNL     1      -6.518  91.660 -10.668  1.00  0.00     0.000 C 
ENDROOT
BRANCH   1   2
ATOM      2  C   UNL     1      -5.920  92.415 -11.866  1.00  0.00     0.000 C 
BRANCH   2   3
ATOM      3  C   UNL     1      -4.491  91.955 -12.234  1.00  0.00     0.000 C 
BRANCH   3   4
ATOM      4  C   UNL     1      -4.346  91.495 -13.697  1.00  0.00     0.000 C 
BRANCH   4   5
ATOM      5  C   UNL     1      -4.191  89.972 -13.891  1.00  0.00     0.000 C 
BRANCH   5   6
ATOM      6  C   UNL     1      -5.496  89.205 -14.174  1.00  0.00     0.006 C 
BRANCH   6   7
ATOM      7  C   UNL     1      -6.676  90.129 -14.496  1.00  0.00     0.053 C 
BRANCH   7   8
ATOM      8  C   UNL     1      -7.909  89.669 -13.783  1.00  0.00     0.041 C 
ATOM      9  O   UNL     1      -9.013  90.235 -13.996  1.00  0.00    -0.550 OA
ATOM     10  O   UNL     1      -7.830  88.646 -12.848  1.00  0.00    -0.550 OA
ENDBRANCH   7   8
ENDBRANCH   6   7
ENDBRANCH   5   6
ENDBRANCH   4   5
ENDBRANCH   3   4
ENDBRANCH   2   3
ENDBRANCH   1   2
BRANCH   1  11
ATOM     11  C   UNL     1      -5.876  90.277 -10.463  1.00  0.00     0.000 C 
BRANCH  11  12
ATOM     12  C   UNL     1      -5.394  90.058  -9.018  1.00  0.00    -0.000 C 
BRANCH  12  13
ATOM     13  C   UNL     1      -4.456  91.176  -8.534  1.00  0.00    -0.000 C 
BRANCH  13  14
ATOM     14  C   UNL     1      -5.147  92.148  -7.561  1.00  0.00    -0.000 C 
BRANCH  14  15
ATOM     15  C   UNL     1      -4.902  93.623  -7.925  1.00  0.00    -0.000 C 
BRANCH  15  16
ATOM     16  C   UNL     1      -3.867  93.789  -9.048  1.00  0.00    -0.000 C 
BRANCH  16  17
ATOM     17  C   UNL     1      -4.140  95.016  -9.931  1.00  0.00    -0.003 C 
ATOM     18  C   UNL     1      -3.025  95.216 -10.954  1.00  0.00     0.004 C 
ENDBRANCH  16  17
ENDBRANCH  15  16
ENDBRANCH  14  15
ENDBRANCH  13  14
ENDBRANCH  12  13
ENDBRANCH  11  12
ENDBRANCH   1  11
TORSDOF 14
ENDMDL
MODEL 6
REMARK VINA RESULT:    -3.592      2.467      5.845
REMARK INTER + INTRA:          -8.119
REMARK INTER:                  -5.879
REMARK INTRA:                  -2.240
REMARK UNBOUND:                -1.587
REMARK SMILES CCCCCCCCCCCCCCCC(=O)[O-]
REMARK SMILES IDX 9 1 10 2 11 3 12 4 13 5 14 6 15 7 16 8 17 9 18 10 8 11 7 12
REMARK SMILES IDX 6 13 5 14 4 15 3 16 2 17 1 18
REMARK H PARENT
REMARK Flexibility Score: inf
ROOT
ATOM      1  C   UNL     1      -5.864  91.948 -11.091  1.00  0.00     0.000 C 
ENDROOT
BRANCH   1   2
ATOM      2  C   UNL     1      -4.514  91.495 -11.671  1.00  0.00     0.000 C 
BRANCH   2   3
ATOM      3  C   UNL     1      -4.147  92.195 -12.999  1.00  0.00     0.000 C 
BRANCH   3   4
ATOM      4  C   UNL     1      -3.914  91.220 -14.169  1.00  0.00     0.000 C 
BRANCH   4   5
ATOM      5  C   UNL     1      -4.512  89.811 -13.975  1.00  0.00     0.000 C 
BRANCH   5   6
ATOM      6  C   UNL     1      -5.770  89.507 -14.809  1.00  0.00     0.006 C 
BRANCH   6   7
ATOM      7  C   UNL     1      -7.055  90.061 -14.180  1.00  0.00     0.053 C 
BRANCH   7   8
ATOM      8  C   UNL     1      -7.788  88.980 -13.451  1.00  0.00     0.041 C 
ATOM      9  O   UNL     1      -7.459  88.673 -12.275  1.00  0.00    -0.550 OA
ATOM     10  O   UNL     1      -8.803  88.278 -14.087  1.00  0.00    -0.550 OA
ENDBRANCH   7   8
ENDBRANCH   6   7
ENDBRANCH   5   6
ENDBRANCH   4   5
ENDBRANCH   3   4
ENDBRANCH   2   3
ENDBRANCH   1   2
BRANCH   1  11
ATOM     11  C   UNL     1      -5.848  92.029  -9.555  1.00  0.00     0.000 C 
BRANCH  11  12
ATOM     12  C   UNL     1      -4.502  92.530  -9.004  1.00  0.00    -0.000 C 
BRANCH  12  13
ATOM     13  C   UNL     1      -4.423  94.065  -8.949  1.00  0.00    -0.000 C 
BRANCH  13  14
ATOM     14  C   UNL     1      -3.204  94.623  -9.703  1.00  0.00    -0.000 C 
BRANCH  14  15
ATOM     15  C   UNL     1      -3.592  95.340 -11.008  1.00  0.00    -0.000 C 
BRANCH  15  16
ATOM     16  C   UNL     1      -5.074  95.743 -11.040  1.00  0.00    -0.000 C 
BRANCH  16  17
ATOM     17  C   UNL     1      -5.717  95.531 -12.418  1.00  0.00    -0.003 C 
ATOM     18  C   UNL     1      -7.193  95.163 -12.287  1.00  0.00     0.004 C 
ENDBRANCH  16  17
ENDBRANCH  15  16
ENDBRANCH  14  15
ENDBRANCH  13  14
ENDBRANCH  12  13
ENDBRANCH  11  12
ENDBRANCH   1  11
TORSDOF 14
ENDMDL
MODEL 7
REMARK VINA RESULT:    -3.582      3.067      4.263
REMARK INTER + INTRA:          -8.101
REMARK INTER:                  -5.607
REMARK INTRA:                  -2.494
REMARK UNBOUND:                -1.587
REMARK SMILES CCCCCCCCCCCCCCCC(=O)[O-]
REMARK SMILES IDX 9 1 10 2 11 3 12 4 13 5 14 6 15 7 16 8 17 9 18 10 8 11 7 12
REMARK SMILES IDX 6 13 5 14 4 15 3 16 2 17 1 18
REMARK H PARENT
REMARK Flexibility Score: inf
ROOT
ATOM      1  C   UNL     1      -4.123  92.503 -13.064  1.00  0.00     0.000 C 
ENDROOT
BRANCH   1   2
ATOM      2  C   UNL     1      -5.426  93.293 -13.266  1.00  0.00     0.000 C 
BRANCH   2   3
ATOM      3  C   UNL     1      -6.686  92.537 -12.787  1.00  0.00     0.000 C 
BRANCH   3   4
ATOM      4  C   UNL     1      -7.710  92.267 -13.906  1.00  0.00     0.000 C 
BRANCH   4   5
ATOM      5  C   UNL     1      -8.316  90.848 -13.911  1.00  0.00     0.000 C 
BRANCH   5   6
ATOM      6  C   UNL     1      -8.288  90.113 -12.558  1.00  0.00     0.006 C 
BRANCH   6   7
ATOM      7  C   UNL     1      -7.502  88.797 -12.607  1.00  0.00     0.053 C 
BRANCH   7   8
ATOM      8  C   UNL     1      -6.949  88.469 -11.256  1.00  0.00     0.041 C 
ATOM      9  O   UNL     1      -6.364  89.354 -10.578  1.00  0.00    -0.550 OA
ATOM     10  O   UNL     1      -7.037  87.172 -10.765  1.00  0.00    -0.550 OA
ENDBRANCH   7   8
ENDBRANCH   6   7
ENDBRANCH   5   6
ENDBRANCH   4   5
ENDBRANCH   3   4
ENDBRANCH   2   3
ENDBRANCH   1   2
BRANCH   1  11
ATOM     11  C   UNL     1      -4.370  90.996 -12.881  1.00  0.00     0.000 C 
BRANCH  11  12
ATOM     12  C   UNL     1      -3.942  90.174 -14.108  1.00  0.00    -0.000 C 
BRANCH  12  13
ATOM     13  C   UNL     1      -5.101  89.936 -15.092  1.00  0.00    -0.000 C 
BRANCH  13  14
ATOM     14  C   UNL     1      -4.785  90.437 -16.511  1.00  0.00    -0.000 C 
BRANCH  14  15
ATOM     15  C   UNL     1      -5.201  91.903 -16.728  1.00  0.00    -0.000 C 
BRANCH  15  16
ATOM     16  C   UNL     1      -4.006  92.867 -16.683  1.00  0.00    -0.000 C 
BRANCH  16  17
ATOM     17  C   UNL     1      -2.666  92.165 -16.945  1.00  0.00    -0.003 C 
ATOM     18  C   UNL     1      -1.880  92.871 -18.046  1.00  0.00     0.004 C 
ENDBRANCH  16  17
ENDBRANCH  15  16
ENDBRANCH  14  15
ENDBRANCH  13  14
ENDBRANCH  12  13
ENDBRANCH  11  12
ENDBRANCH   1  11
TORSDOF 14
ENDMDL
MODEL 8
REMARK VINA RESULT:    -3.545      2.381      6.036
REMARK INTER + INTRA:          -8.034
REMARK INTER:                  -5.969
REMARK INTRA:                  -2.065
REMARK UNBOUND:                -1.587
REMARK SMILES CCCCCCCCCCCCCCCC(=O)[O-]
REMARK SMILES IDX 9 1 10 2 11 3 12 4 13 5 14 6 15 7 16 8 17 9 18 10 8 11 7 12
REMARK SMILES IDX 6 13 5 14 4 15 3 16 2 17 1 18
REMARK H PARENT
REMARK Flexibility Score: inf
ROOT
ATOM      1  C   UNL     1      -4.134  91.588 -12.655  1.00  0.00     0.000 C 
ENDROOT
BRANCH   1   2
ATOM      2  C   UNL     1      -4.220  92.156 -14.081  1.00  0.00     0.000 C 
BRANCH   2   3
ATOM      3  C   UNL     1      -5.499  91.730 -14.838  1.00  0.00     0.000 C 
BRANCH   3   4
ATOM      4  C   UNL     1      -5.397  90.338 -15.491  1.00  0.00     0.000 C 
BRANCH   4   5
ATOM      5  C   UNL     1      -5.920  89.171 -14.627  1.00  0.00     0.000 C 
BRANCH   5   6
ATOM      6  C   UNL     1      -7.270  89.419 -13.928  1.00  0.00     0.006 C 
BRANCH   6   7
ATOM      7  C   UNL     1      -7.318  88.860 -12.501  1.00  0.00     0.053 C 
BRANCH   7   8
ATOM      8  C   UNL     1      -8.574  89.291 -11.813  1.00  0.00     0.041 C 
ATOM      9  O   UNL     1      -9.688  89.164 -12.388  1.00  0.00    -0.550 OA
ATOM     10  O   UNL     1      -8.512  89.878 -10.556  1.00  0.00    -0.550 OA
ENDBRANCH   7   8
ENDBRANCH   6   7
ENDBRANCH   5   6
ENDBRANCH   4   5
ENDBRANCH   3   4
ENDBRANCH   2   3
ENDBRANCH   1   2
BRANCH   1  11
ATOM     11  C   UNL     1      -5.345  91.979 -11.792  1.00  0.00     0.000 C 
BRANCH  11  12
ATOM     12  C   UNL     1      -5.292  91.358 -10.385  1.00  0.00    -0.000 C 
BRANCH  12  13
ATOM     13  C   UNL     1      -5.804  92.318  -9.298  1.00  0.00    -0.000 C 
BRANCH  13  14
ATOM     14  C   UNL     1      -4.663  93.001  -8.525  1.00  0.00    -0.000 C 
BRANCH  14  15
ATOM     15  C   UNL     1      -4.453  94.465  -8.950  1.00  0.00    -0.000 C 
BRANCH  15  16
ATOM     16  C   UNL     1      -3.102  94.688  -9.648  1.00  0.00    -0.000 C 
BRANCH  16  17
ATOM     17  C   UNL     1      -3.252  95.048 -11.133  1.00  0.00    -0.003 C 
ATOM     18  C   UNL     1      -4.647  95.592 -11.429  1.00  0.00     0.004 C 
ENDBRANCH  16  17
ENDBRANCH  15  16
ENDBRANCH  14  15
ENDBRANCH  13  14
ENDBRANCH  12  13
ENDBRANCH  11  12
ENDBRANCH   1  11
TORSDOF 14
ENDMDL
MODEL 9
REMARK VINA RESULT:    -3.544      1.316      1.888
REMARK INTER + INTRA:          -8.031
REMARK INTER:                  -5.937
REMARK INTRA:                  -2.094
REMARK UNBOUND:                -1.587
REMARK SMILES CCCCCCCCCCCCCCCC(=O)[O-]
REMARK SMILES IDX 9 1 10 2 11 3 12 4 13 5 14 6 15 7 16 8 17 9 18 10 8 11 7 12
REMARK SMILES IDX 6 13 5 14 4 15 3 16 2 17 1 18
REMARK H PARENT
REMARK Flexibility Score: inf
ROOT
ATOM      1  C   UNL     1      -5.053  94.612 -11.570  1.00  0.00     0.000 C 
ENDROOT
BRANCH   1   2
ATOM      2  C   UNL     1      -3.572  94.808 -11.205  1.00  0.00     0.000 C 
BRANCH   2   3
ATOM      3  C   UNL     1      -3.301  94.761  -9.684  1.00  0.00     0.000 C 
BRANCH   3   4
ATOM      4  C   UNL     1      -4.488  94.228  -8.859  1.00  0.00     0.000 C 
BRANCH   4   5
ATOM      5  C   UNL     1      -4.347  92.770  -8.377  1.00  0.00     0.000 C 
BRANCH   5   6
ATOM      6  C   UNL     1      -5.113  91.722  -9.206  1.00  0.00     0.006 C 
BRANCH   6   7
ATOM      7  C   UNL     1      -4.661  90.285  -8.921  1.00  0.00     0.053 C 
BRANCH   7   8
ATOM      8  C   UNL     1      -4.881  89.944  -7.480  1.00  0.00     0.041 C 
ATOM      9  O   UNL     1      -6.028  90.051  -6.972  1.00  0.00    -0.550 OA
ATOM     10  O   UNL     1      -3.809  89.556  -6.686  1.00  0.00    -0.550 OA
ENDBRANCH   7   8
ENDBRANCH   6   7
ENDBRANCH   5   6
ENDBRANCH   4   5
ENDBRANCH   3   4
ENDBRANCH   2   3
ENDBRANCH   1   2
BRANCH   1  11
ATOM     11  C   UNL     1      -5.253  93.554 -12.668  1.00  0.00     0.000 C 
BRANCH  11  12
ATOM     12  C   UNL     1      -4.051  92.603 -12.798  1.00  0.00    -0.000 C 
BRANCH  12  13
ATOM     13  C   UNL     1      -4.080  91.793 -14.105  1.00  0.00    -0.000 C 
BRANCH  13  14
ATOM     14  C   UNL     1      -3.977  90.277 -13.864  1.00  0.00    -0.000 C 
BRANCH  14  15
ATOM     15  C   UNL     1      -5.342  89.571 -13.936  1.00  0.00    -0.000 C 
BRANCH  15  16
ATOM     16  C   UNL     1      -5.975  89.371 -12.551  1.00  0.00    -0.000 C 
BRANCH  16  17
ATOM     17  C   UNL     1      -7.140  90.336 -12.285  1.00  0.00    -0.003 C 
ATOM     18  C   UNL     1      -7.714  90.878 -13.591  1.00  0.00     0.004 C 
ENDBRANCH  16  17
ENDBRANCH  15  16
ENDBRANCH  14  15
ENDBRANCH  13  14
ENDBRANCH  12  13
ENDBRANCH  11  12
ENDBRANCH   1  11
TORSDOF 14
ENDMDL
