MODEL 1
REMARK VINA RESULT:    -4.722      0.000      0.000
REMARK INTER + INTRA:          -6.204
REMARK INTER:                  -5.826
REMARK INTRA:                  -0.378
REMARK UNBOUND:                -0.378
REMARK SMILES Oc1cc(O)c2cc(O)c(-c3cc(O)c(O)c(O)c3)[o+]c2c1.[Cl-]
REMARK SMILES IDX 10 1 20 2 21 3 22 4 2 5 3 6 4 7 6 8 7 9 8 10 11 11 12 12
REMARK SMILES IDX 13 13 19 14 15 15 17 16 14 17 16 19 18 21 9 23 1 25 5 27
REMARK H PARENT 14 18 16 20 18 22 9 24 1 26 5 28
REMARK Flexibility Score: inf
ROOT
ATOM      1  C   UNL     1     -42.674 -21.544  27.105  1.00  0.00     0.402 A 
ATOM      2  O   UNL     1     -43.126 -20.501  26.413  1.00  0.00    -0.202 OA
ATOM      3  C   UNL     1     -44.404 -20.139  26.386  1.00  0.00     0.368 A 
ATOM      4  C   UNL     1     -44.782 -19.025  25.632  1.00  0.00     0.162 A 
ATOM      5  C   UNL     1     -46.119 -18.623  25.589  1.00  0.00     0.128 A 
ATOM      6  C   UNL     1     -47.084 -19.337  26.304  1.00  0.00     0.093 A 
ATOM      7  C   UNL     1     -46.732 -20.457  27.067  1.00  0.00     0.136 A 
ATOM      8  C   UNL     1     -45.375 -20.871  27.112  1.00  0.00     0.125 A 
ATOM      9  C   UNL     1     -44.933 -21.988  27.839  1.00  0.00     0.078 A 
ATOM     10  C   UNL     1     -43.579 -22.339  27.832  1.00  0.00     0.223 A 
ENDROOT
BRANCH   1  11
ATOM     11  C   UNL     1     -41.224 -21.838  27.062  1.00  0.00     0.091 A 
ATOM     12  C   UNL     1     -40.674 -22.661  26.065  1.00  0.00     0.068 A 
ATOM     13  C   UNL     1     -39.301 -22.947  26.054  1.00  0.00     0.162 A 
ATOM     14  C   UNL     1     -40.387 -21.334  28.069  1.00  0.00     0.068 A 
ATOM     15  C   UNL     1     -38.469 -22.419  27.054  1.00  0.00     0.200 A 
ATOM     16  C   UNL     1     -39.014 -21.615  28.063  1.00  0.00     0.162 A 
BRANCH  13  17
ATOM     17  O   UNL     1     -38.764 -23.759  25.055  1.00  0.00    -0.504 OA
ATOM     18  H   UNL     1     -38.738 -24.767  25.146  1.00  0.00     0.293 HD
ENDBRANCH  13  17
BRANCH  15  19
ATOM     19  O   UNL     1     -37.099 -22.685  27.062  1.00  0.00    -0.502 OA
ATOM     20  H   UNL     1     -36.493 -22.411  26.298  1.00  0.00     0.293 HD
ENDBRANCH  15  19
BRANCH  16  21
ATOM     21  O   UNL     1     -38.186 -21.099  29.058  1.00  0.00    -0.504 OA
ATOM     22  H   UNL     1     -37.668 -21.704  29.685  1.00  0.00     0.293 HD
ENDBRANCH  16  21
ENDBRANCH   1  11
BRANCH  10  23
ATOM     23  O   UNL     1     -43.147 -23.476  28.513  1.00  0.00    -0.500 OA
ATOM     24  H   UNL     1     -42.338 -23.457  29.124  1.00  0.00     0.294 HD
ENDBRANCH  10  23
BRANCH   5  25
ATOM     25  O   UNL     1     -46.503 -17.513  24.839  1.00  0.00    -0.507 OA
ATOM     26  H   UNL     1     -46.248 -17.419  23.863  1.00  0.00     0.293 HD
ENDBRANCH   5  25
BRANCH   7  27
ATOM     27  O   UNL     1     -47.756 -21.115  27.756  1.00  0.00    -0.507 OA
ATOM     28  H   UNL     1     -48.024 -20.914  28.707  1.00  0.00     0.293 HD
ENDBRANCH   7  27
TORSDOF 7
ENDMDL
MODEL 2
REMARK VINA RESULT:    -4.694      2.288      6.487
REMARK INTER + INTRA:          -6.169
REMARK INTER:                  -5.788
REMARK INTRA:                  -0.382
REMARK UNBOUND:                -0.378
REMARK SMILES Oc1cc(O)c2cc(O)c(-c3cc(O)c(O)c(O)c3)[o+]c2c1.[Cl-]
REMARK SMILES IDX 10 1 20 2 21 3 22 4 2 5 3 6 4 7 6 8 7 9 8 10 11 11 12 12
REMARK SMILES IDX 13 13 19 14 15 15 17 16 14 17 16 19 18 21 9 23 1 25 5 27
REMARK H PARENT 14 18 16 20 18 22 9 24 1 26 5 28
REMARK Flexibility Score: inf
ROOT
ATOM      1  C   UNL     1     -43.477 -21.571  27.073  1.00  0.00     0.402 A 
ATOM      2  O   UNL     1     -42.895 -20.557  26.437  1.00  0.00    -0.202 OA
ATOM      3  C   UNL     1     -41.656 -20.151  26.691  1.00  0.00     0.368 A 
ATOM      4  C   UNL     1     -41.129 -19.078  25.967  1.00  0.00     0.162 A 
ATOM      5  C   UNL     1     -39.827 -18.633  26.213  1.00  0.00     0.128 A 
ATOM      6  C   UNL     1     -39.047 -19.264  27.186  1.00  0.00     0.093 A 
ATOM      7  C   UNL     1     -39.552 -20.341  27.924  1.00  0.00     0.136 A 
ATOM      8  C   UNL     1     -40.874 -20.795  27.681  1.00  0.00     0.125 A 
ATOM      9  C   UNL     1     -41.467 -21.858  28.382  1.00  0.00     0.078 A 
ATOM     10  C   UNL     1     -42.778 -22.247  28.090  1.00  0.00     0.223 A 
ENDROOT
BRANCH   1  11
ATOM     11  C   UNL     1     -44.861 -21.934  26.692  1.00  0.00     0.091 A 
ATOM     12  C   UNL     1     -45.119 -22.944  25.750  1.00  0.00     0.068 A 
ATOM     13  C   UNL     1     -46.436 -23.259  25.384  1.00  0.00     0.162 A 
ATOM     14  C   UNL     1     -45.938 -21.218  27.237  1.00  0.00     0.068 A 
ATOM     15  C   UNL     1     -47.508 -22.552  25.954  1.00  0.00     0.200 A 
ATOM     16  C   UNL     1     -47.256 -21.529  26.877  1.00  0.00     0.162 A 
BRANCH  13  17
ATOM     17  O   UNL     1     -46.681 -24.268  24.455  1.00  0.00    -0.504 OA
ATOM     18  H   UNL     1     -47.505 -24.260  23.865  1.00  0.00     0.293 HD
ENDBRANCH  13  17
BRANCH  15  19
ATOM     19  O   UNL     1     -48.826 -22.850  25.610  1.00  0.00    -0.502 OA
ATOM     20  H   UNL     1     -49.313 -23.654  25.988  1.00  0.00     0.293 HD
ENDBRANCH  15  19
BRANCH  16  21
ATOM     21  O   UNL     1     -48.323 -20.825  27.434  1.00  0.00    -0.504 OA
ATOM     22  H   UNL     1     -49.210 -20.737  26.953  1.00  0.00     0.293 HD
ENDBRANCH  16  21
ENDBRANCH   1  11
BRANCH  10  23
ATOM     23  O   UNL     1     -43.384 -23.269  28.819  1.00  0.00    -0.500 OA
ATOM     24  H   UNL     1     -44.222 -23.108  29.367  1.00  0.00     0.294 HD
ENDBRANCH  10  23
BRANCH   5  25
ATOM     25  O   UNL     1     -39.295 -17.564  25.495  1.00  0.00    -0.507 OA
ATOM     26  H   UNL     1     -38.323 -17.547  25.211  1.00  0.00     0.293 HD
ENDBRANCH   5  25
BRANCH   7  27
ATOM     27  O   UNL     1     -38.708 -20.919  28.878  1.00  0.00    -0.507 OA
ATOM     28  H   UNL     1     -38.822 -21.850  29.250  1.00  0.00     0.293 HD
ENDBRANCH   7  27
TORSDOF 7
ENDMDL
MODEL 3
REMARK VINA RESULT:    -4.677      3.595      5.116
REMARK INTER + INTRA:          -6.149
REMARK INTER:                  -5.802
REMARK INTRA:                  -0.347
REMARK UNBOUND:                -0.378
REMARK SMILES Oc1cc(O)c2cc(O)c(-c3cc(O)c(O)c(O)c3)[o+]c2c1.[Cl-]
REMARK SMILES IDX 10 1 20 2 21 3 22 4 2 5 3 6 4 7 6 8 7 9 8 10 11 11 12 12
REMARK SMILES IDX 13 13 19 14 15 15 17 16 14 17 16 19 18 21 9 23 1 25 5 27
REMARK H PARENT 14 18 16 20 18 22 9 24 1 26 5 28
REMARK Flexibility Score: inf
ROOT
ATOM      1  C   UNL     1     -39.816 -20.232  26.223  1.00  0.00     0.402 A 
ATOM      2  O   UNL     1     -41.075 -20.533  25.918  1.00  0.00    -0.202 OA
ATOM      3  C   UNL     1     -41.902 -21.150  26.755  1.00  0.00     0.368 A 
ATOM      4  C   UNL     1     -43.210 -21.420  26.345  1.00  0.00     0.162 A 
ATOM      5  C   UNL     1     -44.101 -22.066  27.207  1.00  0.00     0.128 A 
ATOM      6  C   UNL     1     -43.682 -22.443  28.486  1.00  0.00     0.093 A 
ATOM      7  C   UNL     1     -42.377 -22.184  28.920  1.00  0.00     0.136 A 
ATOM      8  C   UNL     1     -41.468 -21.531  28.048  1.00  0.00     0.125 A 
ATOM      9  C   UNL     1     -40.137 -21.242  28.394  1.00  0.00     0.078 A 
ATOM     10  C   UNL     1     -39.298 -20.600  27.478  1.00  0.00     0.223 A 
ENDROOT
BRANCH   1  11
ATOM     11  C   UNL     1     -38.997 -19.533  25.207  1.00  0.00     0.091 A 
ATOM     12  C   UNL     1     -39.133 -18.153  24.980  1.00  0.00     0.068 A 
ATOM     13  C   UNL     1     -38.365 -17.512  23.997  1.00  0.00     0.162 A 
ATOM     14  C   UNL     1     -38.106 -20.271  24.411  1.00  0.00     0.068 A 
ATOM     15  C   UNL     1     -37.460 -18.256  23.222  1.00  0.00     0.200 A 
ATOM     16  C   UNL     1     -37.335 -19.636  23.428  1.00  0.00     0.162 A 
BRANCH  13  17
ATOM     17  O   UNL     1     -38.502 -16.141  23.786  1.00  0.00    -0.504 OA
ATOM     18  H   UNL     1     -39.413 -15.705  23.703  1.00  0.00     0.293 HD
ENDBRANCH  13  17
BRANCH  15  19
ATOM     19  O   UNL     1     -36.681 -17.641  22.242  1.00  0.00    -0.502 OA
ATOM     20  H   UNL     1     -37.092 -17.167  21.446  1.00  0.00     0.293 HD
ENDBRANCH  15  19
BRANCH  16  21
ATOM     21  O   UNL     1     -36.441 -20.371  22.651  1.00  0.00    -0.504 OA
ATOM     22  H   UNL     1     -36.072 -20.009  21.780  1.00  0.00     0.293 HD
ENDBRANCH  16  21
ENDBRANCH   1  11
BRANCH  10  23
ATOM     23  O   UNL     1     -37.963 -20.358  27.803  1.00  0.00    -0.500 OA
ATOM     24  H   UNL     1     -37.217 -20.504  27.132  1.00  0.00     0.294 HD
ENDBRANCH  10  23
BRANCH   5  25
ATOM     25  O   UNL     1     -45.406 -22.338  26.805  1.00  0.00    -0.507 OA
ATOM     26  H   UNL     1     -45.607 -23.007  26.071  1.00  0.00     0.293 HD
ENDBRANCH   5  25
BRANCH   7  27
ATOM     27  O   UNL     1     -42.036 -22.590  30.214  1.00  0.00    -0.507 OA
ATOM     28  H   UNL     1     -41.101 -22.569  30.591  1.00  0.00     0.293 HD
ENDBRANCH   7  27
TORSDOF 7
ENDMDL
MODEL 4
REMARK VINA RESULT:    -4.608      2.106      3.366
REMARK INTER + INTRA:          -6.063
REMARK INTER:                  -5.681
REMARK INTRA:                  -0.382
REMARK UNBOUND:                -0.378
REMARK SMILES Oc1cc(O)c2cc(O)c(-c3cc(O)c(O)c(O)c3)[o+]c2c1.[Cl-]
REMARK SMILES IDX 10 1 20 2 21 3 22 4 2 5 3 6 4 7 6 8 7 9 8 10 11 11 12 12
REMARK SMILES IDX 13 13 19 14 15 15 17 16 14 17 16 19 18 21 9 23 1 25 5 27
REMARK H PARENT 14 18 16 20 18 22 9 24 1 26 5 28
REMARK Flexibility Score: inf
ROOT
ATOM      1  C   UNL     1     -41.400 -19.118  26.055  1.00  0.00     0.402 A 
ATOM      2  O   UNL     1     -42.586 -19.719  26.105  1.00  0.00    -0.202 OA
ATOM      3  C   UNL     1     -43.734 -19.094  25.866  1.00  0.00     0.368 A 
ATOM      4  C   UNL     1     -44.930 -19.813  25.939  1.00  0.00     0.162 A 
ATOM      5  C   UNL     1     -46.150 -19.179  25.690  1.00  0.00     0.128 A 
ATOM      6  C   UNL     1     -46.175 -17.821  25.364  1.00  0.00     0.093 A 
ATOM      7  C   UNL     1     -44.991 -17.078  25.284  1.00  0.00     0.136 A 
ATOM      8  C   UNL     1     -43.749 -17.716  25.539  1.00  0.00     0.125 A 
ATOM      9  C   UNL     1     -42.514 -17.048  25.495  1.00  0.00     0.078 A 
ATOM     10  C   UNL     1     -41.331 -17.743  25.764  1.00  0.00     0.223 A 
ENDROOT
BRANCH   1  11
ATOM     11  C   UNL     1     -40.192 -19.926  26.332  1.00  0.00     0.091 A 
ATOM     12  C   UNL     1     -39.456 -20.521  25.293  1.00  0.00     0.068 A 
ATOM     13  C   UNL     1     -38.326 -21.303  25.577  1.00  0.00     0.162 A 
ATOM     14  C   UNL     1     -39.804 -20.155  27.661  1.00  0.00     0.068 A 
ATOM     15  C   UNL     1     -37.933 -21.506  26.910  1.00  0.00     0.200 A 
ATOM     16  C   UNL     1     -38.675 -20.934  27.951  1.00  0.00     0.162 A 
BRANCH  13  17
ATOM     17  O   UNL     1     -37.599 -21.882  24.539  1.00  0.00    -0.504 OA
ATOM     18  H   UNL     1     -36.711 -21.501  24.234  1.00  0.00     0.293 HD
ENDBRANCH  13  17
BRANCH  15  19
ATOM     19  O   UNL     1     -36.811 -22.276  27.218  1.00  0.00    -0.502 OA
ATOM     20  H   UNL     1     -36.674 -22.686  28.134  1.00  0.00     0.293 HD
ENDBRANCH  15  19
BRANCH  16  21
ATOM     21  O   UNL     1     -38.286 -21.144  29.273  1.00  0.00    -0.504 OA
ATOM     22  H   UNL     1     -38.277 -22.071  29.683  1.00  0.00     0.293 HD
ENDBRANCH  16  21
ENDBRANCH   1  11
BRANCH  10  23
ATOM     23  O   UNL     1     -40.110 -17.069  25.769  1.00  0.00    -0.500 OA
ATOM     24  H   UNL     1     -39.773 -16.570  24.953  1.00  0.00     0.294 HD
ENDBRANCH  10  23
BRANCH   5  25
ATOM     25  O   UNL     1     -47.346 -19.890  25.760  1.00  0.00    -0.507 OA
ATOM     26  H   UNL     1     -47.383 -20.884  25.569  1.00  0.00     0.293 HD
ENDBRANCH   5  25
BRANCH   7  27
ATOM     27  O   UNL     1     -45.101 -15.725  24.950  1.00  0.00    -0.507 OA
ATOM     28  H   UNL     1     -45.098 -15.368  24.007  1.00  0.00     0.293 HD
ENDBRANCH   7  27
TORSDOF 7
ENDMDL
MODEL 5
REMARK VINA RESULT:    -4.600      2.742      4.431
REMARK INTER + INTRA:          -6.054
REMARK INTER:                  -6.083
REMARK INTRA:                   0.030
REMARK UNBOUND:                -0.378
REMARK SMILES Oc1cc(O)c2cc(O)c(-c3cc(O)c(O)c(O)c3)[o+]c2c1.[Cl-]
REMARK SMILES IDX 10 1 20 2 21 3 22 4 2 5 3 6 4 7 6 8 7 9 8 10 11 11 12 12
REMARK SMILES IDX 13 13 19 14 15 15 17 16 14 17 16 19 18 21 9 23 1 25 5 27
REMARK H PARENT 14 18 16 20 18 22 9 24 1 26 5 28
REMARK Flexibility Score: inf
ROOT
ATOM      1  C   UNL     1     -39.977 -21.285  27.511  1.00  0.00     0.402 A 
ATOM      2  O   UNL     1     -41.159 -21.090  26.932  1.00  0.00    -0.202 OA
ATOM      3  C   UNL     1     -41.550 -19.917  26.447  1.00  0.00     0.368 A 
ATOM      4  C   UNL     1     -42.811 -19.813  25.852  1.00  0.00     0.162 A 
ATOM      5  C   UNL     1     -43.246 -18.591  25.332  1.00  0.00     0.128 A 
ATOM      6  C   UNL     1     -42.417 -17.469  25.404  1.00  0.00     0.093 A 
ATOM      7  C   UNL     1     -41.150 -17.547  25.995  1.00  0.00     0.136 A 
ATOM      8  C   UNL     1     -40.704 -18.785  26.527  1.00  0.00     0.125 A 
ATOM      9  C   UNL     1     -39.456 -18.954  27.149  1.00  0.00     0.078 A 
ATOM     10  C   UNL     1     -39.088 -20.204  27.655  1.00  0.00     0.223 A 
ENDROOT
BRANCH   1  11
ATOM     11  C   UNL     1     -39.653 -22.643  28.004  1.00  0.00     0.091 A 
ATOM     12  C   UNL     1     -38.368 -23.191  27.846  1.00  0.00     0.068 A 
ATOM     13  C   UNL     1     -38.087 -24.489  28.298  1.00  0.00     0.162 A 
ATOM     14  C   UNL     1     -40.661 -23.424  28.589  1.00  0.00     0.068 A 
ATOM     15  C   UNL     1     -39.097 -25.253  28.904  1.00  0.00     0.200 A 
ATOM     16  C   UNL     1     -40.385 -24.720  29.045  1.00  0.00     0.162 A 
BRANCH  13  17
ATOM     17  O   UNL     1     -36.807 -25.020  28.143  1.00  0.00    -0.504 OA
ATOM     18  H   UNL     1     -36.564 -25.598  27.348  1.00  0.00     0.293 HD
ENDBRANCH  13  17
BRANCH  15  19
ATOM     19  O   UNL     1     -38.841 -26.544  29.367  1.00  0.00    -0.502 OA
ATOM     20  H   UNL     1     -39.213 -27.365  28.905  1.00  0.00     0.293 HD
ENDBRANCH  15  19
BRANCH  16  21
ATOM     21  O   UNL     1     -41.387 -25.485  29.640  1.00  0.00    -0.504 OA
ATOM     22  H   UNL     1     -41.626 -25.379  30.619  1.00  0.00     0.293 HD
ENDBRANCH  16  21
ENDBRANCH   1  11
BRANCH  10  23
ATOM     23  O   UNL     1     -37.870 -20.360  28.316  1.00  0.00    -0.500 OA
ATOM     24  H   UNL     1     -37.569 -19.716  29.040  1.00  0.00     0.294 HD
ENDBRANCH  10  23
BRANCH   5  25
ATOM     25  O   UNL     1     -44.501 -18.480  24.737  1.00  0.00    -0.507 OA
ATOM     26  H   UNL     1     -44.787 -17.635  24.257  1.00  0.00     0.293 HD
ENDBRANCH   5  25
BRANCH   7  27
ATOM     27  O   UNL     1     -40.380 -16.380  26.026  1.00  0.00    -0.507 OA
ATOM     28  H   UNL     1     -39.820 -16.088  26.812  1.00  0.00     0.293 HD
ENDBRANCH   7  27
TORSDOF 7
ENDMDL
MODEL 6
REMARK VINA RESULT:    -4.596      5.056      7.503
REMARK INTER + INTRA:          -6.049
REMARK INTER:                  -5.665
REMARK INTRA:                  -0.384
REMARK UNBOUND:                -0.378
REMARK SMILES Oc1cc(O)c2cc(O)c(-c3cc(O)c(O)c(O)c3)[o+]c2c1.[Cl-]
REMARK SMILES IDX 10 1 20 2 21 3 22 4 2 5 3 6 4 7 6 8 7 9 8 10 11 11 12 12
REMARK SMILES IDX 13 13 19 14 15 15 17 16 14 17 16 19 18 21 9 23 1 25 5 27
REMARK H PARENT 14 18 16 20 18 22 9 24 1 26 5 28
REMARK Flexibility Score: inf
ROOT
ATOM      1  C   UNL     1     -40.934 -17.045  25.589  1.00  0.00     0.402 A 
ATOM      2  O   UNL     1     -40.020 -17.638  26.352  1.00  0.00    -0.202 OA
ATOM      3  C   UNL     1     -40.156 -18.869  26.833  1.00  0.00     0.368 A 
ATOM      4  C   UNL     1     -39.137 -19.409  27.623  1.00  0.00     0.162 A 
ATOM      5  C   UNL     1     -39.255 -20.702  28.139  1.00  0.00     0.128 A 
ATOM      6  C   UNL     1     -40.395 -21.461  27.863  1.00  0.00     0.093 A 
ATOM      7  C   UNL     1     -41.429 -20.944  27.074  1.00  0.00     0.136 A 
ATOM      8  C   UNL     1     -41.317 -19.630  26.550  1.00  0.00     0.125 A 
ATOM      9  C   UNL     1     -42.309 -19.025  25.761  1.00  0.00     0.078 A 
ATOM     10  C   UNL     1     -42.129 -17.723  25.284  1.00  0.00     0.223 A 
ENDROOT
BRANCH   1  11
ATOM     11  C   UNL     1     -40.661 -15.673  25.107  1.00  0.00     0.091 A 
ATOM     12  C   UNL     1     -40.099 -15.441  23.839  1.00  0.00     0.068 A 
ATOM     13  C   UNL     1     -39.826 -14.135  23.408  1.00  0.00     0.162 A 
ATOM     14  C   UNL     1     -40.913 -14.581  25.951  1.00  0.00     0.068 A 
ATOM     15  C   UNL     1     -40.103 -13.048  24.253  1.00  0.00     0.200 A 
ATOM     16  C   UNL     1     -40.644 -13.273  25.525  1.00  0.00     0.162 A 
BRANCH  13  17
ATOM     17  O   UNL     1     -39.276 -13.916  22.146  1.00  0.00    -0.504 OA
ATOM     18  H   UNL     1     -38.276 -13.833  22.009  1.00  0.00     0.293 HD
ENDBRANCH  13  17
BRANCH  15  19
ATOM     19  O   UNL     1     -39.845 -11.739  23.845  1.00  0.00    -0.502 OA
ATOM     20  H   UNL     1     -38.954 -11.288  24.013  1.00  0.00     0.293 HD
ENDBRANCH  15  19
BRANCH  16  21
ATOM     21  O   UNL     1     -40.911 -12.191  26.363  1.00  0.00    -0.504 OA
ATOM     22  H   UNL     1     -40.247 -11.888  27.067  1.00  0.00     0.293 HD
ENDBRANCH  16  21
ENDBRANCH   1  11
BRANCH  10  23
ATOM     23  O   UNL     1     -43.135 -17.104  24.542  1.00  0.00    -0.500 OA
ATOM     24  H   UNL     1     -43.908 -16.624  24.989  1.00  0.00     0.294 HD
ENDBRANCH  10  23
BRANCH   5  25
ATOM     25  O   UNL     1     -38.243 -21.246  28.927  1.00  0.00    -0.507 OA
ATOM     26  H   UNL     1     -37.628 -21.970  28.575  1.00  0.00     0.293 HD
ENDBRANCH   5  25
BRANCH   7  27
ATOM     27  O   UNL     1     -42.536 -21.767  26.842  1.00  0.00    -0.507 OA
ATOM     28  H   UNL     1     -43.304 -21.884  27.484  1.00  0.00     0.293 HD
ENDBRANCH   7  27
TORSDOF 7
ENDMDL
MODEL 7
REMARK VINA RESULT:    -4.581      8.573      9.813
REMARK INTER + INTRA:          -6.030
REMARK INTER:                  -5.698
REMARK INTRA:                  -0.332
REMARK UNBOUND:                -0.378
REMARK SMILES Oc1cc(O)c2cc(O)c(-c3cc(O)c(O)c(O)c3)[o+]c2c1.[Cl-]
REMARK SMILES IDX 10 1 20 2 21 3 22 4 2 5 3 6 4 7 6 8 7 9 8 10 11 11 12 12
REMARK SMILES IDX 13 13 19 14 15 15 17 16 14 17 16 19 18 21 9 23 1 25 5 27
REMARK H PARENT 14 18 16 20 18 22 9 24 1 26 5 28
REMARK Flexibility Score: inf
ROOT
ATOM      1  C   UNL     1     -40.489 -12.723  23.662  1.00  0.00     0.402 A 
ATOM      2  O   UNL     1     -41.558 -12.630  22.876  1.00  0.00    -0.202 OA
ATOM      3  C   UNL     1     -42.793 -12.899  23.288  1.00  0.00     0.368 A 
ATOM      4  C   UNL     1     -43.854 -12.769  22.388  1.00  0.00     0.162 A 
ATOM      5  C   UNL     1     -45.162 -13.044  22.796  1.00  0.00     0.128 A 
ATOM      6  C   UNL     1     -45.411 -13.449  24.110  1.00  0.00     0.093 A 
ATOM      7  C   UNL     1     -44.365 -13.587  25.030  1.00  0.00     0.136 A 
ATOM      8  C   UNL     1     -43.035 -13.312  24.621  1.00  0.00     0.125 A 
ATOM      9  C   UNL     1     -41.923 -13.436  25.470  1.00  0.00     0.078 A 
ATOM     10  C   UNL     1     -40.640 -13.152  24.993  1.00  0.00     0.223 A 
ENDROOT
BRANCH   1  11
ATOM     11  C   UNL     1     -39.167 -12.386  23.088  1.00  0.00     0.091 A 
ATOM     12  C   UNL     1     -38.257 -13.388  22.709  1.00  0.00     0.068 A 
ATOM     13  C   UNL     1     -36.999 -13.050  22.188  1.00  0.00     0.162 A 
ATOM     14  C   UNL     1     -38.787 -11.041  22.971  1.00  0.00     0.068 A 
ATOM     15  C   UNL     1     -36.638 -11.699  22.055  1.00  0.00     0.200 A 
ATOM     16  C   UNL     1     -37.532 -10.696  22.450  1.00  0.00     0.162 A 
BRANCH  13  17
ATOM     17  O   UNL     1     -36.107 -14.052  21.809  1.00  0.00    -0.504 OA
ATOM     18  H   UNL     1     -36.084 -14.413  20.863  1.00  0.00     0.293 HD
ENDBRANCH  13  17
BRANCH  15  19
ATOM     19  O   UNL     1     -35.396 -11.337  21.535  1.00  0.00    -0.502 OA
ATOM     20  H   UNL     1     -35.036 -10.393  21.607  1.00  0.00     0.293 HD
ENDBRANCH  15  19
BRANCH  16  21
ATOM     21  O   UNL     1     -37.167  -9.357  22.322  1.00  0.00    -0.504 OA
ATOM     22  H   UNL     1     -36.337  -9.079  21.812  1.00  0.00     0.293 HD
ENDBRANCH  16  21
ENDBRANCH   1  11
BRANCH  10  23
ATOM     23  O   UNL     1     -39.532 -13.323  25.822  1.00  0.00    -0.500 OA
ATOM     24  H   UNL     1     -39.458 -12.852  26.717  1.00  0.00     0.294 HD
ENDBRANCH  10  23
BRANCH   5  25
ATOM     25  O   UNL     1     -46.225 -12.916  21.905  1.00  0.00    -0.507 OA
ATOM     26  H   UNL     1     -46.427 -13.629  21.214  1.00  0.00     0.293 HD
ENDBRANCH   5  25
BRANCH   7  27
ATOM     27  O   UNL     1     -44.697 -13.994  26.326  1.00  0.00    -0.507 OA
ATOM     28  H   UNL     1     -45.048 -13.379  27.045  1.00  0.00     0.293 HD
ENDBRANCH   7  27
TORSDOF 7
ENDMDL
MODEL 8
REMARK VINA RESULT:    -4.572      4.684      8.548
REMARK INTER + INTRA:          -6.020
REMARK INTER:                  -5.640
REMARK INTRA:                  -0.380
REMARK UNBOUND:                -0.378
REMARK SMILES Oc1cc(O)c2cc(O)c(-c3cc(O)c(O)c(O)c3)[o+]c2c1.[Cl-]
REMARK SMILES IDX 10 1 20 2 21 3 22 4 2 5 3 6 4 7 6 8 7 9 8 10 11 11 12 12
REMARK SMILES IDX 13 13 19 14 15 15 17 16 14 17 16 19 18 21 9 23 1 25 5 27
REMARK H PARENT 14 18 16 20 18 22 9 24 1 26 5 28
REMARK Flexibility Score: inf
ROOT
ATOM      1  C   UNL     1     -40.732 -16.695  25.245  1.00  0.00     0.402 A 
ATOM      2  O   UNL     1     -40.469 -17.350  26.373  1.00  0.00    -0.202 OA
ATOM      3  C   UNL     1     -39.759 -18.471  26.418  1.00  0.00     0.368 A 
ATOM      4  C   UNL     1     -39.532 -19.085  27.653  1.00  0.00     0.162 A 
ATOM      5  C   UNL     1     -38.786 -20.264  27.729  1.00  0.00     0.128 A 
ATOM      6  C   UNL     1     -38.261 -20.831  26.565  1.00  0.00     0.093 A 
ATOM      7  C   UNL     1     -38.474 -20.236  25.316  1.00  0.00     0.136 A 
ATOM      8  C   UNL     1     -39.233 -19.040  25.232  1.00  0.00     0.125 A 
ATOM      9  C   UNL     1     -39.508 -18.382  24.023  1.00  0.00     0.078 A 
ATOM     10  C   UNL     1     -40.269 -17.209  24.019  1.00  0.00     0.223 A 
ENDROOT
BRANCH   1  11
ATOM     11  C   UNL     1     -41.528 -15.449  25.326  1.00  0.00     0.091 A 
ATOM     12  C   UNL     1     -42.930 -15.469  25.228  1.00  0.00     0.068 A 
ATOM     13  C   UNL     1     -43.666 -14.276  25.285  1.00  0.00     0.162 A 
ATOM     14  C   UNL     1     -40.870 -14.216  25.447  1.00  0.00     0.068 A 
ATOM     15  C   UNL     1     -42.998 -13.049  25.428  1.00  0.00     0.200 A 
ATOM     16  C   UNL     1     -41.600 -13.021  25.506  1.00  0.00     0.162 A 
BRANCH  13  17
ATOM     17  O   UNL     1     -45.056 -14.308  25.193  1.00  0.00    -0.504 OA
ATOM     18  H   UNL     1     -45.646 -14.152  26.002  1.00  0.00     0.293 HD
ENDBRANCH  13  17
BRANCH  15  19
ATOM     19  O   UNL     1     -43.707 -11.850  25.492  1.00  0.00    -0.502 OA
ATOM     20  H   UNL     1     -43.967 -11.424  26.374  1.00  0.00     0.293 HD
ENDBRANCH  15  19
BRANCH  16  21
ATOM     21  O   UNL     1     -40.941 -11.800  25.641  1.00  0.00    -0.504 OA
ATOM     22  H   UNL     1     -40.577 -11.489  26.534  1.00  0.00     0.293 HD
ENDBRANCH  16  21
ENDBRANCH   1  11
BRANCH  10  23
ATOM     23  O   UNL     1     -40.584 -16.582  22.814  1.00  0.00    -0.500 OA
ATOM     24  H   UNL     1     -41.195 -15.774  22.777  1.00  0.00     0.294 HD
ENDBRANCH  10  23
BRANCH   5  25
ATOM     25  O   UNL     1     -38.556 -20.880  28.957  1.00  0.00    -0.507 OA
ATOM     26  H   UNL     1     -38.464 -21.886  29.036  1.00  0.00     0.293 HD
ENDBRANCH   5  25
BRANCH   7  27
ATOM     27  O   UNL     1     -37.914 -20.865  24.199  1.00  0.00    -0.507 OA
ATOM     28  H   UNL     1     -38.353 -21.613  23.685  1.00  0.00     0.293 HD
ENDBRANCH   7  27
TORSDOF 7
ENDMDL
MODEL 9
REMARK VINA RESULT:    -4.565      2.425      7.680
REMARK INTER + INTRA:          -6.011
REMARK INTER:                  -5.642
REMARK INTRA:                  -0.369
REMARK UNBOUND:                -0.378
REMARK SMILES Oc1cc(O)c2cc(O)c(-c3cc(O)c(O)c(O)c3)[o+]c2c1.[Cl-]
REMARK SMILES IDX 10 1 20 2 21 3 22 4 2 5 3 6 4 7 6 8 7 9 8 10 11 11 12 12
REMARK SMILES IDX 13 13 19 14 15 15 17 16 14 17 16 19 18 21 9 23 1 25 5 27
REMARK H PARENT 14 18 16 20 18 22 9 24 1 26 5 28
REMARK Flexibility Score: inf
ROOT
ATOM      1  C   UNL     1     -42.569 -18.994  25.466  1.00  0.00     0.402 A 
ATOM      2  O   UNL     1     -41.674 -19.206  26.427  1.00  0.00    -0.202 OA
ATOM      3  C   UNL     1     -40.542 -19.874  26.237  1.00  0.00     0.368 A 
ATOM      4  C   UNL     1     -39.662 -20.042  27.310  1.00  0.00     0.162 A 
ATOM      5  C   UNL     1     -38.463 -20.739  27.136  1.00  0.00     0.128 A 
ATOM      6  C   UNL     1     -38.141 -21.269  25.884  1.00  0.00     0.093 A 
ATOM      7  C   UNL     1     -39.006 -21.116  24.794  1.00  0.00     0.136 A 
ATOM      8  C   UNL     1     -40.226 -20.411  24.965  1.00  0.00     0.125 A 
ATOM      9  C   UNL     1     -41.159 -20.219  23.933  1.00  0.00     0.078 A 
ATOM     10  C   UNL     1     -42.343 -19.518  24.179  1.00  0.00     0.223 A 
ENDROOT
BRANCH   1  11
ATOM     11  C   UNL     1     -43.789 -18.225  25.801  1.00  0.00     0.091 A 
ATOM     12  C   UNL     1     -43.792 -16.820  25.797  1.00  0.00     0.068 A 
ATOM     13  C   UNL     1     -44.951 -16.108  26.140  1.00  0.00     0.162 A 
ATOM     14  C   UNL     1     -44.952 -18.909  26.186  1.00  0.00     0.068 A 
ATOM     15  C   UNL     1     -46.116 -16.803  26.502  1.00  0.00     0.200 A 
ATOM     16  C   UNL     1     -46.114 -18.203  26.528  1.00  0.00     0.162 A 
BRANCH  13  17
ATOM     17  O   UNL     1     -44.944 -14.714  26.125  1.00  0.00    -0.504 OA
ATOM     18  H   UNL     1     -45.273 -14.173  26.916  1.00  0.00     0.293 HD
ENDBRANCH  13  17
BRANCH  15  19
ATOM     19  O   UNL     1     -47.283 -16.118  26.842  1.00  0.00    -0.502 OA
ATOM     20  H   UNL     1     -47.530 -15.920  27.804  1.00  0.00     0.293 HD
ENDBRANCH  15  19
BRANCH  16  21
ATOM     21  O   UNL     1     -47.271 -18.889  26.895  1.00  0.00    -0.504 OA
ATOM     22  H   UNL     1     -47.469 -19.820  26.549  1.00  0.00     0.293 HD
ENDBRANCH  16  21
ENDBRANCH   1  11
BRANCH  10  23
ATOM     23  O   UNL     1     -43.292 -19.370  23.168  1.00  0.00    -0.500 OA
ATOM     24  H   UNL     1     -43.756 -20.170  22.751  1.00  0.00     0.294 HD
ENDBRANCH  10  23
BRANCH   5  25
ATOM     25  O   UNL     1     -37.581 -20.909  28.200  1.00  0.00    -0.507 OA
ATOM     26  H   UNL     1     -37.427 -20.177  28.884  1.00  0.00     0.293 HD
ENDBRANCH   5  25
BRANCH   7  27
ATOM     27  O   UNL     1     -38.611 -21.674  23.574  1.00  0.00    -0.507 OA
ATOM     28  H   UNL     1     -39.117 -21.569  22.708  1.00  0.00     0.293 HD
ENDBRANCH   7  27
TORSDOF 7
ENDMDL
