MODEL 1
REMARK VINA RESULT:    -6.697      0.000      0.000
REMARK INTER + INTRA:          -6.697
REMARK INTER:                  -6.697
REMARK INTRA:                   0.000
REMARK UNBOUND:                 0.000
REMARK SMILES C=C1CCC[C@@]2(C)CC(=O)C(=C(C)C)C[C@H]12
REMARK SMILES IDX 13 1 12 2 11 3 15 4 16 5 2 6 1 7 3 8 4 9 5 10 6 11 8 12 9 13
REMARK SMILES IDX 10 14 7 15 14 16
REMARK H PARENT
REMARK Flexibility Score: inf
ROOT
ATOM      1  C   UNL     1      12.811 -29.335  23.513  1.00  0.00     0.039 C 
ATOM      2  C   UNL     1      12.738 -30.379  22.422  1.00  0.00    -0.070 C 
ATOM      3  C   UNL     1      13.784 -31.223  22.178  1.00  0.00    -0.006 C 
ATOM      4  C   UNL     1      15.059 -31.160  23.009  1.00  0.00     0.047 C 
ATOM      5  C   UNL     1      15.762 -32.534  23.132  1.00  0.00     0.025 C 
ATOM      6  C   UNL     1      17.071 -32.525  23.923  1.00  0.00    -0.073 C 
ATOM      7  C   UNL     1      17.610 -31.422  24.476  1.00  0.00     0.008 C 
ATOM      8  C   UNL     1      17.746 -33.863  24.110  1.00  0.00     0.031 C 
ATOM      9  C   UNL     1      17.943 -34.555  22.758  1.00  0.00     0.005 C 
ATOM     10  C   UNL     1      16.630 -34.618  21.958  1.00  0.00     0.008 C 
ATOM     11  C   UNL     1      15.976 -33.220  21.747  1.00  0.00    -0.018 C 
ATOM     12  C   UNL     1      14.593 -33.431  21.081  1.00  0.00     0.088 C 
ATOM     13  C   UNL     1      13.796 -32.161  21.017  1.00  0.00     0.159 C 
ATOM     14  O   UNL     1      13.154 -31.904  19.963  1.00  0.00    -0.295 OA
ATOM     15  C   UNL     1      16.871 -32.363  20.809  1.00  0.00     0.012 C 
ATOM     16  C   UNL     1      11.444 -30.467  21.646  1.00  0.00     0.039 C 
ENDROOT
TORSDOF 0
ENDMDL
MODEL 2
REMARK VINA RESULT:    -6.540      1.904      2.902
REMARK INTER + INTRA:          -6.540
REMARK INTER:                  -6.540
REMARK INTRA:                   0.000
REMARK UNBOUND:                 0.000
REMARK SMILES C=C1CCC[C@@]2(C)CC(=O)C(=C(C)C)C[C@H]12
REMARK SMILES IDX 13 1 12 2 11 3 15 4 16 5 2 6 1 7 3 8 4 9 5 10 6 11 8 12 9 13
REMARK SMILES IDX 10 14 7 15 14 16
REMARK H PARENT
REMARK Flexibility Score: inf
ROOT
ATOM      1  C   UNL     1      13.871 -26.353  23.643  1.00  0.00     0.039 C 
ATOM      2  C   UNL     1      12.904 -27.505  23.500  1.00  0.00    -0.070 C 
ATOM      3  C   UNL     1      13.317 -28.725  23.043  1.00  0.00    -0.006 C 
ATOM      4  C   UNL     1      14.774 -28.978  22.680  1.00  0.00     0.047 C 
ATOM      5  C   UNL     1      15.203 -30.448  22.909  1.00  0.00     0.025 C 
ATOM      6  C   UNL     1      16.647 -30.772  22.523  1.00  0.00    -0.073 C 
ATOM      7  C   UNL     1      17.509 -29.874  22.008  1.00  0.00     0.008 C 
ATOM      8  C   UNL     1      17.109 -32.184  22.793  1.00  0.00     0.031 C 
ATOM      9  C   UNL     1      16.146 -33.191  22.157  1.00  0.00     0.005 C 
ATOM     10  C   UNL     1      14.688 -32.916  22.564  1.00  0.00     0.008 C 
ATOM     11  C   UNL     1      14.227 -31.464  22.238  1.00  0.00    -0.018 C 
ATOM     12  C   UNL     1      12.813 -31.262  22.839  1.00  0.00     0.088 C 
ATOM     13  C   UNL     1      12.361 -29.833  22.755  1.00  0.00     0.159 C 
ATOM     14  O   UNL     1      11.167 -29.598  22.424  1.00  0.00    -0.295 OA
ATOM     15  C   UNL     1      14.160 -31.272  20.697  1.00  0.00     0.012 C 
ATOM     16  C   UNL     1      11.474 -27.255  23.921  1.00  0.00     0.039 C 
ENDROOT
TORSDOF 0
ENDMDL
MODEL 3
REMARK VINA RESULT:    -6.336      2.074      5.367
REMARK INTER + INTRA:          -6.336
REMARK INTER:                  -6.336
REMARK INTRA:                   0.000
REMARK UNBOUND:                 0.000
REMARK SMILES C=C1CCC[C@@]2(C)CC(=O)C(=C(C)C)C[C@H]12
REMARK SMILES IDX 13 1 12 2 11 3 15 4 16 5 2 6 1 7 3 8 4 9 5 10 6 11 8 12 9 13
REMARK SMILES IDX 10 14 7 15 14 16
REMARK H PARENT
REMARK Flexibility Score: inf
ROOT
ATOM      1  C   UNL     1      16.170 -36.100  19.378  1.00  0.00     0.039 C 
ATOM      2  C   UNL     1      16.871 -35.520  20.585  1.00  0.00    -0.070 C 
ATOM      3  C   UNL     1      16.500 -34.314  21.109  1.00  0.00    -0.006 C 
ATOM      4  C   UNL     1      15.350 -33.515  20.511  1.00  0.00     0.047 C 
ATOM      5  C   UNL     1      14.607 -32.654  21.562  1.00  0.00     0.025 C 
ATOM      6  C   UNL     1      13.466 -31.798  21.011  1.00  0.00    -0.073 C 
ATOM      7  C   UNL     1      13.112 -31.759  19.712  1.00  0.00     0.008 C 
ATOM      8  C   UNL     1      12.686 -30.994  22.024  1.00  0.00     0.031 C 
ATOM      9  C   UNL     1      13.634 -30.141  22.873  1.00  0.00     0.005 C 
ATOM     10  C   UNL     1      14.769 -30.987  23.477  1.00  0.00     0.008 C 
ATOM     11  C   UNL     1      15.581 -31.774  22.406  1.00  0.00    -0.018 C 
ATOM     12  C   UNL     1      16.575 -32.705  23.144  1.00  0.00     0.088 C 
ATOM     13  C   UNL     1      17.265 -33.653  22.206  1.00  0.00     0.159 C 
ATOM     14  O   UNL     1      18.499 -33.862  22.361  1.00  0.00    -0.295 OA
ATOM     15  C   UNL     1      16.376 -30.776  21.518  1.00  0.00     0.012 C 
ATOM     16  C   UNL     1      17.970 -36.353  21.203  1.00  0.00     0.039 C 
ENDROOT
TORSDOF 0
ENDMDL
MODEL 4
REMARK VINA RESULT:    -6.308      3.345      5.290
REMARK INTER + INTRA:          -6.308
REMARK INTER:                  -6.308
REMARK INTRA:                   0.000
REMARK UNBOUND:                 0.000
REMARK SMILES C=C1CCC[C@@]2(C)CC(=O)C(=C(C)C)C[C@H]12
REMARK SMILES IDX 13 1 12 2 11 3 15 4 16 5 2 6 1 7 3 8 4 9 5 10 6 11 8 12 9 13
REMARK SMILES IDX 10 14 7 15 14 16
REMARK H PARENT
REMARK Flexibility Score: inf
ROOT
ATOM      1  C   UNL     1      19.391 -27.313  21.153  1.00  0.00     0.039 C 
ATOM      2  C   UNL     1      19.738 -28.771  20.952  1.00  0.00    -0.070 C 
ATOM      3  C   UNL     1      18.815 -29.755  21.168  1.00  0.00    -0.006 C 
ATOM      4  C   UNL     1      17.393 -29.422  21.599  1.00  0.00     0.047 C 
ATOM      5  C   UNL     1      16.356 -30.456  21.095  1.00  0.00     0.025 C 
ATOM      6  C   UNL     1      14.914 -30.195  21.531  1.00  0.00    -0.073 C 
ATOM      7  C   UNL     1      14.536 -29.161  22.307  1.00  0.00     0.008 C 
ATOM      8  C   UNL     1      13.873 -31.154  21.003  1.00  0.00     0.031 C 
ATOM      9  C   UNL     1      14.274 -32.599  21.313  1.00  0.00     0.005 C 
ATOM     10  C   UNL     1      15.707 -32.903  20.844  1.00  0.00     0.008 C 
ATOM     11  C   UNL     1      16.764 -31.923  21.435  1.00  0.00    -0.018 C 
ATOM     12  C   UNL     1      18.128 -32.225  20.766  1.00  0.00     0.088 C 
ATOM     13  C   UNL     1      19.170 -31.203  21.118  1.00  0.00     0.159 C 
ATOM     14  O   UNL     1      20.338 -31.600  21.382  1.00  0.00    -0.295 OA
ATOM     15  C   UNL     1      16.884 -32.149  22.968  1.00  0.00     0.012 C 
ATOM     16  C   UNL     1      21.135 -29.080  20.467  1.00  0.00     0.039 C 
ENDROOT
TORSDOF 0
ENDMDL
MODEL 5
REMARK VINA RESULT:    -6.303      6.405      8.144
REMARK INTER + INTRA:          -6.303
REMARK INTER:                  -6.303
REMARK INTRA:                   0.000
REMARK UNBOUND:                 0.000
REMARK SMILES C=C1CCC[C@@]2(C)CC(=O)C(=C(C)C)C[C@H]12
REMARK SMILES IDX 13 1 12 2 11 3 15 4 16 5 2 6 1 7 3 8 4 9 5 10 6 11 8 12 9 13
REMARK SMILES IDX 10 14 7 15 14 16
REMARK H PARENT
REMARK Flexibility Score: inf
ROOT
ATOM      1  C   UNL     1      20.804 -31.763  21.755  1.00  0.00     0.039 C 
ATOM      2  C   UNL     1      19.723 -30.808  21.306  1.00  0.00    -0.070 C 
ATOM      3  C   UNL     1      19.968 -29.470  21.176  1.00  0.00    -0.006 C 
ATOM      4  C   UNL     1      21.347 -28.890  21.458  1.00  0.00     0.047 C 
ATOM      5  C   UNL     1      21.657 -27.635  20.605  1.00  0.00     0.025 C 
ATOM      6  C   UNL     1      23.014 -26.985  20.875  1.00  0.00    -0.073 C 
ATOM      7  C   UNL     1      23.898 -27.434  21.787  1.00  0.00     0.008 C 
ATOM      8  C   UNL     1      23.367 -25.795  20.014  1.00  0.00     0.031 C 
ATOM      9  C   UNL     1      22.251 -24.748  20.069  1.00  0.00     0.005 C 
ATOM     10  C   UNL     1      20.877 -25.366  19.758  1.00  0.00     0.008 C 
ATOM     11  C   UNL     1      20.523 -26.566  20.687  1.00  0.00    -0.018 C 
ATOM     12  C   UNL     1      19.207 -27.201  20.172  1.00  0.00     0.088 C 
ATOM     13  C   UNL     1      18.886 -28.487  20.876  1.00  0.00     0.159 C 
ATOM     14  O   UNL     1      17.691 -28.706  21.216  1.00  0.00    -0.295 OA
ATOM     15  C   UNL     1      20.312 -26.056  22.139  1.00  0.00     0.012 C 
ATOM     16  C   UNL     1      18.376 -31.407  20.972  1.00  0.00     0.039 C 
ENDROOT
TORSDOF 0
ENDMDL
MODEL 6
REMARK VINA RESULT:    -6.291      2.655      3.416
REMARK INTER + INTRA:          -6.291
REMARK INTER:                  -6.291
REMARK INTRA:                   0.000
REMARK UNBOUND:                 0.000
REMARK SMILES C=C1CCC[C@@]2(C)CC(=O)C(=C(C)C)C[C@H]12
REMARK SMILES IDX 13 1 12 2 11 3 15 4 16 5 2 6 1 7 3 8 4 9 5 10 6 11 8 12 9 13
REMARK SMILES IDX 10 14 7 15 14 16
REMARK H PARENT
REMARK Flexibility Score: inf
ROOT
ATOM      1  C   UNL     1      13.794 -29.489  23.045  1.00  0.00     0.039 C 
ATOM      2  C   UNL     1      14.336 -30.898  23.128  1.00  0.00    -0.070 C 
ATOM      3  C   UNL     1      15.552 -31.221  22.595  1.00  0.00    -0.006 C 
ATOM      4  C   UNL     1      16.419 -30.171  21.915  1.00  0.00     0.047 C 
ATOM      5  C   UNL     1      17.934 -30.465  22.048  1.00  0.00     0.025 C 
ATOM      6  C   UNL     1      18.854 -29.465  21.349  1.00  0.00    -0.073 C 
ATOM      7  C   UNL     1      18.418 -28.400  20.649  1.00  0.00     0.008 C 
ATOM      8  C   UNL     1      20.338 -29.694  21.514  1.00  0.00     0.031 C 
ATOM      9  C   UNL     1      20.703 -31.127  21.116  1.00  0.00     0.005 C 
ATOM     10  C   UNL     1      19.821 -32.159  21.839  1.00  0.00     0.008 C 
ATOM     11  C   UNL     1      18.297 -31.921  21.618  1.00  0.00    -0.018 C 
ATOM     12  C   UNL     1      17.520 -32.912  22.521  1.00  0.00     0.088 C 
ATOM     13  C   UNL     1      16.046 -32.628  22.534  1.00  0.00     0.159 C 
ATOM     14  O   UNL     1      15.245 -33.600  22.478  1.00  0.00    -0.295 OA
ATOM     15  C   UNL     1      17.937 -32.192  20.131  1.00  0.00     0.012 C 
ATOM     16  C   UNL     1      13.490 -31.915  23.858  1.00  0.00     0.039 C 
ENDROOT
TORSDOF 0
ENDMDL
MODEL 7
REMARK VINA RESULT:    -6.201      2.484      5.291
REMARK INTER + INTRA:          -6.201
REMARK INTER:                  -6.201
REMARK INTRA:                   0.000
REMARK UNBOUND:                 0.000
REMARK SMILES C=C1CCC[C@@]2(C)CC(=O)C(=C(C)C)C[C@H]12
REMARK SMILES IDX 13 1 12 2 11 3 15 4 16 5 2 6 1 7 3 8 4 9 5 10 6 11 8 12 9 13
REMARK SMILES IDX 10 14 7 15 14 16
REMARK H PARENT
REMARK Flexibility Score: inf
ROOT
ATOM      1  C   UNL     1      16.876 -36.319  26.029  1.00  0.00     0.039 C 
ATOM      2  C   UNL     1      17.607 -36.198  24.711  1.00  0.00    -0.070 C 
ATOM      3  C   UNL     1      17.196 -35.316  23.752  1.00  0.00    -0.006 C 
ATOM      4  C   UNL     1      15.999 -34.403  23.980  1.00  0.00     0.047 C 
ATOM      5  C   UNL     1      16.117 -33.058  23.222  1.00  0.00     0.025 C 
ATOM      6  C   UNL     1      14.923 -32.116  23.382  1.00  0.00    -0.073 C 
ATOM      7  C   UNL     1      13.827 -32.404  24.110  1.00  0.00     0.008 C 
ATOM      8  C   UNL     1      15.038 -30.772  22.702  1.00  0.00     0.031 C 
ATOM      9  C   UNL     1      15.384 -30.952  21.221  1.00  0.00     0.005 C 
ATOM     10  C   UNL     1      16.611 -31.861  21.032  1.00  0.00     0.008 C 
ATOM     11  C   UNL     1      16.448 -33.255  21.710  1.00  0.00    -0.018 C 
ATOM     12  C   UNL     1      17.797 -34.007  21.593  1.00  0.00     0.088 C 
ATOM     13  C   UNL     1      17.807 -35.279  22.391  1.00  0.00     0.159 C 
ATOM     14  O   UNL     1      18.327 -36.307  21.879  1.00  0.00    -0.295 OA
ATOM     15  C   UNL     1      15.344 -34.065  20.976  1.00  0.00     0.012 C 
ATOM     16  C   UNL     1      18.828 -37.068  24.523  1.00  0.00     0.039 C 
ENDROOT
TORSDOF 0
ENDMDL
MODEL 8
REMARK VINA RESULT:    -6.123      1.748      2.892
REMARK INTER + INTRA:          -6.123
REMARK INTER:                  -6.123
REMARK INTRA:                   0.000
REMARK UNBOUND:                 0.000
REMARK SMILES C=C1CCC[C@@]2(C)CC(=O)C(=C(C)C)C[C@H]12
REMARK SMILES IDX 13 1 12 2 11 3 15 4 16 5 2 6 1 7 3 8 4 9 5 10 6 11 8 12 9 13
REMARK SMILES IDX 10 14 7 15 14 16
REMARK H PARENT
REMARK Flexibility Score: inf
ROOT
ATOM      1  C   UNL     1      15.977 -30.772  23.500  1.00  0.00     0.039 C 
ATOM      2  C   UNL     1      15.007 -31.402  22.527  1.00  0.00    -0.070 C 
ATOM      3  C   UNL     1      15.390 -32.423  21.705  1.00  0.00    -0.006 C 
ATOM      4  C   UNL     1      16.806 -32.982  21.750  1.00  0.00     0.047 C 
ATOM      5  C   UNL     1      16.869 -34.484  21.376  1.00  0.00     0.025 C 
ATOM      6  C   UNL     1      18.272 -35.092  21.365  1.00  0.00    -0.073 C 
ATOM      7  C   UNL     1      19.395 -34.402  21.643  1.00  0.00     0.008 C 
ATOM      8  C   UNL     1      18.357 -36.569  21.063  1.00  0.00     0.031 C 
ATOM      9  C   UNL     1      17.625 -36.889  19.756  1.00  0.00     0.005 C 
ATOM     10  C   UNL     1      16.193 -36.326  19.757  1.00  0.00     0.008 C 
ATOM     11  C   UNL     1      16.139 -34.794  20.032  1.00  0.00    -0.018 C 
ATOM     12  C   UNL     1      14.652 -34.382  20.171  1.00  0.00     0.088 C 
ATOM     13  C   UNL     1      14.499 -32.963  20.637  1.00  0.00     0.159 C 
ATOM     14  O   UNL     1      13.615 -32.244  20.097  1.00  0.00    -0.295 OA
ATOM     15  C   UNL     1      16.773 -34.027  18.839  1.00  0.00     0.012 C 
ATOM     16  C   UNL     1      13.590 -30.875  22.536  1.00  0.00     0.039 C 
ENDROOT
TORSDOF 0
ENDMDL
MODEL 9
REMARK VINA RESULT:    -6.098      2.588      5.860
REMARK INTER + INTRA:          -6.098
REMARK INTER:                  -6.098
REMARK INTRA:                   0.000
REMARK UNBOUND:                 0.000
REMARK SMILES C=C1CCC[C@@]2(C)CC(=O)C(=C(C)C)C[C@H]12
REMARK SMILES IDX 13 1 12 2 11 3 15 4 16 5 2 6 1 7 3 8 4 9 5 10 6 11 8 12 9 13
REMARK SMILES IDX 10 14 7 15 14 16
REMARK H PARENT
REMARK Flexibility Score: inf
ROOT
ATOM      1  C   UNL     1      19.064 -37.220  22.483  1.00  0.00     0.039 C 
ATOM      2  C   UNL     1      18.391 -36.404  23.563  1.00  0.00    -0.070 C 
ATOM      3  C   UNL     1      17.581 -35.349  23.253  1.00  0.00    -0.006 C 
ATOM      4  C   UNL     1      17.306 -34.965  21.805  1.00  0.00     0.047 C 
ATOM      5  C   UNL     1      15.907 -34.329  21.608  1.00  0.00     0.025 C 
ATOM      6  C   UNL     1      15.590 -33.886  20.180  1.00  0.00    -0.073 C 
ATOM      7  C   UNL     1      16.442 -34.012  19.144  1.00  0.00     0.008 C 
ATOM      8  C   UNL     1      14.210 -33.318  19.948  1.00  0.00     0.031 C 
ATOM      9  C   UNL     1      13.929 -32.182  20.936  1.00  0.00     0.005 C 
ATOM     10  C   UNL     1      14.198 -32.613  22.387  1.00  0.00     0.008 C 
ATOM     11  C   UNL     1      15.641 -33.158  22.605  1.00  0.00    -0.018 C 
ATOM     12  C   UNL     1      15.734 -33.709  24.051  1.00  0.00     0.088 C 
ATOM     13  C   UNL     1      17.022 -34.440  24.296  1.00  0.00     0.159 C 
ATOM     14  O   UNL     1      17.621 -34.255  25.390  1.00  0.00    -0.295 OA
ATOM     15  C   UNL     1      16.666 -32.004  22.430  1.00  0.00     0.012 C 
ATOM     16  C   UNL     1      18.627 -36.834  24.992  1.00  0.00     0.039 C 
ENDROOT
TORSDOF 0
ENDMDL
