MODEL 1
REMARK VINA RESULT:    -6.867      0.000      0.000
REMARK INTER + INTRA:          -9.216
REMARK INTER:                  -8.673
REMARK INTRA:                  -0.543
REMARK UNBOUND:                -0.543
REMARK SMILES O=C(C=Cc1ccc(O)cc1)c1ccc(O)cc1O
REMARK SMILES IDX 4 1 3 2 5 3 6 4 7 5 8 6 11 7 10 8 9 9 2 11 1 12 12 13 18 14
REMARK SMILES IDX 13 15 17 16 14 17 15 18 19 19 16 21
REMARK H PARENT 9 10 19 20 16 22
REMARK Flexibility Score: inf
ROOT
ATOM      1  C   UNL     1     -23.474  60.668  31.102  1.00  0.00     0.012 C 
ATOM      2  C   UNL     1     -24.052  59.474  31.299  1.00  0.00     0.053 C 
ENDROOT
BRANCH   1   3
ATOM      3  C   UNL     1     -22.891  61.101  29.808  1.00  0.00    -0.025 A 
ATOM      4  C   UNL     1     -21.501  61.121  29.567  1.00  0.00     0.012 A 
ATOM      5  C   UNL     1     -21.005  61.529  28.326  1.00  0.00     0.047 A 
ATOM      6  C   UNL     1     -21.884  61.913  27.305  1.00  0.00     0.115 A 
ATOM      7  C   UNL     1     -23.763  61.475  28.772  1.00  0.00     0.012 A 
ATOM      8  C   UNL     1     -23.262  61.883  27.532  1.00  0.00     0.047 A 
BRANCH   6   9
ATOM      9  O   UNL     1     -21.399  62.323  26.066  1.00  0.00    -0.508 OA
ATOM     10  H   UNL     1     -21.050  61.656  25.387  1.00  0.00     0.293 HD
ENDBRANCH   6   9
ENDBRANCH   1   3
BRANCH   2  11
ATOM     11  C   UNL     1     -24.630  59.066  32.598  1.00  0.00     0.189 C 
ATOM     12  O   UNL     1     -24.321  57.934  33.056  1.00  0.00    -0.289 OA
BRANCH  11  13
ATOM     13  C   UNL     1     -25.527  59.942  33.391  1.00  0.00     0.064 A 
ATOM     14  C   UNL     1     -26.892  60.066  33.056  1.00  0.00     0.130 A 
ATOM     15  C   UNL     1     -25.032  60.623  34.517  1.00  0.00     0.020 A 
ATOM     16  C   UNL     1     -27.731  60.876  33.835  1.00  0.00     0.093 A 
ATOM     17  C   UNL     1     -25.876  61.430  35.285  1.00  0.00     0.047 A 
ATOM     18  C   UNL     1     -27.225  61.560  34.947  1.00  0.00     0.119 A 
BRANCH  14  19
ATOM     19  O   UNL     1     -27.407  59.397  31.945  1.00  0.00    -0.507 OA
ATOM     20  H   UNL     1     -27.617  58.406  31.973  1.00  0.00     0.293 HD
ENDBRANCH  14  19
BRANCH  18  21
ATOM     21  O   UNL     1     -28.054  62.368  35.722  1.00  0.00    -0.508 OA
ATOM     22  H   UNL     1     -27.734  62.777  36.591  1.00  0.00     0.293 HD
ENDBRANCH  18  21
ENDBRANCH  11  13
ENDBRANCH   2  11
TORSDOF 6
ENDMDL
MODEL 2
REMARK VINA RESULT:    -6.559      1.485      7.328
REMARK INTER + INTRA:          -8.827
REMARK INTER:                  -8.187
REMARK INTRA:                  -0.641
REMARK UNBOUND:                -0.543
REMARK SMILES O=C(C=Cc1ccc(O)cc1)c1ccc(O)cc1O
REMARK SMILES IDX 4 1 3 2 5 3 6 4 7 5 8 6 11 7 10 8 9 9 2 11 1 12 12 13 18 14
REMARK SMILES IDX 13 15 17 16 14 17 15 18 19 19 16 21
REMARK H PARENT 9 10 19 20 16 22
REMARK Flexibility Score: inf
ROOT
ATOM      1  C   UNL     1     -25.546  60.447  31.997  1.00  0.00     0.012 C 
ATOM      2  C   UNL     1     -24.252  60.096  32.019  1.00  0.00     0.053 C 
ENDROOT
BRANCH   1   3
ATOM      3  C   UNL     1     -26.246  61.098  33.133  1.00  0.00    -0.025 A 
ATOM      4  C   UNL     1     -27.454  61.808  32.978  1.00  0.00     0.012 A 
ATOM      5  C   UNL     1     -28.077  62.393  34.084  1.00  0.00     0.047 A 
ATOM      6  C   UNL     1     -27.512  62.271  35.359  1.00  0.00     0.115 A 
ATOM      7  C   UNL     1     -25.696  60.970  34.420  1.00  0.00     0.012 A 
ATOM      8  C   UNL     1     -26.322  61.557  35.524  1.00  0.00     0.047 A 
BRANCH   6   9
ATOM      9  O   UNL     1     -28.124  62.852  36.467  1.00  0.00    -0.508 OA
ATOM     10  H   UNL     1     -27.724  63.659  36.932  1.00  0.00     0.293 HD
ENDBRANCH   6   9
ENDBRANCH   1   3
BRANCH   2  11
ATOM     11  C   UNL     1     -23.577  59.452  30.872  1.00  0.00     0.189 C 
ATOM     12  O   UNL     1     -23.540  58.192  30.835  1.00  0.00    -0.289 OA
BRANCH  11  13
ATOM     13  C   UNL     1     -22.971  60.221  29.758  1.00  0.00     0.064 A 
ATOM     14  C   UNL     1     -21.571  60.257  29.585  1.00  0.00     0.130 A 
ATOM     15  C   UNL     1     -23.794  60.886  28.831  1.00  0.00     0.020 A 
ATOM     16  C   UNL     1     -21.018  60.966  28.508  1.00  0.00     0.093 A 
ATOM     17  C   UNL     1     -23.233  61.592  27.764  1.00  0.00     0.047 A 
ATOM     18  C   UNL     1     -21.846  61.636  27.599  1.00  0.00     0.119 A 
BRANCH  14  19
ATOM     19  O   UNL     1     -20.734  59.602  30.489  1.00  0.00    -0.507 OA
ATOM     20  H   UNL     1     -20.858  58.621  30.711  1.00  0.00     0.293 HD
ENDBRANCH  14  19
BRANCH  18  21
ATOM     21  O   UNL     1     -21.302  62.343  26.530  1.00  0.00    -0.508 OA
ATOM     22  H   UNL     1     -21.056  63.322  26.613  1.00  0.00     0.293 HD
ENDBRANCH  18  21
ENDBRANCH  11  13
ENDBRANCH   2  11
TORSDOF 6
ENDMDL
MODEL 3
REMARK VINA RESULT:    -6.546     16.731     18.271
REMARK INTER + INTRA:          -8.811
REMARK INTER:                  -8.244
REMARK INTRA:                  -0.567
REMARK UNBOUND:                -0.543
REMARK SMILES O=C(C=Cc1ccc(O)cc1)c1ccc(O)cc1O
REMARK SMILES IDX 4 1 3 2 5 3 6 4 7 5 8 6 11 7 10 8 9 9 2 11 1 12 12 13 18 14
REMARK SMILES IDX 13 15 17 16 14 17 15 18 19 19 16 21
REMARK H PARENT 9 10 19 20 16 22
REMARK Flexibility Score: inf
ROOT
ATOM      1  C   UNL     1     -14.913  46.324  26.275  1.00  0.00     0.012 C 
ATOM      2  C   UNL     1     -16.037  46.000  26.932  1.00  0.00     0.053 C 
ENDROOT
BRANCH   1   3
ATOM      3  C   UNL     1     -14.437  45.625  25.055  1.00  0.00    -0.025 A 
ATOM      4  C   UNL     1     -15.137  44.549  24.472  1.00  0.00     0.012 A 
ATOM      5  C   UNL     1     -14.649  43.933  23.316  1.00  0.00     0.047 A 
ATOM      6  C   UNL     1     -13.466  44.384  22.720  1.00  0.00     0.115 A 
ATOM      7  C   UNL     1     -13.258  46.079  24.440  1.00  0.00     0.012 A 
ATOM      8  C   UNL     1     -12.773  45.459  23.284  1.00  0.00     0.047 A 
BRANCH   6   9
ATOM      9  O   UNL     1     -12.971  43.776  21.570  1.00  0.00    -0.508 OA
ATOM     10  H   UNL     1     -11.989  43.825  21.323  1.00  0.00     0.293 HD
ENDBRANCH   6   9
ENDBRANCH   1   3
BRANCH   2  11
ATOM     11  C   UNL     1     -16.491  46.714  28.145  1.00  0.00     0.189 C 
ATOM     12  O   UNL     1     -16.465  47.974  28.137  1.00  0.00    -0.289 OA
BRANCH  11  13
ATOM     13  C   UNL     1     -16.999  46.014  29.350  1.00  0.00     0.064 A 
ATOM     14  C   UNL     1     -16.794  46.554  30.637  1.00  0.00     0.130 A 
ATOM     15  C   UNL     1     -17.734  44.822  29.215  1.00  0.00     0.020 A 
ATOM     16  C   UNL     1     -17.307  45.893  31.762  1.00  0.00     0.093 A 
ATOM     17  C   UNL     1     -18.238  44.169  30.342  1.00  0.00     0.047 A 
ATOM     18  C   UNL     1     -18.026  44.700  31.617  1.00  0.00     0.119 A 
BRANCH  14  19
ATOM     19  O   UNL     1     -16.072  47.738  30.795  1.00  0.00    -0.507 OA
ATOM     20  H   UNL     1     -16.466  48.540  31.274  1.00  0.00     0.293 HD
ENDBRANCH  14  19
BRANCH  18  21
ATOM     21  O   UNL     1     -18.536  44.038  32.732  1.00  0.00    -0.508 OA
ATOM     22  H   UNL     1     -18.480  44.441  33.659  1.00  0.00     0.293 HD
ENDBRANCH  18  21
ENDBRANCH  11  13
ENDBRANCH   2  11
TORSDOF 6
ENDMDL
MODEL 4
REMARK VINA RESULT:    -6.507     18.256     19.985
REMARK INTER + INTRA:          -8.762
REMARK INTER:                  -8.171
REMARK INTRA:                  -0.591
REMARK UNBOUND:                -0.543
REMARK SMILES O=C(C=Cc1ccc(O)cc1)c1ccc(O)cc1O
REMARK SMILES IDX 4 1 3 2 5 3 6 4 7 5 8 6 11 7 10 8 9 9 2 11 1 12 12 13 18 14
REMARK SMILES IDX 13 15 17 16 14 17 15 18 19 19 16 21
REMARK H PARENT 9 10 19 20 16 22
REMARK Flexibility Score: inf
ROOT
ATOM      1  C   UNL     1     -14.077  45.546  23.514  1.00  0.00     0.012 C 
ATOM      2  C   UNL     1     -13.902  45.765  24.826  1.00  0.00     0.053 C 
ENDROOT
BRANCH   1   3
ATOM      3  C   UNL     1     -13.109  44.813  22.662  1.00  0.00    -0.025 A 
ATOM      4  C   UNL     1     -13.441  43.624  21.980  1.00  0.00     0.012 A 
ATOM      5  C   UNL     1     -12.493  42.978  21.181  1.00  0.00     0.047 A 
ATOM      6  C   UNL     1     -11.206  43.512  21.042  1.00  0.00     0.115 A 
ATOM      7  C   UNL     1     -11.819  45.347  22.502  1.00  0.00     0.012 A 
ATOM      8  C   UNL     1     -10.873  44.697  21.703  1.00  0.00     0.047 A 
BRANCH   6   9
ATOM      9  O   UNL     1     -10.254  42.875  20.250  1.00  0.00    -0.508 OA
ATOM     10  H   UNL     1      -9.699  43.387  19.573  1.00  0.00     0.293 HD
ENDBRANCH   6   9
ENDBRANCH   1   3
BRANCH   2  11
ATOM     11  C   UNL     1     -14.884  46.496  25.655  1.00  0.00     0.189 C 
ATOM     12  O   UNL     1     -15.024  47.733  25.458  1.00  0.00    -0.289 OA
BRANCH  11  13
ATOM     13  C   UNL     1     -15.726  45.833  26.681  1.00  0.00     0.064 A 
ATOM     14  C   UNL     1     -16.151  46.535  27.828  1.00  0.00     0.130 A 
ATOM     15  C   UNL     1     -16.149  44.504  26.494  1.00  0.00     0.020 A 
ATOM     16  C   UNL     1     -16.970  45.899  28.773  1.00  0.00     0.093 A 
ATOM     17  C   UNL     1     -16.962  43.879  27.442  1.00  0.00     0.047 A 
ATOM     18  C   UNL     1     -17.374  44.572  28.583  1.00  0.00     0.119 A 
BRANCH  14  19
ATOM     19  O   UNL     1     -15.748  47.855  28.033  1.00  0.00    -0.507 OA
ATOM     20  H   UNL     1     -16.421  48.606  28.135  1.00  0.00     0.293 HD
ENDBRANCH  14  19
BRANCH  18  21
ATOM     21  O   UNL     1     -18.186  43.936  29.519  1.00  0.00    -0.508 OA
ATOM     22  H   UNL     1     -18.516  44.415  30.348  1.00  0.00     0.293 HD
ENDBRANCH  18  21
ENDBRANCH  11  13
ENDBRANCH   2  11
TORSDOF 6
ENDMDL
MODEL 5
REMARK VINA RESULT:    -6.466     18.315     21.173
REMARK INTER + INTRA:          -8.709
REMARK INTER:                  -8.272
REMARK INTRA:                  -0.437
REMARK UNBOUND:                -0.543
REMARK SMILES O=C(C=Cc1ccc(O)cc1)c1ccc(O)cc1O
REMARK SMILES IDX 4 1 3 2 5 3 6 4 7 5 8 6 11 7 10 8 9 9 2 11 1 12 12 13 18 14
REMARK SMILES IDX 13 15 17 16 14 17 15 18 19 19 16 21
REMARK H PARENT 9 10 19 20 16 22
REMARK Flexibility Score: inf
ROOT
ATOM      1  C   UNL     1     -15.815  45.274  25.897  1.00  0.00     0.012 C 
ATOM      2  C   UNL     1     -14.496  45.519  25.927  1.00  0.00     0.053 C 
ENDROOT
BRANCH   1   3
ATOM      3  C   UNL     1     -16.584  44.745  27.051  1.00  0.00    -0.025 A 
ATOM      4  C   UNL     1     -16.927  43.383  27.178  1.00  0.00     0.012 A 
ATOM      5  C   UNL     1     -17.644  42.936  28.291  1.00  0.00     0.047 A 
ATOM      6  C   UNL     1     -18.021  43.834  29.296  1.00  0.00     0.115 A 
ATOM      7  C   UNL     1     -16.955  45.635  28.073  1.00  0.00     0.012 A 
ATOM      8  C   UNL     1     -17.674  45.183  29.184  1.00  0.00     0.047 A 
BRANCH   6   9
ATOM      9  O   UNL     1     -18.738  43.398  30.408  1.00  0.00    -0.508 OA
ATOM     10  H   UNL     1     -18.756  43.932  31.269  1.00  0.00     0.293 HD
ENDBRANCH   6   9
ENDBRANCH   1   3
BRANCH   2  11
ATOM     11  C   UNL     1     -13.753  46.050  24.764  1.00  0.00     0.189 C 
ATOM     12  O   UNL     1     -13.317  47.231  24.826  1.00  0.00    -0.289 OA
BRANCH  11  13
ATOM     13  C   UNL     1     -13.478  45.245  23.548  1.00  0.00     0.064 A 
ATOM     14  C   UNL     1     -12.226  45.323  22.902  1.00  0.00     0.130 A 
ATOM     15  C   UNL     1     -14.450  44.358  23.055  1.00  0.00     0.020 A 
ATOM     16  C   UNL     1     -11.974  44.533  21.771  1.00  0.00     0.093 A 
ATOM     17  C   UNL     1     -14.191  43.577  21.926  1.00  0.00     0.047 A 
ATOM     18  C   UNL     1     -12.954  43.662  21.281  1.00  0.00     0.119 A 
BRANCH  14  19
ATOM     19  O   UNL     1     -11.243  46.194  23.375  1.00  0.00    -0.507 OA
ATOM     20  H   UNL     1     -11.074  46.314  24.367  1.00  0.00     0.293 HD
ENDBRANCH  14  19
BRANCH  18  21
ATOM     21  O   UNL     1     -12.709  42.877  20.157  1.00  0.00    -0.508 OA
ATOM     22  H   UNL     1     -13.465  42.471  19.619  1.00  0.00     0.293 HD
ENDBRANCH  18  21
ENDBRANCH  11  13
ENDBRANCH   2  11
TORSDOF 6
ENDMDL
MODEL 6
REMARK VINA RESULT:    -6.462     17.115     18.569
REMARK INTER + INTRA:          -8.705
REMARK INTER:                  -8.123
REMARK INTRA:                  -0.582
REMARK UNBOUND:                -0.543
REMARK SMILES O=C(C=Cc1ccc(O)cc1)c1ccc(O)cc1O
REMARK SMILES IDX 4 1 3 2 5 3 6 4 7 5 8 6 11 7 10 8 9 9 2 11 1 12 12 13 18 14
REMARK SMILES IDX 13 15 17 16 14 17 15 18 19 19 16 21
REMARK H PARENT 9 10 19 20 16 22
REMARK Flexibility Score: inf
ROOT
ATOM      1  C   UNL     1     -16.063  44.423  25.395  1.00  0.00     0.012 C 
ATOM      2  C   UNL     1     -16.100  44.778  26.688  1.00  0.00     0.053 C 
ENDROOT
BRANCH   1   3
ATOM      3  C   UNL     1     -14.902  44.668  24.504  1.00  0.00    -0.025 A 
ATOM      4  C   UNL     1     -14.722  43.988  23.282  1.00  0.00     0.012 A 
ATOM      5  C   UNL     1     -13.614  44.265  22.475  1.00  0.00     0.047 A 
ATOM      6  C   UNL     1     -12.678  45.228  22.867  1.00  0.00     0.115 A 
ATOM      7  C   UNL     1     -13.963  45.644  24.880  1.00  0.00     0.012 A 
ATOM      8  C   UNL     1     -12.856  45.917  24.070  1.00  0.00     0.047 A 
BRANCH   6   9
ATOM      9  O   UNL     1     -11.571  45.510  22.071  1.00  0.00    -0.508 OA
ATOM     10  H   UNL     1     -10.973  44.773  21.715  1.00  0.00     0.293 HD
ENDBRANCH   6   9
ENDBRANCH   1   3
BRANCH   2  11
ATOM     11  C   UNL     1     -17.269  44.519  27.557  1.00  0.00     0.189 C 
ATOM     12  O   UNL     1     -18.200  43.802  27.101  1.00  0.00    -0.289 OA
BRANCH  11  13
ATOM     13  C   UNL     1     -17.375  45.042  28.941  1.00  0.00     0.064 A 
ATOM     14  C   UNL     1     -17.969  44.267  29.959  1.00  0.00     0.130 A 
ATOM     15  C   UNL     1     -16.840  46.302  29.262  1.00  0.00     0.020 A 
ATOM     16  C   UNL     1     -18.035  44.766  31.269  1.00  0.00     0.093 A 
ATOM     17  C   UNL     1     -16.912  46.791  30.568  1.00  0.00     0.047 A 
ATOM     18  C   UNL     1     -17.509  46.027  31.574  1.00  0.00     0.119 A 
BRANCH  14  19
ATOM     19  O   UNL     1     -18.504  43.012  29.666  1.00  0.00    -0.507 OA
ATOM     20  H   UNL     1     -19.290  42.904  29.036  1.00  0.00     0.293 HD
ENDBRANCH  14  19
BRANCH  18  21
ATOM     21  O   UNL     1     -17.574  46.528  32.873  1.00  0.00    -0.508 OA
ATOM     22  H   UNL     1     -18.076  46.041  33.605  1.00  0.00     0.293 HD
ENDBRANCH  18  21
ENDBRANCH  11  13
ENDBRANCH   2  11
TORSDOF 6
ENDMDL
MODEL 7
REMARK VINA RESULT:    -6.403     17.072     18.512
REMARK INTER + INTRA:          -8.630
REMARK INTER:                  -8.057
REMARK INTRA:                  -0.573
REMARK UNBOUND:                -0.543
REMARK SMILES O=C(C=Cc1ccc(O)cc1)c1ccc(O)cc1O
REMARK SMILES IDX 4 1 3 2 5 3 6 4 7 5 8 6 11 7 10 8 9 9 2 11 1 12 12 13 18 14
REMARK SMILES IDX 13 15 17 16 14 17 15 18 19 19 16 21
REMARK H PARENT 9 10 19 20 16 22
REMARK Flexibility Score: inf
ROOT
ATOM      1  C   UNL     1     -16.041  44.603  25.452  1.00  0.00     0.012 C 
ATOM      2  C   UNL     1     -16.040  44.803  26.778  1.00  0.00     0.053 C 
ENDROOT
BRANCH   1   3
ATOM      3  C   UNL     1     -14.869  44.854  24.576  1.00  0.00    -0.025 A 
ATOM      4  C   UNL     1     -13.853  45.774  24.908  1.00  0.00     0.012 A 
ATOM      5  C   UNL     1     -12.765  45.965  24.052  1.00  0.00     0.047 A 
ATOM      6  C   UNL     1     -12.668  45.237  22.860  1.00  0.00     0.115 A 
ATOM      7  C   UNL     1     -14.754  44.119  23.384  1.00  0.00     0.012 A 
ATOM      8  C   UNL     1     -13.664  44.314  22.530  1.00  0.00     0.047 A 
BRANCH   6   9
ATOM      9  O   UNL     1     -11.589  45.422  21.999  1.00  0.00    -0.508 OA
ATOM     10  H   UNL     1     -11.713  45.798  21.066  1.00  0.00     0.293 HD
ENDBRANCH   6   9
ENDBRANCH   1   3
BRANCH   2  11
ATOM     11  C   UNL     1     -17.221  44.542  27.629  1.00  0.00     0.189 C 
ATOM     12  O   UNL     1     -18.143  43.823  27.160  1.00  0.00    -0.289 OA
BRANCH  11  13
ATOM     13  C   UNL     1     -17.348  45.064  29.012  1.00  0.00     0.064 A 
ATOM     14  C   UNL     1     -17.934  44.279  30.027  1.00  0.00     0.130 A 
ATOM     15  C   UNL     1     -16.841  46.336  29.335  1.00  0.00     0.020 A 
ATOM     16  C   UNL     1     -18.020  44.778  31.335  1.00  0.00     0.093 A 
ATOM     17  C   UNL     1     -16.934  46.826  30.640  1.00  0.00     0.047 A 
ATOM     18  C   UNL     1     -17.523  46.051  31.642  1.00  0.00     0.119 A 
BRANCH  14  19
ATOM     19  O   UNL     1     -18.441  43.013  29.732  1.00  0.00    -0.507 OA
ATOM     20  H   UNL     1     -17.869  42.302  29.289  1.00  0.00     0.293 HD
ENDBRANCH  14  19
BRANCH  18  21
ATOM     21  O   UNL     1     -17.608  46.552  32.939  1.00  0.00    -0.508 OA
ATOM     22  H   UNL     1     -18.066  47.433  33.138  1.00  0.00     0.293 HD
ENDBRANCH  18  21
ENDBRANCH  11  13
ENDBRANCH   2  11
TORSDOF 6
ENDMDL
MODEL 8
REMARK VINA RESULT:    -6.250     17.433     20.147
REMARK INTER + INTRA:          -8.437
REMARK INTER:                  -7.845
REMARK INTRA:                  -0.593
REMARK UNBOUND:                -0.543
REMARK SMILES O=C(C=Cc1ccc(O)cc1)c1ccc(O)cc1O
REMARK SMILES IDX 4 1 3 2 5 3 6 4 7 5 8 6 11 7 10 8 9 9 2 11 1 12 12 13 18 14
REMARK SMILES IDX 13 15 17 16 14 17 15 18 19 19 16 21
REMARK H PARENT 9 10 19 20 16 22
REMARK Flexibility Score: inf
ROOT
ATOM      1  C   UNL     1     -17.468  44.862  27.604  1.00  0.00     0.012 C 
ATOM      2  C   UNL     1     -16.412  44.366  26.941  1.00  0.00     0.053 C 
ENDROOT
BRANCH   1   3
ATOM      3  C   UNL     1     -17.574  44.895  29.084  1.00  0.00    -0.025 A 
ATOM      4  C   UNL     1     -17.163  46.003  29.853  1.00  0.00     0.012 A 
ATOM      5  C   UNL     1     -17.295  45.984  31.245  1.00  0.00     0.047 A 
ATOM      6  C   UNL     1     -17.846  44.869  31.888  1.00  0.00     0.115 A 
ATOM      7  C   UNL     1     -18.138  43.787  29.739  1.00  0.00     0.012 A 
ATOM      8  C   UNL     1     -18.268  43.773  31.131  1.00  0.00     0.047 A 
BRANCH   6   9
ATOM      9  O   UNL     1     -17.979  44.841  33.273  1.00  0.00    -0.508 OA
ATOM     10  H   UNL     1     -18.585  45.492  33.761  1.00  0.00     0.293 HD
ENDBRANCH   6   9
ENDBRANCH   1   3
BRANCH   2  11
ATOM     11  C   UNL     1     -16.329  44.349  25.464  1.00  0.00     0.189 C 
ATOM     12  O   UNL     1     -17.365  44.043  24.815  1.00  0.00    -0.289 OA
BRANCH  11  13
ATOM     13  C   UNL     1     -15.094  44.702  24.723  1.00  0.00     0.064 A 
ATOM     14  C   UNL     1     -14.757  44.036  23.526  1.00  0.00     0.130 A 
ATOM     15  C   UNL     1     -14.268  45.743  25.184  1.00  0.00     0.020 A 
ATOM     16  C   UNL     1     -13.600  44.404  22.823  1.00  0.00     0.093 A 
ATOM     17  C   UNL     1     -13.116  46.100  24.479  1.00  0.00     0.047 A 
ATOM     18  C   UNL     1     -12.778  45.432  23.298  1.00  0.00     0.119 A 
BRANCH  14  19
ATOM     19  O   UNL     1     -15.563  43.003  23.045  1.00  0.00    -0.507 OA
ATOM     20  H   UNL     1     -15.898  42.992  22.089  1.00  0.00     0.293 HD
ENDBRANCH  14  19
BRANCH  18  21
ATOM     21  O   UNL     1     -11.627  45.800  22.606  1.00  0.00    -0.508 OA
ATOM     22  H   UNL     1     -11.555  46.692  22.132  1.00  0.00     0.293 HD
ENDBRANCH  18  21
ENDBRANCH  11  13
ENDBRANCH   2  11
TORSDOF 6
ENDMDL
MODEL 9
REMARK VINA RESULT:    -6.106      1.802      7.181
REMARK INTER + INTRA:          -8.255
REMARK INTER:                  -7.638
REMARK INTRA:                  -0.616
REMARK UNBOUND:                -0.543
REMARK SMILES O=C(C=Cc1ccc(O)cc1)c1ccc(O)cc1O
REMARK SMILES IDX 4 1 3 2 5 3 6 4 7 5 8 6 11 7 10 8 9 9 2 11 1 12 12 13 18 14
REMARK SMILES IDX 13 15 17 16 14 17 15 18 19 19 16 21
REMARK H PARENT 9 10 19 20 16 22
REMARK Flexibility Score: inf
ROOT
ATOM      1  C   UNL     1     -25.198  61.060  31.962  1.00  0.00     0.012 C 
ATOM      2  C   UNL     1     -24.998  59.881  31.353  1.00  0.00     0.053 C 
ENDROOT
BRANCH   1   3
ATOM      3  C   UNL     1     -25.997  61.226  33.201  1.00  0.00    -0.025 A 
ATOM      4  C   UNL     1     -27.389  61.451  33.185  1.00  0.00     0.012 A 
ATOM      5  C   UNL     1     -28.096  61.590  34.383  1.00  0.00     0.047 A 
ATOM      6  C   UNL     1     -27.430  61.498  35.611  1.00  0.00     0.115 A 
ATOM      7  C   UNL     1     -25.342  61.121  34.440  1.00  0.00     0.012 A 
ATOM      8  C   UNL     1     -26.053  61.262  35.635  1.00  0.00     0.047 A 
BRANCH   6   9
ATOM      9  O   UNL     1     -28.125  61.637  36.810  1.00  0.00    -0.508 OA
ATOM     10  H   UNL     1     -29.070  62.003  36.835  1.00  0.00     0.293 HD
ENDBRANCH   6   9
ENDBRANCH   1   3
BRANCH   2  11
ATOM     11  C   UNL     1     -24.193  59.742  30.120  1.00  0.00     0.189 C 
ATOM     12  O   UNL     1     -24.679  59.076  29.167  1.00  0.00    -0.289 OA
BRANCH  11  13
ATOM     13  C   UNL     1     -22.862  60.374  29.950  1.00  0.00     0.064 A 
ATOM     14  C   UNL     1     -22.513  61.004  28.737  1.00  0.00     0.130 A 
ATOM     15  C   UNL     1     -21.949  60.393  31.020  1.00  0.00     0.020 A 
ATOM     16  C   UNL     1     -21.261  61.622  28.605  1.00  0.00     0.093 A 
ATOM     17  C   UNL     1     -20.703  61.008  30.878  1.00  0.00     0.047 A 
ATOM     18  C   UNL     1     -20.355  61.623  29.672  1.00  0.00     0.119 A 
BRANCH  14  19
ATOM     19  O   UNL     1     -23.404  61.002  27.663  1.00  0.00    -0.507 OA
ATOM     20  H   UNL     1     -23.261  60.407  26.855  1.00  0.00     0.293 HD
ENDBRANCH  14  19
BRANCH  18  21
ATOM     21  O   UNL     1     -19.109  62.233  29.546  1.00  0.00    -0.508 OA
ATOM     22  H   UNL     1     -18.791  62.931  30.208  1.00  0.00     0.293 HD
ENDBRANCH  18  21
ENDBRANCH  11  13
ENDBRANCH   2  11
TORSDOF 6
ENDMDL
