MODEL 1
REMARK VINA RESULT:     0.539      0.000      0.000
REMARK INTER + INTRA:           1.592
REMARK INTER:                   0.759
REMARK INTRA:                   0.833
REMARK UNBOUND:                 0.833
REMARK SMILES C[C@H](CO)CCC(=O)[C@H](C)[C@H]1C(=O)C[C@H]2[C@H]3CC=C4C[C@H](O)CC[C@]4(C)[C@H]3CC[C@]12C
REMARK SMILES IDX 6 1 5 2 2 3 1 4 3 5 4 6 7 8 8 9 9 10 10 11 11 12 12 13 30 14
REMARK SMILES IDX 13 15 14 16 15 17 29 18 31 19 16 20 28 21 27 22 17 23 25 24
REMARK SMILES IDX 18 25 19 26 24 27 26 28 20 29 23 30 21 31 22 32
REMARK H PARENT 4 7 22 33
REMARK Flexibility Score: inf
ROOT
ATOM      1  C   UNL     1      25.079  39.723  21.450  1.00  0.00     0.076 C 
ENDROOT
BRANCH   1   2
ATOM      2  C   UNL     1      24.733  38.239  21.682  1.00  0.00     0.013 C 
BRANCH   2   3
ATOM      3  C   UNL     1      23.230  37.880  21.551  1.00  0.00     0.012 C 
ATOM      4  C   UNL     1      22.949  37.082  20.266  1.00  0.00     0.010 C 
BRANCH   3   5
ATOM      5  C   UNL     1      22.387  39.172  21.582  1.00  0.00     0.159 C 
BRANCH   5   6
ATOM      6  O   UNL     1      21.368  39.124  20.618  1.00  0.00    -0.396 OA
ATOM      7  H   UNL     1      21.454  39.944  20.066  1.00  0.00     0.210 HD
ENDBRANCH   5   6
ENDBRANCH   3   5
ENDBRANCH   2   3
ENDBRANCH   1   2
BRANCH   1   8
ATOM      8  C   UNL     1      26.417  39.912  20.765  1.00  0.00     0.136 C 
ATOM      9  O   UNL     1      26.871  41.046  20.722  1.00  0.00    -0.299 OA
BRANCH   8  10
ATOM     10  C   UNL     1      27.191  38.785  20.074  1.00  0.00     0.064 C 
ATOM     11  C   UNL     1      27.360  38.963  18.556  1.00  0.00     0.017 C 
BRANCH  10  12
ATOM     12  C   UNL     1      26.724  37.327  20.423  1.00  0.00     0.072 C 
ATOM     13  C   UNL     1      26.368  36.495  19.210  1.00  0.00     0.137 C 
ATOM     14  C   UNL     1      27.648  36.348  21.236  1.00  0.00    -0.019 C 
ATOM     15  O   UNL     1      25.762  36.932  18.242  1.00  0.00    -0.299 OA
ATOM     16  C   UNL     1      26.712  35.048  19.365  1.00  0.00     0.080 C 
ATOM     17  C   UNL     1      26.987  34.998  20.860  1.00  0.00     0.007 C 
ATOM     18  C   UNL     1      27.566  36.471  22.778  1.00  0.00     0.008 C 
ATOM     19  C   UNL     1      29.124  36.487  20.767  1.00  0.00     0.012 C 
ATOM     20  C   UNL     1      27.531  33.710  21.513  1.00  0.00     0.001 C 
ATOM     21  C   UNL     1      28.178  35.236  23.496  1.00  0.00     0.005 C 
ATOM     22  C   UNL     1      27.545  33.870  23.060  1.00  0.00     0.003 C 
ATOM     23  C   UNL     1      28.883  33.195  21.011  1.00  0.00     0.031 C 
ATOM     24  C   UNL     1      28.090  32.554  23.804  1.00  0.00    -0.008 C 
ATOM     25  C   UNL     1      29.125  31.842  21.590  1.00  0.00    -0.027 C 
ATOM     26  C   UNL     1      28.767  31.537  22.855  1.00  0.00    -0.065 C 
ATOM     27  C   UNL     1      26.858  31.841  24.453  1.00  0.00     0.014 C 
ATOM     28  C   UNL     1      29.110  32.902  24.923  1.00  0.00     0.016 C 
ATOM     29  C   UNL     1      29.036  30.132  23.364  1.00  0.00     0.063 C 
ATOM     30  C   UNL     1      27.151  30.439  25.016  1.00  0.00     0.033 C 
ATOM     31  C   UNL     1      27.761  29.515  23.950  1.00  0.00     0.118 C 
BRANCH  31  32
ATOM     32  O   UNL     1      26.838  29.277  22.917  1.00  0.00    -0.393 OA
ATOM     33  H   UNL     1      26.871  28.303  22.721  1.00  0.00     0.210 HD
ENDBRANCH  31  32
ENDBRANCH  10  12
ENDBRANCH   8  10
ENDBRANCH   1   8
TORSDOF 8
ENDMDL
MODEL 2
REMARK VINA RESULT:     1.666      3.574      7.021
REMARK INTER + INTRA:           3.181
REMARK INTER:                   2.938
REMARK INTRA:                   0.242
REMARK UNBOUND:                 0.833
REMARK SMILES C[C@H](CO)CCC(=O)[C@H](C)[C@H]1C(=O)C[C@H]2[C@H]3CC=C4C[C@H](O)CC[C@]4(C)[C@H]3CC[C@]12C
REMARK SMILES IDX 6 1 5 2 2 3 1 4 3 5 4 6 7 8 8 9 9 10 10 11 11 12 12 13 30 14
REMARK SMILES IDX 13 15 14 16 15 17 29 18 31 19 16 20 28 21 27 22 17 23 25 24
REMARK SMILES IDX 18 25 19 26 24 27 26 28 20 29 23 30 21 31 22 32
REMARK H PARENT 4 7 22 33
REMARK Flexibility Score: inf
ROOT
ATOM      1  C   UNL     1      27.413  34.409  24.076  1.00  0.00     0.076 C 
ENDROOT
BRANCH   1   2
ATOM      2  C   UNL     1      27.927  35.613  23.264  1.00  0.00     0.013 C 
BRANCH   2   3
ATOM      3  C   UNL     1      27.262  35.809  21.877  1.00  0.00     0.012 C 
ATOM      4  C   UNL     1      28.223  36.476  20.878  1.00  0.00     0.010 C 
BRANCH   3   5
ATOM      5  C   UNL     1      25.978  36.648  22.035  1.00  0.00     0.159 C 
BRANCH   5   6
ATOM      6  O   UNL     1      25.948  37.695  21.101  1.00  0.00    -0.396 OA
ATOM      7  H   UNL     1      25.053  37.675  20.673  1.00  0.00     0.210 HD
ENDBRANCH   5   6
ENDBRANCH   3   5
ENDBRANCH   2   3
ENDBRANCH   1   2
BRANCH   1   8
ATOM      8  C   UNL     1      28.481  33.360  24.309  1.00  0.00     0.136 C 
ATOM      9  O   UNL     1      29.119  33.427  25.349  1.00  0.00    -0.299 OA
BRANCH   8  10
ATOM     10  C   UNL     1      28.845  32.270  23.294  1.00  0.00     0.064 C 
ATOM     11  C   UNL     1      28.914  32.754  21.836  1.00  0.00     0.017 C 
BRANCH  10  12
ATOM     12  C   UNL     1      28.027  30.935  23.408  1.00  0.00     0.072 C 
ATOM     13  C   UNL     1      28.625  29.786  22.626  1.00  0.00     0.137 C 
ATOM     14  C   UNL     1      27.740  30.272  24.805  1.00  0.00    -0.019 C 
ATOM     15  O   UNL     1      29.119  29.906  21.515  1.00  0.00    -0.299 OA
ATOM     16  C   UNL     1      28.435  28.459  23.289  1.00  0.00     0.080 C 
ATOM     17  C   UNL     1      27.402  28.832  24.341  1.00  0.00     0.007 C 
ATOM     18  C   UNL     1      26.494  30.801  25.558  1.00  0.00     0.008 C 
ATOM     19  C   UNL     1      28.996  30.369  25.715  1.00  0.00     0.012 C 
ATOM     20  C   UNL     1      26.964  27.804  25.407  1.00  0.00     0.001 C 
ATOM     21  C   UNL     1      26.054  29.847  26.703  1.00  0.00     0.005 C 
ATOM     22  C   UNL     1      25.778  28.378  26.233  1.00  0.00     0.003 C 
ATOM     23  C   UNL     1      28.054  27.258  26.333  1.00  0.00     0.031 C 
ATOM     24  C   UNL     1      25.262  27.348  27.354  1.00  0.00    -0.008 C 
ATOM     25  C   UNL     1      27.486  26.130  27.126  1.00  0.00    -0.027 C 
ATOM     26  C   UNL     1      26.219  26.156  27.592  1.00  0.00    -0.065 C 
ATOM     27  C   UNL     1      23.899  26.762  26.858  1.00  0.00     0.014 C 
ATOM     28  C   UNL     1      25.035  28.048  28.723  1.00  0.00     0.016 C 
ATOM     29  C   UNL     1      25.714  24.960  28.380  1.00  0.00     0.063 C 
ATOM     30  C   UNL     1      23.365  25.585  27.695  1.00  0.00     0.033 C 
ATOM     31  C   UNL     1      24.392  24.447  27.795  1.00  0.00     0.118 C 
BRANCH  31  32
ATOM     32  O   UNL     1      24.628  23.882  26.530  1.00  0.00    -0.393 OA
ATOM     33  H   UNL     1      25.254  24.491  26.055  1.00  0.00     0.210 HD
ENDBRANCH  31  32
ENDBRANCH  10  12
ENDBRANCH   8  10
ENDBRANCH   1   8
TORSDOF 8
ENDMDL
MODEL 3
REMARK VINA RESULT:     1.674      1.595      2.973
REMARK INTER + INTRA:           3.192
REMARK INTER:                   2.046
REMARK INTRA:                   1.146
REMARK UNBOUND:                 0.833
REMARK SMILES C[C@H](CO)CCC(=O)[C@H](C)[C@H]1C(=O)C[C@H]2[C@H]3CC=C4C[C@H](O)CC[C@]4(C)[C@H]3CC[C@]12C
REMARK SMILES IDX 6 1 5 2 2 3 1 4 3 5 4 6 7 8 8 9 9 10 10 11 11 12 12 13 30 14
REMARK SMILES IDX 13 15 14 16 15 17 29 18 31 19 16 20 28 21 27 22 17 23 25 24
REMARK SMILES IDX 18 25 19 26 24 27 26 28 20 29 23 30 21 31 22 32
REMARK H PARENT 4 7 22 33
REMARK Flexibility Score: inf
ROOT
ATOM      1  C   UNL     1      28.730  40.052  19.387  1.00  0.00     0.076 C 
ENDROOT
BRANCH   1   2
ATOM      2  C   UNL     1      28.221  41.380  19.981  1.00  0.00     0.013 C 
BRANCH   2   3
ATOM      3  C   UNL     1      27.548  42.344  18.970  1.00  0.00     0.012 C 
ATOM      4  C   UNL     1      28.471  42.645  17.776  1.00  0.00     0.010 C 
BRANCH   3   5
ATOM      5  C   UNL     1      27.150  43.649  19.689  1.00  0.00     0.159 C 
BRANCH   5   6
ATOM      6  O   UNL     1      25.943  43.485  20.385  1.00  0.00    -0.396 OA
ATOM      7  H   UNL     1      25.301  44.142  20.010  1.00  0.00     0.210 HD
ENDBRANCH   5   6
ENDBRANCH   3   5
ENDBRANCH   2   3
ENDBRANCH   1   2
BRANCH   1   8
ATOM      8  C   UNL     1      27.623  39.038  19.184  1.00  0.00     0.136 C 
ATOM      9  O   UNL     1      27.640  38.386  18.151  1.00  0.00    -0.299 OA
BRANCH   8  10
ATOM     10  C   UNL     1      26.460  38.834  20.161  1.00  0.00     0.064 C 
ATOM     11  C   UNL     1      26.529  39.707  21.426  1.00  0.00     0.017 C 
BRANCH  10  12
ATOM     12  C   UNL     1      26.129  37.343  20.522  1.00  0.00     0.072 C 
ATOM     13  C   UNL     1      25.813  36.481  19.319  1.00  0.00     0.137 C 
ATOM     14  C   UNL     1      27.154  36.448  21.310  1.00  0.00    -0.019 C 
ATOM     15  O   UNL     1      25.147  36.862  18.368  1.00  0.00    -0.299 OA
ATOM     16  C   UNL     1      26.284  35.069  19.464  1.00  0.00     0.080 C 
ATOM     17  C   UNL     1      26.601  35.046  20.952  1.00  0.00     0.007 C 
ATOM     18  C   UNL     1      27.102  36.567  22.854  1.00  0.00     0.008 C 
ATOM     19  C   UNL     1      28.599  36.711  20.803  1.00  0.00     0.012 C 
ATOM     20  C   UNL     1      27.270  33.810  21.590  1.00  0.00     0.001 C 
ATOM     21  C   UNL     1      27.837  35.390  23.556  1.00  0.00     0.005 C 
ATOM     22  C   UNL     1      27.311  33.975  23.136  1.00  0.00     0.003 C 
ATOM     23  C   UNL     1      28.647  33.412  21.052  1.00  0.00     0.031 C 
ATOM     24  C   UNL     1      27.986  32.712  23.866  1.00  0.00    -0.008 C 
ATOM     25  C   UNL     1      29.019  32.086  21.625  1.00  0.00    -0.027 C 
ATOM     26  C   UNL     1      28.722  31.754  22.899  1.00  0.00    -0.065 C 
ATOM     27  C   UNL     1      26.837  31.897  24.547  1.00  0.00     0.014 C 
ATOM     28  C   UNL     1      29.002  33.148  24.958  1.00  0.00     0.016 C 
ATOM     29  C   UNL     1      29.123  30.378  23.400  1.00  0.00     0.063 C 
ATOM     30  C   UNL     1      27.264  30.527  25.102  1.00  0.00     0.033 C 
ATOM     31  C   UNL     1      27.922  29.656  24.021  1.00  0.00     0.118 C 
BRANCH  31  32
ATOM     32  O   UNL     1      26.995  29.338  23.012  1.00  0.00    -0.393 OA
ATOM     33  H   UNL     1      27.135  28.380  22.785  1.00  0.00     0.210 HD
ENDBRANCH  31  32
ENDBRANCH  10  12
ENDBRANCH   8  10
ENDBRANCH   1   8
TORSDOF 8
ENDMDL
MODEL 4
REMARK VINA RESULT:     1.750      1.711      2.685
REMARK INTER + INTRA:           3.299
REMARK INTER:                   3.209
REMARK INTRA:                   0.090
REMARK UNBOUND:                 0.833
REMARK SMILES C[C@H](CO)CCC(=O)[C@H](C)[C@H]1C(=O)C[C@H]2[C@H]3CC=C4C[C@H](O)CC[C@]4(C)[C@H]3CC[C@]12C
REMARK SMILES IDX 6 1 5 2 2 3 1 4 3 5 4 6 7 8 8 9 9 10 10 11 11 12 12 13 30 14
REMARK SMILES IDX 13 15 14 16 15 17 29 18 31 19 16 20 28 21 27 22 17 23 25 24
REMARK SMILES IDX 18 25 19 26 24 27 26 28 20 29 23 30 21 31 22 32
REMARK H PARENT 4 7 22 33
REMARK Flexibility Score: inf
ROOT
ATOM      1  C   UNL     1      26.078  40.343  21.798  1.00  0.00     0.076 C 
ENDROOT
BRANCH   1   2
ATOM      2  C   UNL     1      25.894  41.738  22.425  1.00  0.00     0.013 C 
BRANCH   2   3
ATOM      3  C   UNL     1      27.204  42.522  22.696  1.00  0.00     0.012 C 
ATOM      4  C   UNL     1      27.308  42.959  24.168  1.00  0.00     0.010 C 
BRANCH   3   5
ATOM      5  C   UNL     1      27.274  43.747  21.762  1.00  0.00     0.159 C 
BRANCH   5   6
ATOM      6  O   UNL     1      26.121  43.833  20.966  1.00  0.00    -0.396 OA
ATOM      7  H   UNL     1      26.374  43.528  20.056  1.00  0.00     0.210 HD
ENDBRANCH   5   6
ENDBRANCH   3   5
ENDBRANCH   2   3
ENDBRANCH   1   2
BRANCH   1   8
ATOM      8  C   UNL     1      26.564  40.405  20.363  1.00  0.00     0.136 C 
ATOM      9  O   UNL     1      26.375  41.444  19.750  1.00  0.00    -0.299 OA
BRANCH   8  10
ATOM     10  C   UNL     1      27.211  39.226  19.629  1.00  0.00     0.064 C 
ATOM     11  C   UNL     1      27.215  39.353  18.096  1.00  0.00     0.017 C 
BRANCH  10  12
ATOM     12  C   UNL     1      26.731  37.800  20.076  1.00  0.00     0.072 C 
ATOM     13  C   UNL     1      26.348  36.898  18.923  1.00  0.00     0.137 C 
ATOM     14  C   UNL     1      27.654  36.863  20.937  1.00  0.00    -0.019 C 
ATOM     15  O   UNL     1      25.734  37.280  17.938  1.00  0.00    -0.299 OA
ATOM     16  C   UNL     1      26.676  35.459  19.165  1.00  0.00     0.080 C 
ATOM     17  C   UNL     1      26.971  35.500  20.657  1.00  0.00     0.007 C 
ATOM     18  C   UNL     1      27.595  37.084  22.469  1.00  0.00     0.008 C 
ATOM     19  C   UNL     1      29.125  36.951  20.441  1.00  0.00     0.012 C 
ATOM     20  C   UNL     1      27.508  34.249  21.383  1.00  0.00     0.001 C 
ATOM     21  C   UNL     1      28.202  35.889  23.257  1.00  0.00     0.005 C 
ATOM     22  C   UNL     1      27.546  34.507  22.917  1.00  0.00     0.003 C 
ATOM     23  C   UNL     1      28.846  33.685  20.897  1.00  0.00     0.031 C 
ATOM     24  C   UNL     1      28.084  33.234  23.736  1.00  0.00    -0.008 C 
ATOM     25  C   UNL     1      29.079  32.369  21.558  1.00  0.00    -0.027 C 
ATOM     26  C   UNL     1      28.735  32.149  22.845  1.00  0.00    -0.065 C 
ATOM     27  C   UNL     1      26.853  32.580  24.445  1.00  0.00     0.014 C 
ATOM     28  C   UNL     1      29.125  33.638  24.817  1.00  0.00     0.016 C 
ATOM     29  C   UNL     1      28.994  30.776  23.438  1.00  0.00     0.063 C 
ATOM     30  C   UNL     1      27.137  31.212  25.092  1.00  0.00     0.033 C 
ATOM     31  C   UNL     1      27.720  30.214  24.080  1.00  0.00     0.118 C 
BRANCH  31  32
ATOM     32  O   UNL     1      26.779  29.924  23.076  1.00  0.00    -0.393 OA
ATOM     33  H   UNL     1      26.344  30.783  22.833  1.00  0.00     0.210 HD
ENDBRANCH  31  32
ENDBRANCH  10  12
ENDBRANCH   8  10
ENDBRANCH   1   8
TORSDOF 8
ENDMDL
