MODEL 1
REMARK VINA RESULT:    -4.811      0.000      0.000
REMARK INTER + INTRA:          -8.324
REMARK INTER:                  -7.061
REMARK INTRA:                  -1.263
REMARK UNBOUND:                -1.263
REMARK SMILES CCCOC(=O)c1ccccc1C(=O)OCCC
REMARK SMILES IDX 7 1 8 2 9 3 10 4 11 5 12 6 5 7 6 8 4 9 3 10 2 11 1 12 13 13
REMARK SMILES IDX 14 14 15 15 16 16 17 17 18 18
REMARK H PARENT
REMARK Flexibility Score: inf
ROOT
ATOM      1  C   UNL     1      19.469  14.286  12.083  1.00  0.00     0.074 A 
ATOM      2  C   UNL     1      19.588  15.144  13.193  1.00  0.00     0.016 A 
ATOM      3  C   UNL     1      18.874  14.896  14.367  1.00  0.00     0.001 A 
ATOM      4  C   UNL     1      18.034  13.787  14.453  1.00  0.00     0.001 A 
ATOM      5  C   UNL     1      17.886  12.935  13.358  1.00  0.00     0.016 A 
ATOM      6  C   UNL     1      18.575  13.184  12.160  1.00  0.00     0.074 A 
ENDROOT
BRANCH   1   7
ATOM      7  C   UNL     1      20.342  14.519  10.908  1.00  0.00     0.339 C 
ATOM      8  O   UNL     1      21.338  13.769  10.708  1.00  0.00    -0.246 OA
BRANCH   7   9
ATOM      9  O   UNL     1      20.037  15.539   9.999  1.00  0.00    -0.462 OA
BRANCH   9  10
ATOM     10  C   UNL     1      19.184  15.365   8.871  1.00  0.00     0.233 C 
BRANCH  10  11
ATOM     11  C   UNL     1      18.078  16.423   8.870  1.00  0.00     0.038 C 
ATOM     12  C   UNL     1      17.065  16.162   9.980  1.00  0.00     0.007 C 
ENDBRANCH  10  11
ENDBRANCH   9  10
ENDBRANCH   7   9
ENDBRANCH   1   7
BRANCH   6  13
ATOM     13  C   UNL     1      18.300  12.308  11.006  1.00  0.00     0.339 C 
ATOM     14  O   UNL     1      17.446  12.652  10.144  1.00  0.00    -0.246 OA
BRANCH  13  15
ATOM     15  O   UNL     1      18.973  11.087  10.893  1.00  0.00    -0.462 OA
BRANCH  15  16
ATOM     16  C   UNL     1      18.307   9.825  10.827  1.00  0.00     0.233 C 
BRANCH  16  17
ATOM     17  C   UNL     1      17.819   9.376  12.211  1.00  0.00     0.038 C 
ATOM     18  C   UNL     1      16.322   9.614  12.396  1.00  0.00     0.007 C 
ENDBRANCH  16  17
ENDBRANCH  15  16
ENDBRANCH  13  15
ENDBRANCH   6  13
TORSDOF 8
ENDMDL
MODEL 2
REMARK VINA RESULT:    -4.799      6.979      9.867
REMARK INTER + INTRA:          -8.306
REMARK INTER:                  -7.313
REMARK INTRA:                  -0.993
REMARK UNBOUND:                -1.263
REMARK SMILES CCCOC(=O)c1ccccc1C(=O)OCCC
REMARK SMILES IDX 7 1 8 2 9 3 10 4 11 5 12 6 5 7 6 8 4 9 3 10 2 11 1 12 13 13
REMARK SMILES IDX 14 14 15 15 16 16 17 17 18 18
REMARK H PARENT
REMARK Flexibility Score: inf
ROOT
ATOM      1  C   UNL     1      18.059  23.172   9.224  1.00  0.00     0.074 A 
ATOM      2  C   UNL     1      17.202  24.281   9.106  1.00  0.00     0.016 A 
ATOM      3  C   UNL     1      17.629  25.449   8.470  1.00  0.00     0.001 A 
ATOM      4  C   UNL     1      18.916  25.526   7.939  1.00  0.00     0.001 A 
ATOM      5  C   UNL     1      19.789  24.444   8.063  1.00  0.00     0.016 A 
ATOM      6  C   UNL     1      19.385  23.271   8.723  1.00  0.00     0.074 A 
ENDROOT
BRANCH   1   7
ATOM      7  C   UNL     1      17.519  21.913   9.792  1.00  0.00     0.339 C 
ATOM      8  O   UNL     1      17.589  21.705  11.035  1.00  0.00    -0.246 OA
BRANCH   7   9
ATOM      9  O   UNL     1      16.895  20.978   8.957  1.00  0.00    -0.462 OA
BRANCH   9  10
ATOM     10  C   UNL     1      15.666  20.330   9.274  1.00  0.00     0.233 C 
BRANCH  10  11
ATOM     11  C   UNL     1      14.514  21.337   9.260  1.00  0.00     0.038 C 
ATOM     12  C   UNL     1      13.211  20.677   8.819  1.00  0.00     0.007 C 
ENDBRANCH  10  11
ENDBRANCH   9  10
ENDBRANCH   7   9
ENDBRANCH   1   7
BRANCH   6  13
ATOM     13  C   UNL     1      20.384  22.203   8.912  1.00  0.00     0.339 C 
ATOM     14  O   UNL     1      20.982  22.088  10.016  1.00  0.00    -0.246 OA
BRANCH  13  15
ATOM     15  O   UNL     1      20.679  21.341   7.850  1.00  0.00    -0.462 OA
BRANCH  15  16
ATOM     16  C   UNL     1      20.997  19.960   8.024  1.00  0.00     0.233 C 
BRANCH  16  17
ATOM     17  C   UNL     1      19.737  19.086   7.993  1.00  0.00     0.038 C 
ATOM     18  C   UNL     1      19.345  18.593   9.384  1.00  0.00     0.007 C 
ENDBRANCH  16  17
ENDBRANCH  15  16
ENDBRANCH  13  15
ENDBRANCH   6  13
TORSDOF 8
ENDMDL
MODEL 3
REMARK VINA RESULT:    -4.791      5.313      6.789
REMARK INTER + INTRA:          -8.294
REMARK INTER:                  -6.858
REMARK INTRA:                  -1.436
REMARK UNBOUND:                -1.263
REMARK SMILES CCCOC(=O)c1ccccc1C(=O)OCCC
REMARK SMILES IDX 7 1 8 2 9 3 10 4 11 5 12 6 5 7 6 8 4 9 3 10 2 11 1 12 13 13
REMARK SMILES IDX 14 14 15 15 16 16 17 17 18 18
REMARK H PARENT
REMARK Flexibility Score: inf
ROOT
ATOM      1  C   UNL     1      16.198  17.473  17.141  1.00  0.00     0.074 A 
ATOM      2  C   UNL     1      14.962  17.656  17.789  1.00  0.00     0.016 A 
ATOM      3  C   UNL     1      13.808  17.030  17.313  1.00  0.00     0.001 A 
ATOM      4  C   UNL     1      13.870  16.210  16.187  1.00  0.00     0.001 A 
ATOM      5  C   UNL     1      15.081  16.031  15.519  1.00  0.00     0.016 A 
ATOM      6  C   UNL     1      16.247  16.674  15.967  1.00  0.00     0.074 A 
ENDROOT
BRANCH   1   7
ATOM      7  C   UNL     1      17.416  18.054  17.756  1.00  0.00     0.339 C 
ATOM      8  O   UNL     1      17.962  17.473  18.734  1.00  0.00    -0.246 OA
BRANCH   7   9
ATOM      9  O   UNL     1      17.982  19.219  17.225  1.00  0.00    -0.462 OA
BRANCH   9  10
ATOM     10  C   UNL     1      17.245  20.413  16.975  1.00  0.00     0.233 C 
BRANCH  10  11
ATOM     11  C   UNL     1      17.114  20.653  15.468  1.00  0.00     0.038 C 
ATOM     12  C   UNL     1      15.707  20.324  14.979  1.00  0.00     0.007 C 
ENDBRANCH  10  11
ENDBRANCH   9  10
ENDBRANCH   7   9
ENDBRANCH   1   7
BRANCH   6  13
ATOM     13  C   UNL     1      17.473  16.528  15.160  1.00  0.00     0.339 C 
ATOM     14  O   UNL     1      17.707  17.334  14.218  1.00  0.00    -0.246 OA
BRANCH  13  15
ATOM     15  O   UNL     1      18.355  15.478  15.433  1.00  0.00    -0.462 OA
BRANCH  15  16
ATOM     16  C   UNL     1      18.640  14.429  14.507  1.00  0.00     0.233 C 
BRANCH  16  17
ATOM     17  C   UNL     1      17.547  13.353  14.524  1.00  0.00     0.038 C 
ATOM     18  C   UNL     1      16.649  13.428  13.292  1.00  0.00     0.007 C 
ENDBRANCH  16  17
ENDBRANCH  15  16
ENDBRANCH  13  15
ENDBRANCH   6  13
TORSDOF 8
ENDMDL
MODEL 4
REMARK VINA RESULT:    -4.764      0.110      4.758
REMARK INTER + INTRA:          -8.255
REMARK INTER:                  -6.983
REMARK INTRA:                  -1.272
REMARK UNBOUND:                -1.263
REMARK SMILES CCCOC(=O)c1ccccc1C(=O)OCCC
REMARK SMILES IDX 7 1 8 2 9 3 10 4 11 5 12 6 5 7 6 8 4 9 3 10 2 11 1 12 13 13
REMARK SMILES IDX 14 14 15 15 16 16 17 17 18 18
REMARK H PARENT
REMARK Flexibility Score: inf
ROOT
ATOM      1  C   UNL     1      18.608  13.188  12.159  1.00  0.00     0.074 A 
ATOM      2  C   UNL     1      17.920  13.001  13.373  1.00  0.00     0.016 A 
ATOM      3  C   UNL     1      18.058  13.915  14.419  1.00  0.00     0.001 A 
ATOM      4  C   UNL     1      18.880  15.031  14.270  1.00  0.00     0.001 A 
ATOM      5  C   UNL     1      19.586  15.225  13.082  1.00  0.00     0.016 A 
ATOM      6  C   UNL     1      19.481  14.301  12.028  1.00  0.00     0.074 A 
ENDROOT
BRANCH   1   7
ATOM      7  C   UNL     1      18.331  12.261  11.035  1.00  0.00     0.339 C 
ATOM      8  O   UNL     1      17.489  12.582  10.151  1.00  0.00    -0.246 OA
BRANCH   7   9
ATOM      9  O   UNL     1      19.033  11.054  10.932  1.00  0.00    -0.462 OA
BRANCH   9  10
ATOM     10  C   UNL     1      18.407   9.774  10.908  1.00  0.00     0.233 C 
BRANCH  10  11
ATOM     11  C   UNL     1      17.846   9.429  12.290  1.00  0.00     0.038 C 
ATOM     12  C   UNL     1      16.327   9.571  12.319  1.00  0.00     0.007 C 
ENDBRANCH  10  11
ENDBRANCH   9  10
ENDBRANCH   7   9
ENDBRANCH   1   7
BRANCH   6  13
ATOM     13  C   UNL     1      20.329  14.506  10.840  1.00  0.00     0.339 C 
ATOM     14  O   UNL     1      21.340  13.775  10.654  1.00  0.00    -0.246 OA
BRANCH  13  15
ATOM     15  O   UNL     1      20.017  15.529   9.939  1.00  0.00    -0.462 OA
BRANCH  15  16
ATOM     16  C   UNL     1      19.079  15.379   8.873  1.00  0.00     0.233 C 
BRANCH  16  17
ATOM     17  C   UNL     1      17.954  16.419   8.965  1.00  0.00     0.038 C 
ATOM     18  C   UNL     1      16.904  16.038  10.007  1.00  0.00     0.007 C 
ENDBRANCH  16  17
ENDBRANCH  15  16
ENDBRANCH  13  15
ENDBRANCH   6  13
TORSDOF 8
ENDMDL
MODEL 5
REMARK VINA RESULT:    -4.729      7.893     10.320
REMARK INTER + INTRA:          -8.203
REMARK INTER:                  -7.346
REMARK INTRA:                  -0.857
REMARK UNBOUND:                -1.263
REMARK SMILES CCCOC(=O)c1ccccc1C(=O)OCCC
REMARK SMILES IDX 7 1 8 2 9 3 10 4 11 5 12 6 5 7 6 8 4 9 3 10 2 11 1 12 13 13
REMARK SMILES IDX 14 14 15 15 16 16 17 17 18 18
REMARK H PARENT
REMARK Flexibility Score: inf
ROOT
ATOM      1  C   UNL     1      19.681  24.095   9.069  1.00  0.00     0.074 A 
ATOM      2  C   UNL     1      19.993  25.248   8.324  1.00  0.00     0.016 A 
ATOM      3  C   UNL     1      18.982  26.097   7.868  1.00  0.00     0.001 A 
ATOM      4  C   UNL     1      17.647  25.812   8.151  1.00  0.00     0.001 A 
ATOM      5  C   UNL     1      17.316  24.663   8.871  1.00  0.00     0.016 A 
ATOM      6  C   UNL     1      18.317  23.784   9.315  1.00  0.00     0.074 A 
ENDROOT
BRANCH   1   7
ATOM      7  C   UNL     1      20.792  23.296   9.640  1.00  0.00     0.339 C 
ATOM      8  O   UNL     1      21.077  23.402  10.865  1.00  0.00    -0.246 OA
BRANCH   7   9
ATOM      9  O   UNL     1      21.494  22.395   8.830  1.00  0.00    -0.462 OA
BRANCH   9  10
ATOM     10  C   UNL     1      20.869  21.370   8.062  1.00  0.00     0.233 C 
BRANCH  10  11
ATOM     11  C   UNL     1      20.797  20.070   8.867  1.00  0.00     0.038 C 
ATOM     12  C   UNL     1      20.662  18.859   7.948  1.00  0.00     0.007 C 
ENDBRANCH  10  11
ENDBRANCH   9  10
ENDBRANCH   7   9
ENDBRANCH   1   7
BRANCH   6  13
ATOM     13  C   UNL     1      17.898  22.537   9.981  1.00  0.00     0.339 C 
ATOM     14  O   UNL     1      17.895  22.465  11.241  1.00  0.00    -0.246 OA
BRANCH  13  15
ATOM     15  O   UNL     1      17.531  21.432   9.206  1.00  0.00    -0.462 OA
BRANCH  15  16
ATOM     16  C   UNL     1      16.345  20.671   9.434  1.00  0.00     0.233 C 
BRANCH  16  17
ATOM     17  C   UNL     1      15.102  21.569   9.481  1.00  0.00     0.038 C 
ATOM     18  C   UNL     1      13.882  20.893   8.862  1.00  0.00     0.007 C 
ENDBRANCH  16  17
ENDBRANCH  15  16
ENDBRANCH  13  15
ENDBRANCH   6  13
TORSDOF 8
ENDMDL
MODEL 6
REMARK VINA RESULT:    -4.652      8.520     11.266
REMARK INTER + INTRA:          -8.090
REMARK INTER:                  -7.318
REMARK INTRA:                  -0.772
REMARK UNBOUND:                -1.263
REMARK SMILES CCCOC(=O)c1ccccc1C(=O)OCCC
REMARK SMILES IDX 7 1 8 2 9 3 10 4 11 5 12 6 5 7 6 8 4 9 3 10 2 11 1 12 13 13
REMARK SMILES IDX 14 14 15 15 16 16 17 17 18 18
REMARK H PARENT
REMARK Flexibility Score: inf
ROOT
ATOM      1  C   UNL     1      18.332  23.739   9.083  1.00  0.00     0.074 A 
ATOM      2  C   UNL     1      17.360  24.744   8.912  1.00  0.00     0.016 A 
ATOM      3  C   UNL     1      17.645  25.894   8.174  1.00  0.00     0.001 A 
ATOM      4  C   UNL     1      18.900  26.059   7.592  1.00  0.00     0.001 A 
ATOM      5  C   UNL     1      19.884  25.085   7.765  1.00  0.00     0.016 A 
ATOM      6  C   UNL     1      19.625  23.933   8.526  1.00  0.00     0.074 A 
ENDROOT
BRANCH   1   7
ATOM      7  C   UNL     1      17.943  22.482   9.765  1.00  0.00     0.339 C 
ATOM      8  O   UNL     1      17.995  22.408  11.023  1.00  0.00    -0.246 OA
BRANCH   7   9
ATOM      9  O   UNL     1      17.476  21.394   9.016  1.00  0.00    -0.462 OA
BRANCH   9  10
ATOM     10  C   UNL     1      16.318  20.637   9.357  1.00  0.00     0.233 C 
BRANCH  10  11
ATOM     11  C   UNL     1      15.088  21.547   9.420  1.00  0.00     0.038 C 
ATOM     12  C   UNL     1      13.799  20.739   9.304  1.00  0.00     0.007 C 
ENDBRANCH  10  11
ENDBRANCH   9  10
ENDBRANCH   7   9
ENDBRANCH   1   7
BRANCH   6  13
ATOM     13  C   UNL     1      20.735  22.991   8.758  1.00  0.00     0.339 C 
ATOM     14  O   UNL     1      20.814  21.931   8.078  1.00  0.00    -0.246 OA
BRANCH  13  15
ATOM     15  O   UNL     1      21.679  23.270   9.752  1.00  0.00    -0.462 OA
BRANCH  15  16
ATOM     16  C   UNL     1      21.340  23.469  11.125  1.00  0.00     0.233 C 
BRANCH  16  17
ATOM     17  C   UNL     1      22.062  24.690  11.709  1.00  0.00     0.038 C 
ATOM     18  C   UNL     1      21.738  24.895  13.187  1.00  0.00     0.007 C 
ENDBRANCH  16  17
ENDBRANCH  15  16
ENDBRANCH  13  15
ENDBRANCH   6  13
TORSDOF 8
ENDMDL
MODEL 7
REMARK VINA RESULT:    -4.586      7.222      9.734
REMARK INTER + INTRA:          -7.993
REMARK INTER:                  -7.003
REMARK INTRA:                  -0.989
REMARK UNBOUND:                -1.263
REMARK SMILES CCCOC(=O)c1ccccc1C(=O)OCCC
REMARK SMILES IDX 7 1 8 2 9 3 10 4 11 5 12 6 5 7 6 8 4 9 3 10 2 11 1 12 13 13
REMARK SMILES IDX 14 14 15 15 16 16 17 17 18 18
REMARK H PARENT
REMARK Flexibility Score: inf
ROOT
ATOM      1  C   UNL     1      20.560  23.420   9.510  1.00  0.00     0.074 A 
ATOM      2  C   UNL     1      21.727  23.649  10.264  1.00  0.00     0.016 A 
ATOM      3  C   UNL     1      21.651  23.912  11.633  1.00  0.00     0.001 A 
ATOM      4  C   UNL     1      20.413  23.945  12.272  1.00  0.00     0.001 A 
ATOM      5  C   UNL     1      19.243  23.741  11.540  1.00  0.00     0.016 A 
ATOM      6  C   UNL     1      19.297  23.502  10.157  1.00  0.00     0.074 A 
ENDROOT
BRANCH   1   7
ATOM      7  C   UNL     1      20.699  23.021   8.089  1.00  0.00     0.339 C 
ATOM      8  O   UNL     1      20.581  23.887   7.179  1.00  0.00    -0.246 OA
BRANCH   7   9
ATOM      9  O   UNL     1      21.004  21.694   7.761  1.00  0.00    -0.462 OA
BRANCH   9  10
ATOM     10  C   UNL     1      20.731  20.585   8.615  1.00  0.00     0.233 C 
BRANCH  10  11
ATOM     11  C   UNL     1      20.754  19.280   7.816  1.00  0.00     0.038 C 
ATOM     12  C   UNL     1      20.398  18.088   8.699  1.00  0.00     0.007 C 
ENDBRANCH  10  11
ENDBRANCH   9  10
ENDBRANCH   7   9
ENDBRANCH   1   7
BRANCH   6  13
ATOM     13  C   UNL     1      18.024  23.395   9.420  1.00  0.00     0.339 C 
ATOM     14  O   UNL     1      17.446  24.438   9.005  1.00  0.00    -0.246 OA
BRANCH  13  15
ATOM     15  O   UNL     1      17.454  22.136   9.211  1.00  0.00    -0.462 OA
BRANCH  15  16
ATOM     16  C   UNL     1      16.208  21.732   9.779  1.00  0.00     0.233 C 
BRANCH  16  17
ATOM     17  C   UNL     1      16.416  20.821  10.996  1.00  0.00     0.038 C 
ATOM     18  C   UNL     1      17.582  19.855  10.796  1.00  0.00     0.007 C 
ENDBRANCH  16  17
ENDBRANCH  15  16
ENDBRANCH  13  15
ENDBRANCH   6  13
TORSDOF 8
ENDMDL
MODEL 8
REMARK VINA RESULT:    -4.574      7.597     10.601
REMARK INTER + INTRA:          -7.976
REMARK INTER:                  -7.024
REMARK INTRA:                  -0.952
REMARK UNBOUND:                -1.263
REMARK SMILES CCCOC(=O)c1ccccc1C(=O)OCCC
REMARK SMILES IDX 7 1 8 2 9 3 10 4 11 5 12 6 5 7 6 8 4 9 3 10 2 11 1 12 13 13
REMARK SMILES IDX 14 14 15 15 16 16 17 17 18 18
REMARK H PARENT
REMARK Flexibility Score: inf
ROOT
ATOM      1  C   UNL     1      19.668  23.992   8.419  1.00  0.00     0.074 A 
ATOM      2  C   UNL     1      19.884  25.157   7.659  1.00  0.00     0.016 A 
ATOM      3  C   UNL     1      18.882  26.122   7.532  1.00  0.00     0.001 A 
ATOM      4  C   UNL     1      17.653  25.941   8.165  1.00  0.00     0.001 A 
ATOM      5  C   UNL     1      17.412  24.785   8.906  1.00  0.00     0.016 A 
ATOM      6  C   UNL     1      18.397  23.791   9.023  1.00  0.00     0.074 A 
ENDROOT
BRANCH   1   7
ATOM      7  C   UNL     1      20.802  23.060   8.629  1.00  0.00     0.339 C 
ATOM      8  O   UNL     1      21.025  22.144   7.790  1.00  0.00    -0.246 OA
BRANCH   7   9
ATOM      9  O   UNL     1      21.649  23.223   9.732  1.00  0.00    -0.462 OA
BRANCH   9  10
ATOM     10  C   UNL     1      21.603  24.350  10.604  1.00  0.00     0.233 C 
BRANCH  10  11
ATOM     11  C   UNL     1      21.050  23.942  11.972  1.00  0.00     0.038 C 
ATOM     12  C   UNL     1      21.564  24.867  13.071  1.00  0.00     0.007 C 
ENDBRANCH  10  11
ENDBRANCH   9  10
ENDBRANCH   7   9
ENDBRANCH   1   7
BRANCH   6  13
ATOM     13  C   UNL     1      18.048  22.547   9.733  1.00  0.00     0.339 C 
ATOM     14  O   UNL     1      18.007  22.531  10.994  1.00  0.00    -0.246 OA
BRANCH  13  15
ATOM     15  O   UNL     1      17.787  21.385   8.999  1.00  0.00    -0.462 OA
BRANCH  15  16
ATOM     16  C   UNL     1      17.777  20.078   9.573  1.00  0.00     0.233 C 
BRANCH  16  17
ATOM     17  C   UNL     1      18.977  19.247   9.098  1.00  0.00     0.038 C 
ATOM     18  C   UNL     1      20.242  19.562   9.892  1.00  0.00     0.007 C 
ENDBRANCH  16  17
ENDBRANCH  15  16
ENDBRANCH  13  15
ENDBRANCH   6  13
TORSDOF 8
ENDMDL
MODEL 9
REMARK VINA RESULT:    -4.487      1.831      3.975
REMARK INTER + INTRA:          -7.848
REMARK INTER:                  -6.375
REMARK INTRA:                  -1.473
REMARK UNBOUND:                -1.263
REMARK SMILES CCCOC(=O)c1ccccc1C(=O)OCCC
REMARK SMILES IDX 7 1 8 2 9 3 10 4 11 5 12 6 5 7 6 8 4 9 3 10 2 11 1 12 13 13
REMARK SMILES IDX 14 14 15 15 16 16 17 17 18 18
REMARK H PARENT
REMARK Flexibility Score: inf
ROOT
ATOM      1  C   UNL     1      19.343  13.149  11.387  1.00  0.00     0.074 A 
ATOM      2  C   UNL     1      18.985  11.823  11.078  1.00  0.00     0.016 A 
ATOM      3  C   UNL     1      18.026  11.148  11.835  1.00  0.00     0.001 A 
ATOM      4  C   UNL     1      17.406  11.786  12.909  1.00  0.00     0.001 A 
ATOM      5  C   UNL     1      17.760  13.093  13.245  1.00  0.00     0.016 A 
ATOM      6  C   UNL     1      18.743  13.779  12.511  1.00  0.00     0.074 A 
ENDROOT
BRANCH   1   7
ATOM      7  C   UNL     1      20.270  13.865  10.478  1.00  0.00     0.339 C 
ATOM      8  O   UNL     1      21.469  13.483  10.377  1.00  0.00    -0.246 OA
BRANCH   7   9
ATOM      9  O   UNL     1      19.805  14.935   9.703  1.00  0.00    -0.462 OA
BRANCH   9  10
ATOM     10  C   UNL     1      18.703  14.840   8.804  1.00  0.00     0.233 C 
BRANCH  10  11
ATOM     11  C   UNL     1      17.578  15.782   9.239  1.00  0.00     0.038 C 
ATOM     12  C   UNL     1      16.441  15.012   9.904  1.00  0.00     0.007 C 
ENDBRANCH  10  11
ENDBRANCH   9  10
ENDBRANCH   7   9
ENDBRANCH   1   7
BRANCH   6  13
ATOM     13  C   UNL     1      19.147  15.118  12.976  1.00  0.00     0.339 C 
ATOM     14  O   UNL     1      20.169  15.251  13.704  1.00  0.00    -0.246 OA
BRANCH  13  15
ATOM     15  O   UNL     1      18.375  16.231  12.624  1.00  0.00    -0.462 OA
BRANCH  15  16
ATOM     16  C   UNL     1      17.727  17.072  13.579  1.00  0.00     0.233 C 
BRANCH  16  17
ATOM     17  C   UNL     1      16.223  16.780  13.654  1.00  0.00     0.038 C 
ATOM     18  C   UNL     1      15.877  15.845  14.810  1.00  0.00     0.007 C 
ENDBRANCH  16  17
ENDBRANCH  15  16
ENDBRANCH  13  15
ENDBRANCH   6  13
TORSDOF 8
ENDMDL
