MODEL 1
REMARK VINA RESULT:    -3.350      0.000      0.000
REMARK INTER + INTRA:          -5.501
REMARK INTER:                  -4.720
REMARK INTRA:                  -0.781
REMARK UNBOUND:                -0.781
REMARK SMILES CCCCCCCCC(=O)[O-]
REMARK SMILES IDX 6 1 7 2 8 3 9 4 10 5 11 6 5 7 4 8 3 9 2 10 1 11
REMARK H PARENT
REMARK Flexibility Score: inf
ROOT
ATOM      1  C   UNL     1     184.592 182.639 202.114  1.00  0.00     0.000 C 
ENDROOT
BRANCH   1   2
ATOM      2  C   UNL     1     185.345 183.412 201.021  1.00  0.00     0.006 C 
BRANCH   2   3
ATOM      3  C   UNL     1     184.814 183.097 199.616  1.00  0.00     0.053 C 
BRANCH   3   4
ATOM      4  C   UNL     1     184.451 184.343 198.867  1.00  0.00     0.041 C 
ATOM      5  O   UNL     1     183.791 185.253 199.433  1.00  0.00    -0.550 OA
ATOM      6  O   UNL     1     184.872 184.513 197.553  1.00  0.00    -0.550 OA
ENDBRANCH   3   4
ENDBRANCH   2   3
ENDBRANCH   1   2
BRANCH   1   7
ATOM      7  C   UNL     1     183.763 181.500 201.510  1.00  0.00     0.000 C 
BRANCH   7   8
ATOM      8  C   UNL     1     182.295 181.598 201.941  1.00  0.00    -0.000 C 
BRANCH   8   9
ATOM      9  C   UNL     1     181.387 181.901 200.740  1.00  0.00    -0.000 C 
BRANCH   9  10
ATOM     10  C   UNL     1     180.940 183.370 200.692  1.00  0.00    -0.003 C 
ATOM     11  C   UNL     1     181.218 184.114 201.998  1.00  0.00     0.004 C 
ENDBRANCH   9  10
ENDBRANCH   8   9
ENDBRANCH   7   8
ENDBRANCH   1   7
TORSDOF 7
ENDMDL
MODEL 2
REMARK VINA RESULT:    -3.308     14.970     16.427
REMARK INTER + INTRA:          -5.442
REMARK INTER:                  -5.122
REMARK INTRA:                  -0.320
REMARK UNBOUND:                -0.781
REMARK SMILES CCCCCCCCC(=O)[O-]
REMARK SMILES IDX 6 1 7 2 8 3 9 4 10 5 11 6 5 7 4 8 3 9 2 10 1 11
REMARK H PARENT
REMARK Flexibility Score: inf
ROOT
ATOM      1  C   UNL     1     184.046 196.306 190.913  1.00  0.00     0.000 C 
ENDROOT
BRANCH   1   2
ATOM      2  C   UNL     1     183.354 196.880 192.158  1.00  0.00     0.006 C 
BRANCH   2   3
ATOM      3  C   UNL     1     181.938 196.322 192.345  1.00  0.00     0.053 C 
BRANCH   3   4
ATOM      4  C   UNL     1     181.430 196.548 193.737  1.00  0.00     0.041 C 
ATOM      5  O   UNL     1     181.627 195.684 194.631  1.00  0.00    -0.550 OA
ATOM      6  O   UNL     1     180.769 197.728 194.053  1.00  0.00    -0.550 OA
ENDBRANCH   3   4
ENDBRANCH   2   3
ENDBRANCH   1   2
BRANCH   1   7
ATOM      7  C   UNL     1     185.288 197.127 190.547  1.00  0.00     0.000 C 
BRANCH   7   8
ATOM      8  C   UNL     1     186.180 196.366 189.559  1.00  0.00    -0.000 C 
BRANCH   8   9
ATOM      9  C   UNL     1     185.874 194.862 189.586  1.00  0.00    -0.000 C 
BRANCH   9  10
ATOM     10  C   UNL     1     186.990 194.044 190.256  1.00  0.00    -0.003 C 
ATOM     11  C   UNL     1     188.384 194.595 189.960  1.00  0.00     0.004 C 
ENDBRANCH   9  10
ENDBRANCH   8   9
ENDBRANCH   7   8
ENDBRANCH   1   7
TORSDOF 7
ENDMDL
MODEL 3
REMARK VINA RESULT:    -3.208      2.482      4.109
REMARK INTER + INTRA:          -5.301
REMARK INTER:                  -4.535
REMARK INTRA:                  -0.766
REMARK UNBOUND:                -0.781
REMARK SMILES CCCCCCCCC(=O)[O-]
REMARK SMILES IDX 6 1 7 2 8 3 9 4 10 5 11 6 5 7 4 8 3 9 2 10 1 11
REMARK H PARENT
REMARK Flexibility Score: inf
ROOT
ATOM      1  C   UNL     1     182.969 184.005 201.978  1.00  0.00     0.000 C 
ENDROOT
BRANCH   1   2
ATOM      2  C   UNL     1     181.823 182.983 201.954  1.00  0.00     0.006 C 
BRANCH   2   3
ATOM      3  C   UNL     1     181.342 182.681 200.529  1.00  0.00     0.053 C 
BRANCH   3   4
ATOM      4  C   UNL     1     181.600 181.255 200.146  1.00  0.00     0.041 C 
ATOM      5  O   UNL     1     181.096 180.782 199.094  1.00  0.00    -0.550 OA
ATOM      6  O   UNL     1     182.423 180.461 200.934  1.00  0.00    -0.550 OA
ENDBRANCH   3   4
ENDBRANCH   2   3
ENDBRANCH   1   2
BRANCH   1   7
ATOM      7  C   UNL     1     184.331 183.303 202.012  1.00  0.00     0.000 C 
BRANCH   7   8
ATOM      8  C   UNL     1     185.222 183.770 200.854  1.00  0.00    -0.000 C 
BRANCH   8   9
ATOM      9  C   UNL     1     184.889 183.009 199.562  1.00  0.00    -0.000 C 
BRANCH   9  10
ATOM     10  C   UNL     1     184.683 183.946 198.362  1.00  0.00    -0.003 C 
ATOM     11  C   UNL     1     184.278 185.359 198.778  1.00  0.00     0.004 C 
ENDBRANCH   9  10
ENDBRANCH   8   9
ENDBRANCH   7   8
ENDBRANCH   1   7
TORSDOF 7
ENDMDL
MODEL 4
REMARK VINA RESULT:    -3.204      1.500      2.082
REMARK INTER + INTRA:          -5.295
REMARK INTER:                  -4.621
REMARK INTRA:                  -0.674
REMARK UNBOUND:                -0.781
REMARK SMILES CCCCCCCCC(=O)[O-]
REMARK SMILES IDX 6 1 7 2 8 3 9 4 10 5 11 6 5 7 4 8 3 9 2 10 1 11
REMARK H PARENT
REMARK Flexibility Score: inf
ROOT
ATOM      1  C   UNL     1     183.411 183.745 201.968  1.00  0.00     0.000 C 
ENDROOT
BRANCH   1   2
ATOM      2  C   UNL     1     183.207 184.092 200.486  1.00  0.00     0.006 C 
BRANCH   2   3
ATOM      3  C   UNL     1     184.498 184.592 199.824  1.00  0.00     0.053 C 
BRANCH   3   4
ATOM      4  C   UNL     1     184.721 183.952 198.488  1.00  0.00     0.041 C 
ATOM      5  O   UNL     1     184.583 182.708 198.350  1.00  0.00    -0.550 OA
ATOM      6  O   UNL     1     185.049 184.734 197.387  1.00  0.00    -0.550 OA
ENDBRANCH   3   4
ENDBRANCH   2   3
ENDBRANCH   1   2
BRANCH   1   7
ATOM      7  C   UNL     1     184.190 182.434 202.124  1.00  0.00     0.000 C 
BRANCH   7   8
ATOM      8  C   UNL     1     183.557 181.313 201.292  1.00  0.00    -0.000 C 
BRANCH   8   9
ATOM      9  C   UNL     1     182.242 180.833 201.924  1.00  0.00    -0.000 C 
BRANCH   9  10
ATOM     10  C   UNL     1     181.059 180.893 200.946  1.00  0.00    -0.003 C 
ATOM     11  C   UNL     1     181.502 181.073 199.494  1.00  0.00     0.004 C 
ENDBRANCH   9  10
ENDBRANCH   8   9
ENDBRANCH   7   8
ENDBRANCH   1   7
TORSDOF 7
ENDMDL
MODEL 5
REMARK VINA RESULT:    -3.203      1.546      2.709
REMARK INTER + INTRA:          -5.294
REMARK INTER:                  -4.775
REMARK INTRA:                  -0.519
REMARK UNBOUND:                -0.781
REMARK SMILES CCCCCCCCC(=O)[O-]
REMARK SMILES IDX 6 1 7 2 8 3 9 4 10 5 11 6 5 7 4 8 3 9 2 10 1 11
REMARK H PARENT
REMARK Flexibility Score: inf
ROOT
ATOM      1  C   UNL     1     184.781 183.144 199.210  1.00  0.00     0.000 C 
ENDROOT
BRANCH   1   2
ATOM      2  C   UNL     1     184.768 184.261 198.157  1.00  0.00     0.006 C 
BRANCH   2   3
ATOM      3  C   UNL     1     184.452 185.633 198.767  1.00  0.00     0.053 C 
BRANCH   3   4
ATOM      4  C   UNL     1     185.278 186.720 198.149  1.00  0.00     0.041 C 
ATOM      5  O   UNL     1     185.676 187.687 198.848  1.00  0.00    -0.550 OA
ATOM      6  O   UNL     1     185.635 186.645 196.808  1.00  0.00    -0.550 OA
ENDBRANCH   3   4
ENDBRANCH   2   3
ENDBRANCH   1   2
BRANCH   1   7
ATOM      7  C   UNL     1     185.477 183.608 200.495  1.00  0.00     0.000 C 
BRANCH   7   8
ATOM      8  C   UNL     1     184.772 183.050 201.737  1.00  0.00    -0.000 C 
BRANCH   8   9
ATOM      9  C   UNL     1     183.913 181.828 201.381  1.00  0.00    -0.000 C 
BRANCH   9  10
ATOM     10  C   UNL     1     182.493 181.915 201.960  1.00  0.00    -0.003 C 
ATOM     11  C   UNL     1     181.498 182.555 200.993  1.00  0.00     0.004 C 
ENDBRANCH   9  10
ENDBRANCH   8   9
ENDBRANCH   7   8
ENDBRANCH   1   7
TORSDOF 7
ENDMDL
MODEL 6
REMARK VINA RESULT:    -3.188      2.232      3.969
REMARK INTER + INTRA:          -5.274
REMARK INTER:                  -4.409
REMARK INTRA:                  -0.864
REMARK UNBOUND:                -0.781
REMARK SMILES CCCCCCCCC(=O)[O-]
REMARK SMILES IDX 6 1 7 2 8 3 9 4 10 5 11 6 5 7 4 8 3 9 2 10 1 11
REMARK H PARENT
REMARK Flexibility Score: inf
ROOT
ATOM      1  C   UNL     1     184.095 182.268 198.723  1.00  0.00     0.000 C 
ENDROOT
BRANCH   1   2
ATOM      2  C   UNL     1     183.519 182.153 200.142  1.00  0.00     0.006 C 
BRANCH   2   3
ATOM      3  C   UNL     1     181.994 182.319 200.167  1.00  0.00     0.053 C 
BRANCH   3   4
ATOM      4  C   UNL     1     181.575 183.482 201.014  1.00  0.00     0.041 C 
ATOM      5  O   UNL     1     182.326 183.896 201.936  1.00  0.00    -0.550 OA
ATOM      6  O   UNL     1     180.371 184.128 200.763  1.00  0.00    -0.550 OA
ENDBRANCH   3   4
ENDBRANCH   2   3
ENDBRANCH   1   2
BRANCH   1   7
ATOM      7  C   UNL     1     184.819 183.605 198.530  1.00  0.00     0.000 C 
BRANCH   7   8
ATOM      8  C   UNL     1     185.224 184.212 199.878  1.00  0.00    -0.000 C 
BRANCH   8   9
ATOM      9  C   UNL     1     184.856 185.702 199.944  1.00  0.00    -0.000 C 
BRANCH   9  10
ATOM     10  C   UNL     1     183.604 186.038 199.120  1.00  0.00    -0.003 C 
ATOM     11  C   UNL     1     182.619 186.927 199.878  1.00  0.00     0.004 C 
ENDBRANCH   9  10
ENDBRANCH   8   9
ENDBRANCH   7   8
ENDBRANCH   1   7
TORSDOF 7
ENDMDL
MODEL 7
REMARK VINA RESULT:    -3.177      1.589      2.467
REMARK INTER + INTRA:          -5.258
REMARK INTER:                  -4.679
REMARK INTRA:                  -0.580
REMARK UNBOUND:                -0.781
REMARK SMILES CCCCCCCCC(=O)[O-]
REMARK SMILES IDX 6 1 7 2 8 3 9 4 10 5 11 6 5 7 4 8 3 9 2 10 1 11
REMARK H PARENT
REMARK Flexibility Score: inf
ROOT
ATOM      1  C   UNL     1     181.807 181.486 199.637  1.00  0.00     0.000 C 
ENDROOT
BRANCH   1   2
ATOM      2  C   UNL     1     183.206 182.012 199.991  1.00  0.00     0.006 C 
BRANCH   2   3
ATOM      3  C   UNL     1     184.077 182.230 198.747  1.00  0.00     0.053 C 
BRANCH   3   4
ATOM      4  C   UNL     1     184.877 183.494 198.842  1.00  0.00     0.041 C 
ATOM      5  O   UNL     1     185.523 183.757 199.890  1.00  0.00    -0.550 OA
ATOM      6  O   UNL     1     184.936 184.363 197.760  1.00  0.00    -0.550 OA
ENDBRANCH   3   4
ENDBRANCH   2   3
ENDBRANCH   1   2
BRANCH   1   7
ATOM      7  C   UNL     1     180.719 182.292 200.356  1.00  0.00     0.000 C 
BRANCH   7   8
ATOM      8  C   UNL     1     181.334 183.293 201.342  1.00  0.00    -0.000 C 
BRANCH   8   9
ATOM      9  C   UNL     1     180.378 184.465 201.605  1.00  0.00    -0.000 C 
BRANCH   9  10
ATOM     10  C   UNL     1     180.944 185.809 201.121  1.00  0.00    -0.003 C 
ATOM     11  C   UNL     1     182.367 185.689 200.577  1.00  0.00     0.004 C 
ENDBRANCH   9  10
ENDBRANCH   8   9
ENDBRANCH   7   8
ENDBRANCH   1   7
TORSDOF 7
ENDMDL
MODEL 8
REMARK VINA RESULT:    -3.145      1.806      3.595
REMARK INTER + INTRA:          -5.212
REMARK INTER:                  -4.502
REMARK INTRA:                  -0.710
REMARK UNBOUND:                -0.781
REMARK SMILES CCCCCCCCC(=O)[O-]
REMARK SMILES IDX 6 1 7 2 8 3 9 4 10 5 11 6 5 7 4 8 3 9 2 10 1 11
REMARK H PARENT
REMARK Flexibility Score: inf
ROOT
ATOM      1  C   UNL     1     181.362 182.674 201.130  1.00  0.00     0.000 C 
ENDROOT
BRANCH   1   2
ATOM      2  C   UNL     1     181.114 183.876 202.053  1.00  0.00     0.006 C 
BRANCH   2   3
ATOM      3  C   UNL     1     182.269 184.885 202.016  1.00  0.00     0.053 C 
BRANCH   3   4
ATOM      4  C   UNL     1     181.974 186.035 201.101  1.00  0.00     0.041 C 
ATOM      5  O   UNL     1     182.879 186.861 200.811  1.00  0.00    -0.550 OA
ATOM      6  O   UNL     1     180.710 186.173 200.543  1.00  0.00    -0.550 OA
ENDBRANCH   3   4
ENDBRANCH   2   3
ENDBRANCH   1   2
BRANCH   1   7
ATOM      7  C   UNL     1     182.356 181.693 201.761  1.00  0.00     0.000 C 
BRANCH   7   8
ATOM      8  C   UNL     1     183.571 181.477 200.850  1.00  0.00    -0.000 C 
BRANCH   8   9
ATOM      9  C   UNL     1     183.414 182.247 199.531  1.00  0.00    -0.000 C 
BRANCH   9  10
ATOM     10  C   UNL     1     184.652 183.089 199.187  1.00  0.00    -0.003 C 
ATOM     11  C   UNL     1     184.294 184.454 198.600  1.00  0.00     0.004 C 
ENDBRANCH   9  10
ENDBRANCH   8   9
ENDBRANCH   7   8
ENDBRANCH   1   7
TORSDOF 7
ENDMDL
MODEL 9
REMARK VINA RESULT:    -3.123      3.176      4.717
REMARK INTER + INTRA:          -5.182
REMARK INTER:                  -4.466
REMARK INTRA:                  -0.716
REMARK UNBOUND:                -0.781
REMARK SMILES CCCCCCCCC(=O)[O-]
REMARK SMILES IDX 6 1 7 2 8 3 9 4 10 5 11 6 5 7 4 8 3 9 2 10 1 11
REMARK H PARENT
REMARK Flexibility Score: inf
ROOT
ATOM      1  C   UNL     1     181.817 182.816 201.332  1.00  0.00     0.000 C 
ENDROOT
BRANCH   1   2
ATOM      2  C   UNL     1     180.795 182.267 200.327  1.00  0.00     0.006 C 
BRANCH   2   3
ATOM      3  C   UNL     1     181.387 181.166 199.438  1.00  0.00     0.053 C 
BRANCH   3   4
ATOM      4  C   UNL     1     180.491 179.966 199.367  1.00  0.00     0.041 C 
ATOM      5  O   UNL     1     180.124 179.515 198.251  1.00  0.00    -0.550 OA
ATOM      6  O   UNL     1     180.091 179.327 200.534  1.00  0.00    -0.550 OA
ENDBRANCH   3   4
ENDBRANCH   2   3
ENDBRANCH   1   2
BRANCH   1   7
ATOM      7  C   UNL     1     182.666 181.686 201.925  1.00  0.00     0.000 C 
BRANCH   7   8
ATOM      8  C   UNL     1     184.159 182.034 201.879  1.00  0.00    -0.000 C 
BRANCH   8   9
ATOM      9  C   UNL     1     184.382 183.419 201.255  1.00  0.00    -0.000 C 
BRANCH   9  10
ATOM     10  C   UNL     1     185.240 183.362 199.982  1.00  0.00    -0.003 C 
ATOM     11  C   UNL     1     184.452 183.717 198.721  1.00  0.00     0.004 C 
ENDBRANCH   9  10
ENDBRANCH   8   9
ENDBRANCH   7   8
ENDBRANCH   1   7
TORSDOF 7
ENDMDL
