MODEL 1
REMARK VINA RESULT:    -7.342      0.000      0.000
REMARK INTER + INTRA:          -7.342
REMARK INTER:                  -7.342
REMARK INTRA:                   0.000
REMARK UNBOUND:                 0.000
REMARK SMILES C[NH+]1CCN(C2=[NH+]c3ccccc3Oc3ccc(Cl)cc32)CC1
REMARK SMILES IDX 7 1 6 2 21 3 5 4 8 5 9 6 13 7 10 8 12 9 14 10 11 11 15 12
REMARK SMILES IDX 16 13 17 14 18 15 20 16 19 17 4 18 22 19 3 20 23 21 2 22
REMARK SMILES IDX 1 23
REMARK H PARENT 7 24 2 25
REMARK Flexibility Score: inf
ROOT
ATOM      1  N   UNL     1     150.599 160.855 171.772  1.00  0.00    -0.237 N 
ATOM      2  C   UNL     1     149.727 161.446 171.000  1.00  0.00     0.286 C 
ATOM      3  C   UNL     1     149.973 161.752 169.565  1.00  0.00     0.108 A 
ATOM      4  N   UNL     1     148.468 161.847 171.576  1.00  0.00    -0.250 N 
ATOM      5  C   UNL     1     151.912 160.388 171.416  1.00  0.00     0.168 A 
ATOM      6  C   UNL     1     152.915 160.412 172.400  1.00  0.00     0.056 A 
ATOM      7  C   UNL     1     152.170 159.733 170.194  1.00  0.00     0.173 A 
ATOM      8  C   UNL     1     154.154 159.809 172.173  1.00  0.00     0.005 A 
ATOM      9  C   UNL     1     153.404 159.100 169.989  1.00  0.00     0.052 A 
ATOM     10  O   UNL     1     151.239 159.692 169.161  1.00  0.00    -0.452 OA
ATOM     11  C   UNL     1     154.395 159.145 170.971  1.00  0.00     0.004 A 
ATOM     12  C   UNL     1     150.600 160.838 168.696  1.00  0.00     0.143 A 
ATOM     13  C   UNL     1     150.611 161.077 167.316  1.00  0.00     0.049 A 
ATOM     14  C   UNL     1     150.058 162.246 166.794  1.00  0.00     0.024 A 
ATOM     15  C   UNL     1     149.480 163.184 167.651  1.00  0.00     0.042 A 
ATOM     16  C   UNL     1     149.432 162.937 169.025  1.00  0.00     0.041 A 
ATOM     17  Cl  UNL     1     148.790 164.660 166.999  1.00  0.00    -0.084 Cl
ATOM     18  C   UNL     1     148.431 162.845 172.647  1.00  0.00     0.298 C 
ATOM     19  C   UNL     1     147.207 161.481 170.927  1.00  0.00     0.298 C 
ATOM     20  C   UNL     1     147.344 162.471 173.661  1.00  0.00     0.308 C 
ATOM     21  C   UNL     1     146.156 161.151 171.994  1.00  0.00     0.308 C 
ATOM     22  N   UNL     1     146.048 162.242 172.986  1.00  0.00    -0.331 N 
ATOM     23  C   UNL     1     145.012 161.919 173.981  1.00  0.00     0.332 C 
ATOM     24  H   UNL     1     150.338 160.730 172.777  1.00  0.00     0.312 HD
ATOM     25  H   UNL     1     145.756 163.123 172.497  1.00  0.00     0.348 HD
ENDROOT
TORSDOF 0
ENDMDL
MODEL 2
REMARK VINA RESULT:    -6.890      2.522      4.870
REMARK INTER + INTRA:          -6.890
REMARK INTER:                  -6.890
REMARK INTRA:                   0.000
REMARK UNBOUND:                 0.000
REMARK SMILES C[NH+]1CCN(C2=[NH+]c3ccccc3Oc3ccc(Cl)cc32)CC1
REMARK SMILES IDX 7 1 6 2 21 3 5 4 8 5 9 6 13 7 10 8 12 9 14 10 11 11 15 12
REMARK SMILES IDX 16 13 17 14 18 15 20 16 19 17 4 18 22 19 3 20 23 21 2 22
REMARK SMILES IDX 1 23
REMARK H PARENT 7 24 2 25
REMARK Flexibility Score: inf
ROOT
ATOM      1  N   UNL     1     151.096 160.983 168.784  1.00  0.00    -0.237 N 
ATOM      2  C   UNL     1     150.121 161.709 169.263  1.00  0.00     0.286 C 
ATOM      3  C   UNL     1     149.592 161.567 170.646  1.00  0.00     0.108 A 
ATOM      4  N   UNL     1     149.506 162.681 168.395  1.00  0.00    -0.250 N 
ATOM      5  C   UNL     1     151.837 159.953 169.460  1.00  0.00     0.168 A 
ATOM      6  C   UNL     1     152.325 158.877 168.699  1.00  0.00     0.056 A 
ATOM      7  C   UNL     1     152.253 160.084 170.801  1.00  0.00     0.173 A 
ATOM      8  C   UNL     1     153.200 157.943 169.259  1.00  0.00     0.005 A 
ATOM      9  C   UNL     1     153.158 159.162 171.344  1.00  0.00     0.052 A 
ATOM     10  O   UNL     1     151.792 161.105 171.626  1.00  0.00    -0.452 OA
ATOM     11  C   UNL     1     153.623 158.091 170.579  1.00  0.00     0.004 A 
ATOM     12  C   UNL     1     150.436 161.390 171.760  1.00  0.00     0.143 A 
ATOM     13  C   UNL     1     149.913 161.483 173.056  1.00  0.00     0.049 A 
ATOM     14  C   UNL     1     148.548 161.688 173.258  1.00  0.00     0.024 A 
ATOM     15  C   UNL     1     147.694 161.811 172.161  1.00  0.00     0.042 A 
ATOM     16  C   UNL     1     148.213 161.758 170.864  1.00  0.00     0.041 A 
ATOM     17  Cl  UNL     1     145.976 162.062 172.409  1.00  0.00    -0.084 Cl
ATOM     18  C   UNL     1     148.803 162.251 167.185  1.00  0.00     0.298 C 
ATOM     19  C   UNL     1     149.334 164.067 168.839  1.00  0.00     0.298 C 
ATOM     20  C   UNL     1     149.055 163.258 166.057  1.00  0.00     0.308 C 
ATOM     21  C   UNL     1     149.569 165.019 167.661  1.00  0.00     0.308 C 
ATOM     22  N   UNL     1     148.740 164.635 166.497  1.00  0.00    -0.331 N 
ATOM     23  C   UNL     1     148.956 165.580 165.390  1.00  0.00     0.332 C 
ATOM     24  H   UNL     1     151.358 161.138 167.783  1.00  0.00     0.312 HD
ATOM     25  H   UNL     1     147.727 164.686 166.766  1.00  0.00     0.348 HD
ENDROOT
TORSDOF 0
ENDMDL
MODEL 3
REMARK VINA RESULT:    -6.798      3.546      6.614
REMARK INTER + INTRA:          -6.798
REMARK INTER:                  -6.798
REMARK INTRA:                   0.000
REMARK UNBOUND:                 0.000
REMARK SMILES C[NH+]1CCN(C2=[NH+]c3ccccc3Oc3ccc(Cl)cc32)CC1
REMARK SMILES IDX 7 1 6 2 21 3 5 4 8 5 9 6 13 7 10 8 12 9 14 10 11 11 15 12
REMARK SMILES IDX 16 13 17 14 18 15 20 16 19 17 4 18 22 19 3 20 23 21 2 22
REMARK SMILES IDX 1 23
REMARK H PARENT 7 24 2 25
REMARK Flexibility Score: inf
ROOT
ATOM      1  N   UNL     1     148.132 164.911 169.256  1.00  0.00    -0.237 N 
ATOM      2  C   UNL     1     149.072 164.434 168.484  1.00  0.00     0.286 C 
ATOM      3  C   UNL     1     149.754 163.134 168.726  1.00  0.00     0.108 A 
ATOM      4  N   UNL     1     149.489 165.221 167.352  1.00  0.00    -0.250 N 
ATOM      5  C   UNL     1     147.576 164.308 170.437  1.00  0.00     0.168 A 
ATOM      6  C   UNL     1     147.125 165.154 171.465  1.00  0.00     0.056 A 
ATOM      7  C   UNL     1     147.291 162.929 170.514  1.00  0.00     0.173 A 
ATOM      8  C   UNL     1     146.415 164.641 172.553  1.00  0.00     0.005 A 
ATOM      9  C   UNL     1     146.547 162.429 171.592  1.00  0.00     0.052 A 
ATOM     10  O   UNL     1     147.728 162.025 169.550  1.00  0.00    -0.452 OA
ATOM     11  C   UNL     1     146.119 163.280 172.612  1.00  0.00     0.004 A 
ATOM     12  C   UNL     1     149.054 161.980 169.128  1.00  0.00     0.143 A 
ATOM     13  C   UNL     1     149.697 160.735 169.129  1.00  0.00     0.049 A 
ATOM     14  C   UNL     1     151.047 160.633 168.793  1.00  0.00     0.024 A 
ATOM     15  C   UNL     1     151.764 161.778 168.444  1.00  0.00     0.042 A 
ATOM     16  C   UNL     1     151.121 163.019 168.404  1.00  0.00     0.041 A 
ATOM     17  Cl  UNL     1     153.463 161.657 168.027  1.00  0.00    -0.084 Cl
ATOM     18  C   UNL     1     150.103 166.535 167.553  1.00  0.00     0.298 C 
ATOM     19  C   UNL     1     149.562 164.620 166.018  1.00  0.00     0.298 C 
ATOM     20  C   UNL     1     149.631 167.497 166.456  1.00  0.00     0.308 C 
ATOM     21  C   UNL     1     149.109 165.641 164.967  1.00  0.00     0.308 C 
ATOM     22  N   UNL     1     149.847 166.914 165.114  1.00  0.00    -0.331 N 
ATOM     23  C   UNL     1     149.420 167.867 164.076  1.00  0.00     0.332 C 
ATOM     24  H   UNL     1     147.753 165.856 169.016  1.00  0.00     0.312 HD
ATOM     25  H   UNL     1     150.872 166.734 164.978  1.00  0.00     0.348 HD
ENDROOT
TORSDOF 0
ENDMDL
MODEL 4
REMARK VINA RESULT:    -6.672      2.569      4.948
REMARK INTER + INTRA:          -6.672
REMARK INTER:                  -6.672
REMARK INTRA:                   0.000
REMARK UNBOUND:                 0.000
REMARK SMILES C[NH+]1CCN(C2=[NH+]c3ccccc3Oc3ccc(Cl)cc32)CC1
REMARK SMILES IDX 7 1 6 2 21 3 5 4 8 5 9 6 13 7 10 8 12 9 14 10 11 11 15 12
REMARK SMILES IDX 16 13 17 14 18 15 20 16 19 17 4 18 22 19 3 20 23 21 2 22
REMARK SMILES IDX 1 23
REMARK H PARENT 7 24 2 25
REMARK Flexibility Score: inf
ROOT
ATOM      1  N   UNL     1     149.055 162.955 168.670  1.00  0.00    -0.237 N 
ATOM      2  C   UNL     1     149.636 162.121 169.490  1.00  0.00     0.286 C 
ATOM      3  C   UNL     1     150.986 161.542 169.255  1.00  0.00     0.108 A 
ATOM      4  N   UNL     1     148.919 161.718 170.673  1.00  0.00    -0.250 N 
ATOM      5  C   UNL     1     149.574 163.475 167.434  1.00  0.00     0.168 A 
ATOM      6  C   UNL     1     148.665 163.773 166.404  1.00  0.00     0.056 A 
ATOM      7  C   UNL     1     150.919 163.876 167.293  1.00  0.00     0.173 A 
ATOM      8  C   UNL     1     149.083 164.445 165.253  1.00  0.00     0.005 A 
ATOM      9  C   UNL     1     151.321 164.581 166.150  1.00  0.00     0.052 A 
ATOM     10  O   UNL     1     151.883 163.593 168.256  1.00  0.00    -0.452 OA
ATOM     11  C   UNL     1     150.409 164.856 165.130  1.00  0.00     0.004 A 
ATOM     12  C   UNL     1     152.061 162.311 168.768  1.00  0.00     0.143 A 
ATOM     13  C   UNL     1     153.358 161.783 168.773  1.00  0.00     0.049 A 
ATOM     14  C   UNL     1     153.591 160.476 169.200  1.00  0.00     0.024 A 
ATOM     15  C   UNL     1     152.526 159.687 169.635  1.00  0.00     0.042 A 
ATOM     16  C   UNL     1     151.233 160.217 169.669  1.00  0.00     0.041 A 
ATOM     17  Cl  UNL     1     152.813 158.040 170.165  1.00  0.00    -0.084 Cl
ATOM     18  C   UNL     1     147.662 160.976 170.558  1.00  0.00     0.298 C 
ATOM     19  C   UNL     1     149.558 161.797 171.989  1.00  0.00     0.298 C 
ATOM     20  C   UNL     1     146.689 161.439 171.649  1.00  0.00     0.308 C 
ATOM     21  C   UNL     1     148.527 162.232 173.038  1.00  0.00     0.308 C 
ATOM     22  N   UNL     1     147.323 161.374 172.984  1.00  0.00    -0.331 N 
ATOM     23  C   UNL     1     146.362 161.789 174.019  1.00  0.00     0.332 C 
ATOM     24  H   UNL     1     148.086 163.265 168.912  1.00  0.00     0.312 HD
ATOM     25  H   UNL     1     147.599 160.383 173.185  1.00  0.00     0.348 HD
ENDROOT
TORSDOF 0
ENDMDL
MODEL 5
REMARK VINA RESULT:    -6.537      3.638      7.172
REMARK INTER + INTRA:          -6.537
REMARK INTER:                  -6.537
REMARK INTRA:                   0.000
REMARK UNBOUND:                 0.000
REMARK SMILES C[NH+]1CCN(C2=[NH+]c3ccccc3Oc3ccc(Cl)cc32)CC1
REMARK SMILES IDX 7 1 6 2 21 3 5 4 8 5 9 6 13 7 10 8 12 9 14 10 11 11 15 12
REMARK SMILES IDX 16 13 17 14 18 15 20 16 19 17 4 18 22 19 3 20 23 21 2 22
REMARK SMILES IDX 1 23
REMARK H PARENT 7 24 2 25
REMARK Flexibility Score: inf
ROOT
ATOM      1  N   UNL     1     151.231 159.254 169.574  1.00  0.00    -0.237 N 
ATOM      2  C   UNL     1     152.486 158.899 169.650  1.00  0.00     0.286 C 
ATOM      3  C   UNL     1     153.513 159.666 170.405  1.00  0.00     0.108 A 
ATOM      4  N   UNL     1     152.904 157.716 168.942  1.00  0.00    -0.250 N 
ATOM      5  C   UNL     1     150.603 160.395 170.182  1.00  0.00     0.168 A 
ATOM      6  C   UNL     1     149.521 160.993 169.514  1.00  0.00     0.056 A 
ATOM      7  C   UNL     1     150.903 160.806 171.498  1.00  0.00     0.173 A 
ATOM      8  C   UNL     1     148.758 161.985 170.133  1.00  0.00     0.005 A 
ATOM      9  C   UNL     1     150.110 161.778 172.123  1.00  0.00     0.052 A 
ATOM     10  O   UNL     1     151.976 160.282 172.213  1.00  0.00    -0.452 OA
ATOM     11  C   UNL     1     149.047 162.372 171.441  1.00  0.00     0.004 A 
ATOM     12  C   UNL     1     153.259 160.215 171.677  1.00  0.00     0.143 A 
ATOM     13  C   UNL     1     154.313 160.733 172.440  1.00  0.00     0.049 A 
ATOM     14  C   UNL     1     155.610 160.768 171.927  1.00  0.00     0.024 A 
ATOM     15  C   UNL     1     155.864 160.275 170.647  1.00  0.00     0.042 A 
ATOM     16  C   UNL     1     154.825 159.722 169.893  1.00  0.00     0.041 A 
ATOM     17  Cl  UNL     1     157.492 160.323 169.995  1.00  0.00    -0.084 Cl
ATOM     18  C   UNL     1     152.813 157.659 167.481  1.00  0.00     0.298 C 
ATOM     19  C   UNL     1     153.672 156.674 169.628  1.00  0.00     0.298 C 
ATOM     20  C   UNL     1     152.397 156.249 167.046  1.00  0.00     0.308 C 
ATOM     21  C   UNL     1     153.232 155.294 169.126  1.00  0.00     0.308 C 
ATOM     22  N   UNL     1     153.281 155.228 167.649  1.00  0.00    -0.331 N 
ATOM     23  C   UNL     1     152.885 153.885 167.192  1.00  0.00     0.332 C 
ATOM     24  H   UNL     1     150.605 158.664 168.978  1.00  0.00     0.312 HD
ATOM     25  H   UNL     1     154.266 155.395 167.331  1.00  0.00     0.348 HD
ENDROOT
TORSDOF 0
ENDMDL
MODEL 6
REMARK VINA RESULT:    -6.457      3.126      6.508
REMARK INTER + INTRA:          -6.457
REMARK INTER:                  -6.457
REMARK INTRA:                   0.000
REMARK UNBOUND:                 0.000
REMARK SMILES C[NH+]1CCN(C2=[NH+]c3ccccc3Oc3ccc(Cl)cc32)CC1
REMARK SMILES IDX 7 1 6 2 21 3 5 4 8 5 9 6 13 7 10 8 12 9 14 10 11 11 15 12
REMARK SMILES IDX 16 13 17 14 18 15 20 16 19 17 4 18 22 19 3 20 23 21 2 22
REMARK SMILES IDX 1 23
REMARK H PARENT 7 24 2 25
REMARK Flexibility Score: inf
ROOT
ATOM      1  N   UNL     1     151.545 163.130 168.138  1.00  0.00    -0.237 N 
ATOM      2  C   UNL     1     151.102 162.241 168.987  1.00  0.00     0.286 C 
ATOM      3  C   UNL     1     149.868 162.422 169.799  1.00  0.00     0.108 A 
ATOM      4  N   UNL     1     151.864 161.032 169.167  1.00  0.00    -0.250 N 
ATOM      5  C   UNL     1     150.958 164.402 167.814  1.00  0.00     0.168 A 
ATOM      6  C   UNL     1     151.816 165.457 167.456  1.00  0.00     0.056 A 
ATOM      7  C   UNL     1     149.567 164.570 167.655  1.00  0.00     0.173 A 
ATOM      8  C   UNL     1     151.304 166.658 166.960  1.00  0.00     0.005 A 
ATOM      9  C   UNL     1     149.065 165.765 167.122  1.00  0.00     0.052 A 
ATOM     10  O   UNL     1     148.654 163.583 168.013  1.00  0.00    -0.452 OA
ATOM     11  C   UNL     1     149.929 166.809 166.785  1.00  0.00     0.004 A 
ATOM     12  C   UNL     1     148.686 162.966 169.261  1.00  0.00     0.143 A 
ATOM     13  C   UNL     1     147.493 162.912 169.993  1.00  0.00     0.049 A 
ATOM     14  C   UNL     1     147.475 162.378 171.282  1.00  0.00     0.024 A 
ATOM     15  C   UNL     1     148.652 161.884 171.845  1.00  0.00     0.042 A 
ATOM     16  C   UNL     1     149.839 161.899 171.107  1.00  0.00     0.041 A 
ATOM     17  Cl  UNL     1     148.636 161.217 173.468  1.00  0.00    -0.084 Cl
ATOM     18  C   UNL     1     153.228 161.090 169.697  1.00  0.00     0.298 C 
ATOM     19  C   UNL     1     151.209 159.724 169.087  1.00  0.00     0.298 C 
ATOM     20  C   UNL     1     154.100 160.046 168.993  1.00  0.00     0.308 C 
ATOM     21  C   UNL     1     152.143 158.720 168.403  1.00  0.00     0.308 C 
ATOM     22  N   UNL     1     153.473 158.707 169.051  1.00  0.00    -0.331 N 
ATOM     23  C   UNL     1     154.343 157.714 168.399  1.00  0.00     0.332 C 
ATOM     24  H   UNL     1     152.447 162.918 167.654  1.00  0.00     0.312 HD
ATOM     25  H   UNL     1     153.362 158.424 170.055  1.00  0.00     0.348 HD
ENDROOT
TORSDOF 0
ENDMDL
MODEL 7
REMARK VINA RESULT:    -6.416      9.234     12.175
REMARK INTER + INTRA:          -6.416
REMARK INTER:                  -6.416
REMARK INTRA:                   0.000
REMARK UNBOUND:                 0.000
REMARK SMILES C[NH+]1CCN(C2=[NH+]c3ccccc3Oc3ccc(Cl)cc32)CC1
REMARK SMILES IDX 7 1 6 2 21 3 5 4 8 5 9 6 13 7 10 8 12 9 14 10 11 11 15 12
REMARK SMILES IDX 16 13 17 14 18 15 20 16 19 17 4 18 22 19 3 20 23 21 2 22
REMARK SMILES IDX 1 23
REMARK H PARENT 7 24 2 25
REMARK Flexibility Score: inf
ROOT
ATOM      1  N   UNL     1     159.897 165.885 167.301  1.00  0.00    -0.237 N 
ATOM      2  C   UNL     1     159.832 164.647 167.715  1.00  0.00     0.286 C 
ATOM      3  C   UNL     1     158.555 163.906 167.896  1.00  0.00     0.108 A 
ATOM      4  N   UNL     1     161.063 163.972 168.041  1.00  0.00    -0.250 N 
ATOM      5  C   UNL     1     158.805 166.747 166.938  1.00  0.00     0.168 A 
ATOM      6  C   UNL     1     158.944 168.127 167.168  1.00  0.00     0.056 A 
ATOM      7  C   UNL     1     157.700 166.287 166.191  1.00  0.00     0.173 A 
ATOM      8  C   UNL     1     158.000 169.032 166.676  1.00  0.00     0.005 A 
ATOM      9  C   UNL     1     156.778 167.206 165.672  1.00  0.00     0.052 A 
ATOM     10  O   UNL     1     157.480 164.935 165.947  1.00  0.00    -0.452 OA
ATOM     11  C   UNL     1     156.922 168.572 165.921  1.00  0.00     0.004 A 
ATOM     12  C   UNL     1     157.499 163.988 166.967  1.00  0.00     0.143 A 
ATOM     13  C   UNL     1     156.413 163.109 167.063  1.00  0.00     0.049 A 
ATOM     14  C   UNL     1     156.334 162.189 168.108  1.00  0.00     0.024 A 
ATOM     15  C   UNL     1     157.348 162.135 169.065  1.00  0.00     0.042 A 
ATOM     16  C   UNL     1     158.454 162.983 168.956  1.00  0.00     0.041 A 
ATOM     17  Cl  UNL     1     157.250 160.985 170.385  1.00  0.00    -0.084 Cl
ATOM     18  C   UNL     1     161.906 164.460 169.134  1.00  0.00     0.298 C 
ATOM     19  C   UNL     1     161.353 162.650 167.481  1.00  0.00     0.298 C 
ATOM     20  C   UNL     1     163.383 164.301 168.756  1.00  0.00     0.308 C 
ATOM     21  C   UNL     1     162.847 162.545 167.155  1.00  0.00     0.308 C 
ATOM     22  N   UNL     1     163.672 162.916 168.326  1.00  0.00    -0.331 N 
ATOM     23  C   UNL     1     165.101 162.776 168.001  1.00  0.00     0.332 C 
ATOM     24  H   UNL     1     160.846 166.321 167.253  1.00  0.00     0.312 HD
ATOM     25  H   UNL     1     163.459 162.260 169.117  1.00  0.00     0.348 HD
ENDROOT
TORSDOF 0
ENDMDL
MODEL 8
REMARK VINA RESULT:    -6.370      2.600      6.071
REMARK INTER + INTRA:          -6.370
REMARK INTER:                  -6.370
REMARK INTRA:                   0.000
REMARK UNBOUND:                 0.000
REMARK SMILES C[NH+]1CCN(C2=[NH+]c3ccccc3Oc3ccc(Cl)cc32)CC1
REMARK SMILES IDX 7 1 6 2 21 3 5 4 8 5 9 6 13 7 10 8 12 9 14 10 11 11 15 12
REMARK SMILES IDX 16 13 17 14 18 15 20 16 19 17 4 18 22 19 3 20 23 21 2 22
REMARK SMILES IDX 1 23
REMARK H PARENT 7 24 2 25
REMARK Flexibility Score: inf
ROOT
ATOM      1  N   UNL     1     150.092 160.377 169.898  1.00  0.00    -0.237 N 
ATOM      2  C   UNL     1     150.965 160.537 168.940  1.00  0.00     0.286 C 
ATOM      3  C   UNL     1     150.752 161.437 167.775  1.00  0.00     0.108 A 
ATOM      4  N   UNL     1     152.189 159.780 169.000  1.00  0.00    -0.250 N 
ATOM      5  C   UNL     1     148.809 161.013 170.032  1.00  0.00     0.168 A 
ATOM      6  C   UNL     1     147.776 160.299 170.663  1.00  0.00     0.056 A 
ATOM      7  C   UNL     1     148.612 162.378 169.735  1.00  0.00     0.173 A 
ATOM      8  C   UNL     1     146.568 160.922 170.983  1.00  0.00     0.005 A 
ATOM      9  C   UNL     1     147.410 163.003 170.092  1.00  0.00     0.052 A 
ATOM     10  O   UNL     1     149.576 163.143 169.086  1.00  0.00    -0.452 OA
ATOM     11  C   UNL     1     146.388 162.276 170.705  1.00  0.00     0.004 A 
ATOM     12  C   UNL     1     150.185 162.720 167.908  1.00  0.00     0.143 A 
ATOM     13  C   UNL     1     150.208 163.612 166.828  1.00  0.00     0.049 A 
ATOM     14  C   UNL     1     150.733 163.221 165.596  1.00  0.00     0.024 A 
ATOM     15  C   UNL     1     151.249 161.934 165.437  1.00  0.00     0.042 A 
ATOM     16  C   UNL     1     151.265 161.051 166.520  1.00  0.00     0.041 A 
ATOM     17  Cl  UNL     1     151.903 161.436 163.888  1.00  0.00    -0.084 Cl
ATOM     18  C   UNL     1     152.157 158.317 168.941  1.00  0.00     0.298 C 
ATOM     19  C   UNL     1     153.483 160.450 168.845  1.00  0.00     0.298 C 
ATOM     20  C   UNL     1     153.225 157.740 169.876  1.00  0.00     0.308 C 
ATOM     21  C   UNL     1     154.512 159.806 169.782  1.00  0.00     0.308 C 
ATOM     22  N   UNL     1     154.549 158.338 169.599  1.00  0.00    -0.331 N 
ATOM     23  C   UNL     1     155.566 157.746 170.484  1.00  0.00     0.332 C 
ATOM     24  H   UNL     1     150.327 159.684 170.646  1.00  0.00     0.312 HD
ATOM     25  H   UNL     1     154.823 158.123 168.610  1.00  0.00     0.348 HD
ENDROOT
TORSDOF 0
ENDMDL
