MODEL 1
REMARK VINA RESULT:    10.290      0.000      0.000
REMARK INTER + INTRA:          18.795
REMARK INTER:                  19.312
REMARK INTRA:                  -0.517
REMARK UNBOUND:                -0.517
REMARK SMILES O=C([O-])CCCCCCCCCCCCCCC(=O)[O-]
REMARK SMILES IDX 10 1 9 2 8 3 7 4 6 5 5 6 4 7 2 8 1 9 3 10 11 11 12 12 13 13
REMARK SMILES IDX 14 14 15 15 16 16 17 17 18 18 19 19 20 20
REMARK H PARENT
REMARK Flexibility Score: inf
ROOT
ATOM      1  C   UNL     1     -33.119  12.289  17.649  1.00  0.00     0.000 C 
ENDROOT
BRANCH   1   2
ATOM      2  C   UNL     1     -34.072  13.302  16.988  1.00  0.00     0.000 C 
BRANCH   2   3
ATOM      3  C   UNL     1     -34.434  14.522  17.855  1.00  0.00     0.000 C 
BRANCH   3   4
ATOM      4  C   UNL     1     -34.952  15.711  17.028  1.00  0.00     0.000 C 
BRANCH   4   5
ATOM      5  C   UNL     1     -35.282  16.935  17.898  1.00  0.00     0.000 C 
BRANCH   5   6
ATOM      6  C   UNL     1     -36.768  17.002  18.288  1.00  0.00     0.006 C 
BRANCH   6   7
ATOM      7  C   UNL     1     -37.468  15.672  18.001  1.00  0.00     0.053 C 
BRANCH   7   8
ATOM      8  C   UNL     1     -38.874  15.697  18.514  1.00  0.00     0.041 C 
ATOM      9  O   UNL     1     -39.197  15.001  19.511  1.00  0.00    -0.550 OA
ATOM     10  O   UNL     1     -39.839  16.453  17.860  1.00  0.00    -0.550 OA
ENDBRANCH   7   8
ENDBRANCH   6   7
ENDBRANCH   5   6
ENDBRANCH   4   5
ENDBRANCH   3   4
ENDBRANCH   2   3
ENDBRANCH   1   2
BRANCH   1  11
ATOM     11  C   UNL     1     -33.248  12.254  19.179  1.00  0.00     0.000 C 
BRANCH  11  12
ATOM     12  C   UNL     1     -33.295  10.810  19.694  1.00  0.00     0.000 C 
BRANCH  12  13
ATOM     13  C   UNL     1     -34.068  10.724  21.018  1.00  0.00     0.000 C 
BRANCH  13  14
ATOM     14  C   UNL     1     -34.078  12.053  21.789  1.00  0.00     0.000 C 
BRANCH  14  15
ATOM     15  C   UNL     1     -34.734  11.930  23.175  1.00  0.00     0.000 C 
BRANCH  15  16
ATOM     16  C   UNL     1     -33.950  10.991  24.116  1.00  0.00     0.006 C 
BRANCH  16  17
ATOM     17  C   UNL     1     -34.496  10.963  25.552  1.00  0.00     0.053 C 
BRANCH  17  18
ATOM     18  C   UNL     1     -34.067   9.740  26.300  1.00  0.00     0.041 C 
ATOM     19  O   UNL     1     -34.839   8.750  26.393  1.00  0.00    -0.550 OA
ATOM     20  O   UNL     1     -32.822   9.703  26.916  1.00  0.00    -0.550 OA
ENDBRANCH  17  18
ENDBRANCH  16  17
ENDBRANCH  15  16
ENDBRANCH  14  15
ENDBRANCH  13  14
ENDBRANCH  12  13
ENDBRANCH  11  12
ENDBRANCH   1  11
TORSDOF 15
ENDMDL
MODEL 2
REMARK VINA RESULT:    10.359      1.972      2.285
REMARK INTER + INTRA:          18.925
REMARK INTER:                  19.488
REMARK INTRA:                  -0.563
REMARK UNBOUND:                -0.517
REMARK SMILES O=C([O-])CCCCCCCCCCCCCCC(=O)[O-]
REMARK SMILES IDX 10 1 9 2 8 3 7 4 6 5 5 6 4 7 2 8 1 9 3 10 11 11 12 12 13 13
REMARK SMILES IDX 14 14 15 15 16 16 17 17 18 18 19 19 20 20
REMARK H PARENT
REMARK Flexibility Score: inf
ROOT
ATOM      1  C   UNL     1     -33.538  12.200  17.145  1.00  0.00     0.000 C 
ENDROOT
BRANCH   1   2
ATOM      2  C   UNL     1     -34.274  13.448  16.623  1.00  0.00     0.000 C 
BRANCH   2   3
ATOM      3  C   UNL     1     -34.419  14.595  17.640  1.00  0.00     0.000 C 
BRANCH   3   4
ATOM      4  C   UNL     1     -34.963  15.888  17.010  1.00  0.00     0.000 C 
BRANCH   4   5
ATOM      5  C   UNL     1     -35.303  16.959  18.060  1.00  0.00     0.000 C 
BRANCH   5   6
ATOM      6  C   UNL     1     -36.813  17.079  18.317  1.00  0.00     0.006 C 
BRANCH   6   7
ATOM      7  C   UNL     1     -37.548  15.817  17.859  1.00  0.00     0.053 C 
BRANCH   7   8
ATOM      8  C   UNL     1     -38.866  15.693  18.556  1.00  0.00     0.041 C 
ATOM      9  O   UNL     1     -38.970  14.988  19.594  1.00  0.00    -0.550 OA
ATOM     10  O   UNL     1     -39.991  16.318  18.033  1.00  0.00    -0.550 OA
ENDBRANCH   7   8
ENDBRANCH   6   7
ENDBRANCH   5   6
ENDBRANCH   4   5
ENDBRANCH   3   4
ENDBRANCH   2   3
ENDBRANCH   1   2
BRANCH   1  11
ATOM     11  C   UNL     1     -32.885  12.419  18.518  1.00  0.00     0.000 C 
BRANCH  11  12
ATOM     12  C   UNL     1     -33.069  11.189  19.416  1.00  0.00     0.000 C 
BRANCH  12  13
ATOM     13  C   UNL     1     -34.072  11.477  20.543  1.00  0.00     0.000 C 
BRANCH  13  14
ATOM     14  C   UNL     1     -33.941  10.498  21.720  1.00  0.00     0.000 C 
BRANCH  14  15
ATOM     15  C   UNL     1     -34.099   9.029  21.290  1.00  0.00     0.000 C 
BRANCH  15  16
ATOM     16  C   UNL     1     -33.705   8.043  22.409  1.00  0.00     0.006 C 
BRANCH  16  17
ATOM     17  C   UNL     1     -34.597   6.793  22.469  1.00  0.00     0.053 C 
BRANCH  17  18
ATOM     18  C   UNL     1     -35.011   6.457  23.868  1.00  0.00     0.041 C 
ATOM     19  O   UNL     1     -36.215   6.574  24.219  1.00  0.00    -0.550 OA
ATOM     20  O   UNL     1     -34.062   6.039  24.793  1.00  0.00    -0.550 OA
ENDBRANCH  17  18
ENDBRANCH  16  17
ENDBRANCH  15  16
ENDBRANCH  14  15
ENDBRANCH  13  14
ENDBRANCH  12  13
ENDBRANCH  11  12
ENDBRANCH   1  11
TORSDOF 15
ENDMDL
MODEL 3
REMARK VINA RESULT:    10.536      0.234      8.310
REMARK INTER + INTRA:          19.259
REMARK INTER:                  19.833
REMARK INTRA:                  -0.574
REMARK UNBOUND:                -0.517
REMARK SMILES O=C([O-])CCCCCCCCCCCCCCC(=O)[O-]
REMARK SMILES IDX 10 1 9 2 8 3 7 4 6 5 5 6 4 7 2 8 1 9 3 10 11 11 12 12 13 13
REMARK SMILES IDX 14 14 15 15 16 16 17 17 18 18 19 19 20 20
REMARK H PARENT
REMARK Flexibility Score: inf
ROOT
ATOM      1  C   UNL     1     -33.186  12.396  18.937  1.00  0.00     0.000 C 
ENDROOT
BRANCH   1   2
ATOM      2  C   UNL     1     -33.187  10.989  19.561  1.00  0.00     0.000 C 
BRANCH   2   3
ATOM      3  C   UNL     1     -34.055  10.833  20.824  1.00  0.00     0.000 C 
BRANCH   3   4
ATOM      4  C   UNL     1     -34.025  12.077  21.728  1.00  0.00     0.000 C 
BRANCH   4   5
ATOM      5  C   UNL     1     -34.698  11.833  23.089  1.00  0.00     0.000 C 
BRANCH   5   6
ATOM      6  C   UNL     1     -33.852  10.950  24.019  1.00  0.00     0.006 C 
BRANCH   6   7
ATOM      7  C   UNL     1     -34.343  11.052  25.465  1.00  0.00     0.053 C 
BRANCH   7   8
ATOM      8  C   UNL     1     -34.202   9.735  26.162  1.00  0.00     0.041 C 
ATOM      9  O   UNL     1     -35.156   8.913  26.163  1.00  0.00    -0.550 OA
ATOM     10  O   UNL     1     -33.035   9.435  26.852  1.00  0.00    -0.550 OA
ENDBRANCH   7   8
ENDBRANCH   6   7
ENDBRANCH   5   6
ENDBRANCH   4   5
ENDBRANCH   3   4
ENDBRANCH   2   3
ENDBRANCH   1   2
BRANCH   1  11
ATOM     11  C   UNL     1     -33.134  12.372  17.402  1.00  0.00     0.000 C 
BRANCH  11  12
ATOM     12  C   UNL     1     -34.178  13.323  16.802  1.00  0.00     0.000 C 
BRANCH  12  13
ATOM     13  C   UNL     1     -34.580  14.407  17.813  1.00  0.00     0.000 C 
BRANCH  13  14
ATOM     14  C   UNL     1     -34.790  15.782  17.159  1.00  0.00     0.000 C 
BRANCH  14  15
ATOM     15  C   UNL     1     -35.211  16.861  18.171  1.00  0.00     0.000 C 
BRANCH  15  16
ATOM     16  C   UNL     1     -36.738  17.077  18.199  1.00  0.00     0.006 C 
BRANCH  16  17
ATOM     17  C   UNL     1     -37.542  15.833  17.787  1.00  0.00     0.053 C 
BRANCH  17  18
ATOM     18  C   UNL     1     -38.854  15.741  18.501  1.00  0.00     0.041 C 
ATOM     19  O   UNL     1     -38.955  15.062  19.557  1.00  0.00    -0.550 OA
ATOM     20  O   UNL     1     -39.972  16.385  17.987  1.00  0.00    -0.550 OA
ENDBRANCH  17  18
ENDBRANCH  16  17
ENDBRANCH  15  16
ENDBRANCH  14  15
ENDBRANCH  13  14
ENDBRANCH  12  13
ENDBRANCH  11  12
ENDBRANCH   1  11
TORSDOF 15
ENDMDL
MODEL 4
REMARK VINA RESULT:    10.968      2.023      8.428
REMARK INTER + INTRA:          20.069
REMARK INTER:                  20.661
REMARK INTRA:                  -0.591
REMARK UNBOUND:                -0.517
REMARK SMILES O=C([O-])CCCCCCCCCCCCCCC(=O)[O-]
REMARK SMILES IDX 10 1 9 2 8 3 7 4 6 5 5 6 4 7 2 8 1 9 3 10 11 11 12 12 13 13
REMARK SMILES IDX 14 14 15 15 16 16 17 17 18 18 19 19 20 20
REMARK H PARENT
REMARK Flexibility Score: inf
ROOT
ATOM      1  C   UNL     1     -32.355  12.356  18.490  1.00  0.00     0.000 C 
ENDROOT
BRANCH   1   2
ATOM      2  C   UNL     1     -33.236  11.310  19.197  1.00  0.00     0.000 C 
BRANCH   2   3
ATOM      3  C   UNL     1     -34.004  11.825  20.429  1.00  0.00     0.000 C 
BRANCH   3   4
ATOM      4  C   UNL     1     -34.066  10.795  21.569  1.00  0.00     0.000 C 
BRANCH   4   5
ATOM      5  C   UNL     1     -33.831   9.357  21.079  1.00  0.00     0.000 C 
BRANCH   5   6
ATOM      6  C   UNL     1     -33.477   8.391  22.221  1.00  0.00     0.006 C 
BRANCH   6   7
ATOM      7  C   UNL     1     -34.103   7.014  21.985  1.00  0.00     0.053 C 
BRANCH   7   8
ATOM      8  C   UNL     1     -34.915   6.597  23.171  1.00  0.00     0.041 C 
ATOM      9  O   UNL     1     -34.348   6.299  24.255  1.00  0.00    -0.550 OA
ATOM     10  O   UNL     1     -36.297   6.489  23.065  1.00  0.00    -0.550 OA
ENDBRANCH   7   8
ENDBRANCH   6   7
ENDBRANCH   5   6
ENDBRANCH   4   5
ENDBRANCH   3   4
ENDBRANCH   2   3
ENDBRANCH   1   2
BRANCH   1  11
ATOM     11  C   UNL     1     -32.848  12.698  17.077  1.00  0.00     0.000 C 
BRANCH  11  12
ATOM     12  C   UNL     1     -34.308  13.168  17.102  1.00  0.00     0.000 C 
BRANCH  12  13
ATOM     13  C   UNL     1     -34.461  14.444  17.944  1.00  0.00     0.000 C 
BRANCH  13  14
ATOM     14  C   UNL     1     -34.862  15.667  17.104  1.00  0.00     0.000 C 
BRANCH  14  15
ATOM     15  C   UNL     1     -35.197  16.895  17.968  1.00  0.00     0.000 C 
BRANCH  15  16
ATOM     16  C   UNL     1     -36.716  17.067  18.180  1.00  0.00     0.006 C 
BRANCH  16  17
ATOM     17  C   UNL     1     -37.534  15.823  17.799  1.00  0.00     0.053 C 
BRANCH  17  18
ATOM     18  C   UNL     1     -38.827  15.741  18.548  1.00  0.00     0.041 C 
ATOM     19  O   UNL     1     -38.902  15.073  19.613  1.00  0.00    -0.550 OA
ATOM     20  O   UNL     1     -39.957  16.382  18.057  1.00  0.00    -0.550 OA
ENDBRANCH  17  18
ENDBRANCH  16  17
ENDBRANCH  15  16
ENDBRANCH  14  15
ENDBRANCH  13  14
ENDBRANCH  12  13
ENDBRANCH  11  12
ENDBRANCH   1  11
TORSDOF 15
ENDMDL
MODEL 5
REMARK VINA RESULT:    12.220      5.461      8.960
REMARK INTER + INTRA:          22.418
REMARK INTER:                  23.111
REMARK INTRA:                  -0.693
REMARK UNBOUND:                -0.517
REMARK SMILES O=C([O-])CCCCCCCCCCCCCCC(=O)[O-]
REMARK SMILES IDX 10 1 9 2 8 3 7 4 6 5 5 6 4 7 2 8 1 9 3 10 11 11 12 12 13 13
REMARK SMILES IDX 14 14 15 15 16 16 17 17 18 18 19 19 20 20
REMARK H PARENT
REMARK Flexibility Score: inf
ROOT
ATOM      1  C   UNL     1     -28.871  13.280  16.338  1.00  0.00     0.000 C 
ENDROOT
BRANCH   1   2
ATOM      2  C   UNL     1     -27.993  14.528  16.539  1.00  0.00     0.000 C 
BRANCH   2   3
ATOM      3  C   UNL     1     -27.299  14.628  17.910  1.00  0.00     0.000 C 
BRANCH   3   4
ATOM      4  C   UNL     1     -26.135  15.633  17.921  1.00  0.00     0.000 C 
BRANCH   4   5
ATOM      5  C   UNL     1     -26.154  16.545  19.159  1.00  0.00     0.000 C 
BRANCH   5   6
ATOM      6  C   UNL     1     -26.097  15.757  20.477  1.00  0.00     0.006 C 
BRANCH   6   7
ATOM      7  C   UNL     1     -26.840  16.500  21.590  1.00  0.00     0.053 C 
BRANCH   7   8
ATOM      8  C   UNL     1     -27.767  15.573  22.311  1.00  0.00     0.041 C 
ATOM      9  O   UNL     1     -28.466  15.994  23.270  1.00  0.00    -0.550 OA
ATOM     10  O   UNL     1     -27.824  14.231  21.956  1.00  0.00    -0.550 OA
ENDBRANCH   7   8
ENDBRANCH   6   7
ENDBRANCH   5   6
ENDBRANCH   4   5
ENDBRANCH   3   4
ENDBRANCH   2   3
ENDBRANCH   1   2
BRANCH   1  11
ATOM     11  C   UNL     1     -29.841  13.035  17.503  1.00  0.00     0.000 C 
BRANCH  11  12
ATOM     12  C   UNL     1     -31.232  12.645  16.988  1.00  0.00     0.000 C 
BRANCH  12  13
ATOM     13  C   UNL     1     -32.240  12.550  18.143  1.00  0.00     0.000 C 
BRANCH  13  14
ATOM     14  C   UNL     1     -33.639  12.117  17.677  1.00  0.00     0.000 C 
BRANCH  14  15
ATOM     15  C   UNL     1     -34.403  13.247  16.966  1.00  0.00     0.000 C 
BRANCH  15  16
ATOM     16  C   UNL     1     -34.477  14.532  17.816  1.00  0.00     0.006 C 
BRANCH  16  17
ATOM     17  C   UNL     1     -34.950  15.764  17.029  1.00  0.00     0.053 C 
BRANCH  17  18
ATOM     18  C   UNL     1     -35.644  16.764  17.899  1.00  0.00     0.041 C 
ATOM     19  O   UNL     1     -36.849  16.595  18.224  1.00  0.00    -0.550 OA
ATOM     20  O   UNL     1     -34.967  17.898  18.332  1.00  0.00    -0.550 OA
ENDBRANCH  17  18
ENDBRANCH  16  17
ENDBRANCH  15  16
ENDBRANCH  14  15
ENDBRANCH  13  14
ENDBRANCH  12  13
ENDBRANCH  11  12
ENDBRANCH   1  11
TORSDOF 15
ENDMDL
