MODEL 1
REMARK VINA RESULT:    -5.074      0.000      0.000
REMARK INTER + INTRA:          -8.367
REMARK INTER:                  -7.744
REMARK INTRA:                  -0.623
REMARK UNBOUND:                -0.623
REMARK SMILES O=C([O-])CCCCCCCCC(=O)[O-]
REMARK SMILES IDX 7 1 6 2 5 3 4 4 2 5 1 6 3 7 8 8 9 9 10 10 11 11 12 12 13 13
REMARK SMILES IDX 14 14
REMARK H PARENT
REMARK Flexibility Score: inf
ROOT
ATOM      1  C   UNL     1      85.877 325.392 193.456  1.00  0.00     0.000 C 
ENDROOT
BRANCH   1   2
ATOM      2  C   UNL     1      86.736 326.518 194.042  1.00  0.00     0.000 C 
BRANCH   2   3
ATOM      3  C   UNL     1      86.714 326.486 195.577  1.00  0.00     0.006 C 
BRANCH   3   4
ATOM      4  C   UNL     1      88.124 326.407 196.177  1.00  0.00     0.053 C 
BRANCH   4   5
ATOM      5  C   UNL     1      88.441 325.030 196.673  1.00  0.00     0.041 C 
ATOM      6  O   UNL     1      88.260 324.031 195.928  1.00  0.00    -0.550 OA
ATOM      7  O   UNL     1      88.906 324.846 197.969  1.00  0.00    -0.550 OA
ENDBRANCH   4   5
ENDBRANCH   3   4
ENDBRANCH   2   3
ENDBRANCH   1   2
BRANCH   1   8
ATOM      8  C   UNL     1      86.744 324.357 192.729  1.00  0.00     0.000 C 
BRANCH   8   9
ATOM      9  C   UNL     1      88.096 324.962 192.321  1.00  0.00     0.000 C 
BRANCH   9  10
ATOM     10  C   UNL     1      88.728 324.240 191.120  1.00  0.00     0.006 C 
BRANCH  10  11
ATOM     11  C   UNL     1      87.710 323.408 190.328  1.00  0.00     0.053 C 
BRANCH  11  12
ATOM     12  C   UNL     1      88.225 323.124 188.952  1.00  0.00     0.041 C 
ATOM     13  O   UNL     1      87.611 322.325 188.198  1.00  0.00    -0.550 OA
ATOM     14  O   UNL     1      89.411 323.706 188.521  1.00  0.00    -0.550 OA
ENDBRANCH  11  12
ENDBRANCH  10  11
ENDBRANCH   9  10
ENDBRANCH   8   9
ENDBRANCH   1   8
TORSDOF 9
ENDMDL
MODEL 2
REMARK VINA RESULT:    -5.054      0.796      6.531
REMARK INTER + INTRA:          -8.336
REMARK INTER:                  -7.750
REMARK INTRA:                  -0.586
REMARK UNBOUND:                -0.623
REMARK SMILES O=C([O-])CCCCCCCCC(=O)[O-]
REMARK SMILES IDX 7 1 6 2 5 3 4 4 2 5 1 6 3 7 8 8 9 9 10 10 11 11 12 12 13 13
REMARK SMILES IDX 14 14
REMARK H PARENT
REMARK Flexibility Score: inf
ROOT
ATOM      1  C   UNL     1      88.220 325.625 193.011  1.00  0.00     0.000 C 
ENDROOT
BRANCH   1   2
ATOM      2  C   UNL     1      87.004 324.743 192.705  1.00  0.00     0.000 C 
BRANCH   2   3
ATOM      3  C   UNL     1      87.248 323.883 191.456  1.00  0.00     0.006 C 
BRANCH   3   4
ATOM      4  C   UNL     1      88.599 324.189 190.795  1.00  0.00     0.053 C 
BRANCH   4   5
ATOM      5  C   UNL     1      88.707 323.568 189.436  1.00  0.00     0.041 C 
ATOM      6  O   UNL     1      89.642 323.900 188.661  1.00  0.00    -0.550 OA
ATOM      7  O   UNL     1      87.757 322.647 189.014  1.00  0.00    -0.550 OA
ENDBRANCH   4   5
ENDBRANCH   3   4
ENDBRANCH   2   3
ENDBRANCH   1   2
BRANCH   1   8
ATOM      8  C   UNL     1      87.819 326.845 193.850  1.00  0.00     0.000 C 
BRANCH   8   9
ATOM      9  C   UNL     1      86.617 326.522 194.751  1.00  0.00     0.000 C 
BRANCH   9  10
ATOM     10  C   UNL     1      86.974 326.552 196.245  1.00  0.00     0.006 C 
BRANCH  10  11
ATOM     11  C   UNL     1      88.480 326.399 196.497  1.00  0.00     0.053 C 
BRANCH  11  12
ATOM     12  C   UNL     1      88.797 325.003 196.931  1.00  0.00     0.041 C 
ATOM     13  O   UNL     1      88.993 324.102 196.073  1.00  0.00    -0.550 OA
ATOM     14  O   UNL     1      88.827 324.684 198.283  1.00  0.00    -0.550 OA
ENDBRANCH  11  12
ENDBRANCH  10  11
ENDBRANCH   9  10
ENDBRANCH   8   9
ENDBRANCH   1   8
TORSDOF 9
ENDMDL
MODEL 3
REMARK VINA RESULT:    -5.039      1.492      1.992
REMARK INTER + INTRA:          -8.314
REMARK INTER:                  -7.924
REMARK INTRA:                  -0.390
REMARK UNBOUND:                -0.623
REMARK SMILES O=C([O-])CCCCCCCCC(=O)[O-]
REMARK SMILES IDX 7 1 6 2 5 3 4 4 2 5 1 6 3 7 8 8 9 9 10 10 11 11 12 12 13 13
REMARK SMILES IDX 14 14
REMARK H PARENT
REMARK Flexibility Score: inf
ROOT
ATOM      1  C   UNL     1      86.862 324.765 192.985  1.00  0.00     0.000 C 
ENDROOT
BRANCH   1   2
ATOM      2  C   UNL     1      88.052 325.682 193.292  1.00  0.00     0.000 C 
BRANCH   2   3
ATOM      3  C   UNL     1      87.617 326.880 194.149  1.00  0.00     0.006 C 
BRANCH   3   4
ATOM      4  C   UNL     1      86.923 326.444 195.447  1.00  0.00     0.053 C 
BRANCH   4   5
ATOM      5  C   UNL     1      87.907 325.970 196.472  1.00  0.00     0.041 C 
ATOM      6  O   UNL     1      88.494 326.798 197.217  1.00  0.00    -0.550 OA
ATOM      7  O   UNL     1      88.201 324.617 196.582  1.00  0.00    -0.550 OA
ENDBRANCH   4   5
ENDBRANCH   3   4
ENDBRANCH   2   3
ENDBRANCH   1   2
BRANCH   1   8
ATOM      8  C   UNL     1      87.031 324.078 191.624  1.00  0.00     0.000 C 
BRANCH   8   9
ATOM      9  C   UNL     1      88.464 324.250 191.096  1.00  0.00     0.000 C 
BRANCH   9  10
ATOM     10  C   UNL     1      88.744 323.386 189.856  1.00  0.00     0.006 C 
BRANCH  10  11
ATOM     11  C   UNL     1      89.640 324.094 188.832  1.00  0.00     0.053 C 
BRANCH  11  12
ATOM     12  C   UNL     1      90.656 323.144 188.281  1.00  0.00     0.041 C 
ATOM     13  O   UNL     1      90.295 322.031 187.815  1.00  0.00    -0.550 OA
ATOM     14  O   UNL     1      92.007 323.466 188.329  1.00  0.00    -0.550 OA
ENDBRANCH  11  12
ENDBRANCH  10  11
ENDBRANCH   9  10
ENDBRANCH   8   9
ENDBRANCH   1   8
TORSDOF 9
ENDMDL
MODEL 4
REMARK VINA RESULT:    -5.022     19.126     21.052
REMARK INTER + INTRA:          -8.288
REMARK INTER:                  -7.714
REMARK INTRA:                  -0.574
REMARK UNBOUND:                -0.623
REMARK SMILES O=C([O-])CCCCCCCCC(=O)[O-]
REMARK SMILES IDX 7 1 6 2 5 3 4 4 2 5 1 6 3 7 8 8 9 9 10 10 11 11 12 12 13 13
REMARK SMILES IDX 14 14
REMARK H PARENT
REMARK Flexibility Score: inf
ROOT
ATOM      1  C   UNL     1     104.248 313.047 192.124  1.00  0.00     0.000 C 
ENDROOT
BRANCH   1   2
ATOM      2  C   UNL     1     105.469 313.768 191.540  1.00  0.00     0.000 C 
BRANCH   2   3
ATOM      3  C   UNL     1     105.106 314.498 190.239  1.00  0.00     0.006 C 
BRANCH   3   4
ATOM      4  C   UNL     1     103.620 314.349 189.884  1.00  0.00     0.053 C 
BRANCH   4   5
ATOM      5  C   UNL     1     103.339 314.779 188.476  1.00  0.00     0.041 C 
ATOM      6  O   UNL     1     104.187 315.459 187.841  1.00  0.00    -0.550 OA
ATOM      7  O   UNL     1     102.127 314.457 187.879  1.00  0.00    -0.550 OA
ENDBRANCH   4   5
ENDBRANCH   3   4
ENDBRANCH   2   3
ENDBRANCH   1   2
BRANCH   1   8
ATOM      8  C   UNL     1     104.664 311.770 192.866  1.00  0.00     0.000 C 
BRANCH   8   9
ATOM      9  C   UNL     1     105.997 311.972 193.603  1.00  0.00     0.000 C 
BRANCH   9  10
ATOM     10  C   UNL     1     105.874 311.751 195.119  1.00  0.00     0.006 C 
BRANCH  10  11
ATOM     11  C   UNL     1     104.441 311.953 195.631  1.00  0.00     0.053 C 
BRANCH  11  12
ATOM     12  C   UNL     1     104.293 313.308 196.247  1.00  0.00     0.041 C 
ATOM     13  O   UNL     1     104.335 314.339 195.526  1.00  0.00    -0.550 OA
ATOM     14  O   UNL     1     104.159 313.435 197.624  1.00  0.00    -0.550 OA
ENDBRANCH  11  12
ENDBRANCH  10  11
ENDBRANCH   9  10
ENDBRANCH   8   9
ENDBRANCH   1   8
TORSDOF 9
ENDMDL
MODEL 5
REMARK VINA RESULT:    -5.014     19.206     20.249
REMARK INTER + INTRA:          -8.276
REMARK INTER:                  -7.957
REMARK INTRA:                  -0.319
REMARK UNBOUND:                -0.623
REMARK SMILES O=C([O-])CCCCCCCCC(=O)[O-]
REMARK SMILES IDX 7 1 6 2 5 3 4 4 2 5 1 6 3 7 8 8 9 9 10 10 11 11 12 12 13 13
REMARK SMILES IDX 14 14
REMARK H PARENT
REMARK Flexibility Score: inf
ROOT
ATOM      1  C   UNL     1     105.616 311.509 193.310  1.00  0.00     0.000 C 
ENDROOT
BRANCH   1   2
ATOM      2  C   UNL     1     105.905 311.925 194.757  1.00  0.00     0.000 C 
BRANCH   2   3
ATOM      3  C   UNL     1     104.615 312.347 195.477  1.00  0.00     0.006 C 
BRANCH   3   4
ATOM      4  C   UNL     1     104.300 311.446 196.679  1.00  0.00     0.053 C 
BRANCH   4   5
ATOM      5  C   UNL     1     103.945 312.246 197.895  1.00  0.00     0.041 C 
ATOM      6  O   UNL     1     104.091 313.496 197.895  1.00  0.00    -0.550 OA
ATOM      7  O   UNL     1     103.484 311.606 199.038  1.00  0.00    -0.550 OA
ENDBRANCH   4   5
ENDBRANCH   3   4
ENDBRANCH   2   3
ENDBRANCH   1   2
BRANCH   1   8
ATOM      8  C   UNL     1     104.333 312.171 192.791  1.00  0.00     0.000 C 
BRANCH   8   9
ATOM      9  C   UNL     1     104.659 313.411 191.945  1.00  0.00     0.000 C 
BRANCH   9  10
ATOM     10  C   UNL     1     103.880 313.445 190.621  1.00  0.00     0.006 C 
BRANCH  10  11
ATOM     11  C   UNL     1     103.625 314.873 190.120  1.00  0.00     0.053 C 
BRANCH  11  12
ATOM     12  C   UNL     1     103.378 314.872 188.645  1.00  0.00     0.041 C 
ATOM     13  O   UNL     1     104.203 315.417 187.864  1.00  0.00    -0.550 OA
ATOM     14  O   UNL     1     102.213 314.314 188.135  1.00  0.00    -0.550 OA
ENDBRANCH  11  12
ENDBRANCH  10  11
ENDBRANCH   9  10
ENDBRANCH   8   9
ENDBRANCH   1   8
TORSDOF 9
ENDMDL
MODEL 6
REMARK VINA RESULT:    -5.009     18.417     19.623
REMARK INTER + INTRA:          -8.267
REMARK INTER:                  -7.918
REMARK INTRA:                  -0.349
REMARK UNBOUND:                -0.623
REMARK SMILES O=C([O-])CCCCCCCCC(=O)[O-]
REMARK SMILES IDX 7 1 6 2 5 3 4 4 2 5 1 6 3 7 8 8 9 9 10 10 11 11 12 12 13 13
REMARK SMILES IDX 14 14
REMARK H PARENT
REMARK Flexibility Score: inf
ROOT
ATOM      1  C   UNL     1     104.276 313.729 191.960  1.00  0.00     0.000 C 
ENDROOT
BRANCH   1   2
ATOM      2  C   UNL     1     104.859 312.386 192.414  1.00  0.00     0.000 C 
BRANCH   2   3
ATOM      3  C   UNL     1     106.125 312.592 193.259  1.00  0.00     0.006 C 
BRANCH   3   4
ATOM      4  C   UNL     1     106.042 311.874 194.613  1.00  0.00     0.053 C 
BRANCH   4   5
ATOM      5  C   UNL     1     104.812 312.263 195.374  1.00  0.00     0.041 C 
ATOM      6  O   UNL     1     103.862 311.446 195.501  1.00  0.00    -0.550 OA
ATOM      7  O   UNL     1     104.701 313.537 195.915  1.00  0.00    -0.550 OA
ENDBRANCH   4   5
ENDBRANCH   3   4
ENDBRANCH   2   3
ENDBRANCH   1   2
BRANCH   1   8
ATOM      8  C   UNL     1     103.841 313.674 190.491  1.00  0.00     0.000 C 
BRANCH   8   9
ATOM      9  C   UNL     1     104.453 314.834 189.692  1.00  0.00     0.000 C 
BRANCH   9  10
ATOM     10  C   UNL     1     103.718 315.093 188.367  1.00  0.00     0.006 C 
BRANCH  10  11
ATOM     11  C   UNL     1     102.393 314.326 188.267  1.00  0.00     0.053 C 
BRANCH  11  12
ATOM     12  C   UNL     1     101.304 315.227 187.778  1.00  0.00     0.041 C 
ATOM     13  O   UNL     1     100.097 314.924 187.969  1.00  0.00    -0.550 OA
ATOM     14  O   UNL     1     101.621 316.379 187.069  1.00  0.00    -0.550 OA
ENDBRANCH  11  12
ENDBRANCH  10  11
ENDBRANCH   9  10
ENDBRANCH   8   9
ENDBRANCH   1   8
TORSDOF 9
ENDMDL
MODEL 7
REMARK VINA RESULT:    -5.006      1.446      7.104
REMARK INTER + INTRA:          -8.263
REMARK INTER:                  -7.885
REMARK INTRA:                  -0.379
REMARK UNBOUND:                -0.623
REMARK SMILES O=C([O-])CCCCCCCCC(=O)[O-]
REMARK SMILES IDX 7 1 6 2 5 3 4 4 2 5 1 6 3 7 8 8 9 9 10 10 11 11 12 12 13 13
REMARK SMILES IDX 14 14
REMARK H PARENT
REMARK Flexibility Score: inf
ROOT
ATOM      1  C   UNL     1      88.488 324.622 191.378  1.00  0.00     0.000 C 
ENDROOT
BRANCH   1   2
ATOM      2  C   UNL     1      87.712 323.515 190.656  1.00  0.00     0.000 C 
BRANCH   2   3
ATOM      3  C   UNL     1      88.358 323.181 189.303  1.00  0.00     0.006 C 
BRANCH   3   4
ATOM      4  C   UNL     1      89.661 323.960 189.074  1.00  0.00     0.053 C 
BRANCH   4   5
ATOM      5  C   UNL     1      90.679 323.138 188.346  1.00  0.00     0.041 C 
ATOM      6  O   UNL     1      91.883 323.506 188.311  1.00  0.00    -0.550 OA
ATOM      7  O   UNL     1      90.294 321.982 187.678  1.00  0.00    -0.550 OA
ENDBRANCH   4   5
ENDBRANCH   3   4
ENDBRANCH   2   3
ENDBRANCH   1   2
BRANCH   1   8
ATOM      8  C   UNL     1      88.211 324.598 192.886  1.00  0.00     0.000 C 
BRANCH   8   9
ATOM      9  C   UNL     1      87.070 325.560 193.251  1.00  0.00     0.000 C 
BRANCH   9  10
ATOM     10  C   UNL     1      87.525 326.685 194.195  1.00  0.00     0.006 C 
BRANCH  10  11
ATOM     11  C   UNL     1      87.024 326.489 195.632  1.00  0.00     0.053 C 
BRANCH  11  12
ATOM     12  C   UNL     1      88.159 326.118 196.534  1.00  0.00     0.041 C 
ATOM     13  O   UNL     1      88.555 326.923 197.417  1.00  0.00    -0.550 OA
ATOM     14  O   UNL     1      88.810 324.902 196.367  1.00  0.00    -0.550 OA
ENDBRANCH  11  12
ENDBRANCH  10  11
ENDBRANCH   9  10
ENDBRANCH   8   9
ENDBRANCH   1   8
TORSDOF 9
ENDMDL
MODEL 8
REMARK VINA RESULT:    -5.005      1.025      1.687
REMARK INTER + INTRA:          -8.261
REMARK INTER:                  -7.629
REMARK INTRA:                  -0.632
REMARK UNBOUND:                -0.623
REMARK SMILES O=C([O-])CCCCCCCCC(=O)[O-]
REMARK SMILES IDX 7 1 6 2 5 3 4 4 2 5 1 6 3 7 8 8 9 9 10 10 11 11 12 12 13 13
REMARK SMILES IDX 14 14
REMARK H PARENT
REMARK Flexibility Score: inf
ROOT
ATOM      1  C   UNL     1      88.018 326.439 193.730  1.00  0.00     0.000 C 
ENDROOT
BRANCH   1   2
ATOM      2  C   UNL     1      86.683 326.321 194.474  1.00  0.00     0.000 C 
BRANCH   2   3
ATOM      3  C   UNL     1      86.873 326.533 195.983  1.00  0.00     0.006 C 
BRANCH   3   4
ATOM      4  C   UNL     1      88.342 326.395 196.408  1.00  0.00     0.053 C 
BRANCH   4   5
ATOM      5  C   UNL     1      88.572 325.156 197.218  1.00  0.00     0.041 C 
ATOM      6  O   UNL     1      89.033 325.240 198.387  1.00  0.00    -0.550 OA
ATOM      7  O   UNL     1      88.309 323.907 196.671  1.00  0.00    -0.550 OA
ENDBRANCH   4   5
ENDBRANCH   3   4
ENDBRANCH   2   3
ENDBRANCH   1   2
BRANCH   1   8
ATOM      8  C   UNL     1      88.103 325.424 192.583  1.00  0.00     0.000 C 
BRANCH   8   9
ATOM      9  C   UNL     1      88.544 324.046 193.100  1.00  0.00     0.000 C 
BRANCH   9  10
ATOM     10  C   UNL     1      88.743 323.026 191.968  1.00  0.00     0.006 C 
BRANCH  10  11
ATOM     11  C   UNL     1      88.686 323.669 190.575  1.00  0.00     0.053 C 
BRANCH  11  12
ATOM     12  C   UNL     1      87.702 322.950 189.708  1.00  0.00     0.041 C 
ATOM     13  O   UNL     1      87.864 322.915 188.460  1.00  0.00    -0.550 OA
ATOM     14  O   UNL     1      86.578 322.360 190.274  1.00  0.00    -0.550 OA
ENDBRANCH  11  12
ENDBRANCH  10  11
ENDBRANCH   9  10
ENDBRANCH   8   9
ENDBRANCH   1   8
TORSDOF 9
ENDMDL
MODEL 9
REMARK VINA RESULT:    -4.806      2.782      7.365
REMARK INTER + INTRA:          -7.957
REMARK INTER:                  -7.335
REMARK INTRA:                  -0.622
REMARK UNBOUND:                -0.623
REMARK SMILES O=C([O-])CCCCCCCCC(=O)[O-]
REMARK SMILES IDX 7 1 6 2 5 3 4 4 2 5 1 6 3 7 8 8 9 9 10 10 11 11 12 12 13 13
REMARK SMILES IDX 14 14
REMARK H PARENT
REMARK Flexibility Score: inf
ROOT
ATOM      1  C   UNL     1      87.044 326.419 195.976  1.00  0.00     0.000 C 
ENDROOT
BRANCH   1   2
ATOM      2  C   UNL     1      86.760 326.424 194.469  1.00  0.00     0.000 C 
BRANCH   2   3
ATOM      3  C   UNL     1      88.068 326.409 193.663  1.00  0.00     0.006 C 
BRANCH   3   4
ATOM      4  C   UNL     1      88.093 325.284 192.620  1.00  0.00     0.053 C 
BRANCH   4   5
ATOM      5  C   UNL     1      87.933 323.935 193.252  1.00  0.00     0.041 C 
ATOM      6  O   UNL     1      88.874 323.435 193.922  1.00  0.00    -0.550 OA
ATOM      7  O   UNL     1      86.757 323.217 193.073  1.00  0.00    -0.550 OA
ENDBRANCH   4   5
ENDBRANCH   3   4
ENDBRANCH   2   3
ENDBRANCH   1   2
BRANCH   1   8
ATOM      8  C   UNL     1      88.552 326.387 196.254  1.00  0.00     0.000 C 
BRANCH   8   9
ATOM      9  C   UNL     1      88.954 325.080 196.955  1.00  0.00     0.000 C 
BRANCH   9  10
ATOM     10  C   UNL     1      88.916 325.196 198.487  1.00  0.00     0.006 C 
BRANCH  10  11
ATOM     11  C   UNL     1      89.274 326.603 198.983  1.00  0.00     0.053 C 
BRANCH  11  12
ATOM     12  C   UNL     1      89.710 326.558 200.413  1.00  0.00     0.041 C 
ATOM     13  O   UNL     1      88.863 326.386 201.329  1.00  0.00    -0.550 OA
ATOM     14  O   UNL     1      91.047 326.754 200.738  1.00  0.00    -0.550 OA
ENDBRANCH  11  12
ENDBRANCH  10  11
ENDBRANCH   9  10
ENDBRANCH   8   9
ENDBRANCH   1   8
TORSDOF 9
ENDMDL
