MODEL 1
REMARK VINA RESULT:     0.030      0.000      0.000
REMARK INTER + INTRA:          -0.079
REMARK INTER:                   0.035
REMARK INTRA:                  -0.114
REMARK UNBOUND:                -0.114
REMARK SMILES O=c1c(O)c(-c2ccc(O)cc2)oc2cc(O)cc(O)c12
REMARK SMILES IDX 5 1 3 2 2 3 1 4 21 5 19 6 18 7 16 8 15 9 14 10 13 11 6 12
REMARK SMILES IDX 7 13 8 14 9 15 12 16 11 17 10 18 4 20 20 22 17 24
REMARK H PARENT 10 19 4 21 20 23 17 25
REMARK Flexibility Score: inf
ROOT
ATOM      1  C   UNL     1      18.910  -1.131  12.386  1.00  0.00     0.180 A 
ATOM      2  C   UNL     1      18.400  -2.274  11.747  1.00  0.00     0.208 A 
ATOM      3  C   UNL     1      18.390  -3.495  12.442  1.00  0.00     0.238 A 
ATOM      4  O   UNL     1      17.882  -4.503  11.885  1.00  0.00    -0.285 OA
ATOM      5  C   UNL     1      18.905  -3.560  13.759  1.00  0.00     0.111 A 
ATOM      6  C   UNL     1      18.981  -4.752  14.541  1.00  0.00     0.134 A 
ATOM      7  C   UNL     1      19.389  -4.675  15.879  1.00  0.00     0.093 A 
ATOM      8  C   UNL     1      19.784  -3.462  16.443  1.00  0.00     0.123 A 
ATOM      9  C   UNL     1      19.769  -2.301  15.669  1.00  0.00     0.094 A 
ATOM     10  C   UNL     1      19.334  -2.339  14.342  1.00  0.00     0.146 A 
ATOM     11  O   UNL     1      19.325  -1.211  13.644  1.00  0.00    -0.452 OA
ENDROOT
BRANCH   1  12
ATOM     12  C   UNL     1      18.976   0.185  11.709  1.00  0.00     0.021 A 
ATOM     13  C   UNL     1      18.330   1.292  12.286  1.00  0.00     0.016 A 
ATOM     14  C   UNL     1      18.399   2.549  11.676  1.00  0.00     0.047 A 
ATOM     15  C   UNL     1      19.127   2.718  10.492  1.00  0.00     0.115 A 
ATOM     16  C   UNL     1      19.722   0.366  10.530  1.00  0.00     0.016 A 
ATOM     17  C   UNL     1      19.790   1.625   9.924  1.00  0.00     0.047 A 
BRANCH  15  18
ATOM     18  O   UNL     1      19.203   3.963   9.875  1.00  0.00    -0.508 OA
ATOM     19  H   UNL     1      19.062   4.822  10.396  1.00  0.00     0.293 HD
ENDBRANCH  15  18
ENDBRANCH   1  12
BRANCH   2  20
ATOM     20  O   UNL     1      17.875  -2.183  10.455  1.00  0.00    -0.502 OA
ATOM     21  H   UNL     1      17.157  -1.514  10.205  1.00  0.00     0.293 HD
ENDBRANCH   2  20
BRANCH   6  22
ATOM     22  O   UNL     1      18.698  -6.029  14.047  1.00  0.00    -0.507 OA
ATOM     23  H   UNL     1      18.590  -6.256  13.071  1.00  0.00     0.293 HD
ENDBRANCH   6  22
BRANCH   8  24
ATOM     24  O   UNL     1      20.198  -3.425  17.772  1.00  0.00    -0.508 OA
ATOM     25  H   UNL     1      19.798  -2.769  18.434  1.00  0.00     0.293 HD
ENDBRANCH   8  24
TORSDOF 5
ENDMDL
MODEL 2
REMARK VINA RESULT:     0.715      1.739      6.283
REMARK INTER + INTRA:           0.726
REMARK INTER:                   0.735
REMARK INTRA:                  -0.009
REMARK UNBOUND:                -0.114
REMARK SMILES O=c1c(O)c(-c2ccc(O)cc2)oc2cc(O)cc(O)c12
REMARK SMILES IDX 5 1 3 2 2 3 1 4 21 5 19 6 18 7 16 8 15 9 14 10 13 11 6 12
REMARK SMILES IDX 7 13 8 14 9 15 12 16 11 17 10 18 4 20 20 22 17 24
REMARK H PARENT 10 19 4 21 20 23 17 25
REMARK Flexibility Score: inf
ROOT
ATOM      1  C   UNL     1      20.078  -2.008  14.563  1.00  0.00     0.180 A 
ATOM      2  C   UNL     1      19.401  -3.098  13.989  1.00  0.00     0.208 A 
ATOM      3  C   UNL     1      18.950  -2.998  12.663  1.00  0.00     0.238 A 
ATOM      4  O   UNL     1      18.393  -3.996  12.137  1.00  0.00    -0.285 OA
ATOM      5  C   UNL     1      19.167  -1.804  11.934  1.00  0.00     0.111 A 
ATOM      6  C   UNL     1      18.718  -1.579  10.597  1.00  0.00     0.134 A 
ATOM      7  C   UNL     1      19.103  -0.410   9.928  1.00  0.00     0.093 A 
ATOM      8  C   UNL     1      19.865   0.568  10.566  1.00  0.00     0.123 A 
ATOM      9  C   UNL     1      20.258   0.384  11.892  1.00  0.00     0.094 A 
ATOM     10  C   UNL     1      19.921  -0.787  12.575  1.00  0.00     0.146 A 
ATOM     11  O   UNL     1      20.324  -0.929  13.832  1.00  0.00    -0.452 OA
ENDROOT
BRANCH   1  12
ATOM     12  C   UNL     1      20.561  -2.030  15.963  1.00  0.00     0.021 A 
ATOM     13  C   UNL     1      21.882  -1.641  16.244  1.00  0.00     0.016 A 
ATOM     14  C   UNL     1      22.352  -1.631  17.562  1.00  0.00     0.047 A 
ATOM     15  C   UNL     1      21.503  -1.996  18.615  1.00  0.00     0.115 A 
ATOM     16  C   UNL     1      19.709  -2.377  17.027  1.00  0.00     0.016 A 
ATOM     17  C   UNL     1      20.182  -2.365  18.343  1.00  0.00     0.047 A 
BRANCH  15  18
ATOM     18  O   UNL     1      21.960  -1.992  19.930  1.00  0.00    -0.508 OA
ATOM     19  H   UNL     1      21.379  -2.317  20.694  1.00  0.00     0.293 HD
ENDBRANCH  15  18
ENDBRANCH   1  12
BRANCH   2  20
ATOM     20  O   UNL     1      19.217  -4.276  14.720  1.00  0.00    -0.502 OA
ATOM     21  H   UNL     1      19.970  -4.724  15.228  1.00  0.00     0.293 HD
ENDBRANCH   2  20
BRANCH   6  22
ATOM     22  O   UNL     1      17.877  -2.450   9.899  1.00  0.00    -0.507 OA
ATOM     23  H   UNL     1      17.554  -3.339  10.247  1.00  0.00     0.293 HD
ENDBRANCH   6  22
BRANCH   8  24
ATOM     24  O   UNL     1      20.216   1.725   9.875  1.00  0.00    -0.508 OA
ATOM     25  H   UNL     1      20.968   1.729   9.195  1.00  0.00     0.293 HD
ENDBRANCH   8  24
TORSDOF 5
ENDMDL
MODEL 3
REMARK VINA RESULT:     1.051      1.746      6.234
REMARK INTER + INTRA:           1.121
REMARK INTER:                   1.076
REMARK INTRA:                   0.045
REMARK UNBOUND:                -0.114
REMARK SMILES O=c1c(O)c(-c2ccc(O)cc2)oc2cc(O)cc(O)c12
REMARK SMILES IDX 5 1 3 2 2 3 1 4 21 5 19 6 18 7 16 8 15 9 14 10 13 11 6 12
REMARK SMILES IDX 7 13 8 14 9 15 12 16 11 17 10 18 4 20 20 22 17 24
REMARK H PARENT 10 19 4 21 20 23 17 25
REMARK Flexibility Score: inf
ROOT
ATOM      1  C   UNL     1      20.064  -1.999  14.627  1.00  0.00     0.180 A 
ATOM      2  C   UNL     1      19.420  -3.119  14.074  1.00  0.00     0.208 A 
ATOM      3  C   UNL     1      18.965  -3.056  12.746  1.00  0.00     0.238 A 
ATOM      4  O   UNL     1      18.438  -4.079  12.239  1.00  0.00    -0.285 OA
ATOM      5  C   UNL     1      19.147  -1.869  11.996  1.00  0.00     0.111 A 
ATOM      6  C   UNL     1      18.690  -1.680  10.656  1.00  0.00     0.134 A 
ATOM      7  C   UNL     1      19.040  -0.512   9.966  1.00  0.00     0.093 A 
ATOM      8  C   UNL     1      19.771   0.500  10.587  1.00  0.00     0.123 A 
ATOM      9  C   UNL     1      20.171   0.350  11.915  1.00  0.00     0.094 A 
ATOM     10  C   UNL     1      19.869  -0.818  12.619  1.00  0.00     0.146 A 
ATOM     11  O   UNL     1      20.277  -0.926  13.877  1.00  0.00    -0.452 OA
ENDROOT
BRANCH   1  12
ATOM     12  C   UNL     1      20.548  -1.982  16.027  1.00  0.00     0.021 A 
ATOM     13  C   UNL     1      19.681  -2.366  17.063  1.00  0.00     0.016 A 
ATOM     14  C   UNL     1      20.124  -2.380  18.390  1.00  0.00     0.047 A 
ATOM     15  C   UNL     1      21.445  -2.026  18.694  1.00  0.00     0.115 A 
ATOM     16  C   UNL     1      21.879  -1.647  16.338  1.00  0.00     0.016 A 
ATOM     17  C   UNL     1      22.319  -1.663  17.665  1.00  0.00     0.047 A 
BRANCH  15  18
ATOM     18  O   UNL     1      21.897  -2.035  20.011  1.00  0.00    -0.508 OA
ATOM     19  H   UNL     1      22.534  -2.748  20.347  1.00  0.00     0.293 HD
ENDBRANCH  15  18
ENDBRANCH   1  12
BRANCH   2  20
ATOM     20  O   UNL     1      19.271  -4.288  14.825  1.00  0.00    -0.502 OA
ATOM     21  H   UNL     1      18.421  -4.839  14.812  1.00  0.00     0.293 HD
ENDBRANCH   2  20
BRANCH   6  22
ATOM     22  O   UNL     1      17.875  -2.588   9.974  1.00  0.00    -0.507 OA
ATOM     23  H   UNL     1      17.867  -2.714   8.974  1.00  0.00     0.293 HD
ENDBRANCH   6  22
BRANCH   8  24
ATOM     24  O   UNL     1      20.088   1.654   9.875  1.00  0.00    -0.508 OA
ATOM     25  H   UNL     1      20.994   2.100   9.964  1.00  0.00     0.293 HD
ENDBRANCH   8  24
TORSDOF 5
ENDMDL
MODEL 4
REMARK VINA RESULT:     2.289      1.127      1.317
REMARK INTER + INTRA:           2.577
REMARK INTER:                   2.687
REMARK INTRA:                  -0.110
REMARK UNBOUND:                -0.114
REMARK SMILES O=c1c(O)c(-c2ccc(O)cc2)oc2cc(O)cc(O)c12
REMARK SMILES IDX 5 1 3 2 2 3 1 4 21 5 19 6 18 7 16 8 15 9 14 10 13 11 6 12
REMARK SMILES IDX 7 13 8 14 9 15 12 16 11 17 10 18 4 20 20 22 17 24
REMARK H PARENT 10 19 4 21 20 23 17 25
REMARK Flexibility Score: inf
ROOT
ATOM      1  C   UNL     1      19.276  -1.252  13.311  1.00  0.00     0.180 A 
ATOM      2  C   UNL     1      18.638  -2.467  13.006  1.00  0.00     0.208 A 
ATOM      3  C   UNL     1      18.749  -3.539  13.908  1.00  0.00     0.238 A 
ATOM      4  O   UNL     1      18.131  -4.606  13.656  1.00  0.00    -0.285 OA
ATOM      5  C   UNL     1      19.508  -3.386  15.093  1.00  0.00     0.111 A 
ATOM      6  C   UNL     1      19.719  -4.417  16.058  1.00  0.00     0.134 A 
ATOM      7  C   UNL     1      20.378  -4.116  17.257  1.00  0.00     0.093 A 
ATOM      8  C   UNL     1      20.888  -2.841  17.498  1.00  0.00     0.123 A 
ATOM      9  C   UNL     1      20.738  -1.842  16.535  1.00  0.00     0.094 A 
ATOM     10  C   UNL     1      20.055  -2.101  15.345  1.00  0.00     0.146 A 
ATOM     11  O   UNL     1      19.925  -1.120  14.461  1.00  0.00    -0.452 OA
ENDROOT
BRANCH   1  12
ATOM     12  C   UNL     1      19.225  -0.086  12.398  1.00  0.00     0.021 A 
ATOM     13  C   UNL     1      18.723   1.138  12.868  1.00  0.00     0.016 A 
ATOM     14  C   UNL     1      18.688   2.258  12.031  1.00  0.00     0.047 A 
ATOM     15  C   UNL     1      19.169   2.171  10.718  1.00  0.00     0.115 A 
ATOM     16  C   UNL     1      19.725  -0.161  11.085  1.00  0.00     0.016 A 
ATOM     17  C   UNL     1      19.690   0.960  10.251  1.00  0.00     0.047 A 
BRANCH  15  18
ATOM     18  O   UNL     1      19.138   3.278   9.875  1.00  0.00    -0.508 OA
ATOM     19  H   UNL     1      18.884   3.193   8.898  1.00  0.00     0.293 HD
ENDBRANCH  15  18
ENDBRANCH   1  12
BRANCH   2  20
ATOM     20  O   UNL     1      17.875  -2.589  11.841  1.00  0.00    -0.502 OA
ATOM     21  H   UNL     1      17.557  -3.484  11.491  1.00  0.00     0.293 HD
ENDBRANCH   2  20
BRANCH   6  22
ATOM     22  O   UNL     1      19.331  -5.748  15.875  1.00  0.00    -0.507 OA
ATOM     23  H   UNL     1      18.563  -6.048  15.295  1.00  0.00     0.293 HD
ENDBRANCH   6  22
BRANCH   8  24
ATOM     24  O   UNL     1      21.552  -2.582  18.694  1.00  0.00    -0.508 OA
ATOM     25  H   UNL     1      21.479  -1.682  19.157  1.00  0.00     0.293 HD
ENDBRANCH   8  24
TORSDOF 5
ENDMDL
