MODEL 1
REMARK VINA RESULT:    -3.327      0.000      0.000
REMARK INTER + INTRA:          -4.478
REMARK INTER:                  -4.299
REMARK INTRA:                  -0.179
REMARK UNBOUND:                -0.179
REMARK SMILES CCCCCCC(=O)[O-]
REMARK SMILES IDX 5 1 6 2 7 3 8 4 9 5 4 6 3 7 2 8 1 9
REMARK H PARENT
REMARK Flexibility Score: inf
ROOT
ATOM      1  C   UNL     1     -93.633 148.136 239.410  1.00  0.00     0.006 C 
ENDROOT
BRANCH   1   2
ATOM      2  C   UNL     1     -95.074 148.653 239.427  1.00  0.00     0.053 C 
BRANCH   2   3
ATOM      3  C   UNL     1     -95.591 148.722 240.829  1.00  0.00     0.041 C 
ATOM      4  O   UNL     1     -95.946 149.824 241.320  1.00  0.00    -0.550 OA
ATOM      5  O   UNL     1     -95.632 147.574 241.612  1.00  0.00    -0.550 OA
ENDBRANCH   2   3
ENDBRANCH   1   2
BRANCH   1   6
ATOM      6  C   UNL     1     -93.568 146.704 238.859  1.00  0.00     0.000 C 
BRANCH   6   7
ATOM      7  C   UNL     1     -92.230 146.013 239.160  1.00  0.00    -0.000 C 
BRANCH   7   8
ATOM      8  C   UNL     1     -91.450 145.652 237.887  1.00  0.00    -0.003 C 
ATOM      9  C   UNL     1     -92.330 145.784 236.648  1.00  0.00     0.004 C 
ENDBRANCH   7   8
ENDBRANCH   6   7
ENDBRANCH   1   6
TORSDOF 5
ENDMDL
MODEL 2
REMARK VINA RESULT:    -3.193      2.379      4.950
REMARK INTER + INTRA:          -4.305
REMARK INTER:                  -4.071
REMARK INTRA:                  -0.234
REMARK UNBOUND:                -0.179
REMARK SMILES CCCCCCC(=O)[O-]
REMARK SMILES IDX 5 1 6 2 7 3 8 4 9 5 4 6 3 7 2 8 1 9
REMARK H PARENT
REMARK Flexibility Score: inf
ROOT
ATOM      1  C   UNL     1     -94.619 148.284 238.490  1.00  0.00     0.006 C 
ENDROOT
BRANCH   1   2
ATOM      2  C   UNL     1     -93.395 147.952 239.349  1.00  0.00     0.053 C 
BRANCH   2   3
ATOM      3  C   UNL     1     -93.034 146.507 239.210  1.00  0.00     0.041 C 
ATOM      4  O   UNL     1     -93.385 145.679 240.091  1.00  0.00    -0.550 OA
ATOM      5  O   UNL     1     -92.264 146.083 238.134  1.00  0.00    -0.550 OA
ENDBRANCH   2   3
ENDBRANCH   1   2
BRANCH   1   6
ATOM      6  C   UNL     1     -95.839 148.596 239.369  1.00  0.00     0.000 C 
BRANCH   6   7
ATOM      7  C   UNL     1     -95.451 149.009 240.798  1.00  0.00    -0.000 C 
BRANCH   7   8
ATOM      8  C   UNL     1     -96.551 149.819 241.500  1.00  0.00    -0.003 C 
ATOM      9  C   UNL     1     -97.859 149.762 240.717  1.00  0.00     0.004 C 
ENDBRANCH   7   8
ENDBRANCH   6   7
ENDBRANCH   1   6
TORSDOF 5
ENDMDL
MODEL 3
REMARK VINA RESULT:    -3.191      1.126      2.039
REMARK INTER + INTRA:          -4.303
REMARK INTER:                  -4.220
REMARK INTRA:                  -0.083
REMARK UNBOUND:                -0.179
REMARK SMILES CCCCCCC(=O)[O-]
REMARK SMILES IDX 5 1 6 2 7 3 8 4 9 5 4 6 3 7 2 8 1 9
REMARK H PARENT
REMARK Flexibility Score: inf
ROOT
ATOM      1  C   UNL     1     -95.102 147.995 240.419  1.00  0.00     0.006 C 
ENDROOT
BRANCH   1   2
ATOM      2  C   UNL     1     -95.672 149.316 240.944  1.00  0.00     0.053 C 
BRANCH   2   3
ATOM      3  C   UNL     1     -96.827 149.062 241.860  1.00  0.00     0.041 C 
ATOM      4  O   UNL     1     -96.997 147.921 242.364  1.00  0.00    -0.550 OA
ATOM      5  O   UNL     1     -97.745 150.073 242.118  1.00  0.00    -0.550 OA
ENDBRANCH   2   3
ENDBRANCH   1   2
BRANCH   1   6
ATOM      6  C   UNL     1     -93.819 148.234 239.609  1.00  0.00     0.000 C 
BRANCH   6   7
ATOM      7  C   UNL     1     -93.499 147.076 238.651  1.00  0.00    -0.000 C 
BRANCH   7   8
ATOM      8  C   UNL     1     -92.415 146.136 239.198  1.00  0.00    -0.003 C 
ATOM      9  C   UNL     1     -91.492 145.653 238.083  1.00  0.00     0.004 C 
ENDBRANCH   7   8
ENDBRANCH   6   7
ENDBRANCH   1   6
TORSDOF 5
ENDMDL
MODEL 4
REMARK VINA RESULT:    -3.189      1.154      1.552
REMARK INTER + INTRA:          -4.300
REMARK INTER:                  -4.089
REMARK INTRA:                  -0.211
REMARK UNBOUND:                -0.179
REMARK SMILES CCCCCCC(=O)[O-]
REMARK SMILES IDX 5 1 6 2 7 3 8 4 9 5 4 6 3 7 2 8 1 9
REMARK H PARENT
REMARK Flexibility Score: inf
ROOT
ATOM      1  C   UNL     1     -94.126 148.272 239.963  1.00  0.00     0.006 C 
ENDROOT
BRANCH   1   2
ATOM      2  C   UNL     1     -95.361 148.901 240.614  1.00  0.00     0.053 C 
BRANCH   2   3
ATOM      3  C   UNL     1     -96.034 147.921 241.520  1.00  0.00     0.041 C 
ATOM      4  O   UNL     1     -96.947 148.300 242.299  1.00  0.00    -0.550 OA
ATOM      5  O   UNL     1     -95.617 146.595 241.543  1.00  0.00    -0.550 OA
ENDBRANCH   2   3
ENDBRANCH   1   2
BRANCH   1   6
ATOM      6  C   UNL     1     -94.322 148.116 238.447  1.00  0.00     0.000 C 
BRANCH   6   7
ATOM      7  C   UNL     1     -93.551 146.920 237.869  1.00  0.00    -0.000 C 
BRANCH   7   8
ATOM      8  C   UNL     1     -92.603 146.276 238.891  1.00  0.00    -0.003 C 
ATOM      9  C   UNL     1     -91.400 145.641 238.201  1.00  0.00     0.004 C 
ENDBRANCH   7   8
ENDBRANCH   6   7
ENDBRANCH   1   6
TORSDOF 5
ENDMDL
MODEL 5
REMARK VINA RESULT:    -3.169      3.099      5.145
REMARK INTER + INTRA:          -4.275
REMARK INTER:                  -4.095
REMARK INTRA:                  -0.179
REMARK UNBOUND:                -0.179
REMARK SMILES CCCCCCC(=O)[O-]
REMARK SMILES IDX 5 1 6 2 7 3 8 4 9 5 4 6 3 7 2 8 1 9
REMARK H PARENT
REMARK Flexibility Score: inf
ROOT
ATOM      1  C   UNL     1     -93.543 148.003 239.014  1.00  0.00     0.006 C 
ENDROOT
BRANCH   1   2
ATOM      2  C   UNL     1     -93.555 146.486 238.803  1.00  0.00     0.053 C 
BRANCH   2   3
ATOM      3  C   UNL     1     -92.523 146.088 237.797  1.00  0.00     0.041 C 
ATOM      4  O   UNL     1     -92.787 146.130 236.567  1.00  0.00    -0.550 OA
ATOM      5  O   UNL     1     -91.284 145.620 238.219  1.00  0.00    -0.550 OA
ENDBRANCH   2   3
ENDBRANCH   1   2
BRANCH   1   6
ATOM      6  C   UNL     1     -94.835 148.642 238.485  1.00  0.00     0.000 C 
BRANCH   6   7
ATOM      7  C   UNL     1     -95.978 148.606 239.511  1.00  0.00    -0.000 C 
BRANCH   7   8
ATOM      8  C   UNL     1     -95.559 149.154 240.883  1.00  0.00    -0.003 C 
ATOM      9  C   UNL     1     -96.736 149.820 241.591  1.00  0.00     0.004 C 
ENDBRANCH   7   8
ENDBRANCH   6   7
ENDBRANCH   1   6
TORSDOF 5
ENDMDL
MODEL 6
REMARK VINA RESULT:    -3.164      2.375      4.895
REMARK INTER + INTRA:          -4.268
REMARK INTER:                  -4.037
REMARK INTRA:                  -0.231
REMARK UNBOUND:                -0.179
REMARK SMILES CCCCCCC(=O)[O-]
REMARK SMILES IDX 5 1 6 2 7 3 8 4 9 5 4 6 3 7 2 8 1 9
REMARK H PARENT
REMARK Flexibility Score: inf
ROOT
ATOM      1  C   UNL     1     -94.705 148.057 238.452  1.00  0.00     0.006 C 
ENDROOT
BRANCH   1   2
ATOM      2  C   UNL     1     -93.437 147.898 239.294  1.00  0.00     0.053 C 
BRANCH   2   3
ATOM      3  C   UNL     1     -92.985 146.472 239.300  1.00  0.00     0.041 C 
ATOM      4  O   UNL     1     -92.208 146.050 238.404  1.00  0.00    -0.550 OA
ATOM      5  O   UNL     1     -93.464 145.595 240.266  1.00  0.00    -0.550 OA
ENDBRANCH   2   3
ENDBRANCH   1   2
BRANCH   1   6
ATOM      6  C   UNL     1     -95.850 148.647 239.289  1.00  0.00     0.000 C 
BRANCH   6   7
ATOM      7  C   UNL     1     -95.429 148.962 240.733  1.00  0.00    -0.000 C 
BRANCH   7   8
ATOM      8  C   UNL     1     -96.467 149.810 241.481  1.00  0.00    -0.003 C 
ATOM      9  C   UNL     1     -97.817 149.779 240.770  1.00  0.00     0.004 C 
ENDBRANCH   7   8
ENDBRANCH   6   7
ENDBRANCH   1   6
TORSDOF 5
ENDMDL
MODEL 7
REMARK VINA RESULT:    -3.137      2.604      3.645
REMARK INTER + INTRA:          -4.233
REMARK INTER:                  -4.052
REMARK INTRA:                  -0.181
REMARK UNBOUND:                -0.179
REMARK SMILES CCCCCCC(=O)[O-]
REMARK SMILES IDX 5 1 6 2 7 3 8 4 9 5 4 6 3 7 2 8 1 9
REMARK H PARENT
REMARK Flexibility Score: inf
ROOT
ATOM      1  C   UNL     1     -96.346 149.833 241.415  1.00  0.00     0.006 C 
ENDROOT
BRANCH   1   2
ATOM      2  C   UNL     1     -97.829 149.924 241.785  1.00  0.00     0.053 C 
BRANCH   2   3
ATOM      3  C   UNL     1     -98.045 149.486 243.199  1.00  0.00     0.041 C 
ATOM      4  O   UNL     1     -98.516 150.288 244.046  1.00  0.00    -0.550 OA
ATOM      5  O   UNL     1     -97.679 148.205 243.593  1.00  0.00    -0.550 OA
ENDBRANCH   2   3
ENDBRANCH   1   2
BRANCH   1   6
ATOM      6  C   UNL     1     -96.084 148.638 240.486  1.00  0.00     0.000 C 
BRANCH   6   7
ATOM      7  C   UNL     1     -94.675 148.050 240.660  1.00  0.00    -0.000 C 
BRANCH   7   8
ATOM      8  C   UNL     1     -93.817 148.185 239.394  1.00  0.00    -0.003 C 
ATOM      9  C   UNL     1     -94.653 148.666 238.211  1.00  0.00     0.004 C 
ENDBRANCH   7   8
ENDBRANCH   6   7
ENDBRANCH   1   6
TORSDOF 5
ENDMDL
MODEL 8
REMARK VINA RESULT:    -3.108      1.901      3.045
REMARK INTER + INTRA:          -4.195
REMARK INTER:                  -4.032
REMARK INTRA:                  -0.163
REMARK UNBOUND:                -0.179
REMARK SMILES CCCCCCC(=O)[O-]
REMARK SMILES IDX 5 1 6 2 7 3 8 4 9 5 4 6 3 7 2 8 1 9
REMARK H PARENT
REMARK Flexibility Score: inf
ROOT
ATOM      1  C   UNL     1     -96.146 148.508 240.699  1.00  0.00     0.006 C 
ENDROOT
BRANCH   1   2
ATOM      2  C   UNL     1     -96.592 149.726 241.512  1.00  0.00     0.053 C 
BRANCH   2   3
ATOM      3  C   UNL     1     -97.525 149.314 242.606  1.00  0.00     0.041 C 
ATOM      4  O   UNL     1     -97.407 148.184 243.147  1.00  0.00    -0.550 OA
ATOM      5  O   UNL     1     -98.557 150.159 242.995  1.00  0.00    -0.550 OA
ENDBRANCH   2   3
ENDBRANCH   1   2
BRANCH   1   6
ATOM      6  C   UNL     1     -94.615 148.389 240.683  1.00  0.00     0.000 C 
BRANCH   6   7
ATOM      7  C   UNL     1     -94.048 148.222 239.265  1.00  0.00    -0.000 C 
BRANCH   7   8
ATOM      8  C   UNL     1     -93.118 147.006 239.138  1.00  0.00    -0.003 C 
ATOM      9  C   UNL     1     -93.546 145.887 240.083  1.00  0.00     0.004 C 
ENDBRANCH   7   8
ENDBRANCH   6   7
ENDBRANCH   1   6
TORSDOF 5
ENDMDL
MODEL 9
REMARK VINA RESULT:    -3.061      3.109      5.109
REMARK INTER + INTRA:          -4.135
REMARK INTER:                  -3.945
REMARK INTRA:                  -0.191
REMARK UNBOUND:                -0.179
REMARK SMILES CCCCCCC(=O)[O-]
REMARK SMILES IDX 5 1 6 2 7 3 8 4 9 5 4 6 3 7 2 8 1 9
REMARK H PARENT
REMARK Flexibility Score: inf
ROOT
ATOM      1  C   UNL     1     -93.735 148.249 239.452  1.00  0.00     0.006 C 
ENDROOT
BRANCH   1   2
ATOM      2  C   UNL     1     -94.593 148.486 238.206  1.00  0.00     0.053 C 
BRANCH   2   3
ATOM      3  C   UNL     1     -94.277 147.475 237.151  1.00  0.00     0.041 C 
ATOM      4  O   UNL     1     -94.746 147.602 235.990  1.00  0.00    -0.550 OA
ATOM      5  O   UNL     1     -93.504 146.362 237.462  1.00  0.00    -0.550 OA
ENDBRANCH   2   3
ENDBRANCH   1   2
BRANCH   1   6
ATOM      6  C   UNL     1     -94.598 148.250 240.723  1.00  0.00     0.000 C 
BRANCH   6   7
ATOM      7  C   UNL     1     -96.025 148.761 240.469  1.00  0.00    -0.000 C 
BRANCH   7   8
ATOM      8  C   UNL     1     -96.472 149.804 241.504  1.00  0.00    -0.003 C 
ATOM      9  C   UNL     1     -97.900 150.271 241.232  1.00  0.00     0.004 C 
ENDBRANCH   7   8
ENDBRANCH   6   7
ENDBRANCH   1   6
TORSDOF 5
ENDMDL
