MODEL 1
REMARK VINA RESULT:    63.153      0.000      0.000
REMARK INTER + INTRA:          64.999
REMARK INTER:                  64.999
REMARK INTRA:                   0.000
REMARK UNBOUND:                 0.000
REMARK SMILES CC1(C)CC[C@]2(C)CC[C@]3(C)C(=CC[C@@H]4[C@]5(C)CC[C@H](O)C(C)(C)[C@H]5CC[C@]43C)[C@H]2C1
REMARK SMILES IDX 1 1 2 2 4 3 5 4 6 5 8 6 9 7 10 8 12 9 13 10 14 11 15 12
REMARK SMILES IDX 28 13 27 14 26 15 25 16 16 17 18 18 19 19 20 20 22 21 23 22
REMARK SMILES IDX 24 23 17 24 29 25 30 26 31 27 11 28 7 29 3 30 21 31
REMARK H PARENT 21 32
REMARK Flexibility Score: inf
ROOT
ATOM      1  C   UNL     1      12.188   8.828  32.216  1.00  0.00     0.011 C 
ATOM      2  C   UNL     1      13.038  10.096  32.456  1.00  0.00    -0.035 C 
ATOM      3  C   UNL     1      12.189  11.342  32.083  1.00  0.00     0.007 C 
ATOM      4  C   UNL     1      12.827  12.672  32.524  1.00  0.00     0.008 C 
ATOM      5  C   UNL     1      13.217  12.712  34.029  1.00  0.00    -0.026 C 
ATOM      6  C   UNL     1      14.043  14.008  34.270  1.00  0.00     0.008 C 
ATOM      7  C   UNL     1      14.592  14.124  35.710  1.00  0.00     0.012 C 
ATOM      8  C   UNL     1      15.416  12.874  36.207  1.00  0.00    -0.006 C 
ATOM      9  C   UNL     1      14.642  11.583  35.814  1.00  0.00    -0.064 C 
ATOM     10  C   UNL     1      14.499  10.542  36.679  1.00  0.00    -0.027 C 
ATOM     11  C   UNL     1      15.010  10.522  38.094  1.00  0.00     0.032 C 
ATOM     12  C   UNL     1      16.150  11.537  38.325  1.00  0.00     0.006 C 
ATOM     13  C   UNL     1      15.693  12.944  37.810  1.00  0.00    -0.020 C 
ATOM     14  C   UNL     1      16.838  13.946  38.138  1.00  0.00     0.008 C 
ATOM     15  C   UNL     1      17.160  14.116  39.626  1.00  0.00     0.005 C 
ATOM     16  C   UNL     1      16.942  12.859  40.514  1.00  0.00     0.003 C 
ATOM     17  C   UNL     1      16.936  11.471  39.748  1.00  0.00    -0.025 C 
ATOM     18  C   UNL     1      16.315  10.396  40.724  1.00  0.00     0.010 C 
ATOM     19  C   UNL     1      16.421  10.698  42.236  1.00  0.00     0.033 C 
ATOM     20  C   UNL     1      17.669  11.490  42.623  1.00  0.00     0.120 C 
ATOM     21  C   UNL     1      17.732  12.892  41.903  1.00  0.00    -0.006 C 
ATOM     22  C   UNL     1      19.225  13.298  41.747  1.00  0.00     0.014 C 
ATOM     23  C   UNL     1      17.080  13.977  42.812  1.00  0.00     0.014 C 
ATOM     24  C   UNL     1      18.394  11.025  39.414  1.00  0.00     0.012 C 
ATOM     25  C   UNL     1      14.381  13.385  38.547  1.00  0.00     0.012 C 
ATOM     26  C   UNL     1      14.113  11.487  34.367  1.00  0.00     0.022 C 
ATOM     27  C   UNL     1      13.442  10.145  33.957  1.00  0.00     0.015 C 
ATOM     28  C   UNL     1      16.762  12.880  35.403  1.00  0.00     0.017 C 
ATOM     29  C   UNL     1      11.926  12.743  34.897  1.00  0.00     0.012 C 
ATOM     30  C   UNL     1      14.288  10.000  31.541  1.00  0.00     0.011 C 
ENDROOT
BRANCH  20  31
ATOM     31  O   UNL     1      17.690  11.621  44.025  1.00  0.00    -0.393 OA
ATOM     32  H   UNL     1      18.368  10.981  44.367  1.00  0.00     0.210 HD
ENDBRANCH  20  31
TORSDOF 1
ENDMDL
