MODEL 1
REMARK VINA RESULT:    -5.311      0.000      0.000
REMARK INTER + INTRA:         -16.051
REMARK INTER:                 -12.142
REMARK INTRA:                  -3.909
REMARK UNBOUND:                -3.909
REMARK SMILES CCCCCCCCCCCCCCCCCCCCCCCC(=O)[O-]
REMARK SMILES IDX 13 1 14 2 15 3 16 4 17 5 18 6 19 7 20 8 21 9 22 10 23 11
REMARK SMILES IDX 24 12 25 13 26 14 12 15 11 16 10 17 9 18 8 19 7 20 6 21 5 22
REMARK SMILES IDX 4 23 3 24 2 25 1 26
REMARK H PARENT
REMARK Flexibility Score: inf
ROOT
ATOM      1  C   UNL     1     121.398 178.297 123.952  1.00  0.00     0.000 C 
ENDROOT
BRANCH   1   2
ATOM      2  C   UNL     1     120.006 178.836 124.321  1.00  0.00     0.000 C 
BRANCH   2   3
ATOM      3  C   UNL     1     120.049 179.837 125.486  1.00  0.00     0.000 C 
BRANCH   3   4
ATOM      4  C   UNL     1     121.225 179.587 126.443  1.00  0.00     0.000 C 
BRANCH   4   5
ATOM      5  C   UNL     1     120.776 178.766 127.658  1.00  0.00     0.000 C 
BRANCH   5   6
ATOM      6  C   UNL     1     121.805 177.684 128.003  1.00  0.00     0.000 C 
BRANCH   6   7
ATOM      7  C   UNL     1     121.166 176.291 127.988  1.00  0.00     0.000 C 
BRANCH   7   8
ATOM      8  C   UNL     1     119.636 176.387 127.970  1.00  0.00     0.000 C 
BRANCH   8   9
ATOM      9  C   UNL     1     119.052 175.646 126.758  1.00  0.00     0.000 C 
BRANCH   9  10
ATOM     10  C   UNL     1     118.146 176.541 125.898  1.00  0.00     0.006 C 
BRANCH  10  11
ATOM     11  C   UNL     1     117.288 177.495 126.740  1.00  0.00     0.053 C 
BRANCH  11  12
ATOM     12  C   UNL     1     116.333 178.246 125.868  1.00  0.00     0.041 C 
ATOM     13  O   UNL     1     115.367 178.872 126.376  1.00  0.00    -0.550 OA
ATOM     14  O   UNL     1     116.481 178.214 124.487  1.00  0.00    -0.550 OA
ENDBRANCH  11  12
ENDBRANCH  10  11
ENDBRANCH   9  10
ENDBRANCH   8   9
ENDBRANCH   7   8
ENDBRANCH   6   7
ENDBRANCH   5   6
ENDBRANCH   4   5
ENDBRANCH   3   4
ENDBRANCH   2   3
ENDBRANCH   1   2
BRANCH   1  15
ATOM     15  C   UNL     1     121.507 176.768 124.101  1.00  0.00     0.000 C 
BRANCH  15  16
ATOM     16  C   UNL     1     122.885 176.247 124.559  1.00  0.00     0.000 C 
BRANCH  16  17
ATOM     17  C   UNL     1     123.891 177.339 124.971  1.00  0.00     0.000 C 
BRANCH  17  18
ATOM     18  C   UNL     1     125.239 177.295 124.224  1.00  0.00    -0.000 C 
BRANCH  18  19
ATOM     19  C   UNL     1     125.635 175.910 123.674  1.00  0.00    -0.000 C 
BRANCH  19  20
ATOM     20  C   UNL     1     126.253 175.916 122.264  1.00  0.00    -0.000 C 
BRANCH  20  21
ATOM     21  C   UNL     1     127.320 177.008 122.083  1.00  0.00    -0.000 C 
BRANCH  21  22
ATOM     22  C   UNL     1     126.876 178.122 121.120  1.00  0.00    -0.000 C 
BRANCH  22  23
ATOM     23  C   UNL     1     126.511 177.611 119.710  1.00  0.00    -0.000 C 
BRANCH  23  24
ATOM     24  C   UNL     1     125.173 178.189 119.216  1.00  0.00    -0.000 C 
BRANCH  24  25
ATOM     25  C   UNL     1     123.962 177.437 119.788  1.00  0.00    -0.003 C 
ATOM     26  C   UNL     1     123.410 178.094 121.053  1.00  0.00     0.004 C 
ENDBRANCH  24  25
ENDBRANCH  23  24
ENDBRANCH  22  23
ENDBRANCH  21  22
ENDBRANCH  20  21
ENDBRANCH  19  20
ENDBRANCH  18  19
ENDBRANCH  17  18
ENDBRANCH  16  17
ENDBRANCH  15  16
ENDBRANCH   1  15
TORSDOF 22
ENDMDL
MODEL 2
REMARK VINA RESULT:    -5.245      3.940      8.695
REMARK INTER + INTRA:         -15.900
REMARK INTER:                 -12.604
REMARK INTRA:                  -3.296
REMARK UNBOUND:                -3.909
REMARK SMILES CCCCCCCCCCCCCCCCCCCCCCCC(=O)[O-]
REMARK SMILES IDX 13 1 14 2 15 3 16 4 17 5 18 6 19 7 20 8 21 9 22 10 23 11
REMARK SMILES IDX 24 12 25 13 26 14 12 15 11 16 10 17 9 18 8 19 7 20 6 21 5 22
REMARK SMILES IDX 4 23 3 24 2 25 1 26
REMARK H PARENT
REMARK Flexibility Score: inf
ROOT
ATOM      1  C   UNL     1     121.660 178.274 123.762  1.00  0.00     0.000 C 
ENDROOT
BRANCH   1   2
ATOM      2  C   UNL     1     121.725 176.748 123.946  1.00  0.00     0.000 C 
BRANCH   2   3
ATOM      3  C   UNL     1     122.999 176.296 124.678  1.00  0.00     0.000 C 
BRANCH   3   4
ATOM      4  C   UNL     1     123.885 177.473 125.116  1.00  0.00     0.000 C 
BRANCH   4   5
ATOM      5  C   UNL     1     125.274 177.381 124.472  1.00  0.00     0.000 C 
BRANCH   5   6
ATOM      6  C   UNL     1     125.340 176.228 123.465  1.00  0.00     0.000 C 
BRANCH   6   7
ATOM      7  C   UNL     1     125.634 176.746 122.053  1.00  0.00     0.000 C 
BRANCH   7   8
ATOM      8  C   UNL     1     124.392 177.402 121.437  1.00  0.00     0.000 C 
BRANCH   8   9
ATOM      9  C   UNL     1     124.746 178.139 120.137  1.00  0.00     0.000 C 
BRANCH   9  10
ATOM     10  C   UNL     1     124.878 177.188 118.937  1.00  0.00     0.006 C 
BRANCH  10  11
ATOM     11  C   UNL     1     125.842 177.719 117.867  1.00  0.00     0.053 C 
BRANCH  11  12
ATOM     12  C   UNL     1     127.251 177.679 118.367  1.00  0.00     0.041 C 
ATOM     13  O   UNL     1     127.815 176.577 118.587  1.00  0.00    -0.550 OA
ATOM     14  O   UNL     1     127.925 178.863 118.639  1.00  0.00    -0.550 OA
ENDBRANCH  11  12
ENDBRANCH  10  11
ENDBRANCH   9  10
ENDBRANCH   8   9
ENDBRANCH   7   8
ENDBRANCH   6   7
ENDBRANCH   5   6
ENDBRANCH   4   5
ENDBRANCH   3   4
ENDBRANCH   2   3
ENDBRANCH   1   2
BRANCH   1  15
ATOM     15  C   UNL     1     120.244 178.842 123.971  1.00  0.00     0.000 C 
BRANCH  15  16
ATOM     16  C   UNL     1     120.052 179.676 125.255  1.00  0.00     0.000 C 
BRANCH  16  17
ATOM     17  C   UNL     1     121.179 179.540 126.296  1.00  0.00     0.000 C 
BRANCH  17  18
ATOM     18  C   UNL     1     120.755 178.896 127.631  1.00  0.00    -0.000 C 
BRANCH  18  19
ATOM     19  C   UNL     1     121.272 177.461 127.856  1.00  0.00    -0.000 C 
BRANCH  19  20
ATOM     20  C   UNL     1     120.354 176.342 127.332  1.00  0.00    -0.000 C 
BRANCH  20  21
ATOM     21  C   UNL     1     118.870 176.589 127.648  1.00  0.00    -0.000 C 
BRANCH  21  22
ATOM     22  C   UNL     1     118.017 176.800 126.386  1.00  0.00    -0.000 C 
BRANCH  22  23
ATOM     23  C   UNL     1     116.831 177.765 126.595  1.00  0.00    -0.000 C 
BRANCH  23  24
ATOM     24  C   UNL     1     116.733 178.811 125.469  1.00  0.00    -0.000 C 
BRANCH  24  25
ATOM     25  C   UNL     1     115.381 178.767 124.743  1.00  0.00    -0.003 C 
ATOM     26  C   UNL     1     114.232 179.272 125.615  1.00  0.00     0.004 C 
ENDBRANCH  24  25
ENDBRANCH  23  24
ENDBRANCH  22  23
ENDBRANCH  21  22
ENDBRANCH  20  21
ENDBRANCH  19  20
ENDBRANCH  18  19
ENDBRANCH  17  18
ENDBRANCH  16  17
ENDBRANCH  15  16
ENDBRANCH   1  15
TORSDOF 22
ENDMDL
MODEL 3
REMARK VINA RESULT:    -5.238      1.930      4.976
REMARK INTER + INTRA:         -15.884
REMARK INTER:                 -12.275
REMARK INTRA:                  -3.609
REMARK UNBOUND:                -3.909
REMARK SMILES CCCCCCCCCCCCCCCCCCCCCCCC(=O)[O-]
REMARK SMILES IDX 13 1 14 2 15 3 16 4 17 5 18 6 19 7 20 8 21 9 22 10 23 11
REMARK SMILES IDX 24 12 25 13 26 14 12 15 11 16 10 17 9 18 8 19 7 20 6 21 5 22
REMARK SMILES IDX 4 23 3 24 2 25 1 26
REMARK H PARENT
REMARK Flexibility Score: inf
ROOT
ATOM      1  C   UNL     1     125.098 176.727 119.472  1.00  0.00     0.000 C 
ENDROOT
BRANCH   1   2
ATOM      2  C   UNL     1     123.747 177.419 119.724  1.00  0.00     0.000 C 
BRANCH   2   3
ATOM      3  C   UNL     1     123.672 178.079 121.110  1.00  0.00     0.000 C 
BRANCH   3   4
ATOM      4  C   UNL     1     123.763 177.064 122.260  1.00  0.00     0.000 C 
BRANCH   4   5
ATOM      5  C   UNL     1     122.878 177.490 123.438  1.00  0.00     0.000 C 
BRANCH   5   6
ATOM      6  C   UNL     1     122.673 176.332 124.420  1.00  0.00     0.000 C 
BRANCH   6   7
ATOM      7  C   UNL     1     122.564 176.844 125.861  1.00  0.00     0.000 C 
BRANCH   7   8
ATOM      8  C   UNL     1     123.281 178.190 126.022  1.00  0.00     0.000 C 
BRANCH   8   9
ATOM      9  C   UNL     1     122.471 179.142 126.915  1.00  0.00     0.000 C 
BRANCH   9  10
ATOM     10  C   UNL     1     120.955 178.935 126.775  1.00  0.00     0.006 C 
BRANCH  10  11
ATOM     11  C   UNL     1     120.350 179.755 125.628  1.00  0.00     0.053 C 
BRANCH  11  12
ATOM     12  C   UNL     1     119.249 178.991 124.963  1.00  0.00     0.041 C 
ATOM     13  O   UNL     1     119.500 178.235 123.990  1.00  0.00    -0.550 OA
ATOM     14  O   UNL     1     117.937 179.152 125.389  1.00  0.00    -0.550 OA
ENDBRANCH  11  12
ENDBRANCH  10  11
ENDBRANCH   9  10
ENDBRANCH   8   9
ENDBRANCH   7   8
ENDBRANCH   6   7
ENDBRANCH   5   6
ENDBRANCH   4   5
ENDBRANCH   3   4
ENDBRANCH   2   3
ENDBRANCH   1   2
BRANCH   1  15
ATOM     15  C   UNL     1     125.893 177.369 118.320  1.00  0.00     0.000 C 
BRANCH  15  16
ATOM     16  C   UNL     1     127.428 177.284 118.453  1.00  0.00     0.000 C 
BRANCH  16  17
ATOM     17  C   UNL     1     127.936 176.645 119.759  1.00  0.00     0.000 C 
BRANCH  17  18
ATOM     18  C   UNL     1     129.133 177.365 120.411  1.00  0.00    -0.000 C 
BRANCH  18  19
ATOM     19  C   UNL     1     128.808 178.126 121.712  1.00  0.00    -0.000 C 
BRANCH  19  20
ATOM     20  C   UNL     1     127.318 178.162 122.097  1.00  0.00    -0.000 C 
BRANCH  20  21
ATOM     21  C   UNL     1     127.094 178.218 123.617  1.00  0.00    -0.000 C 
BRANCH  21  22
ATOM     22  C   UNL     1     126.749 176.846 124.221  1.00  0.00    -0.000 C 
BRANCH  22  23
ATOM     23  C   UNL     1     127.980 175.944 124.450  1.00  0.00    -0.000 C 
BRANCH  23  24
ATOM     24  C   UNL     1     127.949 174.690 123.558  1.00  0.00    -0.000 C 
BRANCH  24  25
ATOM     25  C   UNL     1     126.690 174.623 122.681  1.00  0.00    -0.003 C 
ATOM     26  C   UNL     1     126.860 173.689 121.483  1.00  0.00     0.004 C 
ENDBRANCH  24  25
ENDBRANCH  23  24
ENDBRANCH  22  23
ENDBRANCH  21  22
ENDBRANCH  20  21
ENDBRANCH  19  20
ENDBRANCH  18  19
ENDBRANCH  17  18
ENDBRANCH  16  17
ENDBRANCH  15  16
ENDBRANCH   1  15
TORSDOF 22
ENDMDL
MODEL 4
REMARK VINA RESULT:    -5.209      3.643      8.076
REMARK INTER + INTRA:         -15.816
REMARK INTER:                 -12.033
REMARK INTRA:                  -3.782
REMARK UNBOUND:                -3.909
REMARK SMILES CCCCCCCCCCCCCCCCCCCCCCCC(=O)[O-]
REMARK SMILES IDX 13 1 14 2 15 3 16 4 17 5 18 6 19 7 20 8 21 9 22 10 23 11
REMARK SMILES IDX 24 12 25 13 26 14 12 15 11 16 10 17 9 18 8 19 7 20 6 21 5 22
REMARK SMILES IDX 4 23 3 24 2 25 1 26
REMARK H PARENT
REMARK Flexibility Score: inf
ROOT
ATOM      1  C   UNL     1     123.757 178.101 120.970  1.00  0.00     0.000 C 
ENDROOT
BRANCH   1   2
ATOM      2  C   UNL     1     124.801 177.738 119.900  1.00  0.00     0.000 C 
BRANCH   2   3
ATOM      3  C   UNL     1     125.580 176.459 120.246  1.00  0.00     0.000 C 
BRANCH   3   4
ATOM      4  C   UNL     1     127.101 176.634 120.114  1.00  0.00     0.000 C 
BRANCH   4   5
ATOM      5  C   UNL     1     127.545 177.995 120.663  1.00  0.00     0.000 C 
BRANCH   5   6
ATOM      6  C   UNL     1     128.165 177.851 122.058  1.00  0.00     0.000 C 
BRANCH   6   7
ATOM      7  C   UNL     1     127.394 178.681 123.091  1.00  0.00     0.000 C 
BRANCH   7   8
ATOM      8  C   UNL     1     126.480 177.790 123.941  1.00  0.00     0.000 C 
BRANCH   8   9
ATOM      9  C   UNL     1     127.122 176.416 124.185  1.00  0.00     0.000 C 
BRANCH   9  10
ATOM     10  C   UNL     1     126.158 175.254 123.898  1.00  0.00     0.006 C 
BRANCH  10  11
ATOM     11  C   UNL     1     126.829 174.104 123.137  1.00  0.00     0.053 C 
BRANCH  11  12
ATOM     12  C   UNL     1     126.895 172.879 123.993  1.00  0.00     0.041 C 
ATOM     13  O   UNL     1     125.980 172.635 124.822  1.00  0.00    -0.550 OA
ATOM     14  O   UNL     1     127.992 172.031 123.910  1.00  0.00    -0.550 OA
ENDBRANCH  11  12
ENDBRANCH  10  11
ENDBRANCH   9  10
ENDBRANCH   8   9
ENDBRANCH   7   8
ENDBRANCH   6   7
ENDBRANCH   5   6
ENDBRANCH   4   5
ENDBRANCH   3   4
ENDBRANCH   2   3
ENDBRANCH   1   2
BRANCH   1  15
ATOM     15  C   UNL     1     123.607 177.016 122.052  1.00  0.00     0.000 C 
BRANCH  15  16
ATOM     16  C   UNL     1     122.812 177.440 123.304  1.00  0.00     0.000 C 
BRANCH  16  17
ATOM     17  C   UNL     1     122.679 176.356 124.391  1.00  0.00     0.000 C 
BRANCH  17  18
ATOM     18  C   UNL     1     122.725 176.881 125.840  1.00  0.00    -0.000 C 
BRANCH  18  19
ATOM     19  C   UNL     1     123.577 178.150 126.048  1.00  0.00    -0.000 C 
BRANCH  19  20
ATOM     20  C   UNL     1     123.057 179.120 127.123  1.00  0.00    -0.000 C 
BRANCH  20  21
ATOM     21  C   UNL     1     121.836 178.574 127.882  1.00  0.00    -0.000 C 
BRANCH  21  22
ATOM     22  C   UNL     1     120.513 178.819 127.138  1.00  0.00    -0.000 C 
BRANCH  22  23
ATOM     23  C   UNL     1     120.595 179.942 126.082  1.00  0.00    -0.000 C 
BRANCH  23  24
ATOM     24  C   UNL     1     120.112 179.469 124.699  1.00  0.00    -0.000 C 
BRANCH  24  25
ATOM     25  C   UNL     1     119.315 178.158 124.772  1.00  0.00    -0.003 C 
ATOM     26  C   UNL     1     117.847 178.344 124.392  1.00  0.00     0.004 C 
ENDBRANCH  24  25
ENDBRANCH  23  24
ENDBRANCH  22  23
ENDBRANCH  21  22
ENDBRANCH  20  21
ENDBRANCH  19  20
ENDBRANCH  18  19
ENDBRANCH  17  18
ENDBRANCH  16  17
ENDBRANCH  15  16
ENDBRANCH   1  15
TORSDOF 22
ENDMDL
MODEL 5
REMARK VINA RESULT:    -5.189      3.384      7.906
REMARK INTER + INTRA:         -15.771
REMARK INTER:                 -11.844
REMARK INTRA:                  -3.927
REMARK UNBOUND:                -3.909
REMARK SMILES CCCCCCCCCCCCCCCCCCCCCCCC(=O)[O-]
REMARK SMILES IDX 13 1 14 2 15 3 16 4 17 5 18 6 19 7 20 8 21 9 22 10 23 11
REMARK SMILES IDX 24 12 25 13 26 14 12 15 11 16 10 17 9 18 8 19 7 20 6 21 5 22
REMARK SMILES IDX 4 23 3 24 2 25 1 26
REMARK H PARENT
REMARK Flexibility Score: inf
ROOT
ATOM      1  C   UNL     1     120.375 179.659 124.776  1.00  0.00     0.000 C 
ENDROOT
BRANCH   1   2
ATOM      2  C   UNL     1     119.935 178.488 123.881  1.00  0.00     0.000 C 
BRANCH   2   3
ATOM      3  C   UNL     1     120.815 177.241 124.063  1.00  0.00     0.000 C 
BRANCH   3   4
ATOM      4  C   UNL     1     122.262 177.459 123.593  1.00  0.00     0.000 C 
BRANCH   4   5
ATOM      5  C   UNL     1     123.237 176.603 124.411  1.00  0.00     0.000 C 
BRANCH   5   6
ATOM      6  C   UNL     1     124.332 177.469 125.044  1.00  0.00     0.000 C 
BRANCH   6   7
ATOM      7  C   UNL     1     125.635 177.385 124.241  1.00  0.00     0.000 C 
BRANCH   7   8
ATOM      8  C   UNL     1     125.628 176.169 123.307  1.00  0.00     0.000 C 
BRANCH   8   9
ATOM      9  C   UNL     1     126.092 176.556 121.895  1.00  0.00     0.000 C 
BRANCH   9  10
ATOM     10  C   UNL     1     125.443 177.857 121.395  1.00  0.00     0.006 C 
BRANCH  10  11
ATOM     11  C   UNL     1     124.571 177.641 120.152  1.00  0.00     0.053 C 
BRANCH  11  12
ATOM     12  C   UNL     1     125.308 178.058 118.919  1.00  0.00     0.041 C 
ATOM     13  O   UNL     1     124.791 177.893 117.784  1.00  0.00    -0.550 OA
ATOM     14  O   UNL     1     126.590 178.585 119.020  1.00  0.00    -0.550 OA
ENDBRANCH  11  12
ENDBRANCH  10  11
ENDBRANCH   9  10
ENDBRANCH   8   9
ENDBRANCH   7   8
ENDBRANCH   6   7
ENDBRANCH   5   6
ENDBRANCH   4   5
ENDBRANCH   3   4
ENDBRANCH   2   3
ENDBRANCH   1   2
BRANCH   1  15
ATOM     15  C   UNL     1     120.286 179.330 126.278  1.00  0.00     0.000 C 
BRANCH  15  16
ATOM     16  C   UNL     1     121.640 179.210 127.008  1.00  0.00     0.000 C 
BRANCH  16  17
ATOM     17  C   UNL     1     121.619 178.342 128.281  1.00  0.00     0.000 C 
BRANCH  17  18
ATOM     18  C   UNL     1     122.164 176.911 128.098  1.00  0.00    -0.000 C 
BRANCH  18  19
ATOM     19  C   UNL     1     121.117 175.789 128.255  1.00  0.00    -0.000 C 
BRANCH  19  20
ATOM     20  C   UNL     1     120.607 175.179 126.937  1.00  0.00    -0.000 C 
BRANCH  20  21
ATOM     21  C   UNL     1     119.108 175.429 126.703  1.00  0.00    -0.000 C 
BRANCH  21  22
ATOM     22  C   UNL     1     118.475 176.318 127.786  1.00  0.00    -0.000 C 
BRANCH  22  23
ATOM     23  C   UNL     1     117.415 177.299 127.239  1.00  0.00    -0.000 C 
BRANCH  23  24
ATOM     24  C   UNL     1     117.257 177.182 125.713  1.00  0.00    -0.000 C 
BRANCH  24  25
ATOM     25  C   UNL     1     116.388 178.305 125.125  1.00  0.00    -0.003 C 
ATOM     26  C   UNL     1     115.433 178.906 126.156  1.00  0.00     0.004 C 
ENDBRANCH  24  25
ENDBRANCH  23  24
ENDBRANCH  22  23
ENDBRANCH  21  22
ENDBRANCH  20  21
ENDBRANCH  19  20
ENDBRANCH  18  19
ENDBRANCH  17  18
ENDBRANCH  16  17
ENDBRANCH  15  16
ENDBRANCH   1  15
TORSDOF 22
ENDMDL
MODEL 6
REMARK VINA RESULT:    -5.134      3.460      7.452
REMARK INTER + INTRA:         -15.646
REMARK INTER:                 -11.924
REMARK INTRA:                  -3.721
REMARK UNBOUND:                -3.909
REMARK SMILES CCCCCCCCCCCCCCCCCCCCCCCC(=O)[O-]
REMARK SMILES IDX 13 1 14 2 15 3 16 4 17 5 18 6 19 7 20 8 21 9 22 10 23 11
REMARK SMILES IDX 24 12 25 13 26 14 12 15 11 16 10 17 9 18 8 19 7 20 6 21 5 22
REMARK SMILES IDX 4 23 3 24 2 25 1 26
REMARK H PARENT
REMARK Flexibility Score: inf
ROOT
ATOM      1  C   UNL     1     119.023 177.691 124.919  1.00  0.00     0.000 C 
ENDROOT
BRANCH   1   2
ATOM      2  C   UNL     1     118.874 179.121 125.466  1.00  0.00     0.000 C 
BRANCH   2   3
ATOM      3  C   UNL     1     120.228 179.772 125.793  1.00  0.00     0.000 C 
BRANCH   3   4
ATOM      4  C   UNL     1     120.900 179.160 127.031  1.00  0.00     0.000 C 
BRANCH   4   5
ATOM      5  C   UNL     1     122.383 178.873 126.763  1.00  0.00     0.000 C 
BRANCH   5   6
ATOM      6  C   UNL     1     122.572 177.483 126.145  1.00  0.00     0.000 C 
BRANCH   6   7
ATOM      7  C   UNL     1     122.904 177.584 124.652  1.00  0.00     0.000 C 
BRANCH   7   8
ATOM      8  C   UNL     1     124.061 176.649 124.281  1.00  0.00     0.000 C 
BRANCH   8   9
ATOM      9  C   UNL     1     124.540 176.909 122.845  1.00  0.00     0.000 C 
BRANCH   9  10
ATOM     10  C   UNL     1     123.546 177.756 122.035  1.00  0.00     0.006 C 
BRANCH  10  11
ATOM     11  C   UNL     1     123.554 177.407 120.541  1.00  0.00     0.053 C 
BRANCH  11  12
ATOM     12  C   UNL     1     124.890 177.713 119.941  1.00  0.00     0.041 C 
ATOM     13  O   UNL     1     125.282 178.904 119.838  1.00  0.00    -0.550 OA
ATOM     14  O   UNL     1     125.683 176.683 119.449  1.00  0.00    -0.550 OA
ENDBRANCH  11  12
ENDBRANCH  10  11
ENDBRANCH   9  10
ENDBRANCH   8   9
ENDBRANCH   7   8
ENDBRANCH   6   7
ENDBRANCH   5   6
ENDBRANCH   4   5
ENDBRANCH   3   4
ENDBRANCH   2   3
ENDBRANCH   1   2
BRANCH   1  15
ATOM     15  C   UNL     1     118.820 176.613 125.999  1.00  0.00     0.000 C 
BRANCH  15  16
ATOM     16  C   UNL     1     117.938 177.034 127.193  1.00  0.00     0.000 C 
BRANCH  16  17
ATOM     17  C   UNL     1     118.289 176.359 128.533  1.00  0.00     0.000 C 
BRANCH  17  18
ATOM     18  C   UNL     1     119.722 175.795 128.619  1.00  0.00    -0.000 C 
BRANCH  18  19
ATOM     19  C   UNL     1     119.813 174.291 128.945  1.00  0.00    -0.000 C 
BRANCH  19  20
ATOM     20  C   UNL     1     118.536 173.479 128.662  1.00  0.00    -0.000 C 
BRANCH  20  21
ATOM     21  C   UNL     1     118.737 172.407 127.579  1.00  0.00    -0.000 C 
BRANCH  21  22
ATOM     22  C   UNL     1     118.799 172.996 126.159  1.00  0.00    -0.000 C 
BRANCH  22  23
ATOM     23  C   UNL     1     120.133 172.722 125.434  1.00  0.00    -0.000 C 
BRANCH  23  24
ATOM     24  C   UNL     1     121.062 173.949 125.452  1.00  0.00    -0.000 C 
BRANCH  24  25
ATOM     25  C   UNL     1     122.495 173.596 125.877  1.00  0.00    -0.003 C 
ATOM     26  C   UNL     1     122.533 172.662 127.086  1.00  0.00     0.004 C 
ENDBRANCH  24  25
ENDBRANCH  23  24
ENDBRANCH  22  23
ENDBRANCH  21  22
ENDBRANCH  20  21
ENDBRANCH  19  20
ENDBRANCH  18  19
ENDBRANCH  17  18
ENDBRANCH  16  17
ENDBRANCH  15  16
ENDBRANCH   1  15
TORSDOF 22
ENDMDL
MODEL 7
REMARK VINA RESULT:    -5.127      1.381      3.673
REMARK INTER + INTRA:         -15.628
REMARK INTER:                 -11.851
REMARK INTRA:                  -3.777
REMARK UNBOUND:                -3.909
REMARK SMILES CCCCCCCCCCCCCCCCCCCCCCCC(=O)[O-]
REMARK SMILES IDX 13 1 14 2 15 3 16 4 17 5 18 6 19 7 20 8 21 9 22 10 23 11
REMARK SMILES IDX 24 12 25 13 26 14 12 15 11 16 10 17 9 18 8 19 7 20 6 21 5 22
REMARK SMILES IDX 4 23 3 24 2 25 1 26
REMARK H PARENT
REMARK Flexibility Score: inf
ROOT
ATOM      1  C   UNL     1     123.910 177.013 124.077  1.00  0.00     0.000 C 
ENDROOT
BRANCH   1   2
ATOM      2  C   UNL     1     123.110 175.885 124.750  1.00  0.00     0.000 C 
BRANCH   2   3
ATOM      3  C   UNL     1     121.631 175.879 124.332  1.00  0.00     0.000 C 
BRANCH   3   4
ATOM      4  C   UNL     1     120.684 175.546 125.496  1.00  0.00     0.000 C 
BRANCH   4   5
ATOM      5  C   UNL     1     121.427 175.598 126.837  1.00  0.00     0.000 C 
BRANCH   5   6
ATOM      6  C   UNL     1     121.013 176.830 127.649  1.00  0.00     0.000 C 
BRANCH   6   7
ATOM      7  C   UNL     1     122.156 177.849 127.724  1.00  0.00     0.000 C 
BRANCH   7   8
ATOM      8  C   UNL     1     121.978 178.955 126.677  1.00  0.00     0.000 C 
BRANCH   8   9
ATOM      9  C   UNL     1     120.496 179.324 126.512  1.00  0.00     0.000 C 
BRANCH   9  10
ATOM     10  C   UNL     1     120.137 179.692 125.064  1.00  0.00     0.006 C 
BRANCH  10  11
ATOM     11  C   UNL     1     119.295 178.611 124.373  1.00  0.00     0.053 C 
BRANCH  11  12
ATOM     12  C   UNL     1     117.973 178.463 125.056  1.00  0.00     0.041 C 
ATOM     13  O   UNL     1     117.648 177.365 125.578  1.00  0.00    -0.550 OA
ATOM     14  O   UNL     1     117.076 179.525 125.074  1.00  0.00    -0.550 OA
ENDBRANCH  11  12
ENDBRANCH  10  11
ENDBRANCH   9  10
ENDBRANCH   8   9
ENDBRANCH   7   8
ENDBRANCH   6   7
ENDBRANCH   5   6
ENDBRANCH   4   5
ENDBRANCH   3   4
ENDBRANCH   2   3
ENDBRANCH   1   2
BRANCH   1  15
ATOM     15  C   UNL     1     123.283 177.482 122.750  1.00  0.00     0.000 C 
BRANCH  15  16
ATOM     16  C   UNL     1     124.068 177.098 121.479  1.00  0.00     0.000 C 
BRANCH  16  17
ATOM     17  C   UNL     1     123.610 177.809 120.191  1.00  0.00     0.000 C 
BRANCH  17  18
ATOM     18  C   UNL     1     124.681 177.899 119.085  1.00  0.00    -0.000 C 
BRANCH  18  19
ATOM     19  C   UNL     1     126.128 178.066 119.590  1.00  0.00    -0.000 C 
BRANCH  19  20
ATOM     20  C   UNL     1     127.133 177.027 119.061  1.00  0.00    -0.000 C 
BRANCH  20  21
ATOM     21  C   UNL     1     127.857 176.268 120.186  1.00  0.00    -0.000 C 
BRANCH  21  22
ATOM     22  C   UNL     1     126.976 175.192 120.844  1.00  0.00    -0.000 C 
BRANCH  22  23
ATOM     23  C   UNL     1     126.853 175.345 122.374  1.00  0.00    -0.000 C 
BRANCH  23  24
ATOM     24  C   UNL     1     128.061 176.082 122.979  1.00  0.00    -0.000 C 
BRANCH  24  25
ATOM     25  C   UNL     1     127.644 177.231 123.909  1.00  0.00    -0.003 C 
ATOM     26  C   UNL     1     127.121 178.445 123.141  1.00  0.00     0.004 C 
ENDBRANCH  24  25
ENDBRANCH  23  24
ENDBRANCH  22  23
ENDBRANCH  21  22
ENDBRANCH  20  21
ENDBRANCH  19  20
ENDBRANCH  18  19
ENDBRANCH  17  18
ENDBRANCH  16  17
ENDBRANCH  15  16
ENDBRANCH   1  15
TORSDOF 22
ENDMDL
MODEL 8
REMARK VINA RESULT:    -5.120      4.220      8.805
REMARK INTER + INTRA:         -15.614
REMARK INTER:                 -12.377
REMARK INTRA:                  -3.236
REMARK UNBOUND:                -3.909
REMARK SMILES CCCCCCCCCCCCCCCCCCCCCCCC(=O)[O-]
REMARK SMILES IDX 13 1 14 2 15 3 16 4 17 5 18 6 19 7 20 8 21 9 22 10 23 11
REMARK SMILES IDX 24 12 25 13 26 14 12 15 11 16 10 17 9 18 8 19 7 20 6 21 5 22
REMARK SMILES IDX 4 23 3 24 2 25 1 26
REMARK H PARENT
REMARK Flexibility Score: inf
ROOT
ATOM      1  C   UNL     1     122.379 175.198 125.314  1.00  0.00     0.000 C 
ENDROOT
BRANCH   1   2
ATOM      2  C   UNL     1     123.000 176.599 125.181  1.00  0.00     0.000 C 
BRANCH   2   3
ATOM      3  C   UNL     1     123.311 176.971 123.723  1.00  0.00     0.000 C 
BRANCH   3   4
ATOM      4  C   UNL     1     124.784 176.740 123.350  1.00  0.00     0.000 C 
BRANCH   4   5
ATOM      5  C   UNL     1     125.115 177.388 122.000  1.00  0.00     0.000 C 
BRANCH   5   6
ATOM      6  C   UNL     1     123.837 177.751 121.235  1.00  0.00     0.000 C 
BRANCH   6   7
ATOM      7  C   UNL     1     123.969 177.409 119.747  1.00  0.00     0.000 C 
BRANCH   7   8
ATOM      8  C   UNL     1     125.032 178.284 119.073  1.00  0.00     0.000 C 
BRANCH   8   9
ATOM      9  C   UNL     1     125.923 177.450 118.141  1.00  0.00     0.000 C 
BRANCH   9  10
ATOM     10  C   UNL     1     127.407 177.837 118.240  1.00  0.00     0.006 C 
BRANCH  10  11
ATOM     11  C   UNL     1     127.783 178.385 119.623  1.00  0.00     0.053 C 
BRANCH  11  12
ATOM     12  C   UNL     1     129.002 177.693 120.145  1.00  0.00     0.041 C 
ATOM     13  O   UNL     1     129.788 178.292 120.924  1.00  0.00    -0.550 OA
ATOM     14  O   UNL     1     129.298 176.400 119.731  1.00  0.00    -0.550 OA
ENDBRANCH  11  12
ENDBRANCH  10  11
ENDBRANCH   9  10
ENDBRANCH   8   9
ENDBRANCH   7   8
ENDBRANCH   6   7
ENDBRANCH   5   6
ENDBRANCH   4   5
ENDBRANCH   3   4
ENDBRANCH   2   3
ENDBRANCH   1   2
BRANCH   1  15
ATOM     15  C   UNL     1     120.871 175.179 125.003  1.00  0.00     0.000 C 
BRANCH  15  16
ATOM     16  C   UNL     1     119.945 175.381 126.221  1.00  0.00     0.000 C 
BRANCH  16  17
ATOM     17  C   UNL     1     120.615 175.170 127.592  1.00  0.00     0.000 C 
BRANCH  17  18
ATOM     18  C   UNL     1     120.470 176.351 128.573  1.00  0.00    -0.000 C 
BRANCH  18  19
ATOM     19  C   UNL     1     119.867 177.634 127.965  1.00  0.00    -0.000 C 
BRANCH  19  20
ATOM     20  C   UNL     1     120.776 178.875 128.019  1.00  0.00    -0.000 C 
BRANCH  20  21
ATOM     21  C   UNL     1     121.369 179.241 126.648  1.00  0.00    -0.000 C 
BRANCH  21  22
ATOM     22  C   UNL     1     120.310 179.750 125.656  1.00  0.00    -0.000 C 
BRANCH  22  23
ATOM     23  C   UNL     1     120.271 178.956 124.333  1.00  0.00    -0.000 C 
BRANCH  23  24
ATOM     24  C   UNL     1     118.920 178.248 124.126  1.00  0.00    -0.000 C 
BRANCH  24  25
ATOM     25  C   UNL     1     117.820 178.802 125.043  1.00  0.00    -0.003 C 
ATOM     26  C   UNL     1     116.965 177.697 125.664  1.00  0.00     0.004 C 
ENDBRANCH  24  25
ENDBRANCH  23  24
ENDBRANCH  22  23
ENDBRANCH  21  22
ENDBRANCH  20  21
ENDBRANCH  19  20
ENDBRANCH  18  19
ENDBRANCH  17  18
ENDBRANCH  16  17
ENDBRANCH  15  16
ENDBRANCH   1  15
TORSDOF 22
ENDMDL
MODEL 9
REMARK VINA RESULT:    -5.107      3.476      7.845
REMARK INTER + INTRA:         -15.584
REMARK INTER:                 -12.078
REMARK INTRA:                  -3.506
REMARK UNBOUND:                -3.909
REMARK SMILES CCCCCCCCCCCCCCCCCCCCCCCC(=O)[O-]
REMARK SMILES IDX 13 1 14 2 15 3 16 4 17 5 18 6 19 7 20 8 21 9 22 10 23 11
REMARK SMILES IDX 24 12 25 13 26 14 12 15 11 16 10 17 9 18 8 19 7 20 6 21 5 22
REMARK SMILES IDX 4 23 3 24 2 25 1 26
REMARK H PARENT
REMARK Flexibility Score: inf
ROOT
ATOM      1  C   UNL     1     119.792 174.778 125.953  1.00  0.00     0.000 C 
ENDROOT
BRANCH   1   2
ATOM      2  C   UNL     1     121.207 174.193 125.809  1.00  0.00     0.000 C 
BRANCH   2   3
ATOM      3  C   UNL     1     122.228 175.230 125.315  1.00  0.00     0.000 C 
BRANCH   3   4
ATOM      4  C   UNL     1     121.682 176.108 124.178  1.00  0.00     0.000 C 
BRANCH   4   5
ATOM      5  C   UNL     1     122.740 177.114 123.707  1.00  0.00     0.000 C 
BRANCH   5   6
ATOM      6  C   UNL     1     123.818 177.321 124.777  1.00  0.00     0.000 C 
BRANCH   6   7
ATOM      7  C   UNL     1     125.220 177.306 124.156  1.00  0.00     0.000 C 
BRANCH   7   8
ATOM      8  C   UNL     1     125.290 176.323 122.980  1.00  0.00     0.000 C 
BRANCH   8   9
ATOM      9  C   UNL     1     125.888 176.996 121.736  1.00  0.00     0.000 C 
BRANCH   9  10
ATOM     10  C   UNL     1     124.811 177.489 120.756  1.00  0.00     0.006 C 
BRANCH  10  11
ATOM     11  C   UNL     1     125.318 178.608 119.836  1.00  0.00     0.053 C 
BRANCH  11  12
ATOM     12  C   UNL     1     125.700 178.053 118.501  1.00  0.00     0.041 C 
ATOM     13  O   UNL     1     124.839 177.942 117.590  1.00  0.00    -0.550 OA
ATOM     14  O   UNL     1     126.998 177.611 118.277  1.00  0.00    -0.550 OA
ENDBRANCH  11  12
ENDBRANCH  10  11
ENDBRANCH   9  10
ENDBRANCH   8   9
ENDBRANCH   7   8
ENDBRANCH   6   7
ENDBRANCH   5   6
ENDBRANCH   4   5
ENDBRANCH   3   4
ENDBRANCH   2   3
ENDBRANCH   1   2
BRANCH   1  15
ATOM     15  C   UNL     1     119.244 174.675 127.388  1.00  0.00     0.000 C 
BRANCH  15  16
ATOM     16  C   UNL     1     119.316 175.976 128.215  1.00  0.00     0.000 C 
BRANCH  16  17
ATOM     17  C   UNL     1     120.657 176.219 128.933  1.00  0.00     0.000 C 
BRANCH  17  18
ATOM     18  C   UNL     1     121.554 177.292 128.284  1.00  0.00    -0.000 C 
BRANCH  18  19
ATOM     19  C   UNL     1     120.848 178.625 127.960  1.00  0.00    -0.000 C 
BRANCH  19  20
ATOM     20  C   UNL     1     121.245 179.270 126.620  1.00  0.00    -0.000 C 
BRANCH  20  21
ATOM     21  C   UNL     1     120.046 179.868 125.866  1.00  0.00    -0.000 C 
BRANCH  21  22
ATOM     22  C   UNL     1     119.893 179.303 124.444  1.00  0.00    -0.000 C 
BRANCH  22  23
ATOM     23  C   UNL     1     118.826 178.193 124.332  1.00  0.00    -0.000 C 
BRANCH  23  24
ATOM     24  C   UNL     1     117.901 178.156 125.562  1.00  0.00    -0.000 C 
BRANCH  24  25
ATOM     25  C   UNL     1     116.565 178.872 125.314  1.00  0.00    -0.003 C 
ATOM     26  C   UNL     1     116.034 178.644 123.899  1.00  0.00     0.004 C 
ENDBRANCH  24  25
ENDBRANCH  23  24
ENDBRANCH  22  23
ENDBRANCH  21  22
ENDBRANCH  20  21
ENDBRANCH  19  20
ENDBRANCH  18  19
ENDBRANCH  17  18
ENDBRANCH  16  17
ENDBRANCH  15  16
ENDBRANCH   1  15
TORSDOF 22
ENDMDL
