MODEL 1
REMARK VINA RESULT:    -5.128      0.000      0.000
REMARK INTER + INTRA:          -5.643
REMARK INTER:                  -5.428
REMARK INTRA:                  -0.215
REMARK UNBOUND:                -0.215
REMARK SMILES CC1=CC[C@@]23[C@@H]([C@@H]12)[C@H](C(C)C)CC[C@@H]3C
REMARK SMILES IDX 15 1 14 2 13 3 12 4 8 5 6 6 5 7 7 8 2 9 3 10 4 11 1 12 9 13
REMARK SMILES IDX 10 14 11 15
REMARK H PARENT
REMARK Flexibility Score: inf
ROOT
ATOM      1  C   UNL     1     135.923 140.518 135.510  1.00  0.00     0.008 C 
ATOM      2  C   UNL     1     134.587 140.361 136.260  1.00  0.00    -0.007 C 
ATOM      3  C   UNL     1     133.428 140.161 135.258  1.00  0.00     0.004 C 
ATOM      4  C   UNL     1     133.365 138.724 134.741  1.00  0.00     0.004 C 
ATOM      5  C   UNL     1     133.001 137.750 135.877  1.00  0.00    -0.004 C 
ATOM      6  C   UNL     1     133.949 137.896 137.098  1.00  0.00     0.007 C 
ATOM      7  C   UNL     1     134.691 139.225 137.318  1.00  0.00    -0.013 C 
ATOM      8  C   UNL     1     133.429 138.915 138.122  1.00  0.00     0.025 C 
ATOM      9  C   UNL     1     133.912 138.730 139.520  1.00  0.00    -0.073 C 
ATOM     10  C   UNL     1     135.220 138.904 139.637  1.00  0.00    -0.027 C 
ATOM     11  C   UNL     1     135.852 139.234 138.332  1.00  0.00     0.035 C 
ATOM     12  C   UNL     1     133.018 138.373 140.666  1.00  0.00     0.039 C 
ENDROOT
BRANCH   5  13
ATOM     13  C   UNL     1     132.907 136.281 135.364  1.00  0.00    -0.014 C 
ATOM     14  C   UNL     1     132.171 135.329 136.324  1.00  0.00     0.007 C 
ATOM     15  C   UNL     1     132.275 136.217 133.964  1.00  0.00     0.007 C 
ENDBRANCH   5  13
TORSDOF 1
ENDMDL
MODEL 2
REMARK VINA RESULT:    -5.108      3.811      5.492
REMARK INTER + INTRA:          -5.621
REMARK INTER:                  -5.401
REMARK INTRA:                  -0.220
REMARK UNBOUND:                -0.215
REMARK SMILES CC1=CC[C@@]23[C@@H]([C@@H]12)[C@H](C(C)C)CC[C@@H]3C
REMARK SMILES IDX 15 1 14 2 13 3 12 4 8 5 6 6 5 7 7 8 2 9 3 10 4 11 1 12 9 13
REMARK SMILES IDX 10 14 11 15
REMARK H PARENT
REMARK Flexibility Score: inf
ROOT
ATOM      1  C   UNL     1     140.465 136.380 135.317  1.00  0.00     0.008 C 
ATOM      2  C   UNL     1     140.427 137.722 136.071  1.00  0.00    -0.007 C 
ATOM      3  C   UNL     1     140.388 138.900 135.072  1.00  0.00     0.004 C 
ATOM      4  C   UNL     1     138.984 139.119 134.507  1.00  0.00     0.004 C 
ATOM      5  C   UNL     1     138.016 139.581 135.612  1.00  0.00    -0.004 C 
ATOM      6  C   UNL     1     138.018 138.618 136.829  1.00  0.00     0.007 C 
ATOM      7  C   UNL     1     139.251 137.736 137.089  1.00  0.00    -0.013 C 
ATOM      8  C   UNL     1     139.050 139.021 137.891  1.00  0.00     0.025 C 
ATOM      9  C   UNL     1     138.766 138.555 139.279  1.00  0.00    -0.073 C 
ATOM     10  C   UNL     1     138.793 137.235 139.392  1.00  0.00    -0.027 C 
ATOM     11  C   UNL     1     139.098 136.577 138.093  1.00  0.00     0.035 C 
ATOM     12  C   UNL     1     138.468 139.478 140.418  1.00  0.00     0.039 C 
ENDROOT
BRANCH   5  13
ATOM     13  C   UNL     1     136.585 139.835 135.049  1.00  0.00    -0.014 C 
ATOM     14  C   UNL     1     135.603 140.423 136.080  1.00  0.00     0.007 C 
ATOM     15  C   UNL     1     136.626 140.718 133.792  1.00  0.00     0.007 C 
ENDBRANCH   5  13
TORSDOF 1
ENDMDL
MODEL 3
REMARK VINA RESULT:    -5.101      6.092      7.460
REMARK INTER + INTRA:          -5.614
REMARK INTER:                  -5.393
REMARK INTRA:                  -0.220
REMARK UNBOUND:                -0.215
REMARK SMILES CC1=CC[C@@]23[C@@H]([C@@H]12)[C@H](C(C)C)CC[C@@H]3C
REMARK SMILES IDX 15 1 14 2 13 3 12 4 8 5 6 6 5 7 7 8 2 9 3 10 4 11 1 12 9 13
REMARK SMILES IDX 10 14 11 15
REMARK H PARENT
REMARK Flexibility Score: inf
ROOT
ATOM      1  C   UNL     1     136.390 132.204 135.312  1.00  0.00     0.008 C 
ATOM      2  C   UNL     1     137.713 132.267 136.096  1.00  0.00    -0.007 C 
ATOM      3  C   UNL     1     138.915 132.233 135.126  1.00  0.00     0.004 C 
ATOM      4  C   UNL     1     139.169 133.600 134.488  1.00  0.00     0.004 C 
ATOM      5  C   UNL     1     139.619 134.623 135.548  1.00  0.00    -0.004 C 
ATOM      6  C   UNL     1     138.626 134.703 136.739  1.00  0.00     0.007 C 
ATOM      7  C   UNL     1     137.721 133.499 137.046  1.00  0.00    -0.013 C 
ATOM      8  C   UNL     1     138.988 133.727 137.867  1.00  0.00     0.025 C 
ATOM      9  C   UNL     1     138.494 134.096 139.225  1.00  0.00    -0.073 C 
ATOM     10  C   UNL     1     137.171 134.093 139.306  1.00  0.00    -0.027 C 
ATOM     11  C   UNL     1     136.540 133.723 138.011  1.00  0.00     0.035 C 
ATOM     12  C   UNL     1     139.393 134.446 140.368  1.00  0.00     0.039 C 
ENDROOT
BRANCH   5  13
ATOM     13  C   UNL     1     139.907 136.016 134.912  1.00  0.00    -0.014 C 
ATOM     14  C   UNL     1     140.477 137.049 135.902  1.00  0.00     0.007 C 
ATOM     15  C   UNL     1     140.826 135.892 133.686  1.00  0.00     0.007 C 
ENDBRANCH   5  13
TORSDOF 1
ENDMDL
MODEL 4
REMARK VINA RESULT:    -5.076      3.643      5.264
REMARK INTER + INTRA:          -5.588
REMARK INTER:                  -5.373
REMARK INTRA:                  -0.215
REMARK UNBOUND:                -0.215
REMARK SMILES CC1=CC[C@@]23[C@@H]([C@@H]12)[C@H](C(C)C)CC[C@@H]3C
REMARK SMILES IDX 15 1 14 2 13 3 12 4 8 5 6 6 5 7 7 8 2 9 3 10 4 11 1 12 9 13
REMARK SMILES IDX 10 14 11 15
REMARK H PARENT
REMARK Flexibility Score: inf
ROOT
ATOM      1  C   UNL     1     132.171 135.927 135.447  1.00  0.00     0.008 C 
ATOM      2  C   UNL     1     132.314 134.619 136.247  1.00  0.00    -0.007 C 
ATOM      3  C   UNL     1     132.561 133.429 135.293  1.00  0.00     0.004 C 
ATOM      4  C   UNL     1     134.016 133.365 134.829  1.00  0.00     0.004 C 
ATOM      5  C   UNL     1     134.953 133.050 136.011  1.00  0.00    -0.004 C 
ATOM      6  C   UNL     1     134.754 134.037 137.193  1.00  0.00     0.007 C 
ATOM      7  C   UNL     1     133.410 134.771 137.340  1.00  0.00    -0.013 C 
ATOM      8  C   UNL     1     133.704 133.541 138.197  1.00  0.00     0.025 C 
ATOM      9  C   UNL     1     133.835 134.072 139.583  1.00  0.00    -0.073 C 
ATOM     10  C   UNL     1     133.644 135.382 139.650  1.00  0.00    -0.027 C 
ATOM     11  C   UNL     1     133.355 135.966 138.313  1.00  0.00     0.035 C 
ATOM     12  C   UNL     1     134.159 133.222 140.771  1.00  0.00     0.039 C 
ENDROOT
BRANCH   5  13
ATOM     13  C   UNL     1     136.440 132.955 135.553  1.00  0.00    -0.014 C 
ATOM     14  C   UNL     1     137.362 132.251 136.565  1.00  0.00     0.007 C 
ATOM     15  C   UNL     1     136.558 132.287 134.173  1.00  0.00     0.007 C 
ENDBRANCH   5  13
TORSDOF 1
ENDMDL
MODEL 5
REMARK VINA RESULT:    -5.068      6.044      7.455
REMARK INTER + INTRA:          -5.579
REMARK INTER:                  -5.327
REMARK INTRA:                  -0.252
REMARK UNBOUND:                -0.215
REMARK SMILES CC1=CC[C@@]23[C@@H]([C@@H]12)[C@H](C(C)C)CC[C@@H]3C
REMARK SMILES IDX 15 1 14 2 13 3 12 4 8 5 6 6 5 7 7 8 2 9 3 10 4 11 1 12 9 13
REMARK SMILES IDX 10 14 11 15
REMARK H PARENT
REMARK Flexibility Score: inf
ROOT
ATOM      1  C   UNL     1     137.887 133.566 138.191  1.00  0.00     0.008 C 
ATOM      2  C   UNL     1     138.719 133.150 136.964  1.00  0.00    -0.007 C 
ATOM      3  C   UNL     1     138.176 131.834 136.365  1.00  0.00     0.004 C 
ATOM      4  C   UNL     1     136.934 132.072 135.506  1.00  0.00     0.004 C 
ATOM      5  C   UNL     1     137.286 132.893 134.251  1.00  0.00    -0.004 C 
ATOM      6  C   UNL     1     138.019 134.215 134.607  1.00  0.00     0.007 C 
ATOM      7  C   UNL     1     138.785 134.316 135.936  1.00  0.00    -0.013 C 
ATOM      8  C   UNL     1     139.544 134.047 134.638  1.00  0.00     0.025 C 
ATOM      9  C   UNL     1     140.336 135.288 134.402  1.00  0.00    -0.073 C 
ATOM     10  C   UNL     1     140.166 136.193 135.356  1.00  0.00    -0.027 C 
ATOM     11  C   UNL     1     139.221 135.719 136.403  1.00  0.00     0.035 C 
ATOM     12  C   UNL     1     141.219 135.496 133.213  1.00  0.00     0.039 C 
ENDROOT
BRANCH   5  13
ATOM     13  C   UNL     1     136.036 133.124 133.349  1.00  0.00    -0.014 C 
ATOM     14  C   UNL     1     135.294 131.830 132.966  1.00  0.00     0.007 C 
ATOM     15  C   UNL     1     135.062 134.126 133.988  1.00  0.00     0.007 C 
ENDBRANCH   5  13
TORSDOF 1
ENDMDL
MODEL 6
REMARK VINA RESULT:    -5.014      2.885      4.949
REMARK INTER + INTRA:          -5.522
REMARK INTER:                  -5.310
REMARK INTRA:                  -0.212
REMARK UNBOUND:                -0.215
REMARK SMILES CC1=CC[C@@]23[C@@H]([C@@H]12)[C@H](C(C)C)CC[C@@H]3C
REMARK SMILES IDX 15 1 14 2 13 3 12 4 8 5 6 6 5 7 7 8 2 9 3 10 4 11 1 12 9 13
REMARK SMILES IDX 10 14 11 15
REMARK H PARENT
REMARK Flexibility Score: inf
ROOT
ATOM      1  C   UNL     1     137.115 140.993 133.280  1.00  0.00     0.008 C 
ATOM      2  C   UNL     1     136.677 139.627 133.841  1.00  0.00    -0.007 C 
ATOM      3  C   UNL     1     137.741 138.551 133.529  1.00  0.00     0.004 C 
ATOM      4  C   UNL     1     138.924 138.626 134.494  1.00  0.00     0.004 C 
ATOM      5  C   UNL     1     138.486 138.262 135.925  1.00  0.00    -0.004 C 
ATOM      6  C   UNL     1     137.281 139.118 136.402  1.00  0.00     0.007 C 
ATOM      7  C   UNL     1     136.345 139.747 135.356  1.00  0.00    -0.013 C 
ATOM      8  C   UNL     1     135.933 138.462 136.074  1.00  0.00     0.025 C 
ATOM      9  C   UNL     1     134.790 138.868 136.940  1.00  0.00    -0.073 C 
ATOM     10  C   UNL     1     134.480 140.150 136.813  1.00  0.00    -0.027 C 
ATOM     11  C   UNL     1     135.369 140.838 135.838  1.00  0.00     0.035 C 
ATOM     12  C   UNL     1     134.075 137.932 137.863  1.00  0.00     0.039 C 
ENDROOT
BRANCH   5  13
ATOM     13  C   UNL     1     139.685 138.308 136.920  1.00  0.00    -0.014 C 
ATOM     14  C   UNL     1     139.488 137.441 138.178  1.00  0.00     0.007 C 
ATOM     15  C   UNL     1     141.004 137.939 136.223  1.00  0.00     0.007 C 
ENDBRANCH   5  13
TORSDOF 1
ENDMDL
MODEL 7
REMARK VINA RESULT:    -5.002      1.368      4.480
REMARK INTER + INTRA:          -5.510
REMARK INTER:                  -5.295
REMARK INTRA:                  -0.215
REMARK UNBOUND:                -0.215
REMARK SMILES CC1=CC[C@@]23[C@@H]([C@@H]12)[C@H](C(C)C)CC[C@@H]3C
REMARK SMILES IDX 15 1 14 2 13 3 12 4 8 5 6 6 5 7 7 8 2 9 3 10 4 11 1 12 9 13
REMARK SMILES IDX 10 14 11 15
REMARK H PARENT
REMARK Flexibility Score: inf
ROOT
ATOM      1  C   UNL     1     131.497 137.122 133.498  1.00  0.00     0.008 C 
ATOM      2  C   UNL     1     132.907 136.721 133.970  1.00  0.00    -0.007 C 
ATOM      3  C   UNL     1     133.925 137.833 133.633  1.00  0.00     0.004 C 
ATOM      4  C   UNL     1     133.861 138.984 134.637  1.00  0.00     0.004 C 
ATOM      5  C   UNL     1     134.319 138.519 136.032  1.00  0.00    -0.004 C 
ATOM      6  C   UNL     1     133.534 137.270 136.517  1.00  0.00     0.007 C 
ATOM      7  C   UNL     1     132.883 136.341 135.479  1.00  0.00    -0.013 C 
ATOM      8  C   UNL     1     134.219 135.957 136.113  1.00  0.00     0.025 C 
ATOM      9  C   UNL     1     133.904 134.775 136.965  1.00  0.00    -0.073 C 
ATOM     10  C   UNL     1     132.628 134.422 136.898  1.00  0.00    -0.027 C 
ATOM     11  C   UNL     1     131.856 135.311 135.989  1.00  0.00     0.035 C 
ATOM     12  C   UNL     1     134.914 134.071 137.814  1.00  0.00     0.039 C 
ENDROOT
BRANCH   5  13
ATOM     13  C   UNL     1     134.285 139.687 137.064  1.00  0.00    -0.014 C 
ATOM     14  C   UNL     1     135.077 139.404 138.354  1.00  0.00     0.007 C 
ATOM     15  C   UNL     1     134.755 141.006 136.431  1.00  0.00     0.007 C 
ENDBRANCH   5  13
TORSDOF 1
ENDMDL
MODEL 8
REMARK VINA RESULT:    -4.988      3.605      6.125
REMARK INTER + INTRA:          -5.495
REMARK INTER:                  -5.193
REMARK INTRA:                  -0.301
REMARK UNBOUND:                -0.215
REMARK SMILES CC1=CC[C@@]23[C@@H]([C@@H]12)[C@H](C(C)C)CC[C@@H]3C
REMARK SMILES IDX 15 1 14 2 13 3 12 4 8 5 6 6 5 7 7 8 2 9 3 10 4 11 1 12 9 13
REMARK SMILES IDX 10 14 11 15
REMARK H PARENT
REMARK Flexibility Score: inf
ROOT
ATOM      1  C   UNL     1     133.613 134.465 138.137  1.00  0.00     0.008 C 
ATOM      2  C   UNL     1     133.211 133.730 136.845  1.00  0.00    -0.007 C 
ATOM      3  C   UNL     1     131.911 134.331 136.266  1.00  0.00     0.004 C 
ATOM      4  C   UNL     1     132.176 135.630 135.505  1.00  0.00     0.004 C 
ATOM      5  C   UNL     1     133.016 135.363 134.242  1.00  0.00    -0.004 C 
ATOM      6  C   UNL     1     134.325 134.592 134.565  1.00  0.00     0.007 C 
ATOM      7  C   UNL     1     134.395 133.728 135.835  1.00  0.00    -0.013 C 
ATOM      8  C   UNL     1     134.142 133.070 134.480  1.00  0.00     0.025 C 
ATOM      9  C   UNL     1     135.379 132.285 134.207  1.00  0.00    -0.073 C 
ATOM     10  C   UNL     1     136.268 132.375 135.186  1.00  0.00    -0.027 C 
ATOM     11  C   UNL     1     135.785 133.245 136.292  1.00  0.00     0.035 C 
ATOM     12  C   UNL     1     135.600 131.491 132.959  1.00  0.00     0.039 C 
ENDROOT
BRANCH   5  13
ATOM     13  C   UNL     1     133.275 136.674 133.439  1.00  0.00    -0.014 C 
ATOM     14  C   UNL     1     132.427 137.871 133.908  1.00  0.00     0.007 C 
ATOM     15  C   UNL     1     134.766 137.046 133.440  1.00  0.00     0.007 C 
ENDBRANCH   5  13
TORSDOF 1
ENDMDL
MODEL 9
REMARK VINA RESULT:    -4.973      4.325      6.281
REMARK INTER + INTRA:          -5.479
REMARK INTER:                  -5.185
REMARK INTRA:                  -0.294
REMARK UNBOUND:                -0.215
REMARK SMILES CC1=CC[C@@]23[C@@H]([C@@H]12)[C@H](C(C)C)CC[C@@H]3C
REMARK SMILES IDX 15 1 14 2 13 3 12 4 8 5 6 6 5 7 7 8 2 9 3 10 4 11 1 12 9 13
REMARK SMILES IDX 10 14 11 15
REMARK H PARENT
REMARK Flexibility Score: inf
ROOT
ATOM      1  C   UNL     1     139.010 138.108 138.180  1.00  0.00     0.008 C 
ATOM      2  C   UNL     1     139.438 138.847 136.898  1.00  0.00    -0.007 C 
ATOM      3  C   UNL     1     140.736 138.230 136.330  1.00  0.00     0.004 C 
ATOM      4  C   UNL     1     140.460 136.941 135.555  1.00  0.00     0.004 C 
ATOM      5  C   UNL     1     139.638 137.231 134.285  1.00  0.00    -0.004 C 
ATOM      6  C   UNL     1     138.338 138.020 134.598  1.00  0.00     0.007 C 
ATOM      7  C   UNL     1     138.267 138.875 135.875  1.00  0.00    -0.013 C 
ATOM      8  C   UNL     1     138.546 139.539 134.528  1.00  0.00     0.025 C 
ATOM      9  C   UNL     1     137.324 140.347 134.247  1.00  0.00    -0.073 C 
ATOM     10  C   UNL     1     136.422 140.263 135.214  1.00  0.00    -0.027 C 
ATOM     11  C   UNL     1     136.879 139.377 136.319  1.00  0.00     0.035 C 
ATOM     12  C   UNL     1     137.131 141.154 133.003  1.00  0.00     0.039 C 
ENDROOT
BRANCH   5  13
ATOM     13  C   UNL     1     139.369 135.931 133.468  1.00  0.00    -0.014 C 
ATOM     14  C   UNL     1     140.297 134.758 133.837  1.00  0.00     0.007 C 
ATOM     15  C   UNL     1     137.898 135.498 133.575  1.00  0.00     0.007 C 
ENDBRANCH   5  13
TORSDOF 1
ENDMDL
