MODEL 1
REMARK VINA RESULT:     7.220      0.000      0.000
REMARK INTER + INTRA:           7.728
REMARK INTER:                   7.853
REMARK INTRA:                  -0.125
REMARK UNBOUND:                -0.125
REMARK SMILES Cc1ccc(C(C)C)cc1O
REMARK SMILES IDX 1 1 2 2 10 3 9 4 5 5 4 6 3 7 11 8 6 10 7 11 8 12
REMARK H PARENT 11 9
REMARK Flexibility Score: inf
ROOT
ATOM      1  C   UNL     1     -19.798  14.644 -24.997  1.00  0.00     0.048 C 
ATOM      2  C   UNL     1     -18.332  14.837 -24.729  1.00  0.00    -0.009 A 
ATOM      3  C   UNL     1     -17.627  13.910 -23.942  1.00  0.00     0.118 A 
ATOM      4  C   UNL     1     -16.259  14.096 -23.697  1.00  0.00     0.050 A 
ATOM      5  C   UNL     1     -15.579  15.203 -24.232  1.00  0.00    -0.042 A 
ATOM      6  C   UNL     1     -16.292  16.125 -25.019  1.00  0.00     0.004 A 
ATOM      7  C   UNL     1     -17.655  15.942 -25.265  1.00  0.00     0.007 A 
ENDROOT
BRANCH   3   8
ATOM      8  O   UNL     1     -18.290  12.806 -23.404  1.00  0.00    -0.508 OA
ATOM      9  H   UNL     1     -17.911  12.291 -22.617  1.00  0.00     0.293 HD
ENDBRANCH   3   8
BRANCH   5  10
ATOM     10  C   UNL     1     -14.097  15.389 -23.956  1.00  0.00     0.013 C 
ATOM     11  C   UNL     1     -13.869  16.117 -22.626  1.00  0.00     0.012 C 
ATOM     12  C   UNL     1     -13.409  16.123 -25.113  1.00  0.00     0.012 C 
ENDBRANCH   5  10
TORSDOF 2
ENDMDL
