MODEL 1
REMARK VINA RESULT:    -5.702      0.000      0.000
REMARK INTER + INTRA:          -6.579
REMARK INTER:                  -6.869
REMARK INTRA:                   0.290
REMARK UNBOUND:                 0.290
REMARK SMILES Oc1cc(O)c2cc(O)c(-c3ccc(O)c(O)c3)[o+]c2c1
REMARK SMILES IDX 10 1 19 2 20 3 21 4 2 5 3 6 4 7 6 8 7 9 8 10 11 11 12 12
REMARK SMILES IDX 13 13 14 14 18 15 16 16 15 17 17 19 9 21 1 23 5 25
REMARK H PARENT 15 18 17 20 9 22 1 24 5 26
REMARK Flexibility Score: inf
ROOT
ATOM      1  C   UNL     1      46.426  16.537  -4.244  1.00  0.00     0.402 A 
ATOM      2  O   UNL     1      45.550  16.112  -3.339  1.00  0.00    -0.202 OA
ATOM      3  C   UNL     1      44.337  16.638  -3.194  1.00  0.00     0.368 A 
ATOM      4  C   UNL     1      43.487  16.125  -2.211  1.00  0.00     0.162 A 
ATOM      5  C   UNL     1      42.210  16.660  -2.034  1.00  0.00     0.128 A 
ATOM      6  C   UNL     1      41.779  17.716  -2.844  1.00  0.00     0.093 A 
ATOM      7  C   UNL     1      42.612  18.249  -3.836  1.00  0.00     0.136 A 
ATOM      8  C   UNL     1      43.911  17.705  -4.021  1.00  0.00     0.125 A 
ATOM      9  C   UNL     1      44.809  18.166  -4.997  1.00  0.00     0.078 A 
ATOM     10  C   UNL     1      46.071  17.577  -5.123  1.00  0.00     0.223 A 
ENDROOT
BRANCH   1  11
ATOM     11  C   UNL     1      47.750  15.876  -4.301  1.00  0.00     0.087 A 
ATOM     12  C   UNL     1      48.858  16.501  -4.900  1.00  0.00     0.022 A 
ATOM     13  C   UNL     1      50.103  15.867  -4.921  1.00  0.00     0.051 A 
ATOM     14  C   UNL     1      50.262  14.607  -4.332  1.00  0.00     0.157 A 
ATOM     15  C   UNL     1      47.922  14.620  -3.694  1.00  0.00     0.068 A 
ATOM     16  C   UNL     1      49.171  13.984  -3.714  1.00  0.00     0.158 A 
BRANCH  14  17
ATOM     17  O   UNL     1      51.502  13.969  -4.352  1.00  0.00    -0.504 OA
ATOM     18  H   UNL     1      52.291  14.330  -3.826  1.00  0.00     0.293 HD
ENDBRANCH  14  17
BRANCH  16  19
ATOM     19  O   UNL     1      49.335  12.732  -3.123  1.00  0.00    -0.504 OA
ATOM     20  H   UNL     1      50.144  12.153  -3.320  1.00  0.00     0.293 HD
ENDBRANCH  16  19
ENDBRANCH   1  11
BRANCH  10  21
ATOM     21  O   UNL     1      46.943  18.000  -6.125  1.00  0.00    -0.500 OA
ATOM     22  H   UNL     1      46.705  17.921  -7.107  1.00  0.00     0.294 HD
ENDBRANCH  10  21
BRANCH   5  23
ATOM     23  O   UNL     1      41.376  16.135  -1.050  1.00  0.00    -0.507 OA
ATOM     24  H   UNL     1      40.974  16.721  -0.328  1.00  0.00     0.293 HD
ENDBRANCH   5  23
BRANCH   7  25
ATOM     25  O   UNL     1      42.110  19.304  -4.601  1.00  0.00    -0.507 OA
ATOM     26  H   UNL     1      42.193  19.372  -5.605  1.00  0.00     0.293 HD
ENDBRANCH   7  25
TORSDOF 6
ENDMDL
MODEL 2
REMARK VINA RESULT:    -5.647      1.386      7.180
REMARK INTER + INTRA:          -6.513
REMARK INTER:                  -6.438
REMARK INTRA:                  -0.075
REMARK UNBOUND:                 0.290
REMARK SMILES Oc1cc(O)c2cc(O)c(-c3ccc(O)c(O)c3)[o+]c2c1
REMARK SMILES IDX 10 1 19 2 20 3 21 4 2 5 3 6 4 7 6 8 7 9 8 10 11 11 12 12
REMARK SMILES IDX 13 13 14 14 18 15 16 16 15 17 17 19 9 21 1 23 5 25
REMARK H PARENT 15 18 17 20 9 22 1 24 5 26
REMARK Flexibility Score: inf
ROOT
ATOM      1  C   UNL     1      46.256  16.074  -3.860  1.00  0.00     0.402 A 
ATOM      2  O   UNL     1      47.466  16.475  -4.239  1.00  0.00    -0.202 OA
ATOM      3  C   UNL     1      48.532  15.679  -4.244  1.00  0.00     0.368 A 
ATOM      4  C   UNL     1      49.762  16.194  -4.658  1.00  0.00     0.162 A 
ATOM      5  C   UNL     1      50.898  15.382  -4.669  1.00  0.00     0.128 A 
ATOM      6  C   UNL     1      50.804  14.046  -4.262  1.00  0.00     0.093 A 
ATOM      7  C   UNL     1      49.581  13.507  -3.842  1.00  0.00     0.136 A 
ATOM      8  C   UNL     1      48.424  14.329  -3.833  1.00  0.00     0.125 A 
ATOM      9  C   UNL     1      47.155  13.871  -3.441  1.00  0.00     0.078 A 
ATOM     10  C   UNL     1      46.059  14.738  -3.461  1.00  0.00     0.223 A 
ENDROOT
BRANCH   1  11
ATOM     11  C   UNL     1      45.150  17.058  -3.890  1.00  0.00     0.087 A 
ATOM     12  C   UNL     1      44.816  17.751  -5.067  1.00  0.00     0.022 A 
ATOM     13  C   UNL     1      43.754  18.658  -5.077  1.00  0.00     0.051 A 
ATOM     14  C   UNL     1      43.002  18.876  -3.915  1.00  0.00     0.157 A 
ATOM     15  C   UNL     1      44.379  17.266  -2.734  1.00  0.00     0.068 A 
ATOM     16  C   UNL     1      43.313  18.177  -2.743  1.00  0.00     0.158 A 
BRANCH  14  17
ATOM     17  O   UNL     1      41.942  19.782  -3.919  1.00  0.00    -0.504 OA
ATOM     18  H   UNL     1      42.067  20.741  -4.224  1.00  0.00     0.293 HD
ENDBRANCH  14  17
BRANCH  16  19
ATOM     19  O   UNL     1      42.559  18.391  -1.590  1.00  0.00    -0.504 OA
ATOM     20  H   UNL     1      42.278  19.323  -1.306  1.00  0.00     0.293 HD
ENDBRANCH  16  19
ENDBRANCH   1  11
BRANCH  10  21
ATOM     21  O   UNL     1      44.790  14.271  -3.120  1.00  0.00    -0.500 OA
ATOM     22  H   UNL     1      44.345  13.518  -3.632  1.00  0.00     0.294 HD
ENDBRANCH  10  21
BRANCH   5  23
ATOM     23  O   UNL     1      52.117  15.913  -5.085  1.00  0.00    -0.507 OA
ATOM     24  H   UNL     1      52.670  15.467  -5.808  1.00  0.00     0.293 HD
ENDBRANCH   5  23
BRANCH   7  25
ATOM     25  O   UNL     1      49.570  12.166  -3.449  1.00  0.00    -0.507 OA
ATOM     26  H   UNL     1      49.058  11.437  -3.923  1.00  0.00     0.293 HD
ENDBRANCH   7  25
TORSDOF 6
ENDMDL
MODEL 3
REMARK VINA RESULT:    -5.638      1.359      6.777
REMARK INTER + INTRA:          -6.501
REMARK INTER:                  -6.193
REMARK INTRA:                  -0.309
REMARK UNBOUND:                 0.290
REMARK SMILES Oc1cc(O)c2cc(O)c(-c3ccc(O)c(O)c3)[o+]c2c1
REMARK SMILES IDX 10 1 19 2 20 3 21 4 2 5 3 6 4 7 6 8 7 9 8 10 11 11 12 12
REMARK SMILES IDX 13 13 14 14 18 15 16 16 15 17 17 19 9 21 1 23 5 25
REMARK H PARENT 15 18 17 20 9 22 1 24 5 26
REMARK Flexibility Score: inf
ROOT
ATOM      1  C   UNL     1      45.133  16.331  -3.800  1.00  0.00     0.402 A 
ATOM      2  O   UNL     1      45.963  15.354  -3.449  1.00  0.00    -0.202 OA
ATOM      3  C   UNL     1      47.218  15.271  -3.881  1.00  0.00     0.368 A 
ATOM      4  C   UNL     1      48.013  14.204  -3.457  1.00  0.00     0.162 A 
ATOM      5  C   UNL     1      49.333  14.089  -3.896  1.00  0.00     0.128 A 
ATOM      6  C   UNL     1      49.862  15.049  -4.767  1.00  0.00     0.093 A 
ATOM      7  C   UNL     1      49.085  16.128  -5.207  1.00  0.00     0.136 A 
ATOM      8  C   UNL     1      47.743  16.248  -4.759  1.00  0.00     0.125 A 
ATOM      9  C   UNL     1      46.896  17.302  -5.137  1.00  0.00     0.078 A 
ATOM     10  C   UNL     1      45.586  17.357  -4.651  1.00  0.00     0.223 A 
ENDROOT
BRANCH   1  11
ATOM     11  C   UNL     1      43.754  16.307  -3.260  1.00  0.00     0.087 A 
ATOM     12  C   UNL     1      42.774  15.447  -3.786  1.00  0.00     0.022 A 
ATOM     13  C   UNL     1      41.486  15.426  -3.245  1.00  0.00     0.051 A 
ATOM     14  C   UNL     1      41.163  16.254  -2.162  1.00  0.00     0.157 A 
ATOM     15  C   UNL     1      43.428  17.121  -2.161  1.00  0.00     0.068 A 
ATOM     16  C   UNL     1      42.136  17.100  -1.618  1.00  0.00     0.158 A 
BRANCH  14  17
ATOM     17  O   UNL     1      39.878  16.238  -1.620  1.00  0.00    -0.504 OA
ATOM     18  H   UNL     1      39.417  15.368  -1.378  1.00  0.00     0.293 HD
ENDBRANCH  14  17
BRANCH  16  19
ATOM     19  O   UNL     1      41.813  17.918  -0.536  1.00  0.00    -0.504 OA
ATOM     20  H   UNL     1      42.102  18.890  -0.501  1.00  0.00     0.293 HD
ENDBRANCH  16  19
ENDBRANCH   1  11
BRANCH  10  21
ATOM     21  O   UNL     1      44.759  18.429  -4.985  1.00  0.00    -0.500 OA
ATOM     22  H   UNL     1      43.945  18.310  -5.578  1.00  0.00     0.294 HD
ENDBRANCH  10  21
BRANCH   5  23
ATOM     23  O   UNL     1      50.111  13.019  -3.463  1.00  0.00    -0.507 OA
ATOM     24  H   UNL     1      50.824  13.135  -2.752  1.00  0.00     0.293 HD
ENDBRANCH   5  23
BRANCH   7  25
ATOM     25  O   UNL     1      49.685  17.041  -6.078  1.00  0.00    -0.507 OA
ATOM     26  H   UNL     1      49.201  17.805  -6.526  1.00  0.00     0.293 HD
ENDBRANCH   7  25
TORSDOF 6
ENDMDL
MODEL 4
REMARK VINA RESULT:    -5.545      2.149      6.879
REMARK INTER + INTRA:          -6.389
REMARK INTER:                  -6.276
REMARK INTRA:                  -0.113
REMARK UNBOUND:                 0.290
REMARK SMILES Oc1cc(O)c2cc(O)c(-c3ccc(O)c(O)c3)[o+]c2c1
REMARK SMILES IDX 10 1 19 2 20 3 21 4 2 5 3 6 4 7 6 8 7 9 8 10 11 11 12 12
REMARK SMILES IDX 13 13 14 14 18 15 16 16 15 17 17 19 9 21 1 23 5 25
REMARK H PARENT 15 18 17 20 9 22 1 24 5 26
REMARK Flexibility Score: inf
ROOT
ATOM      1  C   UNL     1      45.638  15.062  -3.376  1.00  0.00     0.402 A 
ATOM      2  O   UNL     1      46.249  14.419  -2.385  1.00  0.00    -0.202 OA
ATOM      3  C   UNL     1      47.186  13.496  -2.582  1.00  0.00     0.368 A 
ATOM      4  C   UNL     1      47.769  12.873  -1.476  1.00  0.00     0.162 A 
ATOM      5  C   UNL     1      48.752  11.898  -1.652  1.00  0.00     0.128 A 
ATOM      6  C   UNL     1      49.156  11.542  -2.944  1.00  0.00     0.093 A 
ATOM      7  C   UNL     1      48.587  12.152  -4.069  1.00  0.00     0.136 A 
ATOM      8  C   UNL     1      47.588  13.146  -3.893  1.00  0.00     0.125 A 
ATOM      9  C   UNL     1      46.972  13.818  -4.961  1.00  0.00     0.078 A 
ATOM     10  C   UNL     1      45.999  14.790  -4.709  1.00  0.00     0.223 A 
ENDROOT
BRANCH   1  11
ATOM     11  C   UNL     1      44.603  16.062  -3.028  1.00  0.00     0.087 A 
ATOM     12  C   UNL     1      44.703  17.399  -3.451  1.00  0.00     0.022 A 
ATOM     13  C   UNL     1      43.702  18.319  -3.129  1.00  0.00     0.051 A 
ATOM     14  C   UNL     1      42.580  17.914  -2.394  1.00  0.00     0.157 A 
ATOM     15  C   UNL     1      43.465  15.657  -2.309  1.00  0.00     0.068 A 
ATOM     16  C   UNL     1      42.460  16.580  -1.987  1.00  0.00     0.158 A 
BRANCH  14  17
ATOM     17  O   UNL     1      41.579  18.829  -2.070  1.00  0.00    -0.504 OA
ATOM     18  H   UNL     1      40.659  18.524  -1.774  1.00  0.00     0.293 HD
ENDBRANCH  14  17
BRANCH  16  19
ATOM     19  O   UNL     1      41.340  16.178  -1.261  1.00  0.00    -0.504 OA
ATOM     20  H   UNL     1      41.335  16.183  -0.247  1.00  0.00     0.293 HD
ENDBRANCH  16  19
ENDBRANCH   1  11
BRANCH  10  21
ATOM     21  O   UNL     1      45.423  15.494  -5.766  1.00  0.00    -0.500 OA
ATOM     22  H   UNL     1      45.974  16.091  -6.371  1.00  0.00     0.294 HD
ENDBRANCH  10  21
BRANCH   5  23
ATOM     23  O   UNL     1      49.323  11.289  -0.537  1.00  0.00    -0.507 OA
ATOM     24  H   UNL     1      48.774  11.068   0.285  1.00  0.00     0.293 HD
ENDBRANCH   5  23
BRANCH   7  25
ATOM     25  O   UNL     1      49.041  11.739  -5.324  1.00  0.00    -0.507 OA
ATOM     26  H   UNL     1      48.529  11.862  -6.186  1.00  0.00     0.293 HD
ENDBRANCH   7  25
TORSDOF 6
ENDMDL
MODEL 5
REMARK VINA RESULT:    -5.401      1.625      6.586
REMARK INTER + INTRA:          -6.216
REMARK INTER:                  -5.984
REMARK INTRA:                  -0.232
REMARK UNBOUND:                 0.290
REMARK SMILES Oc1cc(O)c2cc(O)c(-c3ccc(O)c(O)c3)[o+]c2c1
REMARK SMILES IDX 10 1 19 2 20 3 21 4 2 5 3 6 4 7 6 8 7 9 8 10 11 11 12 12
REMARK SMILES IDX 13 13 14 14 18 15 16 16 15 17 17 19 9 21 1 23 5 25
REMARK H PARENT 15 18 17 20 9 22 1 24 5 26
REMARK Flexibility Score: inf
ROOT
ATOM      1  C   UNL     1      46.050  16.173  -3.812  1.00  0.00     0.402 A 
ATOM      2  O   UNL     1      45.902  15.041  -3.130  1.00  0.00    -0.202 OA
ATOM      3  C   UNL     1      46.875  14.147  -2.979  1.00  0.00     0.368 A 
ATOM      4  C   UNL     1      46.622  12.985  -2.247  1.00  0.00     0.162 A 
ATOM      5  C   UNL     1      47.623  12.028  -2.075  1.00  0.00     0.128 A 
ATOM      6  C   UNL     1      48.887  12.232  -2.641  1.00  0.00     0.093 A 
ATOM      7  C   UNL     1      49.165  13.389  -3.380  1.00  0.00     0.136 A 
ATOM      8  C   UNL     1      48.150  14.366  -3.554  1.00  0.00     0.125 A 
ATOM      9  C   UNL     1      48.343  15.560  -4.267  1.00  0.00     0.078 A 
ATOM     10  C   UNL     1      47.296  16.478  -4.393  1.00  0.00     0.223 A 
ENDROOT
BRANCH   1  11
ATOM     11  C   UNL     1      44.888  17.084  -3.917  1.00  0.00     0.087 A 
ATOM     12  C   UNL     1      44.278  17.357  -5.155  1.00  0.00     0.022 A 
ATOM     13  C   UNL     1      43.169  18.203  -5.226  1.00  0.00     0.051 A 
ATOM     14  C   UNL     1      42.643  18.776  -4.061  1.00  0.00     0.157 A 
ATOM     15  C   UNL     1      44.343  17.647  -2.750  1.00  0.00     0.068 A 
ATOM     16  C   UNL     1      43.229  18.495  -2.821  1.00  0.00     0.158 A 
BRANCH  14  17
ATOM     17  O   UNL     1      41.536  19.621  -4.127  1.00  0.00    -0.504 OA
ATOM     18  H   UNL     1      40.592  19.266  -4.025  1.00  0.00     0.293 HD
ENDBRANCH  14  17
BRANCH  16  19
ATOM     19  O   UNL     1      42.699  19.062  -1.663  1.00  0.00    -0.504 OA
ATOM     20  H   UNL     1      41.750  18.868  -1.362  1.00  0.00     0.293 HD
ENDBRANCH  16  19
ENDBRANCH   1  11
BRANCH  10  21
ATOM     21  O   UNL     1      47.500  17.687  -5.058  1.00  0.00    -0.500 OA
ATOM     22  H   UNL     1      48.085  18.417  -4.667  1.00  0.00     0.294 HD
ENDBRANCH  10  21
BRANCH   5  23
ATOM     23  O   UNL     1      47.353  10.875  -1.341  1.00  0.00    -0.507 OA
ATOM     24  H   UNL     1      48.093  10.337  -0.907  1.00  0.00     0.293 HD
ENDBRANCH   5  23
BRANCH   7  25
ATOM     25  O   UNL     1      50.450  13.518  -3.915  1.00  0.00    -0.507 OA
ATOM     26  H   UNL     1      51.194  14.052  -3.491  1.00  0.00     0.293 HD
ENDBRANCH   7  25
TORSDOF 6
ENDMDL
MODEL 6
REMARK VINA RESULT:    -5.364      1.547      2.749
REMARK INTER + INTRA:          -6.171
REMARK INTER:                  -6.390
REMARK INTRA:                   0.219
REMARK UNBOUND:                 0.290
REMARK SMILES Oc1cc(O)c2cc(O)c(-c3ccc(O)c(O)c3)[o+]c2c1
REMARK SMILES IDX 10 1 19 2 20 3 21 4 2 5 3 6 4 7 6 8 7 9 8 10 11 11 12 12
REMARK SMILES IDX 13 13 14 14 18 15 16 16 15 17 17 19 9 21 1 23 5 25
REMARK H PARENT 15 18 17 20 9 22 1 24 5 26
REMARK Flexibility Score: inf
ROOT
ATOM      1  C   UNL     1      45.699  16.410  -3.618  1.00  0.00     0.402 A 
ATOM      2  O   UNL     1      45.128  17.599  -3.455  1.00  0.00    -0.202 OA
ATOM      3  C   UNL     1      43.946  17.768  -2.868  1.00  0.00     0.368 A 
ATOM      4  C   UNL     1      43.427  19.059  -2.745  1.00  0.00     0.162 A 
ATOM      5  C   UNL     1      42.188  19.265  -2.137  1.00  0.00     0.128 A 
ATOM      6  C   UNL     1      41.461  18.173  -1.648  1.00  0.00     0.093 A 
ATOM      7  C   UNL     1      41.960  16.870  -1.760  1.00  0.00     0.136 A 
ATOM      8  C   UNL     1      43.222  16.657  -2.375  1.00  0.00     0.125 A 
ATOM      9  C   UNL     1      43.806  15.388  -2.519  1.00  0.00     0.078 A 
ATOM     10  C   UNL     1      45.055  15.256  -3.133  1.00  0.00     0.223 A 
ENDROOT
BRANCH   1  11
ATOM     11  C   UNL     1      47.014  16.351  -4.297  1.00  0.00     0.087 A 
ATOM     12  C   UNL     1      47.350  17.250  -5.324  1.00  0.00     0.022 A 
ATOM     13  C   UNL     1      48.605  17.189  -5.935  1.00  0.00     0.051 A 
ATOM     14  C   UNL     1      49.547  16.241  -5.518  1.00  0.00     0.157 A 
ATOM     15  C   UNL     1      47.971  15.415  -3.869  1.00  0.00     0.068 A 
ATOM     16  C   UNL     1      49.231  15.354  -4.482  1.00  0.00     0.158 A 
BRANCH  14  17
ATOM     17  O   UNL     1      50.801  16.176  -6.125  1.00  0.00    -0.504 OA
ATOM     18  H   UNL     1      50.983  15.542  -6.895  1.00  0.00     0.293 HD
ENDBRANCH  14  17
BRANCH  16  19
ATOM     19  O   UNL     1      50.173  14.415  -4.065  1.00  0.00    -0.504 OA
ATOM     20  H   UNL     1      50.950  14.672  -3.466  1.00  0.00     0.293 HD
ENDBRANCH  16  19
ENDBRANCH   1  11
BRANCH  10  21
ATOM     21  O   UNL     1      45.658  14.003  -3.231  1.00  0.00    -0.500 OA
ATOM     22  H   UNL     1      46.476  13.849  -3.810  1.00  0.00     0.294 HD
ENDBRANCH  10  21
BRANCH   5  23
ATOM     23  O   UNL     1      41.686  20.560  -2.022  1.00  0.00    -0.507 OA
ATOM     24  H   UNL     1      41.194  21.007  -2.787  1.00  0.00     0.293 HD
ENDBRANCH   5  23
BRANCH   7  25
ATOM     25  O   UNL     1      41.174  15.833  -1.250  1.00  0.00    -0.507 OA
ATOM     26  H   UNL     1      40.172  15.772  -1.356  1.00  0.00     0.293 HD
ENDBRANCH   7  25
TORSDOF 6
ENDMDL
MODEL 7
REMARK VINA RESULT:    -5.352      1.647      3.717
REMARK INTER + INTRA:          -6.157
REMARK INTER:                  -6.236
REMARK INTRA:                   0.079
REMARK UNBOUND:                 0.290
REMARK SMILES Oc1cc(O)c2cc(O)c(-c3ccc(O)c(O)c3)[o+]c2c1
REMARK SMILES IDX 10 1 19 2 20 3 21 4 2 5 3 6 4 7 6 8 7 9 8 10 11 11 12 12
REMARK SMILES IDX 13 13 14 14 18 15 16 16 15 17 17 19 9 21 1 23 5 25
REMARK H PARENT 15 18 17 20 9 22 1 24 5 26
REMARK Flexibility Score: inf
ROOT
ATOM      1  C   UNL     1      48.291  15.163  -4.250  1.00  0.00     0.402 A 
ATOM      2  O   UNL     1      47.658  16.205  -4.781  1.00  0.00    -0.202 OA
ATOM      3  C   UNL     1      46.409  16.538  -4.469  1.00  0.00     0.368 A 
ATOM      4  C   UNL     1      45.829  17.651  -5.083  1.00  0.00     0.162 A 
ATOM      5  C   UNL     1      44.519  18.022  -4.776  1.00  0.00     0.128 A 
ATOM      6  C   UNL     1      43.782  17.275  -3.850  1.00  0.00     0.093 A 
ATOM      7  C   UNL     1      44.341  16.156  -3.221  1.00  0.00     0.136 A 
ATOM      8  C   UNL     1      45.675  15.778  -3.528  1.00  0.00     0.125 A 
ATOM      9  C   UNL     1      46.320  14.679  -2.937  1.00  0.00     0.078 A 
ATOM     10  C   UNL     1      47.638  14.370  -3.287  1.00  0.00     0.223 A 
ENDROOT
BRANCH   1  11
ATOM     11  C   UNL     1      49.679  14.888  -4.687  1.00  0.00     0.087 A 
ATOM     12  C   UNL     1      50.144  13.574  -4.869  1.00  0.00     0.022 A 
ATOM     13  C   UNL     1      51.451  13.341  -5.304  1.00  0.00     0.051 A 
ATOM     14  C   UNL     1      52.306  14.416  -5.577  1.00  0.00     0.157 A 
ATOM     15  C   UNL     1      50.535  15.963  -4.983  1.00  0.00     0.068 A 
ATOM     16  C   UNL     1      51.847  15.729  -5.420  1.00  0.00     0.158 A 
BRANCH  14  17
ATOM     17  O   UNL     1      53.612  14.188  -6.011  1.00  0.00    -0.504 OA
ATOM     18  H   UNL     1      53.894  14.380  -6.965  1.00  0.00     0.293 HD
ENDBRANCH  14  17
BRANCH  16  19
ATOM     19  O   UNL     1      52.698  16.797  -5.698  1.00  0.00    -0.504 OA
ATOM     20  H   UNL     1      52.451  17.510  -6.376  1.00  0.00     0.293 HD
ENDBRANCH  16  19
ENDBRANCH   1  11
BRANCH  10  21
ATOM     21  O   UNL     1      48.297  13.310  -2.664  1.00  0.00    -0.500 OA
ATOM     22  H   UNL     1      49.049  13.466  -2.003  1.00  0.00     0.294 HD
ENDBRANCH  10  21
BRANCH   5  23
ATOM     23  O   UNL     1      43.957  19.134  -5.399  1.00  0.00    -0.507 OA
ATOM     24  H   UNL     1      43.377  19.790  -4.889  1.00  0.00     0.293 HD
ENDBRANCH   5  23
BRANCH   7  25
ATOM     25  O   UNL     1      43.540  15.462  -2.310  1.00  0.00    -0.507 OA
ATOM     26  H   UNL     1      43.137  14.552  -2.482  1.00  0.00     0.293 HD
ENDBRANCH   7  25
TORSDOF 6
ENDMDL
MODEL 8
REMARK VINA RESULT:    -5.264      1.791      3.006
REMARK INTER + INTRA:          -6.051
REMARK INTER:                  -6.119
REMARK INTRA:                   0.068
REMARK UNBOUND:                 0.290
REMARK SMILES Oc1cc(O)c2cc(O)c(-c3ccc(O)c(O)c3)[o+]c2c1
REMARK SMILES IDX 10 1 19 2 20 3 21 4 2 5 3 6 4 7 6 8 7 9 8 10 11 11 12 12
REMARK SMILES IDX 13 13 14 14 18 15 16 16 15 17 17 19 9 21 1 23 5 25
REMARK H PARENT 15 18 17 20 9 22 1 24 5 26
REMARK Flexibility Score: inf
ROOT
ATOM      1  C   UNL     1      44.795  15.866  -2.974  1.00  0.00     0.402 A 
ATOM      2  O   UNL     1      44.680  17.189  -2.903  1.00  0.00    -0.202 OA
ATOM      3  C   UNL     1      43.522  17.811  -2.699  1.00  0.00     0.368 A 
ATOM      4  C   UNL     1      43.501  19.206  -2.642  1.00  0.00     0.162 A 
ATOM      5  C   UNL     1      42.300  19.886  -2.433  1.00  0.00     0.128 A 
ATOM      6  C   UNL     1      41.110  19.165  -2.280  1.00  0.00     0.093 A 
ATOM      7  C   UNL     1      41.105  17.766  -2.333  1.00  0.00     0.136 A 
ATOM      8  C   UNL     1      42.325  17.072  -2.543  1.00  0.00     0.125 A 
ATOM      9  C   UNL     1      42.417  15.672  -2.598  1.00  0.00     0.078 A 
ATOM     10  C   UNL     1      43.656  15.057  -2.804  1.00  0.00     0.223 A 
ENDROOT
BRANCH   1  11
ATOM     11  C   UNL     1      46.139  15.292  -3.215  1.00  0.00     0.087 A 
ATOM     12  C   UNL     1      47.004  15.830  -4.185  1.00  0.00     0.022 A 
ATOM     13  C   UNL     1      48.275  15.285  -4.379  1.00  0.00     0.051 A 
ATOM     14  C   UNL     1      48.707  14.206  -3.598  1.00  0.00     0.157 A 
ATOM     15  C   UNL     1      46.586  14.222  -2.421  1.00  0.00     0.068 A 
ATOM     16  C   UNL     1      47.862  13.675  -2.616  1.00  0.00     0.158 A 
BRANCH  14  17
ATOM     17  O   UNL     1      49.975  13.658  -3.789  1.00  0.00    -0.504 OA
ATOM     18  H   UNL     1      50.111  12.658  -3.879  1.00  0.00     0.293 HD
ENDBRANCH  14  17
BRANCH  16  19
ATOM     19  O   UNL     1      48.297  12.604  -1.836  1.00  0.00    -0.504 OA
ATOM     20  H   UNL     1      47.644  11.939  -1.437  1.00  0.00     0.293 HD
ENDBRANCH  16  19
ENDBRANCH   1  11
BRANCH  10  21
ATOM     21  O   UNL     1      43.755  13.666  -2.808  1.00  0.00    -0.500 OA
ATOM     22  H   UNL     1      44.651  13.197  -2.741  1.00  0.00     0.294 HD
ENDBRANCH  10  21
BRANCH   5  23
ATOM     23  O   UNL     1      42.299  21.278  -2.379  1.00  0.00    -0.507 OA
ATOM     24  H   UNL     1      43.033  21.790  -1.904  1.00  0.00     0.293 HD
ENDBRANCH   5  23
BRANCH   7  25
ATOM     25  O   UNL     1      39.875  17.121  -2.175  1.00  0.00    -0.507 OA
ATOM     26  H   UNL     1      39.525  16.768  -1.296  1.00  0.00     0.293 HD
ENDBRANCH   7  25
TORSDOF 6
ENDMDL
MODEL 9
REMARK VINA RESULT:    -5.175      2.553      3.585
REMARK INTER + INTRA:          -5.943
REMARK INTER:                  -5.661
REMARK INTRA:                  -0.283
REMARK UNBOUND:                 0.290
REMARK SMILES Oc1cc(O)c2cc(O)c(-c3ccc(O)c(O)c3)[o+]c2c1
REMARK SMILES IDX 10 1 19 2 20 3 21 4 2 5 3 6 4 7 6 8 7 9 8 10 11 11 12 12
REMARK SMILES IDX 13 13 14 14 18 15 16 16 15 17 17 19 9 21 1 23 5 25
REMARK H PARENT 15 18 17 20 9 22 1 24 5 26
REMARK Flexibility Score: inf
ROOT
ATOM      1  C   UNL     1      44.026  16.503  -3.037  1.00  0.00     0.402 A 
ATOM      2  O   UNL     1      43.197  16.903  -2.077  1.00  0.00    -0.202 OA
ATOM      3  C   UNL     1      42.649  18.115  -2.043  1.00  0.00     0.368 A 
ATOM      4  C   UNL     1      41.792  18.443  -0.991  1.00  0.00     0.162 A 
ATOM      5  C   UNL     1      41.205  19.708  -0.928  1.00  0.00     0.128 A 
ATOM      6  C   UNL     1      41.479  20.653  -1.924  1.00  0.00     0.093 A 
ATOM      7  C   UNL     1      42.335  20.348  -2.989  1.00  0.00     0.136 A 
ATOM      8  C   UNL     1      42.931  19.061  -3.057  1.00  0.00     0.125 A 
ATOM      9  C   UNL     1      43.791  18.663  -4.094  1.00  0.00     0.078 A 
ATOM     10  C   UNL     1      44.337  17.376  -4.096  1.00  0.00     0.223 A 
ENDROOT
BRANCH   1  11
ATOM     11  C   UNL     1      44.579  15.132  -2.958  1.00  0.00     0.087 A 
ATOM     12  C   UNL     1      43.798  14.006  -3.271  1.00  0.00     0.022 A 
ATOM     13  C   UNL     1      44.349  12.723  -3.211  1.00  0.00     0.051 A 
ATOM     14  C   UNL     1      45.691  12.549  -2.851  1.00  0.00     0.157 A 
ATOM     15  C   UNL     1      45.931  14.951  -2.617  1.00  0.00     0.068 A 
ATOM     16  C   UNL     1      46.484  13.664  -2.556  1.00  0.00     0.158 A 
BRANCH  14  17
ATOM     17  O   UNL     1      46.245  11.271  -2.787  1.00  0.00    -0.504 OA
ATOM     18  H   UNL     1      47.116  11.095  -2.300  1.00  0.00     0.293 HD
ENDBRANCH  14  17
BRANCH  16  19
ATOM     19  O   UNL     1      47.822  13.488  -2.204  1.00  0.00    -0.504 OA
ATOM     20  H   UNL     1      48.465  14.270  -2.152  1.00  0.00     0.293 HD
ENDBRANCH  16  19
ENDBRANCH   1  11
BRANCH  10  21
ATOM     21  O   UNL     1      45.151  16.963  -5.151  1.00  0.00    -0.500 OA
ATOM     22  H   UNL     1      44.975  16.101  -5.653  1.00  0.00     0.294 HD
ENDBRANCH  10  21
BRANCH   5  23
ATOM     23  O   UNL     1      40.352  20.018   0.129  1.00  0.00    -0.507 OA
ATOM     24  H   UNL     1      39.734  20.820   0.094  1.00  0.00     0.293 HD
ENDBRANCH   5  23
BRANCH   7  25
ATOM     25  O   UNL     1      42.560  21.346  -3.941  1.00  0.00    -0.507 OA
ATOM     26  H   UNL     1      43.197  22.120  -3.817  1.00  0.00     0.293 HD
ENDBRANCH   7  25
TORSDOF 6
ENDMDL
