MODEL 1
REMARK VINA RESULT:    -3.344      0.000      0.000
REMARK INTER + INTRA:          -6.314
REMARK INTER:                  -5.103
REMARK INTRA:                  -1.211
REMARK UNBOUND:                -1.211
REMARK SMILES CCCCCCCCCC=CC(=O)[O-]
REMARK SMILES IDX 7 1 8 2 9 3 10 4 11 5 12 6 13 7 14 8 6 9 5 10 4 11 3 12 2 13
REMARK SMILES IDX 1 14
REMARK H PARENT
REMARK Flexibility Score: inf
ROOT
ATOM      1  C   UNL     1       6.356   0.115  45.802  1.00  0.00     0.000 C 
ENDROOT
BRANCH   1   2
ATOM      2  C   UNL     1       7.806  -0.108  46.260  1.00  0.00     0.004 C 
BRANCH   2   3
ATOM      3  C   UNL     1       8.833   0.494  45.290  1.00  0.00     0.027 C 
BRANCH   3   4
ATOM      4  C   UNL     1      10.237   0.241  45.761  1.00  0.00    -0.025 C 
ATOM      5  C   UNL     1      11.151  -0.322  44.962  1.00  0.00     0.020 C 
BRANCH   5   6
ATOM      6  C   UNL     1      12.535  -0.568  45.397  1.00  0.00     0.064 C 
ATOM      7  O   UNL     1      13.102   0.192  46.226  1.00  0.00    -0.545 OA
ATOM      8  O   UNL     1      13.226  -1.659  44.887  1.00  0.00    -0.545 OA
ENDBRANCH   5   6
ENDBRANCH   3   4
ENDBRANCH   2   3
ENDBRANCH   1   2
BRANCH   1   9
ATOM      9  C   UNL     1       6.272   0.765  44.409  1.00  0.00     0.000 C 
BRANCH   9  10
ATOM     10  C   UNL     1       5.190   1.855  44.333  1.00  0.00     0.000 C 
BRANCH  10  11
ATOM     11  C   UNL     1       5.606   3.151  45.051  1.00  0.00    -0.000 C 
BRANCH  11  12
ATOM     12  C   UNL     1       6.896   3.766  44.477  1.00  0.00    -0.000 C 
BRANCH  12  13
ATOM     13  C   UNL     1       8.022   3.987  45.503  1.00  0.00    -0.003 C 
ATOM     14  C   UNL     1       7.613   3.621  46.929  1.00  0.00     0.004 C 
ENDBRANCH  12  13
ENDBRANCH  11  12
ENDBRANCH  10  11
ENDBRANCH   9  10
ENDBRANCH   1   9
TORSDOF 9
ENDMDL
MODEL 2
REMARK VINA RESULT:    -3.286     11.002     13.072
REMARK INTER + INTRA:          -6.225
REMARK INTER:                  -4.709
REMARK INTRA:                  -1.516
REMARK UNBOUND:                -1.211
REMARK SMILES CCCCCCCCCC=CC(=O)[O-]
REMARK SMILES IDX 7 1 8 2 9 3 10 4 11 5 12 6 13 7 14 8 6 9 5 10 4 11 3 12 2 13
REMARK SMILES IDX 1 14
REMARK H PARENT
REMARK Flexibility Score: inf
ROOT
ATOM      1  C   UNL     1      16.830   0.004  33.263  1.00  0.00     0.000 C 
ENDROOT
BRANCH   1   2
ATOM      2  C   UNL     1      16.953   1.527  33.428  1.00  0.00     0.004 C 
BRANCH   2   3
ATOM      3  C   UNL     1      17.968   1.927  34.510  1.00  0.00     0.027 C 
BRANCH   3   4
ATOM      4  C   UNL     1      17.362   2.886  35.495  1.00  0.00    -0.025 C 
ATOM      5  C   UNL     1      16.150   3.419  35.296  1.00  0.00     0.020 C 
BRANCH   5   6
ATOM      6  C   UNL     1      15.532   4.349  36.253  1.00  0.00     0.064 C 
ATOM      7  O   UNL     1      15.679   4.200  37.495  1.00  0.00    -0.545 OA
ATOM      8  O   UNL     1      14.774   5.412  35.778  1.00  0.00    -0.545 OA
ENDBRANCH   5   6
ENDBRANCH   3   4
ENDBRANCH   2   3
ENDBRANCH   1   2
BRANCH   1   9
ATOM      9  C   UNL     1      15.366  -0.470  33.248  1.00  0.00     0.000 C 
BRANCH   9  10
ATOM     10  C   UNL     1      14.571   0.037  34.463  1.00  0.00     0.000 C 
BRANCH  10  11
ATOM     11  C   UNL     1      15.230  -0.344  35.800  1.00  0.00    -0.000 C 
BRANCH  11  12
ATOM     12  C   UNL     1      14.733   0.513  36.979  1.00  0.00    -0.000 C 
BRANCH  12  13
ATOM     13  C   UNL     1      15.741   0.680  38.130  1.00  0.00    -0.003 C 
ATOM     14  C   UNL     1      17.072  -0.025  37.867  1.00  0.00     0.004 C 
ENDBRANCH  12  13
ENDBRANCH  11  12
ENDBRANCH  10  11
ENDBRANCH   9  10
ENDBRANCH   1   9
TORSDOF 9
ENDMDL
MODEL 3
REMARK VINA RESULT:    -3.278      3.951      7.428
REMARK INTER + INTRA:          -6.213
REMARK INTER:                  -5.816
REMARK INTRA:                  -0.397
REMARK UNBOUND:                -1.211
REMARK SMILES CCCCCCCCCC=CC(=O)[O-]
REMARK SMILES IDX 7 1 8 2 9 3 10 4 11 5 12 6 13 7 14 8 6 9 5 10 4 11 3 12 2 13
REMARK SMILES IDX 1 14
REMARK H PARENT
REMARK Flexibility Score: inf
ROOT
ATOM      1  C   UNL     1      12.098  -0.036  45.405  1.00  0.00     0.000 C 
ENDROOT
BRANCH   1   2
ATOM      2  C   UNL     1      10.608  -0.403  45.329  1.00  0.00     0.004 C 
BRANCH   2   3
ATOM      3  C   UNL     1       9.698   0.682  45.926  1.00  0.00     0.027 C 
BRANCH   3   4
ATOM      4  C   UNL     1       8.371   0.723  45.224  1.00  0.00    -0.025 C 
ATOM      5  C   UNL     1       7.680   1.862  45.102  1.00  0.00     0.020 C 
BRANCH   5   6
ATOM      6  C   UNL     1       6.385   1.929  44.407  1.00  0.00     0.064 C 
ATOM      7  O   UNL     1       5.581   0.961  44.434  1.00  0.00    -0.545 OA
ATOM      8  O   UNL     1       6.043   3.081  43.711  1.00  0.00    -0.545 OA
ENDBRANCH   5   6
ENDBRANCH   3   4
ENDBRANCH   2   3
ENDBRANCH   1   2
BRANCH   1   9
ATOM      9  C   UNL     1      12.935  -0.747  44.326  1.00  0.00     0.000 C 
BRANCH   9  10
ATOM     10  C   UNL     1      14.447  -0.584  44.552  1.00  0.00     0.000 C 
BRANCH  10  11
ATOM     11  C   UNL     1      14.786   0.649  45.408  1.00  0.00    -0.000 C 
BRANCH  11  12
ATOM     12  C   UNL     1      16.099   1.331  44.984  1.00  0.00    -0.000 C 
BRANCH  12  13
ATOM     13  C   UNL     1      16.405   1.269  43.476  1.00  0.00    -0.003 C 
ATOM     14  C   UNL     1      17.896   1.135  43.173  1.00  0.00     0.004 C 
ENDBRANCH  12  13
ENDBRANCH  11  12
ENDBRANCH  10  11
ENDBRANCH   9  10
ENDBRANCH   1   9
TORSDOF 9
ENDMDL
MODEL 4
REMARK VINA RESULT:    -3.192     10.229     11.916
REMARK INTER + INTRA:          -6.082
REMARK INTER:                  -4.799
REMARK INTRA:                  -1.283
REMARK UNBOUND:                -1.211
REMARK SMILES CCCCCCCCCC=CC(=O)[O-]
REMARK SMILES IDX 7 1 8 2 9 3 10 4 11 5 12 6 13 7 14 8 6 9 5 10 4 11 3 12 2 13
REMARK SMILES IDX 1 14
REMARK H PARENT
REMARK Flexibility Score: inf
ROOT
ATOM      1  C   UNL     1      15.014   3.038  39.153  1.00  0.00     0.000 C 
ENDROOT
BRANCH   1   2
ATOM      2  C   UNL     1      14.395   2.084  38.120  1.00  0.00     0.004 C 
BRANCH   2   3
ATOM      3  C   UNL     1      15.168   0.762  37.995  1.00  0.00     0.027 C 
BRANCH   3   4
ATOM      4  C   UNL     1      15.609   0.524  36.579  1.00  0.00    -0.025 C 
ATOM      5  C   UNL     1      14.750   0.112  35.640  1.00  0.00     0.020 C 
BRANCH   5   6
ATOM      6  C   UNL     1      15.157  -0.115  34.244  1.00  0.00     0.064 C 
ATOM      7  O   UNL     1      14.301  -0.249  33.330  1.00  0.00    -0.545 OA
ATOM      8  O   UNL     1      16.508  -0.180  33.930  1.00  0.00    -0.545 OA
ENDBRANCH   5   6
ENDBRANCH   3   4
ENDBRANCH   2   3
ENDBRANCH   1   2
BRANCH   1   9
ATOM      9  C   UNL     1      16.516   2.779  39.368  1.00  0.00     0.000 C 
BRANCH   9  10
ATOM     10  C   UNL     1      17.367   4.042  39.154  1.00  0.00     0.000 C 
BRANCH  10  11
ATOM     11  C   UNL     1      16.927   4.848  37.919  1.00  0.00    -0.000 C 
BRANCH  11  12
ATOM     12  C   UNL     1      17.185   4.103  36.596  1.00  0.00    -0.000 C 
BRANCH  12  13
ATOM     13  C   UNL     1      16.053   4.211  35.559  1.00  0.00    -0.003 C 
ATOM     14  C   UNL     1      15.015   5.274  35.914  1.00  0.00     0.004 C 
ENDBRANCH  12  13
ENDBRANCH  11  12
ENDBRANCH  10  11
ENDBRANCH   9  10
ENDBRANCH   1   9
TORSDOF 9
ENDMDL
MODEL 5
REMARK VINA RESULT:    -3.163      8.598     10.787
REMARK INTER + INTRA:          -6.037
REMARK INTER:                  -4.526
REMARK INTRA:                  -1.511
REMARK UNBOUND:                -1.211
REMARK SMILES CCCCCCCCCC=CC(=O)[O-]
REMARK SMILES IDX 7 1 8 2 9 3 10 4 11 5 12 6 13 7 14 8 6 9 5 10 4 11 3 12 2 13
REMARK SMILES IDX 1 14
REMARK H PARENT
REMARK Flexibility Score: inf
ROOT
ATOM      1  C   UNL     1      17.213   2.294  45.651  1.00  0.00     0.000 C 
ENDROOT
BRANCH   1   2
ATOM      2  C   UNL     1      16.251   2.437  44.461  1.00  0.00     0.004 C 
BRANCH   2   3
ATOM      3  C   UNL     1      16.515   3.705  43.634  1.00  0.00     0.027 C 
BRANCH   3   4
ATOM      4  C   UNL     1      16.617   3.385  42.169  1.00  0.00    -0.025 C 
ATOM      5  C   UNL     1      16.617   2.122  41.728  1.00  0.00     0.020 C 
BRANCH   5   6
ATOM      6  C   UNL     1      16.701   1.786  40.298  1.00  0.00     0.064 C 
ATOM      7  O   UNL     1      15.814   2.161  39.487  1.00  0.00    -0.545 OA
ATOM      8  O   UNL     1      17.781   1.046  39.835  1.00  0.00    -0.545 OA
ENDBRANCH   5   6
ENDBRANCH   3   4
ENDBRANCH   2   3
ENDBRANCH   1   2
BRANCH   1   9
ATOM      9  C   UNL     1      18.540   3.041  45.427  1.00  0.00     0.000 C 
BRANCH   9  10
ATOM     10  C   UNL     1      19.679   2.101  44.997  1.00  0.00     0.000 C 
BRANCH  10  11
ATOM     11  C   UNL     1      19.993   2.205  43.494  1.00  0.00    -0.000 C 
BRANCH  11  12
ATOM     12  C   UNL     1      19.933   0.845  42.775  1.00  0.00    -0.000 C 
BRANCH  12  13
ATOM     13  C   UNL     1      19.022  -0.202  43.441  1.00  0.00    -0.003 C 
ATOM     14  C   UNL     1      19.784  -1.434  43.929  1.00  0.00     0.004 C 
ENDBRANCH  12  13
ENDBRANCH  11  12
ENDBRANCH  10  11
ENDBRANCH   9  10
ENDBRANCH   1   9
TORSDOF 9
ENDMDL
MODEL 6
REMARK VINA RESULT:    -3.148     10.385     12.534
REMARK INTER + INTRA:          -6.015
REMARK INTER:                  -4.453
REMARK INTRA:                  -1.563
REMARK UNBOUND:                -1.211
REMARK SMILES CCCCCCCCCC=CC(=O)[O-]
REMARK SMILES IDX 7 1 8 2 9 3 10 4 11 5 12 6 13 7 14 8 6 9 5 10 4 11 3 12 2 13
REMARK SMILES IDX 1 14
REMARK H PARENT
REMARK Flexibility Score: inf
ROOT
ATOM      1  C   UNL     1      15.510   4.364  36.675  1.00  0.00     0.000 C 
ENDROOT
BRANCH   1   2
ATOM      2  C   UNL     1      16.083   3.911  35.323  1.00  0.00     0.004 C 
BRANCH   2   3
ATOM      3  C   UNL     1      17.285   2.966  35.475  1.00  0.00     0.027 C 
BRANCH   3   4
ATOM      4  C   UNL     1      16.962   1.591  34.964  1.00  0.00    -0.025 C 
ATOM      5  C   UNL     1      15.957   1.383  34.105  1.00  0.00     0.020 C 
BRANCH   5   6
ATOM      6  C   UNL     1      15.632   0.047  33.581  1.00  0.00     0.064 C 
ATOM      7  O   UNL     1      16.537  -0.783  33.306  1.00  0.00    -0.545 OA
ATOM      8  O   UNL     1      14.302  -0.304  33.389  1.00  0.00    -0.545 OA
ENDBRANCH   5   6
ENDBRANCH   3   4
ENDBRANCH   2   3
ENDBRANCH   1   2
BRANCH   1   9
ATOM      9  C   UNL     1      16.591   4.472  37.765  1.00  0.00     0.000 C 
BRANCH   9  10
ATOM     10  C   UNL     1      16.250   3.644  39.016  1.00  0.00     0.000 C 
BRANCH  10  11
ATOM     11  C   UNL     1      17.138   2.394  39.155  1.00  0.00    -0.000 C 
BRANCH  11  12
ATOM     12  C   UNL     1      16.435   1.106  38.690  1.00  0.00    -0.000 C 
BRANCH  12  13
ATOM     13  C   UNL     1      14.897   1.170  38.687  1.00  0.00    -0.003 C 
ATOM     14  C   UNL     1      14.281   0.677  37.378  1.00  0.00     0.004 C 
ENDBRANCH  12  13
ENDBRANCH  11  12
ENDBRANCH  10  11
ENDBRANCH   9  10
ENDBRANCH   1   9
TORSDOF 9
ENDMDL
MODEL 7
REMARK VINA RESULT:    -3.134      9.362     11.457
REMARK INTER + INTRA:          -5.993
REMARK INTER:                  -4.665
REMARK INTRA:                  -1.328
REMARK UNBOUND:                -1.211
REMARK SMILES CCCCCCCCCC=CC(=O)[O-]
REMARK SMILES IDX 7 1 8 2 9 3 10 4 11 5 12 6 13 7 14 8 6 9 5 10 4 11 3 12 2 13
REMARK SMILES IDX 1 14
REMARK H PARENT
REMARK Flexibility Score: inf
ROOT
ATOM      1  C   UNL     1      17.381   2.038  43.424  1.00  0.00     0.000 C 
ENDROOT
BRANCH   1   2
ATOM      2  C   UNL     1      16.663   1.819  42.083  1.00  0.00     0.004 C 
BRANCH   2   3
ATOM      3  C   UNL     1      16.826   3.006  41.122  1.00  0.00     0.027 C 
BRANCH   3   4
ATOM      4  C   UNL     1      15.994   2.820  39.885  1.00  0.00    -0.025 C 
ATOM      5  C   UNL     1      15.739   1.603  39.391  1.00  0.00     0.020 C 
BRANCH   5   6
ATOM      6  C   UNL     1      14.917   1.396  38.189  1.00  0.00     0.064 C 
ATOM      7  O   UNL     1      15.219   1.935  37.092  1.00  0.00    -0.545 OA
ATOM      8  O   UNL     1      13.789   0.589  38.265  1.00  0.00    -0.545 OA
ENDBRANCH   5   6
ENDBRANCH   3   4
ENDBRANCH   2   3
ENDBRANCH   1   2
BRANCH   1   9
ATOM      9  C   UNL     1      18.593   1.105  43.602  1.00  0.00     0.000 C 
BRANCH   9  10
ATOM     10  C   UNL     1      19.932   1.847  43.458  1.00  0.00     0.000 C 
BRANCH  10  11
ATOM     11  C   UNL     1      20.512   1.747  42.036  1.00  0.00    -0.000 C 
BRANCH  11  12
ATOM     12  C   UNL     1      20.089   0.460  41.306  1.00  0.00    -0.000 C 
BRANCH  12  13
ATOM     13  C   UNL     1      19.666   0.655  39.839  1.00  0.00    -0.003 C 
ATOM     14  C   UNL     1      19.868   2.086  39.343  1.00  0.00     0.004 C 
ENDBRANCH  12  13
ENDBRANCH  11  12
ENDBRANCH  10  11
ENDBRANCH   9  10
ENDBRANCH   1   9
TORSDOF 9
ENDMDL
MODEL 8
REMARK VINA RESULT:    -3.116     10.315     12.186
REMARK INTER + INTRA:          -5.967
REMARK INTER:                  -4.390
REMARK INTRA:                  -1.577
REMARK UNBOUND:                -1.211
REMARK SMILES CCCCCCCCCC=CC(=O)[O-]
REMARK SMILES IDX 7 1 8 2 9 3 10 4 11 5 12 6 13 7 14 8 6 9 5 10 4 11 3 12 2 13
REMARK SMILES IDX 1 14
REMARK H PARENT
REMARK Flexibility Score: inf
ROOT
ATOM      1  C   UNL     1      15.139   3.105  37.380  1.00  0.00     0.000 C 
ENDROOT
BRANCH   1   2
ATOM      2  C   UNL     1      14.327   2.118  38.233  1.00  0.00     0.004 C 
BRANCH   2   3
ATOM      3  C   UNL     1      14.390   0.679  37.698  1.00  0.00     0.027 C 
BRANCH   3   4
ATOM      4  C   UNL     1      14.693   0.661  36.227  1.00  0.00    -0.025 C 
ATOM      5  C   UNL     1      15.342  -0.363  35.660  1.00  0.00     0.020 C 
BRANCH   5   6
ATOM      6  C   UNL     1      15.639  -0.408  34.219  1.00  0.00     0.064 C 
ATOM      7  O   UNL     1      14.718  -0.347  33.363  1.00  0.00    -0.545 OA
ATOM      8  O   UNL     1      16.957  -0.519  33.798  1.00  0.00    -0.545 OA
ENDBRANCH   5   6
ENDBRANCH   3   4
ENDBRANCH   2   3
ENDBRANCH   1   2
BRANCH   1   9
ATOM      9  C   UNL     1      16.220   3.836  38.196  1.00  0.00     0.000 C 
BRANCH   9  10
ATOM     10  C   UNL     1      16.634   3.057  39.456  1.00  0.00     0.000 C 
BRANCH  10  11
ATOM     11  C   UNL     1      17.990   2.348  39.292  1.00  0.00    -0.000 C 
BRANCH  11  12
ATOM     12  C   UNL     1      17.847   0.857  38.936  1.00  0.00    -0.000 C 
BRANCH  12  13
ATOM     13  C   UNL     1      18.588   0.421  37.659  1.00  0.00    -0.003 C 
ATOM     14  C   UNL     1      18.397   1.392  36.495  1.00  0.00     0.004 C 
ENDBRANCH  12  13
ENDBRANCH  11  12
ENDBRANCH  10  11
ENDBRANCH   9  10
ENDBRANCH   1   9
TORSDOF 9
ENDMDL
MODEL 9
REMARK VINA RESULT:    -3.108      8.641     10.898
REMARK INTER + INTRA:          -5.953
REMARK INTER:                  -4.654
REMARK INTRA:                  -1.300
REMARK UNBOUND:                -1.211
REMARK SMILES CCCCCCCCCC=CC(=O)[O-]
REMARK SMILES IDX 7 1 8 2 9 3 10 4 11 5 12 6 13 7 14 8 6 9 5 10 4 11 3 12 2 13
REMARK SMILES IDX 1 14
REMARK H PARENT
REMARK Flexibility Score: inf
ROOT
ATOM      1  C   UNL     1      19.372   2.172  41.031  1.00  0.00     0.000 C 
ENDROOT
BRANCH   1   2
ATOM      2  C   UNL     1      18.599   3.494  41.153  1.00  0.00     0.004 C 
BRANCH   2   3
ATOM      3  C   UNL     1      17.079   3.305  41.039  1.00  0.00     0.027 C 
BRANCH   3   4
ATOM      4  C   UNL     1      16.743   2.100  40.207  1.00  0.00    -0.025 C 
ATOM      5  C   UNL     1      15.711   2.105  39.354  1.00  0.00     0.020 C 
BRANCH   5   6
ATOM      6  C   UNL     1      15.372   0.941  38.521  1.00  0.00     0.064 C 
ATOM      7  O   UNL     1      16.266   0.165  38.092  1.00  0.00    -0.545 OA
ATOM      8  O   UNL     1      14.043   0.694  38.204  1.00  0.00    -0.545 OA
ENDBRANCH   5   6
ENDBRANCH   3   4
ENDBRANCH   2   3
ENDBRANCH   1   2
BRANCH   1   9
ATOM      9  C   UNL     1      20.300   1.920  42.234  1.00  0.00     0.000 C 
BRANCH   9  10
ATOM     10  C   UNL     1      19.934   0.639  43.001  1.00  0.00     0.000 C 
BRANCH  10  11
ATOM     11  C   UNL     1      18.857   0.880  44.073  1.00  0.00    -0.000 C 
BRANCH  11  12
ATOM     12  C   UNL     1      17.515   0.204  43.735  1.00  0.00    -0.000 C 
BRANCH  12  13
ATOM     13  C   UNL     1      16.271   1.082  43.959  1.00  0.00    -0.003 C 
ATOM     14  C   UNL     1      16.591   2.409  44.647  1.00  0.00     0.004 C 
ENDBRANCH  12  13
ENDBRANCH  11  12
ENDBRANCH  10  11
ENDBRANCH   9  10
ENDBRANCH   1   9
TORSDOF 9
ENDMDL
