MODEL 1
REMARK VINA RESULT:    -0.808      0.000      0.000
REMARK INTER + INTRA:          -8.804
REMARK INTER:                  -2.130
REMARK INTRA:                  -6.674
REMARK UNBOUND:                -6.674
REMARK SMILES CCCCCCCCCCCCCCCCCCCCCCCCCCCCCC(=O)[O-]
REMARK SMILES IDX 16 1 17 2 18 3 19 4 20 5 21 6 22 7 23 8 24 9 25 10 26 11
REMARK SMILES IDX 27 12 28 13 29 14 30 15 31 16 32 17 15 18 14 19 13 20 12 21
REMARK SMILES IDX 11 22 10 23 9 24 8 25 7 26 6 27 5 28 4 29 3 30 2 31 1 32
REMARK H PARENT
REMARK Flexibility Score: inf
ROOT
ATOM      1  C   UNL     1     -16.686 -23.981  83.071  1.00  0.00     0.000 C 
ENDROOT
BRANCH   1   2
ATOM      2  C   UNL     1     -17.136 -22.526  82.831  1.00  0.00     0.000 C 
BRANCH   2   3
ATOM      3  C   UNL     1     -17.474 -22.177  81.371  1.00  0.00     0.000 C 
BRANCH   3   4
ATOM      4  C   UNL     1     -17.316 -23.376  80.422  1.00  0.00     0.000 C 
BRANCH   4   5
ATOM      5  C   UNL     1     -18.603 -23.698  79.640  1.00  0.00     0.000 C 
BRANCH   5   6
ATOM      6  C   UNL     1     -19.171 -25.114  79.861  1.00  0.00     0.000 C 
BRANCH   6   7
ATOM      7  C   UNL     1     -18.186 -26.131  80.471  1.00  0.00     0.000 C 
BRANCH   7   8
ATOM      8  C   UNL     1     -18.727 -26.920  81.677  1.00  0.00     0.000 C 
BRANCH   8   9
ATOM      9  C   UNL     1     -19.639 -26.074  82.580  1.00  0.00     0.000 C 
BRANCH   9  10
ATOM     10  C   UNL     1     -19.235 -26.143  84.062  1.00  0.00     0.000 C 
BRANCH  10  11
ATOM     11  C   UNL     1     -20.347 -25.676  85.027  1.00  0.00     0.000 C 
BRANCH  11  12
ATOM     12  C   UNL     1     -19.980 -24.364  85.735  1.00  0.00     0.000 C 
BRANCH  12  13
ATOM     13  C   UNL     1     -20.080 -23.172  84.772  1.00  0.00     0.006 C 
BRANCH  13  14
ATOM     14  C   UNL     1     -20.461 -21.873  85.493  1.00  0.00     0.053 C 
BRANCH  14  15
ATOM     15  C   UNL     1     -19.484 -20.772  85.211  1.00  0.00     0.041 C 
ATOM     16  O   UNL     1     -18.730 -20.345  86.124  1.00  0.00    -0.550 OA
ATOM     17  O   UNL     1     -19.426 -20.201  83.947  1.00  0.00    -0.550 OA
ENDBRANCH  14  15
ENDBRANCH  13  14
ENDBRANCH  12  13
ENDBRANCH  11  12
ENDBRANCH  10  11
ENDBRANCH   9  10
ENDBRANCH   8   9
ENDBRANCH   7   8
ENDBRANCH   6   7
ENDBRANCH   5   6
ENDBRANCH   4   5
ENDBRANCH   3   4
ENDBRANCH   2   3
ENDBRANCH   1   2
BRANCH   1  18
ATOM     18  C   UNL     1     -16.169 -24.278  84.490  1.00  0.00     0.000 C 
BRANCH  18  19
ATOM     19  C   UNL     1     -16.477 -23.145  85.486  1.00  0.00     0.000 C 
BRANCH  19  20
ATOM     20  C   UNL     1     -15.198 -22.499  86.064  1.00  0.00     0.000 C 
BRANCH  20  21
ATOM     21  C   UNL     1     -13.938 -23.376  85.929  1.00  0.00     0.000 C 
BRANCH  21  22
ATOM     22  C   UNL     1     -12.911 -22.886  84.896  1.00  0.00     0.000 C 
BRANCH  22  23
ATOM     23  C   UNL     1     -13.318 -21.560  84.235  1.00  0.00     0.000 C 
BRANCH  23  24
ATOM     24  C   UNL     1     -13.518 -21.735  82.724  1.00  0.00    -0.000 C 
BRANCH  24  25
ATOM     25  C   UNL     1     -13.274 -23.180  82.252  1.00  0.00    -0.000 C 
BRANCH  25  26
ATOM     26  C   UNL     1     -13.605 -23.404  80.761  1.00  0.00    -0.000 C 
BRANCH  26  27
ATOM     27  C   UNL     1     -13.366 -24.861  80.329  1.00  0.00    -0.000 C 
BRANCH  27  28
ATOM     28  C   UNL     1     -14.513 -25.806  80.722  1.00  0.00    -0.000 C 
BRANCH  28  29
ATOM     29  C   UNL     1     -14.065 -27.007  81.582  1.00  0.00    -0.000 C 
BRANCH  29  30
ATOM     30  C   UNL     1     -15.066 -27.318  82.709  1.00  0.00    -0.000 C 
BRANCH  30  31
ATOM     31  C   UNL     1     -14.396 -27.438  84.086  1.00  0.00    -0.003 C 
ATOM     32  C   UNL     1     -13.131 -26.589  84.207  1.00  0.00     0.004 C 
ENDBRANCH  30  31
ENDBRANCH  29  30
ENDBRANCH  28  29
ENDBRANCH  27  28
ENDBRANCH  26  27
ENDBRANCH  25  26
ENDBRANCH  24  25
ENDBRANCH  23  24
ENDBRANCH  22  23
ENDBRANCH  21  22
ENDBRANCH  20  21
ENDBRANCH  19  20
ENDBRANCH  18  19
ENDBRANCH   1  18
TORSDOF 28
ENDMDL
MODEL 2
REMARK VINA RESULT:    -0.746      2.345      5.839
REMARK INTER + INTRA:          -8.640
REMARK INTER:                  -1.500
REMARK INTRA:                  -7.140
REMARK UNBOUND:                -6.674
REMARK SMILES CCCCCCCCCCCCCCCCCCCCCCCCCCCCCC(=O)[O-]
REMARK SMILES IDX 16 1 17 2 18 3 19 4 20 5 21 6 22 7 23 8 24 9 25 10 26 11
REMARK SMILES IDX 27 12 28 13 29 14 30 15 31 16 32 17 15 18 14 19 13 20 12 21
REMARK SMILES IDX 11 22 10 23 9 24 8 25 7 26 6 27 5 28 4 29 3 30 2 31 1 32
REMARK H PARENT
REMARK Flexibility Score: inf
ROOT
ATOM      1  C   UNL     1     -17.186 -23.329  81.640  1.00  0.00     0.000 C 
ENDROOT
BRANCH   1   2
ATOM      2  C   UNL     1     -17.230 -22.137  82.616  1.00  0.00     0.000 C 
BRANCH   2   3
ATOM      3  C   UNL     1     -18.422 -22.128  83.588  1.00  0.00     0.000 C 
BRANCH   3   4
ATOM      4  C   UNL     1     -18.011 -22.454  85.034  1.00  0.00     0.000 C 
BRANCH   4   5
ATOM      5  C   UNL     1     -18.583 -23.793  85.533  1.00  0.00     0.000 C 
BRANCH   5   6
ATOM      6  C   UNL     1     -17.555 -24.934  85.678  1.00  0.00     0.000 C 
BRANCH   6   7
ATOM      7  C   UNL     1     -16.078 -24.493  85.689  1.00  0.00     0.000 C 
BRANCH   7   8
ATOM      8  C   UNL     1     -15.255 -24.942  84.469  1.00  0.00     0.000 C 
BRANCH   8   9
ATOM      9  C   UNL     1     -14.041 -24.036  84.204  1.00  0.00     0.000 C 
BRANCH   9  10
ATOM     10  C   UNL     1     -14.215 -22.625  84.789  1.00  0.00     0.000 C 
BRANCH  10  11
ATOM     11  C   UNL     1     -13.546 -21.520  83.942  1.00  0.00     0.000 C 
BRANCH  11  12
ATOM     12  C   UNL     1     -13.455 -21.908  82.459  1.00  0.00     0.000 C 
BRANCH  12  13
ATOM     13  C   UNL     1     -13.796 -20.713  81.556  1.00  0.00     0.006 C 
BRANCH  13  14
ATOM     14  C   UNL     1     -14.414 -21.152  80.222  1.00  0.00     0.053 C 
BRANCH  14  15
ATOM     15  C   UNL     1     -15.565 -20.278  79.828  1.00  0.00     0.041 C 
ATOM     16  O   UNL     1     -16.550 -20.766  79.214  1.00  0.00    -0.550 OA
ATOM     17  O   UNL     1     -15.537 -18.920  80.114  1.00  0.00    -0.550 OA
ENDBRANCH  14  15
ENDBRANCH  13  14
ENDBRANCH  12  13
ENDBRANCH  11  12
ENDBRANCH  10  11
ENDBRANCH   9  10
ENDBRANCH   8   9
ENDBRANCH   7   8
ENDBRANCH   6   7
ENDBRANCH   5   6
ENDBRANCH   4   5
ENDBRANCH   3   4
ENDBRANCH   2   3
ENDBRANCH   1   2
BRANCH   1  18
ATOM     18  C   UNL     1     -18.360 -24.316  81.763  1.00  0.00     0.000 C 
BRANCH  18  19
ATOM     19  C   UNL     1     -17.903 -25.750  82.090  1.00  0.00     0.000 C 
BRANCH  19  20
ATOM     20  C   UNL     1     -18.301 -26.764  80.995  1.00  0.00     0.000 C 
BRANCH  20  21
ATOM     21  C   UNL     1     -17.259 -27.877  80.766  1.00  0.00     0.000 C 
BRANCH  21  22
ATOM     22  C   UNL     1     -15.952 -27.719  81.560  1.00  0.00     0.000 C 
BRANCH  22  23
ATOM     23  C   UNL     1     -14.745 -27.403  80.664  1.00  0.00     0.000 C 
BRANCH  23  24
ATOM     24  C   UNL     1     -13.905 -26.262  81.252  1.00  0.00    -0.000 C 
BRANCH  24  25
ATOM     25  C   UNL     1     -14.116 -24.925  80.520  1.00  0.00    -0.000 C 
BRANCH  25  26
ATOM     26  C   UNL     1     -13.398 -24.852  79.155  1.00  0.00    -0.000 C 
BRANCH  26  27
ATOM     27  C   UNL     1     -14.370 -24.530  78.007  1.00  0.00    -0.000 C 
BRANCH  27  28
ATOM     28  C   UNL     1     -15.776 -24.141  78.494  1.00  0.00    -0.000 C 
BRANCH  28  29
ATOM     29  C   UNL     1     -16.889 -25.096  78.014  1.00  0.00    -0.000 C 
BRANCH  29  30
ATOM     30  C   UNL     1     -16.324 -26.427  77.489  1.00  0.00    -0.000 C 
BRANCH  30  31
ATOM     31  C   UNL     1     -17.417 -27.380  76.981  1.00  0.00    -0.003 C 
ATOM     32  C   UNL     1     -18.829 -26.895  77.311  1.00  0.00     0.004 C 
ENDBRANCH  30  31
ENDBRANCH  29  30
ENDBRANCH  28  29
ENDBRANCH  27  28
ENDBRANCH  26  27
ENDBRANCH  25  26
ENDBRANCH  24  25
ENDBRANCH  23  24
ENDBRANCH  22  23
ENDBRANCH  21  22
ENDBRANCH  20  21
ENDBRANCH  19  20
ENDBRANCH  18  19
ENDBRANCH   1  18
TORSDOF 28
ENDMDL
MODEL 3
REMARK VINA RESULT:    -0.631      7.349     11.010
REMARK INTER + INTRA:          -8.339
REMARK INTER:                  -1.192
REMARK INTRA:                  -7.147
REMARK UNBOUND:                -6.674
REMARK SMILES CCCCCCCCCCCCCCCCCCCCCCCCCCCCCC(=O)[O-]
REMARK SMILES IDX 16 1 17 2 18 3 19 4 20 5 21 6 22 7 23 8 24 9 25 10 26 11
REMARK SMILES IDX 27 12 28 13 29 14 30 15 31 16 32 17 15 18 14 19 13 20 12 21
REMARK SMILES IDX 11 22 10 23 9 24 8 25 7 26 6 27 5 28 4 29 3 30 2 31 1 32
REMARK H PARENT
REMARK Flexibility Score: inf
ROOT
ATOM      1  C   UNL     1     -19.206 -18.548  81.514  1.00  0.00     0.000 C 
ENDROOT
BRANCH   1   2
ATOM      2  C   UNL     1     -18.579 -17.452  82.397  1.00  0.00     0.000 C 
BRANCH   2   3
ATOM      3  C   UNL     1     -19.069 -17.425  83.856  1.00  0.00     0.000 C 
BRANCH   3   4
ATOM      4  C   UNL     1     -18.692 -16.124  84.584  1.00  0.00     0.000 C 
BRANCH   4   5
ATOM      5  C   UNL     1     -19.783 -15.645  85.560  1.00  0.00     0.000 C 
BRANCH   5   6
ATOM      6  C   UNL     1     -20.024 -14.122  85.581  1.00  0.00     0.000 C 
BRANCH   6   7
ATOM      7  C   UNL     1     -19.262 -13.320  84.508  1.00  0.00     0.000 C 
BRANCH   7   8
ATOM      8  C   UNL     1     -18.268 -12.280  85.055  1.00  0.00     0.000 C 
BRANCH   8   9
ATOM      9  C   UNL     1     -16.898 -12.889  85.396  1.00  0.00     0.000 C 
BRANCH   9  10
ATOM     10  C   UNL     1     -15.916 -12.838  84.214  1.00  0.00     0.000 C 
BRANCH  10  11
ATOM     11  C   UNL     1     -15.643 -14.220  83.580  1.00  0.00     0.000 C 
BRANCH  11  12
ATOM     12  C   UNL     1     -16.415 -14.412  82.266  1.00  0.00     0.000 C 
BRANCH  12  13
ATOM     13  C   UNL     1     -16.536 -13.086  81.500  1.00  0.00     0.006 C 
BRANCH  13  14
ATOM     14  C   UNL     1     -17.974 -12.810  81.042  1.00  0.00     0.053 C 
BRANCH  14  15
ATOM     15  C   UNL     1     -18.429 -11.437  81.434  1.00  0.00     0.041 C 
ATOM     16  O   UNL     1     -19.623 -11.087  81.243  1.00  0.00    -0.550 OA
ATOM     17  O   UNL     1     -17.527 -10.537  81.985  1.00  0.00    -0.550 OA
ENDBRANCH  14  15
ENDBRANCH  13  14
ENDBRANCH  12  13
ENDBRANCH  11  12
ENDBRANCH  10  11
ENDBRANCH   9  10
ENDBRANCH   8   9
ENDBRANCH   7   8
ENDBRANCH   6   7
ENDBRANCH   5   6
ENDBRANCH   4   5
ENDBRANCH   3   4
ENDBRANCH   2   3
ENDBRANCH   1   2
BRANCH   1  18
ATOM     18  C   UNL     1     -20.298 -19.392  82.196  1.00  0.00     0.000 C 
BRANCH  18  19
ATOM     19  C   UNL     1     -21.579 -19.508  81.349  1.00  0.00     0.000 C 
BRANCH  19  20
ATOM     20  C   UNL     1     -22.690 -18.542  81.816  1.00  0.00     0.000 C 
BRANCH  20  21
ATOM     21  C   UNL     1     -22.629 -18.199  83.318  1.00  0.00     0.000 C 
BRANCH  21  22
ATOM     22  C   UNL     1     -22.732 -16.702  83.648  1.00  0.00     0.000 C 
BRANCH  22  23
ATOM     23  C   UNL     1     -22.877 -15.824  82.395  1.00  0.00     0.000 C 
BRANCH  23  24
ATOM     24  C   UNL     1     -21.706 -14.841  82.272  1.00  0.00    -0.000 C 
BRANCH  24  25
ATOM     25  C   UNL     1     -20.778 -15.163  81.087  1.00  0.00    -0.000 C 
BRANCH  25  26
ATOM     26  C   UNL     1     -21.503 -15.180  79.724  1.00  0.00    -0.000 C 
BRANCH  26  27
ATOM     27  C   UNL     1     -21.410 -16.553  79.036  1.00  0.00    -0.000 C 
BRANCH  27  28
ATOM     28  C   UNL     1     -20.052 -16.800  78.360  1.00  0.00    -0.000 C 
BRANCH  28  29
ATOM     29  C   UNL     1     -19.511 -15.582  77.582  1.00  0.00    -0.000 C 
BRANCH  29  30
ATOM     30  C   UNL     1     -18.115 -15.157  78.070  1.00  0.00    -0.000 C 
BRANCH  30  31
ATOM     31  C   UNL     1     -17.593 -16.031  79.221  1.00  0.00    -0.003 C 
ATOM     32  C   UNL     1     -16.145 -16.475  79.020  1.00  0.00     0.004 C 
ENDBRANCH  30  31
ENDBRANCH  29  30
ENDBRANCH  28  29
ENDBRANCH  27  28
ENDBRANCH  26  27
ENDBRANCH  25  26
ENDBRANCH  24  25
ENDBRANCH  23  24
ENDBRANCH  22  23
ENDBRANCH  21  22
ENDBRANCH  20  21
ENDBRANCH  19  20
ENDBRANCH  18  19
ENDBRANCH   1  18
TORSDOF 28
ENDMDL
MODEL 4
REMARK VINA RESULT:    -0.624      7.414     10.717
REMARK INTER + INTRA:          -8.321
REMARK INTER:                  -1.217
REMARK INTRA:                  -7.103
REMARK UNBOUND:                -6.674
REMARK SMILES CCCCCCCCCCCCCCCCCCCCCCCCCCCCCC(=O)[O-]
REMARK SMILES IDX 16 1 17 2 18 3 19 4 20 5 21 6 22 7 23 8 24 9 25 10 26 11
REMARK SMILES IDX 27 12 28 13 29 14 30 15 31 16 32 17 15 18 14 19 13 20 12 21
REMARK SMILES IDX 11 22 10 23 9 24 8 25 7 26 6 27 5 28 4 29 3 30 2 31 1 32
REMARK H PARENT
REMARK Flexibility Score: inf
ROOT
ATOM      1  C   UNL     1     -19.333 -18.871  81.174  1.00  0.00     0.000 C 
ENDROOT
BRANCH   1   2
ATOM      2  C   UNL     1     -20.045 -18.495  79.860  1.00  0.00     0.000 C 
BRANCH   2   3
ATOM      3  C   UNL     1     -21.564 -18.737  79.844  1.00  0.00     0.000 C 
BRANCH   3   4
ATOM      4  C   UNL     1     -22.310 -17.892  80.890  1.00  0.00     0.000 C 
BRANCH   4   5
ATOM      5  C   UNL     1     -22.821 -16.553  80.327  1.00  0.00     0.000 C 
BRANCH   5   6
ATOM      6  C   UNL     1     -22.084 -15.299  80.839  1.00  0.00     0.000 C 
BRANCH   6   7
ATOM      7  C   UNL     1     -21.080 -14.675  79.849  1.00  0.00     0.000 C 
BRANCH   7   8
ATOM      8  C   UNL     1     -21.093 -15.286  78.437  1.00  0.00     0.000 C 
BRANCH   8   9
ATOM      9  C   UNL     1     -19.693 -15.357  77.807  1.00  0.00     0.000 C 
BRANCH   9  10
ATOM     10  C   UNL     1     -18.671 -14.462  78.528  1.00  0.00     0.000 C 
BRANCH  10  11
ATOM     11  C   UNL     1     -17.388 -15.210  78.953  1.00  0.00     0.000 C 
BRANCH  11  12
ATOM     12  C   UNL     1     -17.242 -16.557  78.231  1.00  0.00     0.000 C 
BRANCH  12  13
ATOM     13  C   UNL     1     -15.949 -17.271  78.654  1.00  0.00     0.006 C 
BRANCH  13  14
ATOM     14  C   UNL     1     -15.268 -16.582  79.844  1.00  0.00     0.053 C 
BRANCH  14  15
ATOM     15  C   UNL     1     -13.829 -16.276  79.561  1.00  0.00     0.041 C 
ATOM     16  O   UNL     1     -13.265 -15.303  80.127  1.00  0.00    -0.550 OA
ATOM     17  O   UNL     1     -13.120 -17.048  78.651  1.00  0.00    -0.550 OA
ENDBRANCH  14  15
ENDBRANCH  13  14
ENDBRANCH  12  13
ENDBRANCH  11  12
ENDBRANCH  10  11
ENDBRANCH   9  10
ENDBRANCH   8   9
ENDBRANCH   7   8
ENDBRANCH   6   7
ENDBRANCH   5   6
ENDBRANCH   4   5
ENDBRANCH   3   4
ENDBRANCH   2   3
ENDBRANCH   1   2
BRANCH   1  18
ATOM     18  C   UNL     1     -18.242 -17.886  81.630  1.00  0.00     0.000 C 
BRANCH  18  19
ATOM     19  C   UNL     1     -18.816 -16.540  82.109  1.00  0.00     0.000 C 
BRANCH  19  20
ATOM     20  C   UNL     1     -19.781 -16.698  83.306  1.00  0.00     0.000 C 
BRANCH  20  21
ATOM     21  C   UNL     1     -19.460 -15.770  84.494  1.00  0.00     0.000 C 
BRANCH  21  22
ATOM     22  C   UNL     1     -17.964 -15.607  84.807  1.00  0.00     0.000 C 
BRANCH  22  23
ATOM     23  C   UNL     1     -17.694 -14.551  85.890  1.00  0.00     0.000 C 
BRANCH  23  24
ATOM     24  C   UNL     1     -18.549 -13.298  85.665  1.00  0.00    -0.000 C 
BRANCH  24  25
ATOM     25  C   UNL     1     -17.742 -12.119  85.092  1.00  0.00    -0.000 C 
BRANCH  25  26
ATOM     26  C   UNL     1     -18.477 -11.361  83.966  1.00  0.00    -0.000 C 
BRANCH  26  27
ATOM     27  C   UNL     1     -19.374 -12.292  83.131  1.00  0.00    -0.000 C 
BRANCH  27  28
ATOM     28  C   UNL     1     -18.633 -12.953  81.957  1.00  0.00    -0.000 C 
BRANCH  28  29
ATOM     29  C   UNL     1     -17.562 -12.052  81.308  1.00  0.00    -0.000 C 
BRANCH  29  30
ATOM     30  C   UNL     1     -16.148 -12.644  81.442  1.00  0.00    -0.000 C 
BRANCH  30  31
ATOM     31  C   UNL     1     -16.126 -13.963  82.229  1.00  0.00    -0.003 C 
ATOM     32  C   UNL     1     -14.871 -14.122  83.087  1.00  0.00     0.004 C 
ENDBRANCH  30  31
ENDBRANCH  29  30
ENDBRANCH  28  29
ENDBRANCH  27  28
ENDBRANCH  26  27
ENDBRANCH  25  26
ENDBRANCH  24  25
ENDBRANCH  23  24
ENDBRANCH  22  23
ENDBRANCH  21  22
ENDBRANCH  20  21
ENDBRANCH  19  20
ENDBRANCH  18  19
ENDBRANCH   1  18
TORSDOF 28
ENDMDL
MODEL 5
REMARK VINA RESULT:    -0.624      7.553     11.061
REMARK INTER + INTRA:          -8.320
REMARK INTER:                  -1.855
REMARK INTRA:                  -6.465
REMARK UNBOUND:                -6.674
REMARK SMILES CCCCCCCCCCCCCCCCCCCCCCCCCCCCCC(=O)[O-]
REMARK SMILES IDX 16 1 17 2 18 3 19 4 20 5 21 6 22 7 23 8 24 9 25 10 26 11
REMARK SMILES IDX 27 12 28 13 29 14 30 15 31 16 32 17 15 18 14 19 13 20 12 21
REMARK SMILES IDX 11 22 10 23 9 24 8 25 7 26 6 27 5 28 4 29 3 30 2 31 1 32
REMARK H PARENT
REMARK Flexibility Score: inf
ROOT
ATOM      1  C   UNL     1     -15.116 -13.438  85.295  1.00  0.00     0.000 C 
ENDROOT
BRANCH   1   2
ATOM      2  C   UNL     1     -13.711 -14.050  85.457  1.00  0.00     0.000 C 
BRANCH   2   3
ATOM      3  C   UNL     1     -13.117 -14.677  84.184  1.00  0.00     0.000 C 
BRANCH   3   4
ATOM      4  C   UNL     1     -13.416 -13.851  82.921  1.00  0.00     0.000 C 
BRANCH   4   5
ATOM      5  C   UNL     1     -13.935 -14.708  81.752  1.00  0.00     0.000 C 
BRANCH   5   6
ATOM      6  C   UNL     1     -14.312 -13.925  80.479  1.00  0.00     0.000 C 
BRANCH   6   7
ATOM      7  C   UNL     1     -15.392 -14.582  79.596  1.00  0.00     0.000 C 
BRANCH   7   8
ATOM      8  C   UNL     1     -16.047 -15.838  80.196  1.00  0.00     0.000 C 
BRANCH   8   9
ATOM      9  C   UNL     1     -17.218 -16.361  79.348  1.00  0.00     0.000 C 
BRANCH   9  10
ATOM     10  C   UNL     1     -18.585 -16.111  80.006  1.00  0.00     0.000 C 
BRANCH  10  11
ATOM     11  C   UNL     1     -19.499 -17.356  80.022  1.00  0.00     0.000 C 
BRANCH  11  12
ATOM     12  C   UNL     1     -19.111 -18.340  81.135  1.00  0.00     0.000 C 
BRANCH  12  13
ATOM     13  C   UNL     1     -18.660 -17.592  82.399  1.00  0.00     0.006 C 
BRANCH  13  14
ATOM     14  C   UNL     1     -19.714 -17.647  83.512  1.00  0.00     0.053 C 
BRANCH  14  15
ATOM     15  C   UNL     1     -20.237 -19.036  83.716  1.00  0.00     0.041 C 
ATOM     16  O   UNL     1     -21.441 -19.303  83.463  1.00  0.00    -0.550 OA
ATOM     17  O   UNL     1     -19.401 -20.028  84.211  1.00  0.00    -0.550 OA
ENDBRANCH  14  15
ENDBRANCH  13  14
ENDBRANCH  12  13
ENDBRANCH  11  12
ENDBRANCH  10  11
ENDBRANCH   9  10
ENDBRANCH   8   9
ENDBRANCH   7   8
ENDBRANCH   6   7
ENDBRANCH   5   6
ENDBRANCH   4   5
ENDBRANCH   3   4
ENDBRANCH   2   3
ENDBRANCH   1   2
BRANCH   1  18
ATOM     18  C   UNL     1     -16.223 -14.116  86.122  1.00  0.00     0.000 C 
BRANCH  18  19
ATOM     19  C   UNL     1     -17.294 -14.790  85.246  1.00  0.00     0.000 C 
BRANCH  19  20
ATOM     20  C   UNL     1     -16.964 -14.714  83.739  1.00  0.00     0.000 C 
BRANCH  20  21
ATOM     21  C   UNL     1     -18.029 -13.979  82.901  1.00  0.00     0.000 C 
BRANCH  21  22
ATOM     22  C   UNL     1     -19.031 -13.142  83.712  1.00  0.00     0.000 C 
BRANCH  22  23
ATOM     23  C   UNL     1     -20.447 -13.739  83.706  1.00  0.00     0.000 C 
BRANCH  23  24
ATOM     24  C   UNL     1     -20.794 -14.323  82.331  1.00  0.00    -0.000 C 
BRANCH  24  25
ATOM     25  C   UNL     1     -21.519 -13.316  81.420  1.00  0.00    -0.000 C 
BRANCH  25  26
ATOM     26  C   UNL     1     -20.796 -13.069  80.079  1.00  0.00    -0.000 C 
BRANCH  26  27
ATOM     27  C   UNL     1     -19.675 -12.023  80.210  1.00  0.00    -0.000 C 
BRANCH  27  28
ATOM     28  C   UNL     1     -18.371 -12.443  79.512  1.00  0.00    -0.000 C 
BRANCH  28  29
ATOM     29  C   UNL     1     -17.216 -11.435  79.690  1.00  0.00    -0.000 C 
BRANCH  29  30
ATOM     30  C   UNL     1     -17.260 -10.740  81.062  1.00  0.00    -0.000 C 
BRANCH  30  31
ATOM     31  C   UNL     1     -16.043 -11.073  81.938  1.00  0.00    -0.003 C 
ATOM     32  C   UNL     1     -16.225 -10.645  83.394  1.00  0.00     0.004 C 
ENDBRANCH  30  31
ENDBRANCH  29  30
ENDBRANCH  28  29
ENDBRANCH  27  28
ENDBRANCH  26  27
ENDBRANCH  25  26
ENDBRANCH  24  25
ENDBRANCH  23  24
ENDBRANCH  22  23
ENDBRANCH  21  22
ENDBRANCH  20  21
ENDBRANCH  19  20
ENDBRANCH  18  19
ENDBRANCH   1  18
TORSDOF 28
ENDMDL
MODEL 6
REMARK VINA RESULT:    -0.624      2.651      6.061
REMARK INTER + INTRA:          -8.320
REMARK INTER:                  -1.805
REMARK INTRA:                  -6.515
REMARK UNBOUND:                -6.674
REMARK SMILES CCCCCCCCCCCCCCCCCCCCCCCCCCCCCC(=O)[O-]
REMARK SMILES IDX 16 1 17 2 18 3 19 4 20 5 21 6 22 7 23 8 24 9 25 10 26 11
REMARK SMILES IDX 27 12 28 13 29 14 30 15 31 16 32 17 15 18 14 19 13 20 12 21
REMARK SMILES IDX 11 22 10 23 9 24 8 25 7 26 6 27 5 28 4 29 3 30 2 31 1 32
REMARK H PARENT
REMARK Flexibility Score: inf
ROOT
ATOM      1  C   UNL     1     -15.459 -24.553  82.012  1.00  0.00     0.000 C 
ENDROOT
BRANCH   1   2
ATOM      2  C   UNL     1     -14.226 -24.655  81.093  1.00  0.00     0.000 C 
BRANCH   2   3
ATOM      3  C   UNL     1     -13.196 -23.523  81.249  1.00  0.00     0.000 C 
BRANCH   3   4
ATOM      4  C   UNL     1     -13.292 -22.475  80.127  1.00  0.00     0.000 C 
BRANCH   4   5
ATOM      5  C   UNL     1     -13.669 -21.075  80.644  1.00  0.00     0.000 C 
BRANCH   5   6
ATOM      6  C   UNL     1     -15.044 -20.977  81.336  1.00  0.00     0.000 C 
BRANCH   6   7
ATOM      7  C   UNL     1     -16.081 -20.089  80.618  1.00  0.00     0.000 C 
BRANCH   7   8
ATOM      8  C   UNL     1     -16.469 -20.554  79.204  1.00  0.00     0.000 C 
BRANCH   8   9
ATOM      9  C   UNL     1     -17.234 -21.888  79.205  1.00  0.00     0.000 C 
BRANCH   9  10
ATOM     10  C   UNL     1     -16.507 -22.990  78.417  1.00  0.00     0.000 C 
BRANCH  10  11
ATOM     11  C   UNL     1     -17.025 -24.412  78.725  1.00  0.00     0.000 C 
BRANCH  11  12
ATOM     12  C   UNL     1     -18.466 -24.397  79.256  1.00  0.00     0.000 C 
BRANCH  12  13
ATOM     13  C   UNL     1     -19.452 -24.891  78.187  1.00  0.00     0.006 C 
BRANCH  13  14
ATOM     14  C   UNL     1     -20.629 -23.926  77.992  1.00  0.00     0.053 C 
BRANCH  14  15
ATOM     15  C   UNL     1     -20.240 -22.732  77.176  1.00  0.00     0.041 C 
ATOM     16  O   UNL     1     -20.396 -21.571  77.638  1.00  0.00    -0.550 OA
ATOM     17  O   UNL     1     -19.732 -22.900  75.895  1.00  0.00    -0.550 OA
ENDBRANCH  14  15
ENDBRANCH  13  14
ENDBRANCH  12  13
ENDBRANCH  11  12
ENDBRANCH  10  11
ENDBRANCH   9  10
ENDBRANCH   8   9
ENDBRANCH   7   8
ENDBRANCH   6   7
ENDBRANCH   5   6
ENDBRANCH   4   5
ENDBRANCH   3   4
ENDBRANCH   2   3
ENDBRANCH   1   2
BRANCH   1  18
ATOM     18  C   UNL     1     -15.795 -25.833  82.798  1.00  0.00     0.000 C 
BRANCH  18  19
ATOM     19  C   UNL     1     -14.571 -26.429  83.518  1.00  0.00     0.000 C 
BRANCH  19  20
ATOM     20  C   UNL     1     -14.661 -26.291  85.054  1.00  0.00     0.000 C 
BRANCH  20  21
ATOM     21  C   UNL     1     -13.515 -25.468  85.676  1.00  0.00     0.000 C 
BRANCH  21  22
ATOM     22  C   UNL     1     -12.876 -24.431  84.739  1.00  0.00     0.000 C 
BRANCH  22  23
ATOM     23  C   UNL     1     -13.124 -22.985  85.193  1.00  0.00     0.000 C 
BRANCH  23  24
ATOM     24  C   UNL     1     -14.471 -22.467  84.673  1.00  0.00    -0.000 C 
BRANCH  24  25
ATOM     25  C   UNL     1     -15.526 -22.325  85.784  1.00  0.00    -0.000 C 
BRANCH  25  26
ATOM     26  C   UNL     1     -16.681 -23.343  85.671  1.00  0.00    -0.000 C 
BRANCH  26  27
ATOM     27  C   UNL     1     -18.004 -22.675  85.262  1.00  0.00    -0.000 C 
BRANCH  27  28
ATOM     28  C   UNL     1     -18.588 -23.236  83.955  1.00  0.00    -0.000 C 
BRANCH  28  29
ATOM     29  C   UNL     1     -18.265 -22.384  82.710  1.00  0.00    -0.000 C 
BRANCH  29  30
ATOM     30  C   UNL     1     -18.847 -20.963  82.814  1.00  0.00    -0.000 C 
BRANCH  30  31
ATOM     31  C   UNL     1     -19.917 -20.678  81.748  1.00  0.00    -0.003 C 
ATOM     32  C   UNL     1     -20.511 -21.951  81.146  1.00  0.00     0.004 C 
ENDBRANCH  30  31
ENDBRANCH  29  30
ENDBRANCH  28  29
ENDBRANCH  27  28
ENDBRANCH  26  27
ENDBRANCH  25  26
ENDBRANCH  24  25
ENDBRANCH  23  24
ENDBRANCH  22  23
ENDBRANCH  21  22
ENDBRANCH  20  21
ENDBRANCH  19  20
ENDBRANCH  18  19
ENDBRANCH   1  18
TORSDOF 28
ENDMDL
MODEL 7
REMARK VINA RESULT:    -0.622      4.589      8.394
REMARK INTER + INTRA:          -8.315
REMARK INTER:                  -1.205
REMARK INTRA:                  -7.110
REMARK UNBOUND:                -6.674
REMARK SMILES CCCCCCCCCCCCCCCCCCCCCCCCCCCCCC(=O)[O-]
REMARK SMILES IDX 16 1 17 2 18 3 19 4 20 5 21 6 22 7 23 8 24 9 25 10 26 11
REMARK SMILES IDX 27 12 28 13 29 14 30 15 31 16 32 17 15 18 14 19 13 20 12 21
REMARK SMILES IDX 11 22 10 23 9 24 8 25 7 26 6 27 5 28 4 29 3 30 2 31 1 32
REMARK H PARENT
REMARK Flexibility Score: inf
ROOT
ATOM      1  C   UNL     1     -17.984 -20.257  81.322  1.00  0.00     0.000 C 
ENDROOT
BRANCH   1   2
ATOM      2  C   UNL     1     -18.580 -21.242  80.298  1.00  0.00     0.000 C 
BRANCH   2   3
ATOM      3  C   UNL     1     -19.783 -22.061  80.798  1.00  0.00     0.000 C 
BRANCH   3   4
ATOM      4  C   UNL     1     -21.058 -21.803  79.977  1.00  0.00     0.000 C 
BRANCH   4   5
ATOM      5  C   UNL     1     -21.204 -20.335  79.538  1.00  0.00     0.000 C 
BRANCH   5   6
ATOM      6  C   UNL     1     -21.821 -19.392  80.590  1.00  0.00     0.000 C 
BRANCH   6   7
ATOM      7  C   UNL     1     -23.293 -19.004  80.345  1.00  0.00     0.000 C 
BRANCH   7   8
ATOM      8  C   UNL     1     -24.269 -19.411  81.463  1.00  0.00     0.000 C 
BRANCH   8   9
ATOM      9  C   UNL     1     -24.211 -20.912  81.787  1.00  0.00     0.000 C 
BRANCH   9  10
ATOM     10  C   UNL     1     -23.853 -21.188  83.257  1.00  0.00     0.000 C 
BRANCH  10  11
ATOM     11  C   UNL     1     -22.504 -21.919  83.437  1.00  0.00     0.000 C 
BRANCH  11  12
ATOM     12  C   UNL     1     -21.396 -20.972  83.918  1.00  0.00     0.000 C 
BRANCH  12  13
ATOM     13  C   UNL     1     -20.527 -21.643  84.993  1.00  0.00     0.006 C 
BRANCH  13  14
ATOM     14  C   UNL     1     -19.042 -21.663  84.608  1.00  0.00     0.053 C 
BRANCH  14  15
ATOM     15  C   UNL     1     -18.233 -22.496  85.555  1.00  0.00     0.041 C 
ATOM     16  O   UNL     1     -18.751 -23.493  86.123  1.00  0.00    -0.550 OA
ATOM     17  O   UNL     1     -16.916 -22.154  85.831  1.00  0.00    -0.550 OA
ENDBRANCH  14  15
ENDBRANCH  13  14
ENDBRANCH  12  13
ENDBRANCH  11  12
ENDBRANCH  10  11
ENDBRANCH   9  10
ENDBRANCH   8   9
ENDBRANCH   7   8
ENDBRANCH   6   7
ENDBRANCH   5   6
ENDBRANCH   4   5
ENDBRANCH   3   4
ENDBRANCH   2   3
ENDBRANCH   1   2
BRANCH   1  18
ATOM     18  C   UNL     1     -17.766 -18.825  80.799  1.00  0.00     0.000 C 
BRANCH  18  19
ATOM     19  C   UNL     1     -18.492 -17.764  81.646  1.00  0.00     0.000 C 
BRANCH  19  20
ATOM     20  C   UNL     1     -19.132 -18.356  82.920  1.00  0.00     0.000 C 
BRANCH  20  21
ATOM     21  C   UNL     1     -19.080 -17.417  84.141  1.00  0.00     0.000 C 
BRANCH  21  22
ATOM     22  C   UNL     1     -19.765 -17.955  85.407  1.00  0.00     0.000 C 
BRANCH  22  23
ATOM     23  C   UNL     1     -20.873 -17.026  85.927  1.00  0.00     0.000 C 
BRANCH  23  24
ATOM     24  C   UNL     1     -22.239 -17.722  85.891  1.00  0.00    -0.000 C 
BRANCH  24  25
ATOM     25  C   UNL     1     -22.849 -17.769  84.479  1.00  0.00    -0.000 C 
BRANCH  25  26
ATOM     26  C   UNL     1     -22.994 -16.379  83.825  1.00  0.00    -0.000 C 
BRANCH  26  27
ATOM     27  C   UNL     1     -22.219 -16.280  82.499  1.00  0.00    -0.000 C 
BRANCH  27  28
ATOM     28  C   UNL     1     -21.373 -15.002  82.386  1.00  0.00    -0.000 C 
BRANCH  28  29
ATOM     29  C   UNL     1     -20.685 -14.827  81.015  1.00  0.00    -0.000 C 
BRANCH  29  30
ATOM     30  C   UNL     1     -21.421 -15.587  79.897  1.00  0.00    -0.000 C 
BRANCH  30  31
ATOM     31  C   UNL     1     -20.466 -16.331  78.953  1.00  0.00    -0.003 C 
ATOM     32  C   UNL     1     -21.186 -16.992  77.778  1.00  0.00     0.004 C 
ENDBRANCH  30  31
ENDBRANCH  29  30
ENDBRANCH  28  29
ENDBRANCH  27  28
ENDBRANCH  26  27
ENDBRANCH  25  26
ENDBRANCH  24  25
ENDBRANCH  23  24
ENDBRANCH  22  23
ENDBRANCH  21  22
ENDBRANCH  20  21
ENDBRANCH  19  20
ENDBRANCH  18  19
ENDBRANCH   1  18
TORSDOF 28
ENDMDL
MODEL 8
REMARK VINA RESULT:    -0.618      1.709      6.025
REMARK INTER + INTRA:          -8.304
REMARK INTER:                  -1.814
REMARK INTRA:                  -6.490
REMARK UNBOUND:                -6.674
REMARK SMILES CCCCCCCCCCCCCCCCCCCCCCCCCCCCCC(=O)[O-]
REMARK SMILES IDX 16 1 17 2 18 3 19 4 20 5 21 6 22 7 23 8 24 9 25 10 26 11
REMARK SMILES IDX 27 12 28 13 29 14 30 15 31 16 32 17 15 18 14 19 13 20 12 21
REMARK SMILES IDX 11 22 10 23 9 24 8 25 7 26 6 27 5 28 4 29 3 30 2 31 1 32
REMARK H PARENT
REMARK Flexibility Score: inf
ROOT
ATOM      1  C   UNL     1     -16.191 -24.716  83.164  1.00  0.00     0.000 C 
ENDROOT
BRANCH   1   2
ATOM      2  C   UNL     1     -16.477 -24.266  84.611  1.00  0.00     0.000 C 
BRANCH   2   3
ATOM      3  C   UNL     1     -16.306 -22.760  84.876  1.00  0.00     0.000 C 
BRANCH   3   4
ATOM      4  C   UNL     1     -15.150 -22.456  85.844  1.00  0.00     0.000 C 
BRANCH   4   5
ATOM      5  C   UNL     1     -13.764 -22.707  85.222  1.00  0.00     0.000 C 
BRANCH   5   6
ATOM      6  C   UNL     1     -13.281 -21.627  84.233  1.00  0.00     0.000 C 
BRANCH   6   7
ATOM      7  C   UNL     1     -13.356 -22.016  82.744  1.00  0.00     0.000 C 
BRANCH   7   8
ATOM      8  C   UNL     1     -14.198 -21.074  81.865  1.00  0.00     0.000 C 
BRANCH   8   9
ATOM      9  C   UNL     1     -15.159 -21.830  80.934  1.00  0.00     0.000 C 
BRANCH   9  10
ATOM     10  C   UNL     1     -16.636 -21.600  81.293  1.00  0.00     0.000 C 
BRANCH  10  11
ATOM     11  C   UNL     1     -17.611 -22.496  80.498  1.00  0.00     0.000 C 
BRANCH  11  12
ATOM     12  C   UNL     1     -18.862 -22.851  81.315  1.00  0.00     0.000 C 
BRANCH  12  13
ATOM     13  C   UNL     1     -18.983 -21.953  82.555  1.00  0.00     0.006 C 
BRANCH  13  14
ATOM     14  C   UNL     1     -19.800 -22.614  83.673  1.00  0.00     0.053 C 
BRANCH  14  15
ATOM     15  C   UNL     1     -20.219 -21.624  84.717  1.00  0.00     0.041 C 
ATOM     16  O   UNL     1     -19.486 -21.412  85.718  1.00  0.00    -0.550 OA
ATOM     17  O   UNL     1     -21.431 -20.957  84.596  1.00  0.00    -0.550 OA
ENDBRANCH  14  15
ENDBRANCH  13  14
ENDBRANCH  12  13
ENDBRANCH  11  12
ENDBRANCH  10  11
ENDBRANCH   9  10
ENDBRANCH   8   9
ENDBRANCH   7   8
ENDBRANCH   6   7
ENDBRANCH   5   6
ENDBRANCH   4   5
ENDBRANCH   3   4
ENDBRANCH   2   3
ENDBRANCH   1   2
BRANCH   1  18
ATOM     18  C   UNL     1     -14.856 -25.455  82.963  1.00  0.00     0.000 C 
BRANCH  18  19
ATOM     19  C   UNL     1     -14.352 -25.390  81.510  1.00  0.00     0.000 C 
BRANCH  19  20
ATOM     20  C   UNL     1     -15.481 -25.602  80.478  1.00  0.00     0.000 C 
BRANCH  20  21
ATOM     21  C   UNL     1     -15.188 -24.990  79.094  1.00  0.00     0.000 C 
BRANCH  21  22
ATOM     22  C   UNL     1     -16.018 -25.568  77.937  1.00  0.00     0.000 C 
BRANCH  22  23
ATOM     23  C   UNL     1     -17.223 -24.687  77.571  1.00  0.00     0.000 C 
BRANCH  23  24
ATOM     24  C   UNL     1     -18.535 -25.474  77.682  1.00  0.00    -0.000 C 
BRANCH  24  25
ATOM     25  C   UNL     1     -18.313 -26.967  77.984  1.00  0.00    -0.000 C 
BRANCH  25  26
ATOM     26  C   UNL     1     -18.987 -27.437  79.290  1.00  0.00    -0.000 C 
BRANCH  26  27
ATOM     27  C   UNL     1     -19.177 -26.284  80.290  1.00  0.00    -0.000 C 
BRANCH  27  28
ATOM     28  C   UNL     1     -18.787 -26.659  81.729  1.00  0.00    -0.000 C 
BRANCH  28  29
ATOM     29  C   UNL     1     -19.891 -26.376  82.770  1.00  0.00    -0.000 C 
BRANCH  29  30
ATOM     30  C   UNL     1     -21.134 -25.728  82.134  1.00  0.00    -0.000 C 
BRANCH  30  31
ATOM     31  C   UNL     1     -22.403 -26.575  82.309  1.00  0.00    -0.003 C 
ATOM     32  C   UNL     1     -22.600 -27.590  81.183  1.00  0.00     0.004 C 
ENDBRANCH  30  31
ENDBRANCH  29  30
ENDBRANCH  28  29
ENDBRANCH  27  28
ENDBRANCH  26  27
ENDBRANCH  25  26
ENDBRANCH  24  25
ENDBRANCH  23  24
ENDBRANCH  22  23
ENDBRANCH  21  22
ENDBRANCH  20  21
ENDBRANCH  19  20
ENDBRANCH  18  19
ENDBRANCH   1  18
TORSDOF 28
ENDMDL
MODEL 9
REMARK VINA RESULT:    -0.616      8.685     12.110
REMARK INTER + INTRA:          -8.298
REMARK INTER:                  -1.688
REMARK INTRA:                  -6.609
REMARK UNBOUND:                -6.674
REMARK SMILES CCCCCCCCCCCCCCCCCCCCCCCCCCCCCC(=O)[O-]
REMARK SMILES IDX 16 1 17 2 18 3 19 4 20 5 21 6 22 7 23 8 24 9 25 10 26 11
REMARK SMILES IDX 27 12 28 13 29 14 30 15 31 16 32 17 15 18 14 19 13 20 12 21
REMARK SMILES IDX 11 22 10 23 9 24 8 25 7 26 6 27 5 28 4 29 3 30 2 31 1 32
REMARK H PARENT
REMARK Flexibility Score: inf
ROOT
ATOM      1  C   UNL     1     -15.640 -14.060  82.364  1.00  0.00     0.000 C 
ENDROOT
BRANCH   1   2
ATOM      2  C   UNL     1     -16.446 -14.397  83.633  1.00  0.00     0.000 C 
BRANCH   2   3
ATOM      3  C   UNL     1     -17.135 -13.200  84.311  1.00  0.00     0.000 C 
BRANCH   3   4
ATOM      4  C   UNL     1     -17.759 -13.564  85.668  1.00  0.00     0.000 C 
BRANCH   4   5
ATOM      5  C   UNL     1     -17.416 -14.995  86.122  1.00  0.00     0.000 C 
BRANCH   5   6
ATOM      6  C   UNL     1     -18.569 -16.014  86.011  1.00  0.00     0.000 C 
BRANCH   6   7
ATOM      7  C   UNL     1     -19.950 -15.413  85.682  1.00  0.00     0.000 C 
BRANCH   7   8
ATOM      8  C   UNL     1     -20.508 -15.784  84.297  1.00  0.00     0.000 C 
BRANCH   8   9
ATOM      9  C   UNL     1     -21.425 -14.696  83.714  1.00  0.00     0.000 C 
BRANCH   9  10
ATOM     10  C   UNL     1     -20.677 -13.385  83.420  1.00  0.00     0.000 C 
BRANCH  10  11
ATOM     11  C   UNL     1     -20.501 -13.101  81.911  1.00  0.00     0.000 C 
BRANCH  11  12
ATOM     12  C   UNL     1     -19.222 -13.740  81.352  1.00  0.00     0.000 C 
BRANCH  12  13
ATOM     13  C   UNL     1     -19.525 -14.567  80.093  1.00  0.00     0.006 C 
BRANCH  13  14
ATOM     14  C   UNL     1     -18.651 -15.825  80.001  1.00  0.00     0.053 C 
BRANCH  14  15
ATOM     15  C   UNL     1     -18.955 -16.796  81.101  1.00  0.00     0.041 C 
ATOM     16  O   UNL     1     -18.107 -17.014  82.006  1.00  0.00    -0.550 OA
ATOM     17  O   UNL     1     -20.163 -17.480  81.110  1.00  0.00    -0.550 OA
ENDBRANCH  14  15
ENDBRANCH  13  14
ENDBRANCH  12  13
ENDBRANCH  11  12
ENDBRANCH  10  11
ENDBRANCH   9  10
ENDBRANCH   8   9
ENDBRANCH   7   8
ENDBRANCH   6   7
ENDBRANCH   5   6
ENDBRANCH   4   5
ENDBRANCH   3   4
ENDBRANCH   2   3
ENDBRANCH   1   2
BRANCH   1  18
ATOM     18  C   UNL     1     -14.111 -14.055  82.544  1.00  0.00     0.000 C 
BRANCH  18  19
ATOM     19  C   UNL     1     -13.664 -14.699  83.869  1.00  0.00     0.000 C 
BRANCH  19  20
ATOM     20  C   UNL     1     -12.919 -13.708  84.790  1.00  0.00     0.000 C 
BRANCH  20  21
ATOM     21  C   UNL     1     -13.698 -13.334  86.066  1.00  0.00     0.000 C 
BRANCH  21  22
ATOM     22  C   UNL     1     -14.249 -11.899  86.096  1.00  0.00     0.000 C 
BRANCH  22  23
ATOM     23  C   UNL     1     -13.717 -11.033  84.943  1.00  0.00     0.000 C 
BRANCH  23  24
ATOM     24  C   UNL     1     -14.849 -10.622  83.994  1.00  0.00    -0.000 C 
BRANCH  24  25
ATOM     25  C   UNL     1     -15.552  -9.324  84.429  1.00  0.00    -0.000 C 
BRANCH  25  26
ATOM     26  C   UNL     1     -16.919  -9.562  85.105  1.00  0.00    -0.000 C 
BRANCH  26  27
ATOM     27  C   UNL     1     -18.088  -9.068  84.235  1.00  0.00    -0.000 C 
BRANCH  27  28
ATOM     28  C   UNL     1     -18.549 -10.104  83.196  1.00  0.00    -0.000 C 
BRANCH  28  29
ATOM     29  C   UNL     1     -19.014  -9.484  81.862  1.00  0.00    -0.000 C 
BRANCH  29  30
ATOM     30  C   UNL     1     -18.352 -10.159  80.648  1.00  0.00    -0.000 C 
BRANCH  30  31
ATOM     31  C   UNL     1     -17.014 -10.830  80.994  1.00  0.00    -0.003 C 
ATOM     32  C   UNL     1     -15.805 -10.029  80.512  1.00  0.00     0.004 C 
ENDBRANCH  30  31
ENDBRANCH  29  30
ENDBRANCH  28  29
ENDBRANCH  27  28
ENDBRANCH  26  27
ENDBRANCH  25  26
ENDBRANCH  24  25
ENDBRANCH  23  24
ENDBRANCH  22  23
ENDBRANCH  21  22
ENDBRANCH  20  21
ENDBRANCH  19  20
ENDBRANCH  18  19
ENDBRANCH   1  18
TORSDOF 28
ENDMDL
