MODEL 1
REMARK VINA RESULT:    -4.003      0.000      0.000
REMARK INTER + INTRA:          -6.142
REMARK INTER:                  -4.939
REMARK INTRA:                  -1.203
REMARK UNBOUND:                -1.203
REMARK SMILES CC(C)=CCC[C@@H](C)c1ccc(C)cc1
REMARK SMILES IDX 6 1 7 2 8 3 9 4 13 5 12 6 11 7 14 8 10 9 15 10 5 11 4 12
REMARK SMILES IDX 2 13 1 14 3 15
REMARK H PARENT
REMARK Flexibility Score: inf
ROOT
ATOM      1  C   UNL     1      57.155  76.356 185.681  1.00  0.00     0.012 C 
ENDROOT
BRANCH   1   2
ATOM      2  C   UNL     1      56.323  75.065 185.858  1.00  0.00     0.016 C 
ATOM      3  C   UNL     1      57.076  73.810 185.387  1.00  0.00     0.013 C 
BRANCH   2   4
ATOM      4  C   UNL     1      55.755  74.954 187.266  1.00  0.00    -0.045 A 
ATOM      5  C   UNL     1      53.946  74.633 191.180  1.00  0.00     0.044 C 
ATOM      6  C   UNL     1      54.552  74.764 189.814  1.00  0.00    -0.051 A 
ATOM      7  C   UNL     1      54.184  73.880 188.790  1.00  0.00     0.004 A 
ATOM      8  C   UNL     1      55.534  75.732 189.566  1.00  0.00     0.004 A 
ATOM      9  C   UNL     1      54.772  73.982 187.527  1.00  0.00     0.004 A 
ATOM     10  C   UNL     1      56.124  75.835 188.303  1.00  0.00     0.004 A 
ENDBRANCH   2   4
ENDBRANCH   1   2
BRANCH   1  11
ATOM     11  C   UNL     1      58.672  76.122 185.574  1.00  0.00     0.028 C 
BRANCH  11  12
ATOM     12  C   UNL     1      59.385  76.683 186.778  1.00  0.00    -0.028 C 
ATOM     13  C   UNL     1      59.897  75.929 187.776  1.00  0.00    -0.080 C 
ATOM     14  C   UNL     1      60.556  76.626 188.938  1.00  0.00     0.039 C 
ATOM     15  C   UNL     1      59.844  74.417 187.746  1.00  0.00     0.039 C 
ENDBRANCH  11  12
ENDBRANCH   1  11
TORSDOF 4
ENDMDL
MODEL 2
REMARK VINA RESULT:    -4.002      0.107      1.255
REMARK INTER + INTRA:          -6.141
REMARK INTER:                  -4.967
REMARK INTRA:                  -1.174
REMARK UNBOUND:                -1.203
REMARK SMILES CC(C)=CCC[C@@H](C)c1ccc(C)cc1
REMARK SMILES IDX 6 1 7 2 8 3 9 4 13 5 12 6 11 7 14 8 10 9 15 10 5 11 4 12
REMARK SMILES IDX 2 13 1 14 3 15
REMARK H PARENT
REMARK Flexibility Score: inf
ROOT
ATOM      1  C   UNL     1      57.142  76.330 185.713  1.00  0.00     0.012 C 
ENDROOT
BRANCH   1   2
ATOM      2  C   UNL     1      56.317  75.026 185.809  1.00  0.00     0.016 C 
ATOM      3  C   UNL     1      57.121  73.787 185.384  1.00  0.00     0.013 C 
BRANCH   2   4
ATOM      4  C   UNL     1      55.642  74.890 187.167  1.00  0.00    -0.045 A 
ATOM      5  C   UNL     1      53.918  74.505 191.113  1.00  0.00     0.044 C 
ATOM      6  C   UNL     1      54.537  74.619 189.752  1.00  0.00    -0.051 A 
ATOM      7  C   UNL     1      55.487  75.616 189.489  1.00  0.00     0.004 A 
ATOM      8  C   UNL     1      54.130  73.768 188.716  1.00  0.00     0.004 A 
ATOM      9  C   UNL     1      56.041  75.742 188.213  1.00  0.00     0.004 A 
ATOM     10  C   UNL     1      54.682  73.893 187.438  1.00  0.00     0.004 A 
ENDBRANCH   2   4
ENDBRANCH   1   2
BRANCH   1  11
ATOM     11  C   UNL     1      58.659  76.110 185.581  1.00  0.00     0.028 C 
BRANCH  11  12
ATOM     12  C   UNL     1      59.387  76.680 186.772  1.00  0.00    -0.028 C 
ATOM     13  C   UNL     1      59.900  75.934 187.775  1.00  0.00    -0.080 C 
ATOM     14  C   UNL     1      60.575  76.639 188.923  1.00  0.00     0.039 C 
ATOM     15  C   UNL     1      59.834  74.422 187.764  1.00  0.00     0.039 C 
ENDBRANCH  11  12
ENDBRANCH   1  11
TORSDOF 4
ENDMDL
MODEL 3
REMARK VINA RESULT:    -3.891      1.379      1.963
REMARK INTER + INTRA:          -6.004
REMARK INTER:                  -4.536
REMARK INTRA:                  -1.468
REMARK UNBOUND:                -1.203
REMARK SMILES CC(C)=CCC[C@@H](C)c1ccc(C)cc1
REMARK SMILES IDX 6 1 7 2 8 3 9 4 13 5 12 6 11 7 14 8 10 9 15 10 5 11 4 12
REMARK SMILES IDX 2 13 1 14 3 15
REMARK H PARENT
REMARK Flexibility Score: inf
ROOT
ATOM      1  C   UNL     1      58.989  76.649 186.177  1.00  0.00     0.012 C 
ENDROOT
BRANCH   1   2
ATOM      2  C   UNL     1      57.465  76.440 186.021  1.00  0.00     0.016 C 
ATOM      3  C   UNL     1      57.123  75.169 185.226  1.00  0.00     0.013 C 
BRANCH   2   4
ATOM      4  C   UNL     1      56.746  76.546 187.359  1.00  0.00    -0.045 A 
ATOM      5  C   UNL     1      54.524  76.787 191.060  1.00  0.00     0.044 C 
ATOM      6  C   UNL     1      55.272  76.717 189.762  1.00  0.00    -0.051 A 
ATOM      7  C   UNL     1      55.181  75.574 188.955  1.00  0.00     0.004 A 
ATOM      8  C   UNL     1      56.114  77.766 189.373  1.00  0.00     0.004 A 
ATOM      9  C   UNL     1      55.901  75.495 187.761  1.00  0.00     0.004 A 
ATOM     10  C   UNL     1      56.837  77.689 188.179  1.00  0.00     0.004 A 
ENDBRANCH   2   4
ENDBRANCH   1   2
BRANCH   1  11
ATOM     11  C   UNL     1      59.666  75.668 187.150  1.00  0.00     0.028 C 
BRANCH  11  12
ATOM     12  C   UNL     1      60.375  76.412 188.252  1.00  0.00    -0.028 C 
ATOM     13  C   UNL     1      60.064  76.302 189.563  1.00  0.00    -0.080 C 
ATOM     14  C   UNL     1      60.835  77.133 190.557  1.00  0.00     0.039 C 
ATOM     15  C   UNL     1      58.986  75.361 190.054  1.00  0.00     0.039 C 
ENDBRANCH  11  12
ENDBRANCH   1  11
TORSDOF 4
ENDMDL
MODEL 4
REMARK VINA RESULT:    -3.809      1.617      2.122
REMARK INTER + INTRA:          -5.903
REMARK INTER:                  -4.381
REMARK INTRA:                  -1.522
REMARK UNBOUND:                -1.203
REMARK SMILES CC(C)=CCC[C@@H](C)c1ccc(C)cc1
REMARK SMILES IDX 6 1 7 2 8 3 9 4 13 5 12 6 11 7 14 8 10 9 15 10 5 11 4 12
REMARK SMILES IDX 2 13 1 14 3 15
REMARK H PARENT
REMARK Flexibility Score: inf
ROOT
ATOM      1  C   UNL     1      58.246  74.281 185.212  1.00  0.00     0.012 C 
ENDROOT
BRANCH   1   2
ATOM      2  C   UNL     1      56.737  74.592 185.337  1.00  0.00     0.016 C 
ATOM      3  C   UNL     1      55.857  73.361 185.064  1.00  0.00     0.013 C 
BRANCH   2   4
ATOM      4  C   UNL     1      56.418  75.302 186.645  1.00  0.00    -0.045 A 
ATOM      5  C   UNL     1      55.309  77.320 190.305  1.00  0.00     0.044 C 
ATOM      6  C   UNL     1      55.675  76.638 189.020  1.00  0.00    -0.051 A 
ATOM      7  C   UNL     1      54.992  75.483 188.614  1.00  0.00     0.004 A 
ATOM      8  C   UNL     1      56.740  77.114 188.245  1.00  0.00     0.004 A 
ATOM      9  C   UNL     1      55.353  74.829 187.434  1.00  0.00     0.004 A 
ATOM     10  C   UNL     1      57.104  76.461 187.064  1.00  0.00     0.004 A 
ENDBRANCH   2   4
ENDBRANCH   1   2
BRANCH   1  11
ATOM     11  C   UNL     1      58.761  73.231 186.211  1.00  0.00     0.028 C 
BRANCH  11  12
ATOM     12  C   UNL     1      59.779  73.836 187.144  1.00  0.00    -0.028 C 
ATOM     13  C   UNL     1      59.602  73.968 188.477  1.00  0.00    -0.080 C 
ATOM     14  C   UNL     1      60.691  74.623 189.286  1.00  0.00     0.039 C 
ATOM     15  C   UNL     1      58.358  73.462 189.174  1.00  0.00     0.039 C 
ENDBRANCH  11  12
ENDBRANCH   1  11
TORSDOF 4
ENDMDL
MODEL 5
REMARK VINA RESULT:    -3.685      1.060      4.703
REMARK INTER + INTRA:          -5.750
REMARK INTER:                  -4.309
REMARK INTRA:                  -1.442
REMARK UNBOUND:                -1.203
REMARK SMILES CC(C)=CCC[C@@H](C)c1ccc(C)cc1
REMARK SMILES IDX 6 1 7 2 8 3 9 4 13 5 12 6 11 7 14 8 10 9 15 10 5 11 4 12
REMARK SMILES IDX 2 13 1 14 3 15
REMARK H PARENT
REMARK Flexibility Score: inf
ROOT
ATOM      1  C   UNL     1      56.834  73.948 186.050  1.00  0.00     0.012 C 
ENDROOT
BRANCH   1   2
ATOM      2  C   UNL     1      57.868  75.040 185.691  1.00  0.00     0.016 C 
ATOM      3  C   UNL     1      57.206  76.360 185.263  1.00  0.00     0.013 C 
BRANCH   2   4
ATOM      4  C   UNL     1      58.916  75.199 186.784  1.00  0.00    -0.045 A 
ATOM      5  C   UNL     1      61.765  75.544 190.018  1.00  0.00     0.044 C 
ATOM      6  C   UNL     1      60.754  75.431 188.915  1.00  0.00    -0.051 A 
ATOM      7  C   UNL     1      60.199  74.185 188.591  1.00  0.00     0.004 A 
ATOM      8  C   UNL     1      60.400  76.557 188.161  1.00  0.00     0.004 A 
ATOM      9  C   UNL     1      59.282  74.073 187.544  1.00  0.00     0.004 A 
ATOM     10  C   UNL     1      59.483  76.448 187.112  1.00  0.00     0.004 A 
ENDBRANCH   2   4
ENDBRANCH   1   2
BRANCH   1  11
ATOM     11  C   UNL     1      55.515  74.490 186.627  1.00  0.00     0.028 C 
BRANCH  11  12
ATOM     12  C   UNL     1      55.444  74.251 188.113  1.00  0.00    -0.028 C 
ATOM     13  C   UNL     1      55.689  75.197 189.046  1.00  0.00    -0.080 C 
ATOM     14  C   UNL     1      55.615  74.810 190.501  1.00  0.00     0.039 C 
ATOM     15  C   UNL     1      56.013  76.627 188.671  1.00  0.00     0.039 C 
ENDBRANCH  11  12
ENDBRANCH   1  11
TORSDOF 4
ENDMDL
MODEL 6
REMARK VINA RESULT:    -3.675     15.778     17.989
REMARK INTER + INTRA:          -5.737
REMARK INTER:                  -4.124
REMARK INTRA:                  -1.614
REMARK UNBOUND:                -1.203
REMARK SMILES CC(C)=CCC[C@@H](C)c1ccc(C)cc1
REMARK SMILES IDX 6 1 7 2 8 3 9 4 13 5 12 6 11 7 14 8 10 9 15 10 5 11 4 12
REMARK SMILES IDX 2 13 1 14 3 15
REMARK H PARENT
REMARK Flexibility Score: inf
ROOT
ATOM      1  C   UNL     1      64.655  71.117 204.283  1.00  0.00     0.012 C 
ENDROOT
BRANCH   1   2
ATOM      2  C   UNL     1      64.555  69.593 204.519  1.00  0.00     0.016 C 
ATOM      3  C   UNL     1      63.204  69.177 205.125  1.00  0.00     0.013 C 
BRANCH   2   4
ATOM      4  C   UNL     1      64.942  68.807 203.273  1.00  0.00    -0.045 A 
ATOM      5  C   UNL     1      66.050  66.759 199.631  1.00  0.00     0.044 C 
ATOM      6  C   UNL     1      65.646  67.487 200.878  1.00  0.00    -0.051 A 
ATOM      7  C   UNL     1      66.388  68.590 201.324  1.00  0.00     0.004 A 
ATOM      8  C   UNL     1      64.562  67.036 201.642  1.00  0.00     0.004 A 
ATOM      9  C   UNL     1      66.032  69.249 202.502  1.00  0.00     0.004 A 
ATOM     10  C   UNL     1      64.204  67.694 202.822  1.00  0.00     0.004 A 
ENDBRANCH   2   4
ENDBRANCH   1   2
BRANCH   1  11
ATOM     11  C   UNL     1      63.418  71.736 203.607  1.00  0.00     0.028 C 
BRANCH  11  12
ATOM     12  C   UNL     1      63.642  71.890 202.125  1.00  0.00    -0.028 C 
ATOM     13  C   UNL     1      62.999  71.167 201.181  1.00  0.00    -0.080 C 
ATOM     14  C   UNL     1      63.346  71.402 199.734  1.00  0.00     0.039 C 
ATOM     15  C   UNL     1      61.936  70.151 201.537  1.00  0.00     0.039 C 
ENDBRANCH  11  12
ENDBRANCH   1  11
TORSDOF 4
ENDMDL
MODEL 7
REMARK VINA RESULT:    -3.642      2.005      5.139
REMARK INTER + INTRA:          -5.697
REMARK INTER:                  -4.543
REMARK INTRA:                  -1.154
REMARK UNBOUND:                -1.203
REMARK SMILES CC(C)=CCC[C@@H](C)c1ccc(C)cc1
REMARK SMILES IDX 6 1 7 2 8 3 9 4 13 5 12 6 11 7 14 8 10 9 15 10 5 11 4 12
REMARK SMILES IDX 2 13 1 14 3 15
REMARK H PARENT
REMARK Flexibility Score: inf
ROOT
ATOM      1  C   UNL     1      55.263  77.800 189.517  1.00  0.00     0.012 C 
ENDROOT
BRANCH   1   2
ATOM      2  C   UNL     1      56.443  77.114 188.794  1.00  0.00     0.016 C 
ATOM      3  C   UNL     1      57.590  76.750 189.751  1.00  0.00     0.013 C 
BRANCH   2   4
ATOM      4  C   UNL     1      55.971  75.956 187.926  1.00  0.00    -0.045 A 
ATOM      5  C   UNL     1      54.618  72.547 185.635  1.00  0.00     0.044 C 
ATOM      6  C   UNL     1      55.106  73.711 186.446  1.00  0.00    -0.051 A 
ATOM      7  C   UNL     1      54.416  74.107 187.600  1.00  0.00     0.004 A 
ATOM      8  C   UNL     1      56.219  74.450 186.024  1.00  0.00     0.004 A 
ATOM      9  C   UNL     1      54.851  75.210 188.337  1.00  0.00     0.004 A 
ATOM     10  C   UNL     1      56.656  75.555 186.760  1.00  0.00     0.004 A 
ENDBRANCH   2   4
ENDBRANCH   1   2
BRANCH   1  11
ATOM     11  C   UNL     1      55.325  77.714 191.052  1.00  0.00     0.028 C 
BRANCH  11  12
ATOM     12  C   UNL     1      54.076  77.073 191.602  1.00  0.00    -0.028 C 
ATOM     13  C   UNL     1      53.993  75.780 191.984  1.00  0.00    -0.080 C 
ATOM     14  C   UNL     1      52.670  75.261 192.486  1.00  0.00     0.039 C 
ATOM     15  C   UNL     1      55.188  74.853 191.942  1.00  0.00     0.039 C 
ENDBRANCH  11  12
ENDBRANCH   1  11
TORSDOF 4
ENDMDL
MODEL 8
REMARK VINA RESULT:    -3.641     13.298     16.110
REMARK INTER + INTRA:          -5.696
REMARK INTER:                  -4.227
REMARK INTRA:                  -1.469
REMARK UNBOUND:                -1.203
REMARK SMILES CC(C)=CCC[C@@H](C)c1ccc(C)cc1
REMARK SMILES IDX 6 1 7 2 8 3 9 4 13 5 12 6 11 7 14 8 10 9 15 10 5 11 4 12
REMARK SMILES IDX 2 13 1 14 3 15
REMARK H PARENT
REMARK Flexibility Score: inf
ROOT
ATOM      1  C   UNL     1      55.491  74.035 205.124  1.00  0.00     0.012 C 
ENDROOT
BRANCH   1   2
ATOM      2  C   UNL     1      56.976  74.457 205.059  1.00  0.00     0.016 C 
ATOM      3  C   UNL     1      57.932  73.254 205.083  1.00  0.00     0.013 C 
BRANCH   2   4
ATOM      4  C   UNL     1      57.233  75.429 203.915  1.00  0.00    -0.045 A 
ATOM      5  C   UNL     1      57.801  78.097 200.562  1.00  0.00     0.044 C 
ATOM      6  C   UNL     1      57.599  77.148 201.706  1.00  0.00    -0.051 A 
ATOM      7  C   UNL     1      56.326  76.978 202.267  1.00  0.00     0.004 A 
ATOM      8  C   UNL     1      58.691  76.470 202.262  1.00  0.00     0.004 A 
ATOM      9  C   UNL     1      56.144  76.119 203.352  1.00  0.00     0.004 A 
ATOM     10  C   UNL     1      58.511  75.610 203.349  1.00  0.00     0.004 A 
ENDBRANCH   2   4
ENDBRANCH   1   2
BRANCH   1  11
ATOM     11  C   UNL     1      55.194  72.664 204.492  1.00  0.00     0.028 C 
BRANCH  11  12
ATOM     12  C   UNL     1      54.345  72.819 203.256  1.00  0.00    -0.028 C 
ATOM     13  C   UNL     1      54.838  72.857 201.998  1.00  0.00    -0.080 C 
ATOM     14  C   UNL     1      53.877  73.050 200.854  1.00  0.00     0.039 C 
ATOM     15  C   UNL     1      56.314  72.691 201.711  1.00  0.00     0.039 C 
ENDBRANCH  11  12
ENDBRANCH   1  11
TORSDOF 4
ENDMDL
MODEL 9
REMARK VINA RESULT:    -3.586     13.427     16.258
REMARK INTER + INTRA:          -5.628
REMARK INTER:                  -4.168
REMARK INTRA:                  -1.460
REMARK UNBOUND:                -1.203
REMARK SMILES CC(C)=CCC[C@@H](C)c1ccc(C)cc1
REMARK SMILES IDX 6 1 7 2 8 3 9 4 13 5 12 6 11 7 14 8 10 9 15 10 5 11 4 12
REMARK SMILES IDX 2 13 1 14 3 15
REMARK H PARENT
REMARK Flexibility Score: inf
ROOT
ATOM      1  C   UNL     1      59.832  74.681 205.119  1.00  0.00     0.012 C 
ENDROOT
BRANCH   1   2
ATOM      2  C   UNL     1      60.821  73.579 204.678  1.00  0.00     0.016 C 
ATOM      3  C   UNL     1      60.207  72.171 204.753  1.00  0.00     0.013 C 
BRANCH   2   4
ATOM      4  C   UNL     1      61.459  73.904 203.334  1.00  0.00    -0.045 A 
ATOM      5  C   UNL     1      63.108  74.958 199.479  1.00  0.00     0.044 C 
ATOM      6  C   UNL     1      62.508  74.590 200.804  1.00  0.00    -0.051 A 
ATOM      7  C   UNL     1      62.094  75.591 201.693  1.00  0.00     0.004 A 
ATOM      8  C   UNL     1      62.412  73.247 201.189  1.00  0.00     0.004 A 
ATOM      9  C   UNL     1      61.565  75.251 202.940  1.00  0.00     0.004 A 
ATOM     10  C   UNL     1      61.884  72.904 202.436  1.00  0.00     0.004 A 
ENDBRANCH   2   4
ENDBRANCH   1   2
BRANCH   1  11
ATOM     11  C   UNL     1      58.395  74.485 204.606  1.00  0.00     0.028 C 
BRANCH  11  12
ATOM     12  C   UNL     1      57.982  75.634 203.722  1.00  0.00    -0.028 C 
ATOM     13  C   UNL     1      57.942  75.575 202.372  1.00  0.00    -0.080 C 
ATOM     14  C   UNL     1      57.542  76.812 201.610  1.00  0.00     0.039 C 
ATOM     15  C   UNL     1      58.265  74.305 201.615  1.00  0.00     0.039 C 
ENDBRANCH  11  12
ENDBRANCH   1  11
TORSDOF 4
ENDMDL
