MODEL 1
REMARK VINA RESULT:    -4.612      0.000      0.000
REMARK INTER + INTRA:          -4.937
REMARK INTER:                  -5.690
REMARK INTRA:                   0.754
REMARK UNBOUND:                 0.754
REMARK SMILES CC1=CC=CC(C)(C)CC1=O
REMARK SMILES IDX 1 1 2 2 3 3 10 4 11 5 9 6 4 8 5 9 6 10 7 11 8 12
REMARK H PARENT
REMARK Flexibility Score: 80.00
ROOT
ATOM      1  C   UNL     1      -7.353  33.851  20.127  1.00  0.00     0.048 C 
ATOM      2  C   UNL     1      -7.542  33.877  21.625  1.00  0.00    -0.008 C 
ATOM      3  C   UNL     1      -7.656  35.083  22.221  1.00  0.00     0.007 C 
ENDROOT
BRANCH   2   4
ATOM      4  C   UNL     1      -7.664  32.567  22.313  1.00  0.00     0.159 C 
ATOM      5  O   UNL     1      -7.790  31.523  21.616  1.00  0.00    -0.295 OA
BRANCH   4   6
ATOM      6  C   UNL     1      -7.633  32.410  23.802  1.00  0.00     0.091 CG0
ATOM      7  G   UNL     1      -8.757  33.188  24.520  1.00  0.00     0.000 G0
ENDBRANCH   4   6
ENDBRANCH   2   4
BRANCH   3   8
ATOM      8  C   UNL     1      -7.871  35.423  23.647  1.00  0.00    -0.003 C 
ATOM      9  C   UNL     1      -8.341  34.652  24.637  1.00  0.00    -0.020 C 
BRANCH   9  10
ATOM     10  C   UNL     1      -8.745  33.201  24.530  1.00  0.00    -0.010 CG0
ATOM     11  C   UNL     1      -8.876  32.627  25.959  1.00  0.00     0.016 C 
ATOM     12  C   UNL     1     -10.125  33.087  23.842  1.00  0.00     0.016 C 
ATOM     13  G   UNL     1      -7.645  32.407  23.792  1.00  0.00     0.000 G0
ENDBRANCH   9  10
ENDBRANCH   3   8
TORSDOF 0
ENDMDL
MODEL 2
REMARK VINA RESULT:    -4.564      1.838      2.985
REMARK INTER + INTRA:          -4.877
REMARK INTER:                  -5.640
REMARK INTRA:                   0.762
REMARK UNBOUND:                 0.754
REMARK SMILES CC1=CC=CC(C)(C)CC1=O
REMARK SMILES IDX 1 1 2 2 3 3 10 4 11 5 9 6 4 8 5 9 6 10 7 11 8 12
REMARK H PARENT
REMARK Flexibility Score: 80.00
ROOT
ATOM      1  C   UNL     1      -7.470  35.589  22.058  1.00  0.00     0.048 C 
ATOM      2  C   UNL     1      -7.967  34.169  22.196  1.00  0.00    -0.008 C 
ATOM      3  C   UNL     1      -8.192  33.472  21.062  1.00  0.00     0.007 C 
ENDROOT
BRANCH   2   4
ATOM      4  C   UNL     1      -8.094  33.628  23.573  1.00  0.00     0.159 C 
ATOM      5  O   UNL     1      -7.614  34.290  24.533  1.00  0.00    -0.295 OA
BRANCH   4   6
ATOM      6  C   UNL     1      -8.778  32.335  23.892  1.00  0.00     0.091 CG0
ATOM      7  G   UNL     1      -8.147  31.119  23.180  1.00  0.00     0.000 G0
ENDBRANCH   4   6
ENDBRANCH   2   4
BRANCH   3   8
ATOM      8  C   UNL     1      -8.649  32.075  20.879  1.00  0.00    -0.003 C 
ATOM      9  C   UNL     1      -8.628  31.058  21.751  1.00  0.00    -0.020 C 
BRANCH   9  10
ATOM     10  C   UNL     1      -8.143  31.113  23.180  1.00  0.00    -0.010 CG0
ATOM     11  C   UNL     1      -8.621  29.833  23.904  1.00  0.00     0.016 C 
ATOM     12  C   UNL     1      -6.597  31.129  23.213  1.00  0.00     0.016 C 
ATOM     13  G   UNL     1      -8.766  32.331  23.896  1.00  0.00     0.000 G0
ENDBRANCH   9  10
ENDBRANCH   3   8
TORSDOF 0
ENDMDL
MODEL 3
REMARK VINA RESULT:    -4.560      1.771      3.350
REMARK INTER + INTRA:          -4.873
REMARK INTER:                  -5.625
REMARK INTRA:                   0.752
REMARK UNBOUND:                 0.754
REMARK SMILES CC1=CC=CC(C)(C)CC1=O
REMARK SMILES IDX 1 1 2 2 3 3 10 4 11 5 9 6 4 8 5 9 6 10 7 11 8 12
REMARK H PARENT
REMARK Flexibility Score: 80.00
ROOT
ATOM      1  C   UNL     1      -7.860  35.555  25.285  1.00  0.00     0.048 C 
ATOM      2  C   UNL     1      -8.158  34.873  23.972  1.00  0.00    -0.008 C 
ATOM      3  C   UNL     1      -7.485  35.295  22.880  1.00  0.00     0.007 C 
ENDROOT
BRANCH   2   4
ATOM      4  C   UNL     1      -9.114  33.737  24.001  1.00  0.00     0.159 C 
ATOM      5  O   UNL     1      -9.463  33.265  25.118  1.00  0.00    -0.295 OA
BRANCH   4   6
ATOM      6  C   UNL     1      -9.705  33.123  22.770  1.00  0.00     0.091 CG0
ATOM      7  G   UNL     1      -8.644  32.551  21.804  1.00  0.00     0.000 G0
ENDBRANCH   4   6
ENDBRANCH   2   4
BRANCH   3   8
ATOM      8  C   UNL     1      -7.542  34.811  21.481  1.00  0.00    -0.003 C 
ATOM      9  C   UNL     1      -8.012  33.650  21.008  1.00  0.00    -0.020 C 
BRANCH   9  10
ATOM     10  C   UNL     1      -8.642  32.541  21.816  1.00  0.00    -0.010 CG0
ATOM     11  C   UNL     1      -9.360  31.578  20.843  1.00  0.00     0.016 C 
ATOM     12  C   UNL     1      -7.546  31.740  22.557  1.00  0.00     0.016 C 
ATOM     13  G   UNL     1      -9.699  33.131  22.776  1.00  0.00     0.000 G0
ENDBRANCH   9  10
ENDBRANCH   3   8
TORSDOF 0
ENDMDL
MODEL 4
REMARK VINA RESULT:    -4.349      1.062      1.464
REMARK INTER + INTRA:          -4.612
REMARK INTER:                  -5.660
REMARK INTRA:                   1.048
REMARK UNBOUND:                 0.754
REMARK SMILES CC1=CC=CC(C)(C)CC1=O
REMARK SMILES IDX 1 1 2 2 3 3 10 4 11 5 9 6 4 8 5 9 6 10 7 11 8 12
REMARK H PARENT
REMARK Flexibility Score: 80.00
ROOT
ATOM      1  C   UNL     1      -7.353  34.120  19.948  1.00  0.00     0.048 C 
ATOM      2  C   UNL     1      -7.948  34.030  21.333  1.00  0.00    -0.008 C 
ATOM      3  C   UNL     1      -7.554  34.945  22.245  1.00  0.00     0.007 C 
ENDROOT
BRANCH   2   4
ATOM      4  C   UNL     1      -8.979  32.985  21.560  1.00  0.00     0.159 C 
ATOM      5  O   UNL     1      -9.105  32.061  20.710  1.00  0.00    -0.295 OA
BRANCH   4   6
ATOM      6  C   UNL     1      -9.878  32.958  22.757  1.00  0.00     0.091 CG0
ATOM      7  G   UNL     1      -9.109  32.893  24.095  1.00  0.00     0.000 G0
ENDBRANCH   4   6
ENDBRANCH   2   4
BRANCH   3   8
ATOM      8  C   UNL     1      -7.973  35.125  23.654  1.00  0.00    -0.003 C 
ATOM      9  C   UNL     1      -8.644  34.283  24.450  1.00  0.00    -0.020 C 
BRANCH   9  10
ATOM     10  C   UNL     1      -9.116  32.894  24.091  1.00  0.00    -0.010 CG0
ATOM     11  C   UNL     1      -7.875  31.990  23.911  1.00  0.00     0.016 C 
ATOM     12  C   UNL     1      -9.966  32.312  25.244  1.00  0.00     0.016 C 
ATOM     13  G   UNL     1      -9.881  32.934  22.750  1.00  0.00     0.000 G0
ENDBRANCH   9  10
ENDBRANCH   3   8
TORSDOF 0
ENDMDL
MODEL 5
REMARK VINA RESULT:    -4.291      1.418      2.441
REMARK INTER + INTRA:          -4.541
REMARK INTER:                  -5.614
REMARK INTRA:                   1.074
REMARK UNBOUND:                 0.754
REMARK SMILES CC1=CC=CC(C)(C)CC1=O
REMARK SMILES IDX 1 1 2 2 3 3 10 4 11 5 9 6 4 8 5 9 6 10 7 11 8 12
REMARK H PARENT
REMARK Flexibility Score: 80.00
ROOT
ATOM      1  C   UNL     1      -7.216  34.186  20.022  1.00  0.00     0.048 C 
ATOM      2  C   UNL     1      -7.505  33.530  21.351  1.00  0.00    -0.008 C 
ATOM      3  C   UNL     1      -7.404  32.185  21.420  1.00  0.00     0.007 C 
ENDROOT
BRANCH   2   4
ATOM      4  C   UNL     1      -7.802  34.426  22.497  1.00  0.00     0.159 C 
ATOM      5  O   UNL     1      -8.118  35.625  22.265  1.00  0.00    -0.295 OA
BRANCH   4   6
ATOM      6  C   UNL     1      -7.761  33.980  23.926  1.00  0.00     0.091 CG0
ATOM      7  G   UNL     1      -8.743  32.829  24.234  1.00  0.00     0.000 G0
ENDBRANCH   4   6
ENDBRANCH   2   4
BRANCH   3   8
ATOM      8  C   UNL     1      -7.598  31.274  22.573  1.00  0.00    -0.003 C 
ATOM      9  C   UNL     1      -8.152  31.529  23.765  1.00  0.00    -0.020 C 
BRANCH   9  10
ATOM     10  C   UNL     1      -8.753  32.839  24.214  1.00  0.00    -0.010 CG0
ATOM     11  C   UNL     1     -10.038  33.091  23.392  1.00  0.00     0.016 C 
ATOM     12  C   UNL     1      -9.152  32.753  25.706  1.00  0.00     0.016 C 
ATOM     13  G   UNL     1      -7.766  33.991  23.928  1.00  0.00     0.000 G0
ENDBRANCH   9  10
ENDBRANCH   3   8
TORSDOF 0
ENDMDL
MODEL 6
REMARK VINA RESULT:    -4.217      1.900      3.340
REMARK INTER + INTRA:          -4.449
REMARK INTER:                  -5.208
REMARK INTRA:                   0.759
REMARK UNBOUND:                 0.754
REMARK SMILES CC1=CC=CC(C)(C)CC1=O
REMARK SMILES IDX 1 1 2 2 3 3 10 4 11 5 9 6 4 8 5 9 6 10 7 11 8 12
REMARK H PARENT
REMARK Flexibility Score: 80.00
ROOT
ATOM      1  C   UNL     1      -8.289  35.878  25.745  1.00  0.00     0.048 C 
ATOM      2  C   UNL     1      -8.283  34.471  25.198  1.00  0.00    -0.008 C 
ATOM      3  C   UNL     1      -8.918  33.518  25.914  1.00  0.00     0.007 C 
ENDROOT
BRANCH   2   4
ATOM      4  C   UNL     1      -7.642  34.262  23.875  1.00  0.00     0.159 C 
ATOM      5  O   UNL     1      -7.330  35.271  23.185  1.00  0.00    -0.295 OA
BRANCH   4   6
ATOM      6  C   UNL     1      -7.330  32.910  23.313  1.00  0.00     0.091 CG0
ATOM      7  G   UNL     1      -8.580  32.022  23.129  1.00  0.00     0.000 G0
ENDBRANCH   4   6
ENDBRANCH   2   4
BRANCH   3   8
ATOM      8  C   UNL     1      -9.102  32.076  25.627  1.00  0.00    -0.003 C 
ATOM      9  C   UNL     1      -8.981  31.425  24.463  1.00  0.00    -0.020 C 
BRANCH   9  10
ATOM     10  C   UNL     1      -8.586  32.027  23.135  1.00  0.00    -0.010 CG0
ATOM     11  C   UNL     1      -8.227  30.875  22.168  1.00  0.00     0.016 C 
ATOM     12  C   UNL     1      -9.780  32.802  22.531  1.00  0.00     0.016 C 
ATOM     13  G   UNL     1      -7.333  32.911  23.316  1.00  0.00     0.000 G0
ENDBRANCH   9  10
ENDBRANCH   3   8
TORSDOF 0
ENDMDL
MODEL 7
REMARK VINA RESULT:    -4.205      1.761      2.801
REMARK INTER + INTRA:          -4.435
REMARK INTER:                  -5.456
REMARK INTRA:                   1.021
REMARK UNBOUND:                 0.754
REMARK SMILES CC1=CC=CC(C)(C)CC1=O
REMARK SMILES IDX 1 1 2 2 3 3 10 4 11 5 9 6 4 8 5 9 6 10 7 11 8 12
REMARK H PARENT
REMARK Flexibility Score: 80.00
ROOT
ATOM      1  C   UNL     1      -7.575  35.618  22.068  1.00  0.00     0.048 C 
ATOM      2  C   UNL     1      -8.038  34.229  22.436  1.00  0.00    -0.008 C 
ATOM      3  C   UNL     1      -8.493  34.033  23.692  1.00  0.00     0.007 C 
ENDROOT
BRANCH   2   4
ATOM      4  C   UNL     1      -8.028  33.205  21.360  1.00  0.00     0.159 C 
ATOM      5  O   UNL     1      -7.372  33.436  20.307  1.00  0.00    -0.295 OA
BRANCH   4   6
ATOM      6  C   UNL     1      -8.749  31.896  21.458  1.00  0.00     0.091 CG0
ATOM      7  G   UNL     1      -8.289  31.036  22.655  1.00  0.00     0.000 G0
ENDBRANCH   4   6
ENDBRANCH   2   4
BRANCH   3   8
ATOM      8  C   UNL     1      -9.030  32.807  24.329  1.00  0.00    -0.003 C 
ATOM      9  C   UNL     1      -8.970  31.539  23.903  1.00  0.00    -0.020 C 
BRANCH   9  10
ATOM     10  C   UNL     1      -8.293  31.045  22.647  1.00  0.00    -0.010 CG0
ATOM     11  C   UNL     1      -6.766  31.199  22.826  1.00  0.00     0.016 C 
ATOM     12  C   UNL     1      -8.599  29.544  22.438  1.00  0.00     0.016 C 
ATOM     13  G   UNL     1      -8.727  31.913  21.446  1.00  0.00     0.000 G0
ENDBRANCH   9  10
ENDBRANCH   3   8
TORSDOF 0
ENDMDL
MODEL 8
REMARK VINA RESULT:    -4.152      2.022      3.916
REMARK INTER + INTRA:          -4.369
REMARK INTER:                  -5.397
REMARK INTRA:                   1.028
REMARK UNBOUND:                 0.754
REMARK SMILES CC1=CC=CC(C)(C)CC1=O
REMARK SMILES IDX 1 1 2 2 3 3 10 4 11 5 9 6 4 8 5 9 6 10 7 11 8 12
REMARK H PARENT
REMARK Flexibility Score: 80.00
ROOT
ATOM      1  C   UNL     1      -7.903  30.393  26.676  1.00  0.00     0.048 C 
ATOM      2  C   UNL     1      -7.939  30.962  25.277  1.00  0.00    -0.008 C 
ATOM      3  C   UNL     1      -6.973  30.572  24.418  1.00  0.00     0.007 C 
ENDROOT
BRANCH   2   4
ATOM      4  C   UNL     1      -9.082  31.846  24.936  1.00  0.00     0.159 C 
ATOM      5  O   UNL     1      -9.775  32.332  25.871  1.00  0.00    -0.295 OA
BRANCH   4   6
ATOM      6  C   UNL     1      -9.453  32.211  23.532  1.00  0.00     0.091 CG0
ATOM      7  G   UNL     1      -8.320  32.931  22.768  1.00  0.00     0.000 G0
ENDBRANCH   4   6
ENDBRANCH   2   4
BRANCH   3   8
ATOM      8  C   UNL     1      -6.761  30.933  22.997  1.00  0.00    -0.003 C 
ATOM      9  C   UNL     1      -7.325  31.915  22.282  1.00  0.00    -0.020 C 
BRANCH   9  10
ATOM     10  C   UNL     1      -8.317  32.936  22.787  1.00  0.00    -0.010 CG0
ATOM     11  C   UNL     1      -7.586  33.880  23.768  1.00  0.00     0.016 C 
ATOM     12  C   UNL     1      -8.843  33.787  21.608  1.00  0.00     0.016 C 
ATOM     13  G   UNL     1      -9.450  32.224  23.559  1.00  0.00     0.000 G0
ENDBRANCH   9  10
ENDBRANCH   3   8
TORSDOF 0
ENDMDL
MODEL 9
REMARK VINA RESULT:    -3.878      2.471      3.655
REMARK INTER + INTRA:          -4.031
REMARK INTER:                  -4.778
REMARK INTRA:                   0.747
REMARK UNBOUND:                 0.754
REMARK SMILES CC1=CC=CC(C)(C)CC1=O
REMARK SMILES IDX 1 1 2 2 3 3 10 4 11 5 9 6 4 8 5 9 6 10 7 11 8 12
REMARK H PARENT
REMARK Flexibility Score: 80.00
ROOT
ATOM      1  C   UNL     1      -7.454  34.157  23.334  1.00  0.00     0.048 C 
ATOM      2  C   UNL     1      -7.975  32.780  23.670  1.00  0.00    -0.008 C 
ATOM      3  C   UNL     1      -7.446  31.731  23.005  1.00  0.00     0.007 C 
ENDROOT
BRANCH   2   4
ATOM      4  C   UNL     1      -8.976  32.684  24.763  1.00  0.00     0.159 C 
ATOM      5  O   UNL     1      -9.169  33.689  25.501  1.00  0.00    -0.295 OA
BRANCH   4   6
ATOM      6  C   UNL     1      -9.788  31.455  25.034  1.00  0.00     0.091 CG0
ATOM      7  G   UNL     1      -8.928  30.223  25.389  1.00  0.00     0.000 G0
ENDBRANCH   4   6
ENDBRANCH   2   4
BRANCH   3   8
ATOM      8  C   UNL     1      -7.731  30.283  23.132  1.00  0.00    -0.003 C 
ATOM      9  C   UNL     1      -8.335  29.625  24.130  1.00  0.00    -0.020 C 
BRANCH   9  10
ATOM     10  C   UNL     1      -8.913  30.235  25.386  1.00  0.00    -0.010 CG0
ATOM     11  C   UNL     1      -9.834  29.188  26.054  1.00  0.00     0.016 C 
ATOM     12  C   UNL     1      -7.777  30.573  26.379  1.00  0.00     0.016 C 
ATOM     13  G   UNL     1      -9.770  31.466  25.020  1.00  0.00     0.000 G0
ENDBRANCH   9  10
ENDBRANCH   3   8
TORSDOF 0
ENDMDL
