MODEL 1
REMARK VINA RESULT:    -3.762      0.000      0.000
REMARK INTER + INTRA:          -7.471
REMARK INTER:                  -5.961
REMARK INTRA:                  -1.510
REMARK UNBOUND:                -1.510
REMARK SMILES CCCCCCCCCCCC(=O)[O-]
REMARK SMILES IDX 7 1 8 2 9 3 10 4 11 5 12 6 13 7 14 8 6 9 5 10 4 11 3 12 2 13
REMARK SMILES IDX 1 14
REMARK H PARENT
REMARK Flexibility Score: inf
ROOT
ATOM      1  C   UNL     1      98.810   3.362  26.770  1.00  0.00     0.000 C 
ENDROOT
BRANCH   1   2
ATOM      2  C   UNL     1     100.103   4.181  26.861  1.00  0.00     0.000 C 
BRANCH   2   3
ATOM      3  C   UNL     1     100.744   4.356  25.479  1.00  0.00     0.000 C 
BRANCH   3   4
ATOM      4  C   UNL     1      99.687   4.264  24.368  1.00  0.00     0.006 C 
BRANCH   4   5
ATOM      5  C   UNL     1     100.225   3.567  23.111  1.00  0.00     0.053 C 
BRANCH   5   6
ATOM      6  C   UNL     1     100.490   2.112  23.351  1.00  0.00     0.041 C 
ATOM      7  O   UNL     1     101.590   1.605  23.009  1.00  0.00    -0.550 OA
ATOM      8  O   UNL     1      99.509   1.310  23.919  1.00  0.00    -0.550 OA
ENDBRANCH   5   6
ENDBRANCH   4   5
ENDBRANCH   3   4
ENDBRANCH   2   3
ENDBRANCH   1   2
BRANCH   1   9
ATOM      9  C   UNL     1      97.676   4.035  27.557  1.00  0.00     0.000 C 
BRANCH   9  10
ATOM     10  C   UNL     1      97.567   5.545  27.275  1.00  0.00    -0.000 C 
BRANCH  10  11
ATOM     11  C   UNL     1      96.771   5.919  26.009  1.00  0.00    -0.000 C 
BRANCH  11  12
ATOM     12  C   UNL     1      95.773   4.851  25.526  1.00  0.00    -0.000 C 
BRANCH  12  13
ATOM     13  C   UNL     1      96.091   4.334  24.117  1.00  0.00    -0.003 C 
ATOM     14  C   UNL     1      96.234   2.814  24.109  1.00  0.00     0.004 C 
ENDBRANCH  12  13
ENDBRANCH  11  12
ENDBRANCH  10  11
ENDBRANCH   9  10
ENDBRANCH   1   9
TORSDOF 10
ENDMDL
MODEL 2
REMARK VINA RESULT:    -3.697      3.139      4.981
REMARK INTER + INTRA:          -7.369
REMARK INTER:                  -5.727
REMARK INTRA:                  -1.642
REMARK UNBOUND:                -1.510
REMARK SMILES CCCCCCCCCCCC(=O)[O-]
REMARK SMILES IDX 7 1 8 2 9 3 10 4 11 5 12 6 13 7 14 8 6 9 5 10 4 11 3 12 2 13
REMARK SMILES IDX 1 14
REMARK H PARENT
REMARK Flexibility Score: inf
ROOT
ATOM      1  C   UNL     1      99.638   3.266  23.551  1.00  0.00     0.000 C 
ENDROOT
BRANCH   1   2
ATOM      2  C   UNL     1      99.299   4.636  22.951  1.00  0.00     0.000 C 
BRANCH   2   3
ATOM      3  C   UNL     1      98.147   5.302  23.714  1.00  0.00     0.000 C 
BRANCH   3   4
ATOM      4  C   UNL     1      96.909   4.394  23.743  1.00  0.00     0.006 C 
BRANCH   4   5
ATOM      5  C   UNL     1      95.841   4.898  24.723  1.00  0.00     0.053 C 
BRANCH   5   6
ATOM      6  C   UNL     1      95.359   6.270  24.364  1.00  0.00     0.041 C 
ATOM      7  O   UNL     1      94.764   6.466  23.271  1.00  0.00    -0.550 OA
ATOM      8  O   UNL     1      95.597   7.338  25.219  1.00  0.00    -0.550 OA
ENDBRANCH   5   6
ENDBRANCH   4   5
ENDBRANCH   3   4
ENDBRANCH   2   3
ENDBRANCH   1   2
BRANCH   1   9
ATOM      9  C   UNL     1     100.869   3.355  24.464  1.00  0.00     0.000 C 
BRANCH   9  10
ATOM     10  C   UNL     1     100.546   3.038  25.936  1.00  0.00    -0.000 C 
BRANCH  10  11
ATOM     11  C   UNL     1      99.082   2.642  26.214  1.00  0.00    -0.000 C 
BRANCH  11  12
ATOM     12  C   UNL     1      98.328   3.571  27.182  1.00  0.00    -0.000 C 
BRANCH  12  13
ATOM     13  C   UNL     1      99.077   4.883  27.454  1.00  0.00    -0.003 C 
ATOM     14  C   UNL     1      98.135   6.081  27.368  1.00  0.00     0.004 C 
ENDBRANCH  12  13
ENDBRANCH  11  12
ENDBRANCH  10  11
ENDBRANCH   9  10
ENDBRANCH   1   9
TORSDOF 10
ENDMDL
MODEL 3
REMARK VINA RESULT:    -3.688      2.685      3.888
REMARK INTER + INTRA:          -7.354
REMARK INTER:                  -5.938
REMARK INTRA:                  -1.416
REMARK UNBOUND:                -1.510
REMARK SMILES CCCCCCCCCCCC(=O)[O-]
REMARK SMILES IDX 7 1 8 2 9 3 10 4 11 5 12 6 13 7 14 8 6 9 5 10 4 11 3 12 2 13
REMARK SMILES IDX 1 14
REMARK H PARENT
REMARK Flexibility Score: inf
ROOT
ATOM      1  C   UNL     1      95.450   5.641  25.895  1.00  0.00     0.000 C 
ENDROOT
BRANCH   1   2
ATOM      2  C   UNL     1      96.807   5.316  26.531  1.00  0.00     0.000 C 
BRANCH   2   3
ATOM      3  C   UNL     1      97.961   5.785  25.638  1.00  0.00     0.000 C 
BRANCH   3   4
ATOM      4  C   UNL     1      98.744   4.589  25.077  1.00  0.00     0.006 C 
BRANCH   4   5
ATOM      5  C   UNL     1      98.099   4.015  23.809  1.00  0.00     0.053 C 
BRANCH   5   6
ATOM      6  C   UNL     1      97.328   2.762  24.094  1.00  0.00     0.041 C 
ATOM      7  O   UNL     1      97.927   1.725  24.481  1.00  0.00    -0.550 OA
ATOM      8  O   UNL     1      95.953   2.731  23.898  1.00  0.00    -0.550 OA
ENDBRANCH   5   6
ENDBRANCH   4   5
ENDBRANCH   3   4
ENDBRANCH   2   3
ENDBRANCH   1   2
BRANCH   1   9
ATOM      9  C   UNL     1      95.595   6.721  24.813  1.00  0.00     0.000 C 
BRANCH   9  10
ATOM     10  C   UNL     1      95.034   6.280  23.449  1.00  0.00    -0.000 C 
BRANCH  10  11
ATOM     11  C   UNL     1      95.556   7.078  22.237  1.00  0.00    -0.000 C 
BRANCH  11  12
ATOM     12  C   UNL     1      96.577   8.180  22.572  1.00  0.00    -0.000 C 
BRANCH  12  13
ATOM     13  C   UNL     1      97.994   7.846  22.085  1.00  0.00    -0.003 C 
ATOM     14  C   UNL     1      97.989   6.616  21.181  1.00  0.00     0.004 C 
ENDBRANCH  12  13
ENDBRANCH  11  12
ENDBRANCH  10  11
ENDBRANCH   9  10
ENDBRANCH   1   9
TORSDOF 10
ENDMDL
MODEL 4
REMARK VINA RESULT:    -3.684      2.740      4.078
REMARK INTER + INTRA:          -7.347
REMARK INTER:                  -5.930
REMARK INTRA:                  -1.417
REMARK UNBOUND:                -1.510
REMARK SMILES CCCCCCCCCCCC(=O)[O-]
REMARK SMILES IDX 7 1 8 2 9 3 10 4 11 5 12 6 13 7 14 8 6 9 5 10 4 11 3 12 2 13
REMARK SMILES IDX 1 14
REMARK H PARENT
REMARK Flexibility Score: inf
ROOT
ATOM      1  C   UNL     1      96.883   5.812  26.194  1.00  0.00     0.000 C 
ENDROOT
BRANCH   1   2
ATOM      2  C   UNL     1      95.500   5.458  25.633  1.00  0.00     0.000 C 
BRANCH   2   3
ATOM      3  C   UNL     1      95.262   6.145  24.283  1.00  0.00     0.000 C 
BRANCH   3   4
ATOM      4  C   UNL     1      96.279   5.667  23.236  1.00  0.00     0.006 C 
BRANCH   4   5
ATOM      5  C   UNL     1      97.183   6.805  22.743  1.00  0.00     0.053 C 
BRANCH   5   6
ATOM      6  C   UNL     1      98.143   6.338  21.691  1.00  0.00     0.041 C 
ATOM      7  O   UNL     1      99.122   5.612  22.005  1.00  0.00    -0.550 OA
ATOM      8  O   UNL     1      97.975   6.734  20.371  1.00  0.00    -0.550 OA
ENDBRANCH   5   6
ENDBRANCH   4   5
ENDBRANCH   3   4
ENDBRANCH   2   3
ENDBRANCH   1   2
BRANCH   1   9
ATOM      9  C   UNL     1      97.329   4.785  27.244  1.00  0.00     0.000 C 
BRANCH   9  10
ATOM     10  C   UNL     1      98.305   3.737  26.678  1.00  0.00    -0.000 C 
BRANCH  10  11
ATOM     11  C   UNL     1      98.873   4.058  25.281  1.00  0.00    -0.000 C 
BRANCH  11  12
ATOM     12  C   UNL     1      98.609   2.986  24.208  1.00  0.00    -0.000 C 
BRANCH  12  13
ATOM     13  C   UNL     1      97.588   1.932  24.657  1.00  0.00    -0.003 C 
ATOM     14  C   UNL     1      96.244   2.139  23.963  1.00  0.00     0.004 C 
ENDBRANCH  12  13
ENDBRANCH  11  12
ENDBRANCH  10  11
ENDBRANCH   9  10
ENDBRANCH   1   9
TORSDOF 10
ENDMDL
MODEL 5
REMARK VINA RESULT:    -3.677      2.959      4.924
REMARK INTER + INTRA:          -7.336
REMARK INTER:                  -5.761
REMARK INTRA:                  -1.575
REMARK UNBOUND:                -1.510
REMARK SMILES CCCCCCCCCCCC(=O)[O-]
REMARK SMILES IDX 7 1 8 2 9 3 10 4 11 5 12 6 13 7 14 8 6 9 5 10 4 11 3 12 2 13
REMARK SMILES IDX 1 14
REMARK H PARENT
REMARK Flexibility Score: inf
ROOT
ATOM      1  C   UNL     1      97.208   2.562  25.267  1.00  0.00     0.000 C 
ENDROOT
BRANCH   1   2
ATOM      2  C   UNL     1      96.265   3.173  24.224  1.00  0.00     0.000 C 
BRANCH   2   3
ATOM      3  C   UNL     1      95.906   4.619  24.585  1.00  0.00     0.000 C 
BRANCH   3   4
ATOM      4  C   UNL     1      96.228   5.572  23.425  1.00  0.00     0.006 C 
BRANCH   4   5
ATOM      5  C   UNL     1      97.185   6.696  23.845  1.00  0.00     0.053 C 
BRANCH   5   6
ATOM      6  C   UNL     1      96.765   7.332  25.135  1.00  0.00     0.041 C 
ATOM      7  O   UNL     1      95.722   8.036  25.183  1.00  0.00    -0.550 OA
ATOM      8  O   UNL     1      97.542   7.175  26.275  1.00  0.00    -0.550 OA
ENDBRANCH   5   6
ENDBRANCH   4   5
ENDBRANCH   3   4
ENDBRANCH   2   3
ENDBRANCH   1   2
BRANCH   1   9
ATOM      9  C   UNL     1      97.524   3.571  26.381  1.00  0.00     0.000 C 
BRANCH   9  10
ATOM     10  C   UNL     1      99.028   3.665  26.694  1.00  0.00    -0.000 C 
BRANCH  10  11
ATOM     11  C   UNL     1      99.845   4.545  25.725  1.00  0.00    -0.000 C 
BRANCH  11  12
ATOM     12  C   UNL     1     100.996   3.823  25.002  1.00  0.00    -0.000 C 
BRANCH  12  13
ATOM     13  C   UNL     1     100.575   3.241  23.645  1.00  0.00    -0.003 C 
ATOM     14  C   UNL     1      99.645   4.196  22.903  1.00  0.00     0.004 C 
ENDBRANCH  12  13
ENDBRANCH  11  12
ENDBRANCH  10  11
ENDBRANCH   9  10
ENDBRANCH   1   9
TORSDOF 10
ENDMDL
MODEL 6
REMARK VINA RESULT:    -3.672      2.054      3.166
REMARK INTER + INTRA:          -7.330
REMARK INTER:                  -6.127
REMARK INTRA:                  -1.202
REMARK UNBOUND:                -1.510
REMARK SMILES CCCCCCCCCCCC(=O)[O-]
REMARK SMILES IDX 7 1 8 2 9 3 10 4 11 5 12 6 13 7 14 8 6 9 5 10 4 11 3 12 2 13
REMARK SMILES IDX 1 14
REMARK H PARENT
REMARK Flexibility Score: inf
ROOT
ATOM      1  C   UNL     1      96.470   4.370  25.676  1.00  0.00     0.000 C 
ENDROOT
BRANCH   1   2
ATOM      2  C   UNL     1      96.153   3.219  24.714  1.00  0.00     0.000 C 
BRANCH   2   3
ATOM      3  C   UNL     1      97.419   2.741  23.991  1.00  0.00     0.000 C 
BRANCH   3   4
ATOM      4  C   UNL     1      98.642   3.564  24.422  1.00  0.00     0.006 C 
BRANCH   4   5
ATOM      5  C   UNL     1      99.640   3.765  23.274  1.00  0.00     0.053 C 
BRANCH   5   6
ATOM      6  C   UNL     1     100.944   3.079  23.543  1.00  0.00     0.041 C 
ATOM      7  O   UNL     1     101.313   2.115  22.821  1.00  0.00    -0.550 OA
ATOM      8  O   UNL     1     101.735   3.480  24.612  1.00  0.00    -0.550 OA
ENDBRANCH   5   6
ENDBRANCH   4   5
ENDBRANCH   3   4
ENDBRANCH   2   3
ENDBRANCH   1   2
BRANCH   1   9
ATOM      9  C   UNL     1      95.378   5.448  25.621  1.00  0.00     0.000 C 
BRANCH   9  10
ATOM     10  C   UNL     1      95.822   6.711  24.861  1.00  0.00    -0.000 C 
BRANCH  10  11
ATOM     11  C   UNL     1      95.293   6.825  23.417  1.00  0.00    -0.000 C 
BRANCH  11  12
ATOM     12  C   UNL     1      96.064   5.997  22.372  1.00  0.00    -0.000 C 
BRANCH  12  13
ATOM     13  C   UNL     1      97.522   6.450  22.212  1.00  0.00    -0.003 C 
ATOM     14  C   UNL     1      97.840   6.768  20.754  1.00  0.00     0.004 C 
ENDBRANCH  12  13
ENDBRANCH  11  12
ENDBRANCH  10  11
ENDBRANCH   9  10
ENDBRANCH   1   9
TORSDOF 10
ENDMDL
MODEL 7
REMARK VINA RESULT:    -3.662      4.323      5.542
REMARK INTER + INTRA:          -7.314
REMARK INTER:                  -5.937
REMARK INTRA:                  -1.377
REMARK UNBOUND:                -1.510
REMARK SMILES CCCCCCCCCCCC(=O)[O-]
REMARK SMILES IDX 7 1 8 2 9 3 10 4 11 5 12 6 13 7 14 8 6 9 5 10 4 11 3 12 2 13
REMARK SMILES IDX 1 14
REMARK H PARENT
REMARK Flexibility Score: inf
ROOT
ATOM      1  C   UNL     1      95.761   7.725  23.854  1.00  0.00     0.000 C 
ENDROOT
BRANCH   1   2
ATOM      2  C   UNL     1      94.898   6.849  22.938  1.00  0.00     0.000 C 
BRANCH   2   3
ATOM      3  C   UNL     1      95.668   6.446  21.675  1.00  0.00     0.000 C 
BRANCH   3   4
ATOM      4  C   UNL     1      96.735   7.494  21.323  1.00  0.00     0.006 C 
BRANCH   4   5
ATOM      5  C   UNL     1      97.811   6.934  20.384  1.00  0.00     0.053 C 
BRANCH   5   6
ATOM      6  C   UNL     1      97.472   7.172  18.944  1.00  0.00     0.041 C 
ATOM      7  O   UNL     1      98.226   6.735  18.035  1.00  0.00    -0.550 OA
ATOM      8  O   UNL     1      96.343   7.907  18.607  1.00  0.00    -0.550 OA
ENDBRANCH   5   6
ENDBRANCH   4   5
ENDBRANCH   3   4
ENDBRANCH   2   3
ENDBRANCH   1   2
BRANCH   1   9
ATOM      9  C   UNL     1      96.048   7.014  25.185  1.00  0.00     0.000 C 
BRANCH   9  10
ATOM     10  C   UNL     1      95.310   5.669  25.315  1.00  0.00    -0.000 C 
BRANCH  10  11
ATOM     11  C   UNL     1      96.221   4.432  25.444  1.00  0.00    -0.000 C 
BRANCH  11  12
ATOM     12  C   UNL     1      96.514   3.697  24.124  1.00  0.00    -0.000 C 
BRANCH  12  13
ATOM     13  C   UNL     1      98.015   3.582  23.826  1.00  0.00    -0.003 C 
ATOM     14  C   UNL     1      98.613   4.945  23.489  1.00  0.00     0.004 C 
ENDBRANCH  12  13
ENDBRANCH  11  12
ENDBRANCH  10  11
ENDBRANCH   9  10
ENDBRANCH   1   9
TORSDOF 10
ENDMDL
MODEL 8
REMARK VINA RESULT:    -3.640      3.122      5.388
REMARK INTER + INTRA:          -7.278
REMARK INTER:                  -6.188
REMARK INTRA:                  -1.090
REMARK UNBOUND:                -1.510
REMARK SMILES CCCCCCCCCCCC(=O)[O-]
REMARK SMILES IDX 7 1 8 2 9 3 10 4 11 5 12 6 13 7 14 8 6 9 5 10 4 11 3 12 2 13
REMARK SMILES IDX 1 14
REMARK H PARENT
REMARK Flexibility Score: inf
ROOT
ATOM      1  C   UNL     1      96.128   3.287  23.996  1.00  0.00     0.000 C 
ENDROOT
BRANCH   1   2
ATOM      2  C   UNL     1      96.506   4.283  25.099  1.00  0.00     0.000 C 
BRANCH   2   3
ATOM      3  C   UNL     1      95.429   5.362  25.260  1.00  0.00     0.000 C 
BRANCH   3   4
ATOM      4  C   UNL     1      95.726   6.574  24.365  1.00  0.00     0.006 C 
BRANCH   4   5
ATOM      5  C   UNL     1      94.746   6.682  23.189  1.00  0.00     0.053 C 
BRANCH   5   6
ATOM      6  C   UNL     1      95.447   6.587  21.869  1.00  0.00     0.041 C 
ATOM      7  O   UNL     1      96.612   6.116  21.804  1.00  0.00    -0.550 OA
ATOM      8  O   UNL     1      94.827   7.052  20.716  1.00  0.00    -0.550 OA
ENDBRANCH   5   6
ENDBRANCH   4   5
ENDBRANCH   3   4
ENDBRANCH   2   3
ENDBRANCH   1   2
BRANCH   1   9
ATOM      9  C   UNL     1      96.678   1.887  24.306  1.00  0.00     0.000 C 
BRANCH   9  10
ATOM     10  C   UNL     1      98.084   1.923  24.932  1.00  0.00    -0.000 C 
BRANCH  10  11
ATOM     11  C   UNL     1      99.228   1.481  23.997  1.00  0.00    -0.000 C 
BRANCH  11  12
ATOM     12  C   UNL     1     100.439   2.431  23.954  1.00  0.00    -0.000 C 
BRANCH  12  13
ATOM     13  C   UNL     1     100.050   3.901  24.159  1.00  0.00    -0.003 C 
ATOM     14  C   UNL     1      99.529   4.518  22.864  1.00  0.00     0.004 C 
ENDBRANCH  12  13
ENDBRANCH  11  12
ENDBRANCH  10  11
ENDBRANCH   9  10
ENDBRANCH   1   9
TORSDOF 10
ENDMDL
MODEL 9
REMARK VINA RESULT:    -3.568      2.573      5.413
REMARK INTER + INTRA:          -7.164
REMARK INTER:                  -5.974
REMARK INTRA:                  -1.190
REMARK UNBOUND:                -1.510
REMARK SMILES CCCCCCCCCCCC(=O)[O-]
REMARK SMILES IDX 7 1 8 2 9 3 10 4 11 5 12 6 13 7 14 8 6 9 5 10 4 11 3 12 2 13
REMARK SMILES IDX 1 14
REMARK H PARENT
REMARK Flexibility Score: inf
ROOT
ATOM      1  C   UNL     1      99.172   1.962  25.862  1.00  0.00     0.000 C 
ENDROOT
BRANCH   1   2
ATOM      2  C   UNL     1     100.248   3.054  25.819  1.00  0.00     0.000 C 
BRANCH   2   3
ATOM      3  C   UNL     1     100.013   4.013  24.646  1.00  0.00     0.000 C 
BRANCH   3   4
ATOM      4  C   UNL     1      98.680   4.758  24.803  1.00  0.00     0.006 C 
BRANCH   4   5
ATOM      5  C   UNL     1      97.707   4.457  23.655  1.00  0.00     0.053 C 
BRANCH   5   6
ATOM      6  C   UNL     1      96.451   3.803  24.146  1.00  0.00     0.041 C 
ATOM      7  O   UNL     1      95.736   4.375  25.010  1.00  0.00    -0.550 OA
ATOM      8  O   UNL     1      96.090   2.548  23.675  1.00  0.00    -0.550 OA
ENDBRANCH   5   6
ENDBRANCH   4   5
ENDBRANCH   3   4
ENDBRANCH   2   3
ENDBRANCH   1   2
BRANCH   1   9
ATOM      9  C   UNL     1      99.285   1.030  24.647  1.00  0.00     0.000 C 
BRANCH   9  10
ATOM     10  C   UNL     1     100.511   0.102  24.718  1.00  0.00    -0.000 C 
BRANCH  10  11
ATOM     11  C   UNL     1     101.261  -0.096  23.385  1.00  0.00    -0.000 C 
BRANCH  11  12
ATOM     12  C   UNL     1     102.758   0.258  23.420  1.00  0.00    -0.000 C 
BRANCH  12  13
ATOM     13  C   UNL     1     103.014   1.733  23.759  1.00  0.00    -0.003 C 
ATOM     14  C   UNL     1     103.750   1.871  25.089  1.00  0.00     0.004 C 
ENDBRANCH  12  13
ENDBRANCH  11  12
ENDBRANCH  10  11
ENDBRANCH   9  10
ENDBRANCH   1   9
TORSDOF 10
ENDMDL
