MODEL 1
REMARK VINA RESULT:    -6.756      0.000      0.000
REMARK INTER + INTRA:          -8.982
REMARK INTER:                  -9.125
REMARK INTRA:                   0.143
REMARK UNBOUND:                 0.143
REMARK SMILES O=c1c(-c2ccc(O)cc2)coc2c([C@H]3O[C@@H](CO)[C@H](O)[C@H](O)[C@@H]3O)c(O)ccc12
REMARK SMILES IDX 3 1 11 2 12 3 13 4 30 5 2 6 1 7 29 8 28 9 26 10 14 11 4 12
REMARK SMILES IDX 5 13 6 14 7 15 10 16 9 17 8 18 15 20 24 21 16 22 22 23 17 24
REMARK SMILES IDX 20 25 25 26 23 28 18 30 19 31 21 33 27 35
REMARK H PARENT 8 19 25 27 23 29 19 32 21 34 27 36
REMARK Flexibility Score: inf
ROOT
ATOM      1  C   UNL     1      11.168  38.111  24.833  1.00  0.00     0.065 A 
ATOM      2  C   UNL     1      12.205  38.944  24.392  1.00  0.00     0.208 A 
ATOM      3  O   UNL     1      12.129  39.567  23.223  1.00  0.00    -0.463 OA
ATOM      4  C   UNL     1      11.089  39.449  22.401  1.00  0.00     0.147 A 
ATOM      5  C   UNL     1       9.998  38.627  22.766  1.00  0.00     0.066 A 
ATOM      6  C   UNL     1      10.049  37.946  23.997  1.00  0.00     0.200 A 
ATOM      7  O   UNL     1       9.107  37.178  24.339  1.00  0.00    -0.288 OA
ATOM      8  C   UNL     1       8.898  38.509  21.903  1.00  0.00     0.020 A 
ATOM      9  C   UNL     1       8.875  39.207  20.697  1.00  0.00     0.047 A 
ATOM     10  C   UNL     1       9.947  40.028  20.328  1.00  0.00     0.125 A 
ATOM     11  C   UNL     1      11.077  40.145  21.169  1.00  0.00     0.069 A 
ENDROOT
BRANCH   1  12
ATOM     12  C   UNL     1      11.273  37.431  26.149  1.00  0.00    -0.011 A 
ATOM     13  C   UNL     1      10.143  37.309  26.976  1.00  0.00     0.013 A 
ATOM     14  C   UNL     1      10.237  36.660  28.212  1.00  0.00     0.047 A 
ATOM     15  C   UNL     1      11.457  36.124  28.634  1.00  0.00     0.115 A 
ATOM     16  C   UNL     1      12.496  36.882  26.577  1.00  0.00     0.013 A 
ATOM     17  C   UNL     1      12.587  36.234  27.813  1.00  0.00     0.047 A 
BRANCH  15  18
ATOM     18  O   UNL     1      11.536  35.482  29.867  1.00  0.00    -0.508 OA
ATOM     19  H   UNL     1      11.647  36.002  30.730  1.00  0.00     0.293 HD
ENDBRANCH  15  18
ENDBRANCH   1  12
BRANCH  11  20
ATOM     20  C   UNL     1      12.238  41.052  20.785  1.00  0.00     0.188 C 
ATOM     21  C   UNL     1      13.580  40.430  21.250  1.00  0.00     0.179 C 
ATOM     22  O   UNL     1      12.050  42.327  21.380  1.00  0.00    -0.362 OA
ATOM     23  C   UNL     1      14.752  41.365  20.900  1.00  0.00     0.177 C 
ATOM     24  C   UNL     1      13.040  43.249  20.949  1.00  0.00     0.176 C 
ATOM     25  C   UNL     1      14.447  42.785  21.420  1.00  0.00     0.177 C 
BRANCH  21  26
ATOM     26  O   UNL     1      13.779  39.148  20.703  1.00  0.00    -0.387 OA
ATOM     27  H   UNL     1      13.905  39.248  19.724  1.00  0.00     0.211 HD
ENDBRANCH  21  26
BRANCH  23  28
ATOM     28  O   UNL     1      14.948  41.383  19.506  1.00  0.00    -0.387 OA
ATOM     29  H   UNL     1      14.802  42.318  19.203  1.00  0.00     0.211 HD
ENDBRANCH  23  28
BRANCH  24  30
ATOM     30  C   UNL     1      12.678  44.625  21.526  1.00  0.00     0.191 C 
BRANCH  30  31
ATOM     31  O   UNL     1      13.596  45.008  22.517  1.00  0.00    -0.394 OA
ATOM     32  H   UNL     1      14.489  45.060  22.086  1.00  0.00     0.210 HD
ENDBRANCH  30  31
ENDBRANCH  24  30
BRANCH  25  33
ATOM     33  O   UNL     1      15.461  43.681  21.036  1.00  0.00    -0.388 OA
ATOM     34  H   UNL     1      16.332  43.291  21.308  1.00  0.00     0.211 HD
ENDBRANCH  25  33
ENDBRANCH  11  20
BRANCH  10  35
ATOM     35  O   UNL     1       9.886  40.731  19.123  1.00  0.00    -0.507 OA
ATOM     36  H   UNL     1      10.363  41.615  18.997  1.00  0.00     0.293 HD
ENDBRANCH  10  35
TORSDOF 9
ENDMDL
MODEL 2
REMARK VINA RESULT:    -6.583      1.945      3.789
REMARK INTER + INTRA:          -8.749
REMARK INTER:                  -8.247
REMARK INTRA:                  -0.502
REMARK UNBOUND:                 0.143
REMARK SMILES O=c1c(-c2ccc(O)cc2)coc2c([C@H]3O[C@@H](CO)[C@H](O)[C@H](O)[C@@H]3O)c(O)ccc12
REMARK SMILES IDX 3 1 11 2 12 3 13 4 30 5 2 6 1 7 29 8 28 9 26 10 14 11 4 12
REMARK SMILES IDX 5 13 6 14 7 15 10 16 9 17 8 18 15 20 24 21 16 22 22 23 17 24
REMARK SMILES IDX 20 25 25 26 23 28 18 30 19 31 21 33 27 35
REMARK H PARENT 8 19 25 27 23 29 19 32 21 34 27 36
REMARK Flexibility Score: inf
ROOT
ATOM      1  C   UNL     1      12.873  38.032  25.393  1.00  0.00     0.065 A 
ATOM      2  C   UNL     1      11.929  38.069  24.356  1.00  0.00     0.208 A 
ATOM      3  O   UNL     1      12.088  38.881  23.319  1.00  0.00    -0.463 OA
ATOM      4  C   UNL     1      13.127  39.702  23.188  1.00  0.00     0.147 A 
ATOM      5  C   UNL     1      14.127  39.731  24.188  1.00  0.00     0.066 A 
ATOM      6  C   UNL     1      13.986  38.888  25.306  1.00  0.00     0.200 A 
ATOM      7  O   UNL     1      14.843  38.912  26.234  1.00  0.00    -0.288 OA
ATOM      8  C   UNL     1      15.226  40.591  24.046  1.00  0.00     0.020 A 
ATOM      9  C   UNL     1      15.340  41.404  22.919  1.00  0.00     0.047 A 
ATOM     10  C   UNL     1      14.359  41.379  21.920  1.00  0.00     0.125 A 
ATOM     11  C   UNL     1      13.230  40.539  22.051  1.00  0.00     0.069 A 
ENDROOT
BRANCH   1  12
ATOM     12  C   UNL     1      12.677  37.110  26.540  1.00  0.00    -0.011 A 
ATOM     13  C   UNL     1      13.739  36.309  26.995  1.00  0.00     0.013 A 
ATOM     14  C   UNL     1      13.560  35.447  28.081  1.00  0.00     0.047 A 
ATOM     15  C   UNL     1      12.323  35.376  28.727  1.00  0.00     0.115 A 
ATOM     16  C   UNL     1      11.437  37.039  27.200  1.00  0.00     0.013 A 
ATOM     17  C   UNL     1      11.261  36.175  28.285  1.00  0.00     0.047 A 
BRANCH  15  18
ATOM     18  O   UNL     1      12.160  34.512  29.807  1.00  0.00    -0.508 OA
ATOM     19  H   UNL     1      11.437  33.801  29.813  1.00  0.00     0.293 HD
ENDBRANCH  15  18
ENDBRANCH   1  12
BRANCH  11  20
ATOM     20  C   UNL     1      12.170  40.490  20.960  1.00  0.00     0.188 C 
ATOM     21  C   UNL     1      12.773  39.913  19.653  1.00  0.00     0.179 C 
ATOM     22  O   UNL     1      11.667  41.798  20.739  1.00  0.00    -0.362 OA
ATOM     23  C   UNL     1      11.715  39.900  18.536  1.00  0.00     0.177 C 
ATOM     24  C   UNL     1      10.584  41.786  19.820  1.00  0.00     0.176 C 
ATOM     25  C   UNL     1      11.069  41.298  18.426  1.00  0.00     0.177 C 
BRANCH  21  26
ATOM     26  O   UNL     1      13.313  38.628  19.849  1.00  0.00    -0.387 OA
ATOM     27  H   UNL     1      12.689  37.969  19.449  1.00  0.00     0.211 HD
ENDBRANCH  21  26
BRANCH  23  28
ATOM     28  O   UNL     1      10.736  38.928  18.816  1.00  0.00    -0.387 OA
ATOM     29  H   UNL     1      10.365  38.628  17.945  1.00  0.00     0.211 HD
ENDBRANCH  23  28
BRANCH  24  30
ATOM     30  C   UNL     1      10.017  43.211  19.751  1.00  0.00     0.191 C 
BRANCH  30  31
ATOM     31  O   UNL     1      10.979  44.152  20.155  1.00  0.00    -0.394 OA
ATOM     32  H   UNL     1      11.785  43.646  20.434  1.00  0.00     0.210 HD
ENDBRANCH  30  31
ENDBRANCH  24  30
BRANCH  25  33
ATOM     33  O   UNL     1      10.034  41.291  17.473  1.00  0.00    -0.388 OA
ATOM     34  H   UNL     1      10.241  41.984  16.793  1.00  0.00     0.211 HD
ENDBRANCH  25  33
ENDBRANCH  11  20
BRANCH  10  35
ATOM     35  O   UNL     1      14.511  42.190  20.794  1.00  0.00    -0.507 OA
ATOM     36  H   UNL     1      13.712  42.547  20.283  1.00  0.00     0.293 HD
ENDBRANCH  10  35
TORSDOF 9
ENDMDL
MODEL 3
REMARK VINA RESULT:    -6.546      5.715     11.516
REMARK INTER + INTRA:          -8.699
REMARK INTER:                  -8.266
REMARK INTRA:                  -0.434
REMARK UNBOUND:                 0.143
REMARK SMILES O=c1c(-c2ccc(O)cc2)coc2c([C@H]3O[C@@H](CO)[C@H](O)[C@H](O)[C@@H]3O)c(O)ccc12
REMARK SMILES IDX 3 1 11 2 12 3 13 4 30 5 2 6 1 7 29 8 28 9 26 10 14 11 4 12
REMARK SMILES IDX 5 13 6 14 7 15 10 16 9 17 8 18 15 20 24 21 16 22 22 23 17 24
REMARK SMILES IDX 20 25 25 26 23 28 18 30 19 31 21 33 27 35
REMARK H PARENT 8 19 25 27 23 29 19 32 21 34 27 36
REMARK Flexibility Score: inf
ROOT
ATOM      1  C   UNL     1      11.723  34.276  27.893  1.00  0.00     0.065 A 
ATOM      2  C   UNL     1      12.617  34.012  28.941  1.00  0.00     0.208 A 
ATOM      3  O   UNL     1      13.036  32.776  29.183  1.00  0.00    -0.463 OA
ATOM      4  C   UNL     1      12.648  31.722  28.469  1.00  0.00     0.147 A 
ATOM      5  C   UNL     1      11.747  31.898  27.394  1.00  0.00     0.066 A 
ATOM      6  C   UNL     1      11.276  33.194  27.114  1.00  0.00     0.200 A 
ATOM      7  O   UNL     1      10.445  33.382  26.182  1.00  0.00    -0.288 OA
ATOM      8  C   UNL     1      11.344  30.787  26.637  1.00  0.00     0.020 A 
ATOM      9  C   UNL     1      11.840  29.518  26.934  1.00  0.00     0.047 A 
ATOM     10  C   UNL     1      12.737  29.334  27.993  1.00  0.00     0.125 A 
ATOM     11  C   UNL     1      13.139  30.433  28.786  1.00  0.00     0.069 A 
ENDROOT
BRANCH   1  12
ATOM     12  C   UNL     1      11.274  35.668  27.637  1.00  0.00    -0.011 A 
ATOM     13  C   UNL     1      12.105  36.565  26.943  1.00  0.00     0.013 A 
ATOM     14  C   UNL     1      11.681  37.874  26.693  1.00  0.00     0.047 A 
ATOM     15  C   UNL     1      10.423  38.301  27.127  1.00  0.00     0.115 A 
ATOM     16  C   UNL     1      10.007  36.103  28.065  1.00  0.00     0.013 A 
ATOM     17  C   UNL     1       9.585  37.412  27.813  1.00  0.00     0.047 A 
BRANCH  15  18
ATOM     18  O   UNL     1      10.014  39.607  26.870  1.00  0.00    -0.508 OA
ATOM     19  H   UNL     1      10.357  40.123  26.067  1.00  0.00     0.293 HD
ENDBRANCH  15  18
ENDBRANCH   1  12
BRANCH  11  20
ATOM     20  C   UNL     1      14.131  30.244  29.925  1.00  0.00     0.188 C 
ATOM     21  C   UNL     1      13.445  30.530  31.286  1.00  0.00     0.179 C 
ATOM     22  O   UNL     1      15.234  31.117  29.733  1.00  0.00    -0.362 OA
ATOM     23  C   UNL     1      14.456  30.381  32.436  1.00  0.00     0.177 C 
ATOM     24  C   UNL     1      16.248  30.889  30.700  1.00  0.00     0.176 C 
ATOM     25  C   UNL     1      15.715  31.216  32.123  1.00  0.00     0.177 C 
BRANCH  21  26
ATOM     26  O   UNL     1      12.324  29.702  31.490  1.00  0.00    -0.387 OA
ATOM     27  H   UNL     1      12.499  29.142  32.290  1.00  0.00     0.211 HD
ENDBRANCH  21  26
BRANCH  23  28
ATOM     28  O   UNL     1      14.795  29.024  32.602  1.00  0.00    -0.387 OA
ATOM     29  H   UNL     1      14.177  28.650  33.283  1.00  0.00     0.211 HD
ENDBRANCH  23  28
BRANCH  24  30
ATOM     30  C   UNL     1      17.449  31.770  30.332  1.00  0.00     0.191 C 
BRANCH  30  31
ATOM     31  O   UNL     1      17.705  31.715  28.952  1.00  0.00    -0.394 OA
ATOM     32  H   UNL     1      16.853  31.473  28.504  1.00  0.00     0.210 HD
ENDBRANCH  30  31
ENDBRANCH  24  30
BRANCH  25  33
ATOM     33  O   UNL     1      16.694  31.027  33.116  1.00  0.00    -0.388 OA
ATOM     34  H   UNL     1      17.584  31.117  32.688  1.00  0.00     0.211 HD
ENDBRANCH  25  33
ENDBRANCH  11  20
BRANCH  10  35
ATOM     35  O   UNL     1      13.231  28.054  28.254  1.00  0.00    -0.507 OA
ATOM     36  H   UNL     1      13.711  27.834  29.119  1.00  0.00     0.293 HD
ENDBRANCH  10  35
TORSDOF 9
ENDMDL
MODEL 4
REMARK VINA RESULT:    -6.453      6.085     10.135
REMARK INTER + INTRA:          -8.573
REMARK INTER:                  -9.394
REMARK INTRA:                   0.821
REMARK UNBOUND:                 0.143
REMARK SMILES O=c1c(-c2ccc(O)cc2)coc2c([C@H]3O[C@@H](CO)[C@H](O)[C@H](O)[C@@H]3O)c(O)ccc12
REMARK SMILES IDX 3 1 11 2 12 3 13 4 30 5 2 6 1 7 29 8 28 9 26 10 14 11 4 12
REMARK SMILES IDX 5 13 6 14 7 15 10 16 9 17 8 18 15 20 24 21 16 22 22 23 17 24
REMARK SMILES IDX 20 25 25 26 23 28 18 30 19 31 21 33 27 35
REMARK H PARENT 8 19 25 27 23 29 19 32 21 34 27 36
REMARK Flexibility Score: inf
ROOT
ATOM      1  C   UNL     1      14.109  31.011  30.956  1.00  0.00     0.065 A 
ATOM      2  C   UNL     1      13.561  32.301  30.941  1.00  0.00     0.208 A 
ATOM      3  O   UNL     1      12.857  32.730  29.901  1.00  0.00    -0.463 OA
ATOM      4  C   UNL     1      12.625  31.987  28.821  1.00  0.00     0.147 A 
ATOM      5  C   UNL     1      13.142  30.672  28.752  1.00  0.00     0.066 A 
ATOM      6  C   UNL     1      13.900  30.188  29.834  1.00  0.00     0.200 A 
ATOM      7  O   UNL     1      14.404  29.031  29.791  1.00  0.00    -0.288 OA
ATOM      8  C   UNL     1      12.890  29.887  27.617  1.00  0.00     0.020 A 
ATOM      9  C   UNL     1      12.124  30.394  26.569  1.00  0.00     0.047 A 
ATOM     10  C   UNL     1      11.604  31.692  26.629  1.00  0.00     0.125 A 
ATOM     11  C   UNL     1      11.863  32.512  27.751  1.00  0.00     0.069 A 
ENDROOT
BRANCH   1  12
ATOM     12  C   UNL     1      14.887  30.550  32.134  1.00  0.00    -0.011 A 
ATOM     13  C   UNL     1      15.637  31.468  32.891  1.00  0.00     0.013 A 
ATOM     14  C   UNL     1      16.363  31.038  34.006  1.00  0.00     0.047 A 
ATOM     15  C   UNL     1      16.347  29.692  34.381  1.00  0.00     0.115 A 
ATOM     16  C   UNL     1      14.870  29.198  32.521  1.00  0.00     0.013 A 
ATOM     17  C   UNL     1      15.597  28.772  33.637  1.00  0.00     0.047 A 
BRANCH  15  18
ATOM     18  O   UNL     1      17.076  29.279  35.494  1.00  0.00    -0.508 OA
ATOM     19  H   UNL     1      17.251  29.902  36.274  1.00  0.00     0.293 HD
ENDBRANCH  15  18
ENDBRANCH   1  12
BRANCH  11  20
ATOM     20  C   UNL     1      11.282  33.917  27.835  1.00  0.00     0.188 C 
ATOM     21  C   UNL     1       9.982  34.010  26.996  1.00  0.00     0.179 C 
ATOM     22  O   UNL     1      12.244  34.848  27.363  1.00  0.00    -0.362 OA
ATOM     23  C   UNL     1       9.415  35.440  27.046  1.00  0.00     0.177 C 
ATOM     24  C   UNL     1      11.799  36.185  27.541  1.00  0.00     0.176 C 
ATOM     25  C   UNL     1      10.528  36.445  26.684  1.00  0.00     0.177 C 
BRANCH  21  26
ATOM     26  O   UNL     1       9.020  33.073  27.418  1.00  0.00    -0.387 OA
ATOM     27  H   UNL     1       8.522  32.763  26.618  1.00  0.00     0.211 HD
ENDBRANCH  21  26
BRANCH  23  28
ATOM     28  O   UNL     1       8.909  35.709  28.332  1.00  0.00    -0.387 OA
ATOM     29  H   UNL     1       9.626  35.483  28.980  1.00  0.00     0.211 HD
ENDBRANCH  23  28
BRANCH  24  30
ATOM     30  C   UNL     1      12.951  37.116  27.138  1.00  0.00     0.191 C 
BRANCH  30  31
ATOM     31  O   UNL     1      14.150  36.398  27.000  1.00  0.00    -0.394 OA
ATOM     32  H   UNL     1      14.189  36.068  26.065  1.00  0.00     0.210 HD
ENDBRANCH  30  31
ENDBRANCH  24  30
BRANCH  25  33
ATOM     33  O   UNL     1      10.062  37.767  26.808  1.00  0.00    -0.388 OA
ATOM     34  H   UNL     1       9.507  37.971  26.011  1.00  0.00     0.211 HD
ENDBRANCH  25  33
ENDBRANCH  11  20
BRANCH  10  35
ATOM     35  O   UNL     1      10.824  32.166  25.572  1.00  0.00    -0.507 OA
ATOM     36  H   UNL     1      11.067  31.980  24.606  1.00  0.00     0.293 HD
ENDBRANCH  10  35
TORSDOF 9
ENDMDL
MODEL 5
REMARK VINA RESULT:    -6.431      2.129      3.434
REMARK INTER + INTRA:          -8.544
REMARK INTER:                  -7.682
REMARK INTRA:                  -0.862
REMARK UNBOUND:                 0.143
REMARK SMILES O=c1c(-c2ccc(O)cc2)coc2c([C@H]3O[C@@H](CO)[C@H](O)[C@H](O)[C@@H]3O)c(O)ccc12
REMARK SMILES IDX 3 1 11 2 12 3 13 4 30 5 2 6 1 7 29 8 28 9 26 10 14 11 4 12
REMARK SMILES IDX 5 13 6 14 7 15 10 16 9 17 8 18 15 20 24 21 16 22 22 23 17 24
REMARK SMILES IDX 20 25 25 26 23 28 18 30 19 31 21 33 27 35
REMARK H PARENT 8 19 25 27 23 29 19 32 21 34 27 36
REMARK Flexibility Score: inf
ROOT
ATOM      1  C   UNL     1      10.616  38.362  23.707  1.00  0.00     0.065 A 
ATOM      2  C   UNL     1      10.290  39.712  23.901  1.00  0.00     0.208 A 
ATOM      3  O   UNL     1      10.636  40.632  23.009  1.00  0.00    -0.463 OA
ATOM      4  C   UNL     1      11.303  40.349  21.892  1.00  0.00     0.147 A 
ATOM      5  C   UNL     1      11.674  39.012  21.617  1.00  0.00     0.066 A 
ATOM      6  C   UNL     1      11.329  38.012  22.546  1.00  0.00     0.200 A 
ATOM      7  O   UNL     1      11.673  36.814  22.348  1.00  0.00    -0.288 OA
ATOM      8  C   UNL     1      12.370  38.713  20.436  1.00  0.00     0.020 A 
ATOM      9  C   UNL     1      12.684  39.727  19.532  1.00  0.00     0.047 A 
ATOM     10  C   UNL     1      12.318  41.053  19.791  1.00  0.00     0.125 A 
ATOM     11  C   UNL     1      11.637  41.383  20.985  1.00  0.00     0.069 A 
ENDROOT
BRANCH   1  12
ATOM     12  C   UNL     1      10.211  37.351  24.716  1.00  0.00    -0.011 A 
ATOM     13  C   UNL     1      10.762  37.380  26.009  1.00  0.00     0.013 A 
ATOM     14  C   UNL     1      10.376  36.434  26.964  1.00  0.00     0.047 A 
ATOM     15  C   UNL     1       9.434  35.452  26.642  1.00  0.00     0.115 A 
ATOM     16  C   UNL     1       9.260  36.364  24.401  1.00  0.00     0.013 A 
ATOM     17  C   UNL     1       8.875  35.420  25.357  1.00  0.00     0.047 A 
BRANCH  15  18
ATOM     18  O   UNL     1       9.060  34.516  27.603  1.00  0.00    -0.508 OA
ATOM     19  H   UNL     1       8.366  34.731  28.310  1.00  0.00     0.293 HD
ENDBRANCH  15  18
ENDBRANCH   1  12
BRANCH  11  20
ATOM     20  C   UNL     1      11.216  42.819  21.265  1.00  0.00     0.188 C 
ATOM     21  C   UNL     1      10.179  43.288  20.212  1.00  0.00     0.179 C 
ATOM     22  O   UNL     1      12.362  43.655  21.240  1.00  0.00    -0.362 OA
ATOM     23  C   UNL     1       9.782  44.753  20.468  1.00  0.00     0.177 C 
ATOM     24  C   UNL     1      12.040  44.984  21.622  1.00  0.00     0.176 C 
ATOM     25  C   UNL     1      11.056  45.614  20.596  1.00  0.00     0.177 C 
BRANCH  21  26
ATOM     26  O   UNL     1       9.044  42.455  20.189  1.00  0.00    -0.387 OA
ATOM     27  H   UNL     1       8.762  42.348  19.244  1.00  0.00     0.211 HD
ENDBRANCH  21  26
BRANCH  23  28
ATOM     28  O   UNL     1       9.010  44.840  21.642  1.00  0.00    -0.387 OA
ATOM     29  H   UNL     1       8.179  45.331  21.409  1.00  0.00     0.211 HD
ENDBRANCH  23  28
BRANCH  24  30
ATOM     30  C   UNL     1      13.353  45.776  21.702  1.00  0.00     0.191 C 
BRANCH  30  31
ATOM     31  O   UNL     1      13.117  47.090  22.137  1.00  0.00    -0.394 OA
ATOM     32  H   UNL     1      13.207  47.094  23.126  1.00  0.00     0.210 HD
ENDBRANCH  30  31
ENDBRANCH  24  30
BRANCH  25  33
ATOM     33  O   UNL     1      10.725  46.942  20.920  1.00  0.00    -0.388 OA
ATOM     34  H   UNL     1       9.739  47.036  20.852  1.00  0.00     0.211 HD
ENDBRANCH  25  33
ENDBRANCH  11  20
BRANCH  10  35
ATOM     35  O   UNL     1      12.630  42.043  18.858  1.00  0.00    -0.507 OA
ATOM     36  H   UNL     1      13.484  42.584  18.920  1.00  0.00     0.293 HD
ENDBRANCH  10  35
TORSDOF 9
ENDMDL
MODEL 6
REMARK VINA RESULT:    -6.115      7.008     10.554
REMARK INTER + INTRA:          -8.117
REMARK INTER:                  -9.354
REMARK INTRA:                   1.237
REMARK UNBOUND:                 0.143
REMARK SMILES O=c1c(-c2ccc(O)cc2)coc2c([C@H]3O[C@@H](CO)[C@H](O)[C@H](O)[C@@H]3O)c(O)ccc12
REMARK SMILES IDX 3 1 11 2 12 3 13 4 30 5 2 6 1 7 29 8 28 9 26 10 14 11 4 12
REMARK SMILES IDX 5 13 6 14 7 15 10 16 9 17 8 18 15 20 24 21 16 22 22 23 17 24
REMARK SMILES IDX 20 25 25 26 23 28 18 30 19 31 21 33 27 35
REMARK H PARENT 8 19 25 27 23 29 19 32 21 34 27 36
REMARK Flexibility Score: inf
ROOT
ATOM      1  C   UNL     1      14.292  30.612  31.124  1.00  0.00     0.065 A 
ATOM      2  C   UNL     1      14.102  31.960  30.789  1.00  0.00     0.208 A 
ATOM      3  O   UNL     1      13.481  32.302  29.667  1.00  0.00    -0.463 OA
ATOM      4  C   UNL     1      13.004  31.414  28.798  1.00  0.00     0.147 A 
ATOM      5  C   UNL     1      13.153  30.032  29.057  1.00  0.00     0.066 A 
ATOM      6  C   UNL     1      13.813  29.633  30.233  1.00  0.00     0.200 A 
ATOM      7  O   UNL     1      13.993  28.408  30.479  1.00  0.00    -0.288 OA
ATOM      8  C   UNL     1      12.643  29.096  28.143  1.00  0.00     0.020 A 
ATOM      9  C   UNL     1      11.983  29.526  26.994  1.00  0.00     0.047 A 
ATOM     10  C   UNL     1      11.825  30.892  26.730  1.00  0.00     0.125 A 
ATOM     11  C   UNL     1      12.350  31.854  27.622  1.00  0.00     0.069 A 
ENDROOT
BRANCH   1  12
ATOM     12  C   UNL     1      14.984  30.254  32.388  1.00  0.00    -0.011 A 
ATOM     13  C   UNL     1      15.613  31.248  33.158  1.00  0.00     0.013 A 
ATOM     14  C   UNL     1      16.257  30.914  34.354  1.00  0.00     0.047 A 
ATOM     15  C   UNL     1      16.278  29.588  34.796  1.00  0.00     0.115 A 
ATOM     16  C   UNL     1      15.003  28.923  32.843  1.00  0.00     0.013 A 
ATOM     17  C   UNL     1      15.648  28.592  34.039  1.00  0.00     0.047 A 
BRANCH  15  18
ATOM     18  O   UNL     1      16.924  29.271  35.988  1.00  0.00    -0.508 OA
ATOM     19  H   UNL     1      16.929  28.325  36.354  1.00  0.00     0.293 HD
ENDBRANCH  15  18
ENDBRANCH   1  12
BRANCH  11  20
ATOM     20  C   UNL     1      12.165  33.342  27.354  1.00  0.00     0.188 C 
ATOM     21  C   UNL     1      13.176  34.167  28.192  1.00  0.00     0.179 C 
ATOM     22  O   UNL     1      10.833  33.711  27.679  1.00  0.00    -0.362 OA
ATOM     23  C   UNL     1      12.963  35.672  27.955  1.00  0.00     0.177 C 
ATOM     24  C   UNL     1      10.572  35.061  27.326  1.00  0.00     0.176 C 
ATOM     25  C   UNL     1      11.472  36.017  28.158  1.00  0.00     0.177 C 
BRANCH  21  26
ATOM     26  O   UNL     1      14.506  33.797  27.917  1.00  0.00    -0.387 OA
ATOM     27  H   UNL     1      14.974  34.590  27.547  1.00  0.00     0.211 HD
ENDBRANCH  21  26
BRANCH  23  28
ATOM     28  O   UNL     1      13.373  36.013  26.651  1.00  0.00    -0.387 OA
ATOM     29  H   UNL     1      13.668  36.961  26.677  1.00  0.00     0.211 HD
ENDBRANCH  23  28
BRANCH  24  30
ATOM     30  C   UNL     1       9.082  35.328  27.579  1.00  0.00     0.191 C 
BRANCH  30  31
ATOM     31  O   UNL     1       8.875  35.808  28.883  1.00  0.00    -0.394 OA
ATOM     32  H   UNL     1       8.428  35.085  29.395  1.00  0.00     0.210 HD
ENDBRANCH  30  31
ENDBRANCH  24  30
BRANCH  25  33
ATOM     33  O   UNL     1      11.233  37.371  27.860  1.00  0.00    -0.388 OA
ATOM     34  H   UNL     1      10.420  37.653  28.354  1.00  0.00     0.211 HD
ENDBRANCH  25  33
ENDBRANCH  11  20
BRANCH  10  35
ATOM     35  O   UNL     1      11.142  31.291  25.580  1.00  0.00    -0.507 OA
ATOM     36  H   UNL     1      10.220  30.936  25.357  1.00  0.00     0.293 HD
ENDBRANCH  10  35
TORSDOF 9
ENDMDL
MODEL 7
REMARK VINA RESULT:    -5.570      3.942      7.806
REMARK INTER + INTRA:          -7.381
REMARK INTER:                  -8.084
REMARK INTRA:                   0.703
REMARK UNBOUND:                 0.143
REMARK SMILES O=c1c(-c2ccc(O)cc2)coc2c([C@H]3O[C@@H](CO)[C@H](O)[C@H](O)[C@@H]3O)c(O)ccc12
REMARK SMILES IDX 3 1 11 2 12 3 13 4 30 5 2 6 1 7 29 8 28 9 26 10 14 11 4 12
REMARK SMILES IDX 5 13 6 14 7 15 10 16 9 17 8 18 15 20 24 21 16 22 22 23 17 24
REMARK SMILES IDX 20 25 25 26 23 28 18 30 19 31 21 33 27 35
REMARK H PARENT 8 19 25 27 23 29 19 32 21 34 27 36
REMARK Flexibility Score: inf
ROOT
ATOM      1  C   UNL     1      14.210  45.137  22.085  1.00  0.00     0.065 A 
ATOM      2  C   UNL     1      14.351  43.759  21.869  1.00  0.00     0.208 A 
ATOM      3  O   UNL     1      13.346  43.039  21.386  1.00  0.00    -0.463 OA
ATOM      4  C   UNL     1      12.159  43.557  21.078  1.00  0.00     0.147 A 
ATOM      5  C   UNL     1      11.930  44.940  21.265  1.00  0.00     0.066 A 
ATOM      6  C   UNL     1      12.971  45.732  21.783  1.00  0.00     0.200 A 
ATOM      7  O   UNL     1      12.790  46.964  21.994  1.00  0.00    -0.288 OA
ATOM      8  C   UNL     1      10.681  45.488  20.933  1.00  0.00     0.020 A 
ATOM      9  C   UNL     1       9.677  44.676  20.409  1.00  0.00     0.047 A 
ATOM     10  C   UNL     1       9.894  43.307  20.215  1.00  0.00     0.125 A 
ATOM     11  C   UNL     1      11.135  42.726  20.564  1.00  0.00     0.069 A 
ENDROOT
BRANCH   1  12
ATOM     12  C   UNL     1      15.350  45.923  22.620  1.00  0.00    -0.011 A 
ATOM     13  C   UNL     1      16.481  45.268  23.139  1.00  0.00     0.013 A 
ATOM     14  C   UNL     1      17.560  46.006  23.636  1.00  0.00     0.047 A 
ATOM     15  C   UNL     1      17.526  47.403  23.616  1.00  0.00     0.115 A 
ATOM     16  C   UNL     1      15.325  47.329  22.597  1.00  0.00     0.013 A 
ATOM     17  C   UNL     1      16.406  48.064  23.094  1.00  0.00     0.047 A 
BRANCH  15  18
ATOM     18  O   UNL     1      18.608  48.125  24.115  1.00  0.00    -0.508 OA
ATOM     19  H   UNL     1      19.530  47.711  24.194  1.00  0.00     0.293 HD
ENDBRANCH  15  18
ENDBRANCH   1  12
BRANCH  11  20
ATOM     20  C   UNL     1      11.389  41.243  20.336  1.00  0.00     0.188 C 
ATOM     21  C   UNL     1      10.734  40.407  21.466  1.00  0.00     0.179 C 
ATOM     22  O   UNL     1      12.788  41.010  20.294  1.00  0.00    -0.362 OA
ATOM     23  C   UNL     1      11.023  38.910  21.260  1.00  0.00     0.177 C 
ATOM     24  C   UNL     1      13.076  39.661  19.955  1.00  0.00     0.176 C 
ATOM     25  C   UNL     1      12.539  38.704  21.056  1.00  0.00     0.177 C 
BRANCH  21  26
ATOM     26  O   UNL     1       9.349  40.645  21.555  1.00  0.00    -0.387 OA
ATOM     27  H   UNL     1       9.185  41.205  22.357  1.00  0.00     0.211 HD
ENDBRANCH  21  26
BRANCH  23  28
ATOM     28  O   UNL     1      10.308  38.434  20.144  1.00  0.00    -0.387 OA
ATOM     29  H   UNL     1       9.388  38.227  20.454  1.00  0.00     0.211 HD
ENDBRANCH  23  28
BRANCH  24  30
ATOM     30  C   UNL     1      14.598  39.537  19.795  1.00  0.00     0.191 C 
BRANCH  30  31
ATOM     31  O   UNL     1      15.214  40.796  19.885  1.00  0.00    -0.394 OA
ATOM     32  H   UNL     1      14.494  41.467  20.013  1.00  0.00     0.210 HD
ENDBRANCH  30  31
ENDBRANCH  24  30
BRANCH  25  33
ATOM     33  O   UNL     1      12.822  37.355  20.776  1.00  0.00    -0.388 OA
ATOM     34  H   UNL     1      12.069  36.808  21.121  1.00  0.00     0.211 HD
ENDBRANCH  25  33
ENDBRANCH  11  20
BRANCH  10  35
ATOM     35  O   UNL     1       8.875  42.523  19.671  1.00  0.00    -0.507 OA
ATOM     36  H   UNL     1       9.017  41.969  18.835  1.00  0.00     0.293 HD
ENDBRANCH  10  35
TORSDOF 9
ENDMDL
MODEL 8
REMARK VINA RESULT:    -5.241      4.960      8.228
REMARK INTER + INTRA:          -6.937
REMARK INTER:                  -6.894
REMARK INTRA:                  -0.043
REMARK UNBOUND:                 0.143
REMARK SMILES O=c1c(-c2ccc(O)cc2)coc2c([C@H]3O[C@@H](CO)[C@H](O)[C@H](O)[C@@H]3O)c(O)ccc12
REMARK SMILES IDX 3 1 11 2 12 3 13 4 30 5 2 6 1 7 29 8 28 9 26 10 14 11 4 12
REMARK SMILES IDX 5 13 6 14 7 15 10 16 9 17 8 18 15 20 24 21 16 22 22 23 17 24
REMARK SMILES IDX 20 25 25 26 23 28 18 30 19 31 21 33 27 35
REMARK H PARENT 8 19 25 27 23 29 19 32 21 34 27 36
REMARK Flexibility Score: inf
ROOT
ATOM      1  C   UNL     1      12.965  43.399  21.010  1.00  0.00     0.065 A 
ATOM      2  C   UNL     1      14.297  42.962  21.019  1.00  0.00     0.208 A 
ATOM      3  O   UNL     1      15.272  43.756  21.443  1.00  0.00    -0.463 OA
ATOM      4  C   UNL     1      15.065  44.996  21.880  1.00  0.00     0.147 A 
ATOM      5  C   UNL     1      13.750  45.518  21.904  1.00  0.00     0.066 A 
ATOM      6  C   UNL     1      12.693  44.706  21.454  1.00  0.00     0.200 A 
ATOM      7  O   UNL     1      11.512  45.153  21.431  1.00  0.00    -0.288 OA
ATOM      8  C   UNL     1      13.531  46.823  22.372  1.00  0.00     0.020 A 
ATOM      9  C   UNL     1      14.600  47.596  22.822  1.00  0.00     0.047 A 
ATOM     10  C   UNL     1      15.904  47.087  22.808  1.00  0.00     0.125 A 
ATOM     11  C   UNL     1      16.155  45.784  22.319  1.00  0.00     0.069 A 
ENDROOT
BRANCH   1  12
ATOM     12  C   UNL     1      11.890  42.490  20.538  1.00  0.00    -0.011 A 
ATOM     13  C   UNL     1      11.809  42.134  19.180  1.00  0.00     0.013 A 
ATOM     14  C   UNL     1      10.803  41.270  18.734  1.00  0.00     0.047 A 
ATOM     15  C   UNL     1       9.871  40.749  19.636  1.00  0.00     0.115 A 
ATOM     16  C   UNL     1      10.953  41.956  21.441  1.00  0.00     0.013 A 
ATOM     17  C   UNL     1       9.949  41.093  20.992  1.00  0.00     0.047 A 
BRANCH  15  18
ATOM     18  O   UNL     1       8.875  39.892  19.177  1.00  0.00    -0.508 OA
ATOM     19  H   UNL     1       8.442  40.019  18.269  1.00  0.00     0.293 HD
ENDBRANCH  15  18
ENDBRANCH   1  12
BRANCH  11  20
ATOM     20  C   UNL     1      17.567  45.214  22.320  1.00  0.00     0.188 C 
ATOM     21  C   UNL     1      18.365  45.763  23.530  1.00  0.00     0.179 C 
ATOM     22  O   UNL     1      18.210  45.560  21.103  1.00  0.00    -0.362 OA
ATOM     23  C   UNL     1      19.805  45.221  23.511  1.00  0.00     0.177 C 
ATOM     24  C   UNL     1      19.485  44.944  21.000  1.00  0.00     0.176 C 
ATOM     25  C   UNL     1      20.427  45.468  22.120  1.00  0.00     0.177 C 
BRANCH  21  26
ATOM     26  O   UNL     1      17.732  45.465  24.752  1.00  0.00    -0.387 OA
ATOM     27  H   UNL     1      18.436  45.264  25.421  1.00  0.00     0.211 HD
ENDBRANCH  21  26
BRANCH  23  28
ATOM     28  O   UNL     1      19.802  43.845  23.810  1.00  0.00    -0.387 OA
ATOM     29  H   UNL     1      20.750  43.556  23.865  1.00  0.00     0.211 HD
ENDBRANCH  23  28
BRANCH  24  30
ATOM     30  C   UNL     1      20.041  45.257  19.604  1.00  0.00     0.191 C 
BRANCH  30  31
ATOM     31  O   UNL     1      21.229  44.545  19.368  1.00  0.00    -0.394 OA
ATOM     32  H   UNL     1      21.667  44.957  18.579  1.00  0.00     0.210 HD
ENDBRANCH  30  31
ENDBRANCH  24  30
BRANCH  25  33
ATOM     33  O   UNL     1      21.712  44.902  22.045  1.00  0.00    -0.388 OA
ATOM     34  H   UNL     1      22.372  45.644  22.030  1.00  0.00     0.211 HD
ENDBRANCH  25  33
ENDBRANCH  11  20
BRANCH  10  35
ATOM     35  O   UNL     1      16.952  47.877  23.283  1.00  0.00    -0.507 OA
ATOM     36  H   UNL     1      17.791  47.470  23.678  1.00  0.00     0.293 HD
ENDBRANCH  10  35
TORSDOF 9
ENDMDL
MODEL 9
REMARK VINA RESULT:    -5.188      4.765      8.158
REMARK INTER + INTRA:          -6.864
REMARK INTER:                  -7.035
REMARK INTRA:                   0.171
REMARK UNBOUND:                 0.143
REMARK SMILES O=c1c(-c2ccc(O)cc2)coc2c([C@H]3O[C@@H](CO)[C@H](O)[C@H](O)[C@@H]3O)c(O)ccc12
REMARK SMILES IDX 3 1 11 2 12 3 13 4 30 5 2 6 1 7 29 8 28 9 26 10 14 11 4 12
REMARK SMILES IDX 5 13 6 14 7 15 10 16 9 17 8 18 15 20 24 21 16 22 22 23 17 24
REMARK SMILES IDX 20 25 25 26 23 28 18 30 19 31 21 33 27 35
REMARK H PARENT 8 19 25 27 23 29 19 32 21 34 27 36
REMARK Flexibility Score: inf
ROOT
ATOM      1  C   UNL     1      15.530  44.978  22.245  1.00  0.00     0.065 A 
ATOM      2  C   UNL     1      15.017  43.781  21.727  1.00  0.00     0.208 A 
ATOM      3  O   UNL     1      13.757  43.701  21.317  1.00  0.00    -0.463 OA
ATOM      4  C   UNL     1      12.908  44.725  21.365  1.00  0.00     0.147 A 
ATOM      5  C   UNL     1      13.343  45.971  21.875  1.00  0.00     0.066 A 
ATOM      6  C   UNL     1      14.670  46.088  22.326  1.00  0.00     0.200 A 
ATOM      7  O   UNL     1      15.082  47.176  22.818  1.00  0.00    -0.288 OA
ATOM      8  C   UNL     1      12.449  47.052  21.919  1.00  0.00     0.020 A 
ATOM      9  C   UNL     1      11.145  46.903  21.452  1.00  0.00     0.047 A 
ATOM     10  C   UNL     1      10.706  45.676  20.940  1.00  0.00     0.125 A 
ATOM     11  C   UNL     1      11.579  44.565  20.907  1.00  0.00     0.069 A 
ENDROOT
BRANCH   1  12
ATOM     12  C   UNL     1      16.945  45.045  22.692  1.00  0.00    -0.011 A 
ATOM     13  C   UNL     1      17.987  44.755  21.793  1.00  0.00     0.013 A 
ATOM     14  C   UNL     1      19.320  44.827  22.209  1.00  0.00     0.047 A 
ATOM     15  C   UNL     1      19.629  45.191  23.522  1.00  0.00     0.115 A 
ATOM     16  C   UNL     1      17.264  45.417  24.010  1.00  0.00     0.013 A 
ATOM     17  C   UNL     1      18.598  45.488  24.423  1.00  0.00     0.047 A 
BRANCH  15  18
ATOM     18  O   UNL     1      20.962  45.257  23.922  1.00  0.00    -0.508 OA
ATOM     19  H   UNL     1      21.306  46.018  24.496  1.00  0.00     0.293 HD
ENDBRANCH  15  18
ENDBRANCH   1  12
BRANCH  11  20
ATOM     20  C   UNL     1      11.117  43.233  20.333  1.00  0.00     0.188 C 
ATOM     21  C   UNL     1      10.253  42.472  21.372  1.00  0.00     0.179 C 
ATOM     22  O   UNL     1      12.252  42.462  19.971  1.00  0.00    -0.362 OA
ATOM     23  C   UNL     1       9.819  41.107  20.809  1.00  0.00     0.177 C 
ATOM     24  C   UNL     1      11.872  41.263  19.312  1.00  0.00     0.176 C 
ATOM     25  C   UNL     1      11.057  40.356  20.275  1.00  0.00     0.177 C 
BRANCH  21  26
ATOM     26  O   UNL     1       9.137  43.228  21.777  1.00  0.00    -0.387 OA
ATOM     27  H   UNL     1       8.399  43.053  21.137  1.00  0.00     0.211 HD
ENDBRANCH  21  26
BRANCH  23  28
ATOM     28  O   UNL     1       8.875  41.293  19.781  1.00  0.00    -0.387 OA
ATOM     29  H   UNL     1       9.144  40.703  19.029  1.00  0.00     0.211 HD
ENDBRANCH  23  28
BRANCH  24  30
ATOM     30  C   UNL     1      13.156  40.568  18.835  1.00  0.00     0.191 C 
BRANCH  30  31
ATOM     31  O   UNL     1      14.276  41.060  19.525  1.00  0.00    -0.394 OA
ATOM     32  H   UNL     1      14.114  42.023  19.699  1.00  0.00     0.210 HD
ENDBRANCH  30  31
ENDBRANCH  24  30
BRANCH  25  33
ATOM     33  O   UNL     1      10.677  39.143  19.673  1.00  0.00    -0.388 OA
ATOM     34  H   UNL     1      11.271  38.990  18.893  1.00  0.00     0.211 HD
ENDBRANCH  25  33
ENDBRANCH  11  20
BRANCH  10  35
ATOM     35  O   UNL     1       9.399  45.564  20.462  1.00  0.00    -0.507 OA
ATOM     36  H   UNL     1       8.736  46.326  20.537  1.00  0.00     0.293 HD
ENDBRANCH  10  35
TORSDOF 9
ENDMDL
