MODEL 1
REMARK VINA RESULT:    -2.780      0.000      0.000
REMARK INTER + INTRA:          -2.780
REMARK INTER:                  -2.780
REMARK INTRA:                   0.000
REMARK UNBOUND:                 0.000
REMARK SMILES CC(=O)[O-]
REMARK SMILES IDX 1 1 2 2 3 3 4 4
REMARK H PARENT
REMARK Flexibility Score: inf
ROOT
ATOM      1  C   UNL     1     -11.041  18.724 -21.633  1.00  0.00     0.063 C 
ATOM      2  C   UNL     1     -12.330  18.496 -22.346  1.00  0.00     0.038 C 
ATOM      3  O   UNL     1     -13.414  18.874 -21.828  1.00  0.00    -0.550 OA
ATOM      4  O   UNL     1     -12.346  17.819 -23.558  1.00  0.00    -0.550 OA
ENDROOT
TORSDOF 0
ENDMDL
MODEL 2
REMARK VINA RESULT:    -2.627      1.914      2.274
REMARK INTER + INTRA:          -2.627
REMARK INTER:                  -2.627
REMARK INTRA:                   0.000
REMARK UNBOUND:                 0.000
REMARK SMILES CC(=O)[O-]
REMARK SMILES IDX 1 1 2 2 3 3 4 4
REMARK H PARENT
REMARK Flexibility Score: inf
ROOT
ATOM      1  C   UNL     1     -12.450  18.575 -22.864  1.00  0.00     0.063 C 
ATOM      2  C   UNL     1     -11.666  18.234 -21.643  1.00  0.00     0.038 C 
ATOM      3  O   UNL     1     -10.593  18.843 -21.391  1.00  0.00    -0.550 OA
ATOM      4  O   UNL     1     -12.086  17.207 -20.808  1.00  0.00    -0.550 OA
ENDROOT
TORSDOF 0
ENDMDL
MODEL 3
REMARK VINA RESULT:    -2.531     10.250     10.570
REMARK INTER + INTRA:          -2.531
REMARK INTER:                  -2.531
REMARK INTRA:                   0.000
REMARK UNBOUND:                 0.000
REMARK SMILES CC(=O)[O-]
REMARK SMILES IDX 1 1 2 2 3 3 4 4
REMARK H PARENT
REMARK Flexibility Score: inf
ROOT
ATOM      1  C   UNL     1     -10.219  14.395 -13.920  1.00  0.00     0.063 C 
ATOM      2  C   UNL     1     -11.151  14.358 -12.757  1.00  0.00     0.038 C 
ATOM      3  O   UNL     1     -10.948  15.101 -11.761  1.00  0.00    -0.550 OA
ATOM      4  O   UNL     1     -12.216  13.466 -12.744  1.00  0.00    -0.550 OA
ENDROOT
TORSDOF 0
ENDMDL
MODEL 4
REMARK VINA RESULT:    -2.524      1.681      1.976
REMARK INTER + INTRA:          -2.524
REMARK INTER:                  -2.524
REMARK INTRA:                   0.000
REMARK UNBOUND:                 0.000
REMARK SMILES CC(=O)[O-]
REMARK SMILES IDX 1 1 2 2 3 3 4 4
REMARK H PARENT
REMARK Flexibility Score: inf
ROOT
ATOM      1  C   UNL     1     -12.692  17.198 -21.253  1.00  0.00     0.063 C 
ATOM      2  C   UNL     1     -11.986  18.283 -21.993  1.00  0.00     0.038 C 
ATOM      3  O   UNL     1     -12.447  18.702 -23.087  1.00  0.00    -0.550 OA
ATOM      4  O   UNL     1     -10.792  18.796 -21.506  1.00  0.00    -0.550 OA
ENDROOT
TORSDOF 0
ENDMDL
MODEL 5
REMARK VINA RESULT:    -2.470     12.713     13.055
REMARK INTER + INTRA:          -2.470
REMARK INTER:                  -2.470
REMARK INTRA:                   0.000
REMARK UNBOUND:                 0.000
REMARK SMILES CC(=O)[O-]
REMARK SMILES IDX 1 1 2 2 3 3 4 4
REMARK H PARENT
REMARK Flexibility Score: inf
ROOT
ATOM      1  C   UNL     1     -10.896  15.620 -11.090  1.00  0.00     0.063 C 
ATOM      2  C   UNL     1     -10.808  16.086  -9.676  1.00  0.00     0.038 C 
ATOM      3  O   UNL     1     -11.751  15.851  -8.875  1.00  0.00    -0.550 OA
ATOM      4  O   UNL     1      -9.713  16.826  -9.253  1.00  0.00    -0.550 OA
ENDROOT
TORSDOF 0
ENDMDL
MODEL 6
REMARK VINA RESULT:    -2.419     12.034     12.473
REMARK INTER + INTRA:          -2.419
REMARK INTER:                  -2.419
REMARK INTRA:                   0.000
REMARK UNBOUND:                 0.000
REMARK SMILES CC(=O)[O-]
REMARK SMILES IDX 1 1 2 2 3 3 4 4
REMARK H PARENT
REMARK Flexibility Score: inf
ROOT
ATOM      1  C   UNL     1     -10.172  15.695  -8.980  1.00  0.00     0.063 C 
ATOM      2  C   UNL     1     -10.861  16.097 -10.239  1.00  0.00     0.038 C 
ATOM      3  O   UNL     1     -11.486  17.188 -10.295  1.00  0.00    -0.550 OA
ATOM      4  O   UNL     1     -10.862  15.245 -11.336  1.00  0.00    -0.550 OA
ENDROOT
TORSDOF 0
ENDMDL
MODEL 7
REMARK VINA RESULT:    -2.402      2.027      2.253
REMARK INTER + INTRA:          -2.402
REMARK INTER:                  -2.402
REMARK INTRA:                   0.000
REMARK UNBOUND:                 0.000
REMARK SMILES CC(=O)[O-]
REMARK SMILES IDX 1 1 2 2 3 3 4 4
REMARK H PARENT
REMARK Flexibility Score: inf
ROOT
ATOM      1  C   UNL     1     -12.626  18.519 -22.670  1.00  0.00     0.063 C 
ATOM      2  C   UNL     1     -12.276  17.702 -21.473  1.00  0.00     0.038 C 
ATOM      3  O   UNL     1     -11.161  17.857 -20.907  1.00  0.00    -0.550 OA
ATOM      4  O   UNL     1     -13.154  16.732 -21.010  1.00  0.00    -0.550 OA
ENDROOT
TORSDOF 0
ENDMDL
MODEL 8
REMARK VINA RESULT:    -2.396     10.314     10.778
REMARK INTER + INTRA:          -2.396
REMARK INTER:                  -2.396
REMARK INTRA:                   0.000
REMARK UNBOUND:                 0.000
REMARK SMILES CC(=O)[O-]
REMARK SMILES IDX 1 1 2 2 3 3 4 4
REMARK H PARENT
REMARK Flexibility Score: inf
ROOT
ATOM      1  C   UNL     1     -12.445  13.462 -12.730  1.00  0.00     0.063 C 
ATOM      2  C   UNL     1     -11.193  14.270 -12.791  1.00  0.00     0.038 C 
ATOM      3  O   UNL     1     -10.407  14.143 -13.767  1.00  0.00    -0.550 OA
ATOM      4  O   UNL     1     -10.863  15.124 -11.748  1.00  0.00    -0.550 OA
ENDROOT
TORSDOF 0
ENDMDL
MODEL 9
REMARK VINA RESULT:    -2.190      9.003      9.358
REMARK INTER + INTRA:          -2.190
REMARK INTER:                  -2.190
REMARK INTRA:                   0.000
REMARK UNBOUND:                 0.000
REMARK SMILES CC(=O)[O-]
REMARK SMILES IDX 1 1 2 2 3 3 4 4
REMARK H PARENT
REMARK Flexibility Score: inf
ROOT
ATOM      1  C   UNL     1     -10.906  14.256 -13.135  1.00  0.00     0.063 C 
ATOM      2  C   UNL     1     -10.185  14.414 -14.430  1.00  0.00     0.038 C 
ATOM      3  O   UNL     1     -10.626  13.859 -15.470  1.00  0.00    -0.550 OA
ATOM      4  O   UNL     1      -8.996  15.129 -14.483  1.00  0.00    -0.550 OA
ENDROOT
TORSDOF 0
ENDMDL
