MODEL 1
REMARK VINA RESULT:    -4.278      0.000      0.000
REMARK INTER + INTRA:          -5.002
REMARK INTER:                  -4.778
REMARK INTRA:                  -0.224
REMARK UNBOUND:                -0.224
REMARK SMILES O=C([O-])c1ccccc1C(=O)[O-]
REMARK SMILES IDX 4 1 9 2 5 3 8 4 6 5 7 6 2 7 1 8 3 9 10 10 11 11 12 12
REMARK H PARENT
REMARK Flexibility Score: inf
ROOT
ATOM      1  C   UNL     1     -24.449 -23.813 -17.157  1.00  0.00     0.006 A 
ATOM      2  C   UNL     1     -23.997 -24.939 -17.899  1.00  0.00     0.006 A 
ATOM      3  C   UNL     1     -25.826 -23.523 -17.124  1.00  0.00     0.010 A 
ATOM      4  C   UNL     1     -24.944 -25.771 -18.525  1.00  0.00     0.010 A 
ATOM      5  C   UNL     1     -26.745 -24.350 -17.772  1.00  0.00     0.001 A 
ATOM      6  C   UNL     1     -26.306 -25.478 -18.461  1.00  0.00     0.001 A 
ENDROOT
BRANCH   1   7
ATOM      7  C   UNL     1     -23.544 -22.961 -16.352  1.00  0.00     0.072 C 
ATOM      8  O   UNL     1     -23.159 -21.842 -16.784  1.00  0.00    -0.545 OA
ATOM      9  O   UNL     1     -23.053 -23.418 -15.136  1.00  0.00    -0.545 OA
ENDBRANCH   1   7
BRANCH   2  10
ATOM     10  C   UNL     1     -22.561 -25.239 -18.102  1.00  0.00     0.072 C 
ATOM     11  O   UNL     1     -21.945 -24.752 -19.086  1.00  0.00    -0.545 OA
ATOM     12  O   UNL     1     -21.859 -26.005 -17.178  1.00  0.00    -0.545 OA
ENDBRANCH   2  10
TORSDOF 2
ENDMDL
MODEL 2
REMARK VINA RESULT:    -4.267     18.049     18.628
REMARK INTER + INTRA:          -4.989
REMARK INTER:                  -4.757
REMARK INTRA:                  -0.232
REMARK UNBOUND:                -0.224
REMARK SMILES O=C([O-])c1ccccc1C(=O)[O-]
REMARK SMILES IDX 4 1 9 2 5 3 8 4 6 5 7 6 2 7 1 8 3 9 10 10 11 11 12 12
REMARK H PARENT
REMARK Flexibility Score: inf
ROOT
ATOM      1  C   UNL     1     -12.267 -35.521 -25.710  1.00  0.00     0.006 A 
ATOM      2  C   UNL     1     -13.065 -36.689 -25.556  1.00  0.00     0.006 A 
ATOM      3  C   UNL     1     -11.428 -35.123 -24.653  1.00  0.00     0.010 A 
ATOM      4  C   UNL     1     -12.944 -37.450 -24.378  1.00  0.00     0.010 A 
ATOM      5  C   UNL     1     -11.341 -35.881 -23.484  1.00  0.00     0.001 A 
ATOM      6  C   UNL     1     -12.088 -37.049 -23.352  1.00  0.00     0.001 A 
ENDROOT
BRANCH   1   7
ATOM      7  C   UNL     1     -12.223 -34.734 -26.963  1.00  0.00     0.072 C 
ATOM      8  O   UNL     1     -12.934 -33.704 -27.103  1.00  0.00    -0.545 OA
ATOM      9  O   UNL     1     -11.441 -35.164 -28.030  1.00  0.00    -0.545 OA
ENDBRANCH   1   7
BRANCH   2  10
ATOM     10  C   UNL     1     -14.075 -37.105 -26.556  1.00  0.00     0.072 C 
ATOM     11  O   UNL     1     -15.234 -36.613 -26.530  1.00  0.00    -0.545 OA
ATOM     12  O   UNL     1     -13.741 -37.991 -27.574  1.00  0.00    -0.545 OA
ENDBRANCH   2  10
TORSDOF 2
ENDMDL
MODEL 3
REMARK VINA RESULT:    -4.246      0.123      3.003
REMARK INTER + INTRA:          -4.966
REMARK INTER:                  -4.751
REMARK INTRA:                  -0.215
REMARK UNBOUND:                -0.224
REMARK SMILES O=C([O-])c1ccccc1C(=O)[O-]
REMARK SMILES IDX 4 1 9 2 5 3 8 4 6 5 7 6 2 7 1 8 3 9 10 10 11 11 12 12
REMARK H PARENT
REMARK Flexibility Score: inf
ROOT
ATOM      1  C   UNL     1     -23.917 -24.962 -17.894  1.00  0.00     0.006 A 
ATOM      2  C   UNL     1     -24.406 -23.860 -17.139  1.00  0.00     0.006 A 
ATOM      3  C   UNL     1     -24.834 -25.803 -18.550  1.00  0.00     0.010 A 
ATOM      4  C   UNL     1     -25.790 -23.603 -17.122  1.00  0.00     0.010 A 
ATOM      5  C   UNL     1     -26.204 -25.542 -18.501  1.00  0.00     0.001 A 
ATOM      6  C   UNL     1     -26.680 -24.438 -17.799  1.00  0.00     0.001 A 
ENDROOT
BRANCH   1   7
ATOM      7  C   UNL     1     -22.473 -25.231 -18.084  1.00  0.00     0.072 C 
ATOM      8  O   UNL     1     -21.852 -25.999 -17.302  1.00  0.00    -0.545 OA
ATOM      9  O   UNL     1     -21.769 -24.583 -19.093  1.00  0.00    -0.545 OA
ENDBRANCH   1   7
BRANCH   2  10
ATOM     10  C   UNL     1     -23.527 -23.006 -16.307  1.00  0.00     0.072 C 
ATOM     11  O   UNL     1     -23.266 -21.827 -16.664  1.00  0.00    -0.545 OA
ATOM     12  O   UNL     1     -23.034 -23.469 -15.092  1.00  0.00    -0.545 OA
ENDBRANCH   2  10
TORSDOF 2
ENDMDL
MODEL 4
REMARK VINA RESULT:    -4.246     18.058     18.705
REMARK INTER + INTRA:          -4.966
REMARK INTER:                  -4.748
REMARK INTRA:                  -0.217
REMARK UNBOUND:                -0.224
REMARK SMILES O=C([O-])c1ccccc1C(=O)[O-]
REMARK SMILES IDX 4 1 9 2 5 3 8 4 6 5 7 6 2 7 1 8 3 9 10 10 11 11 12 12
REMARK H PARENT
REMARK Flexibility Score: inf
ROOT
ATOM      1  C   UNL     1     -13.078 -36.705 -25.542  1.00  0.00     0.006 A 
ATOM      2  C   UNL     1     -12.284 -35.539 -25.726  1.00  0.00     0.006 A 
ATOM      3  C   UNL     1     -12.941 -37.445 -24.354  1.00  0.00     0.010 A 
ATOM      4  C   UNL     1     -11.431 -35.121 -24.688  1.00  0.00     0.010 A 
ATOM      5  C   UNL     1     -12.072 -37.024 -23.346  1.00  0.00     0.001 A 
ATOM      6  C   UNL     1     -11.328 -35.858 -23.508  1.00  0.00     0.001 A 
ENDROOT
BRANCH   1   7
ATOM      7  C   UNL     1     -14.102 -37.145 -26.517  1.00  0.00     0.072 C 
ATOM      8  O   UNL     1     -15.274 -36.685 -26.474  1.00  0.00    -0.545 OA
ATOM      9  O   UNL     1     -13.797 -38.125 -27.454  1.00  0.00    -0.545 OA
ENDBRANCH   1   7
BRANCH   2  10
ATOM     10  C   UNL     1     -12.261 -34.779 -26.997  1.00  0.00     0.072 C 
ATOM     11  O   UNL     1     -12.875 -33.684 -27.093  1.00  0.00    -0.545 OA
ATOM     12  O   UNL     1     -11.509 -35.227 -28.077  1.00  0.00    -0.545 OA
ENDBRANCH   2  10
TORSDOF 2
ENDMDL
MODEL 5
REMARK VINA RESULT:    -4.186     12.134     13.028
REMARK INTER + INTRA:          -4.899
REMARK INTER:                  -4.674
REMARK INTRA:                  -0.225
REMARK UNBOUND:                -0.224
REMARK SMILES O=C([O-])c1ccccc1C(=O)[O-]
REMARK SMILES IDX 4 1 9 2 5 3 8 4 6 5 7 6 2 7 1 8 3 9 10 10 11 11 12 12
REMARK H PARENT
REMARK Flexibility Score: inf
ROOT
ATOM      1  C   UNL     1     -25.744 -19.372 -29.257  1.00  0.00     0.006 A 
ATOM      2  C   UNL     1     -26.534 -20.504 -28.915  1.00  0.00     0.006 A 
ATOM      3  C   UNL     1     -25.871 -18.194 -28.498  1.00  0.00     0.010 A 
ATOM      4  C   UNL     1     -27.373 -20.436 -27.787  1.00  0.00     0.010 A 
ATOM      5  C   UNL     1     -26.727 -18.142 -27.397  1.00  0.00     0.001 A 
ATOM      6  C   UNL     1     -27.467 -19.265 -27.034  1.00  0.00     0.001 A 
ENDROOT
BRANCH   1   7
ATOM      7  C   UNL     1     -24.733 -19.391 -30.340  1.00  0.00     0.072 C 
ATOM      8  O   UNL     1     -25.009 -18.949 -31.487  1.00  0.00    -0.545 OA
ATOM      9  O   UNL     1     -23.486 -19.963 -30.120  1.00  0.00    -0.545 OA
ENDBRANCH   1   7
BRANCH   2  10
ATOM     10  C   UNL     1     -26.568 -21.735 -29.738  1.00  0.00     0.072 C 
ATOM     11  O   UNL     1     -25.850 -22.723 -29.430  1.00  0.00    -0.545 OA
ATOM     12  O   UNL     1     -27.437 -21.842 -30.817  1.00  0.00    -0.545 OA
ENDBRANCH   2  10
TORSDOF 2
ENDMDL
MODEL 6
REMARK VINA RESULT:    -4.185     12.230     13.236
REMARK INTER + INTRA:          -4.898
REMARK INTER:                  -4.671
REMARK INTRA:                  -0.227
REMARK UNBOUND:                -0.224
REMARK SMILES O=C([O-])c1ccccc1C(=O)[O-]
REMARK SMILES IDX 4 1 9 2 5 3 8 4 6 5 7 6 2 7 1 8 3 9 10 10 11 11 12 12
REMARK H PARENT
REMARK Flexibility Score: inf
ROOT
ATOM      1  C   UNL     1     -26.480 -20.551 -29.037  1.00  0.00     0.006 A 
ATOM      2  C   UNL     1     -25.663 -19.438 -29.380  1.00  0.00     0.006 A 
ATOM      3  C   UNL     1     -27.332 -20.456 -27.922  1.00  0.00     0.010 A 
ATOM      4  C   UNL     1     -25.779 -18.249 -28.635  1.00  0.00     0.010 A 
ATOM      5  C   UNL     1     -27.414 -19.274 -27.184  1.00  0.00     0.001 A 
ATOM      6  C   UNL     1     -26.648 -18.170 -27.547  1.00  0.00     0.001 A 
ENDROOT
BRANCH   1   7
ATOM      7  C   UNL     1     -26.529 -21.793 -29.842  1.00  0.00     0.072 C 
ATOM      8  O   UNL     1     -25.784 -22.771 -29.566  1.00  0.00    -0.545 OA
ATOM      9  O   UNL     1     -27.354 -21.870 -30.957  1.00  0.00    -0.545 OA
ENDBRANCH   1   7
BRANCH   2  10
ATOM     10  C   UNL     1     -24.640 -19.495 -30.449  1.00  0.00     0.072 C 
ATOM     11  O   UNL     1     -23.506 -19.991 -30.215  1.00  0.00    -0.545 OA
ATOM     12  O   UNL     1     -24.936 -19.066 -31.738  1.00  0.00    -0.545 OA
ENDBRANCH   2  10
TORSDOF 2
ENDMDL
MODEL 7
REMARK VINA RESULT:    -4.172     18.188     20.090
REMARK INTER + INTRA:          -4.883
REMARK INTER:                  -4.686
REMARK INTRA:                  -0.198
REMARK UNBOUND:                -0.224
REMARK SMILES O=C([O-])c1ccccc1C(=O)[O-]
REMARK SMILES IDX 4 1 9 2 5 3 8 4 6 5 7 6 2 7 1 8 3 9 10 10 11 11 12 12
REMARK H PARENT
REMARK Flexibility Score: inf
ROOT
ATOM      1  C   UNL     1     -11.383 -35.092 -28.052  1.00  0.00     0.006 A 
ATOM      2  C   UNL     1     -10.492 -35.830 -27.224  1.00  0.00     0.006 A 
ATOM      3  C   UNL     1     -10.973 -34.736 -29.350  1.00  0.00     0.010 A 
ATOM      4  C   UNL     1      -9.251 -36.240 -27.748  1.00  0.00     0.010 A 
ATOM      5  C   UNL     1      -9.729 -35.134 -29.841  1.00  0.00     0.001 A 
ATOM      6  C   UNL     1      -8.875 -35.894 -29.047  1.00  0.00     0.001 A 
ENDROOT
BRANCH   1   7
ATOM      7  C   UNL     1     -12.760 -34.736 -27.639  1.00  0.00     0.072 C 
ATOM      8  O   UNL     1     -13.000 -33.632 -27.083  1.00  0.00    -0.545 OA
ATOM      9  O   UNL     1     -13.795 -35.649 -27.801  1.00  0.00    -0.545 OA
ENDBRANCH   1   7
BRANCH   2  10
ATOM     10  C   UNL     1     -10.782 -36.129 -25.803  1.00  0.00     0.072 C 
ATOM     11  O   UNL     1     -10.985 -37.315 -25.433  1.00  0.00    -0.545 OA
ATOM     12  O   UNL     1     -10.769 -35.117 -24.850  1.00  0.00    -0.545 OA
ENDBRANCH   2  10
TORSDOF 2
ENDMDL
MODEL 8
REMARK VINA RESULT:    -4.146     18.173     20.025
REMARK INTER + INTRA:          -4.854
REMARK INTER:                  -4.633
REMARK INTRA:                  -0.222
REMARK UNBOUND:                -0.224
REMARK SMILES O=C([O-])c1ccccc1C(=O)[O-]
REMARK SMILES IDX 4 1 9 2 5 3 8 4 6 5 7 6 2 7 1 8 3 9 10 10 11 11 12 12
REMARK H PARENT
REMARK Flexibility Score: inf
ROOT
ATOM      1  C   UNL     1     -10.656 -35.623 -27.359  1.00  0.00     0.006 A 
ATOM      2  C   UNL     1     -11.528 -34.939 -28.252  1.00  0.00     0.006 A 
ATOM      3  C   UNL     1      -9.340 -35.903 -27.770  1.00  0.00     0.010 A 
ATOM      4  C   UNL     1     -11.030 -34.505 -29.496  1.00  0.00     0.010 A 
ATOM      5  C   UNL     1      -8.875 -35.483 -29.016  1.00  0.00     0.001 A 
ATOM      6  C   UNL     1      -9.715 -34.774 -29.872  1.00  0.00     0.001 A 
ENDROOT
BRANCH   1   7
ATOM      7  C   UNL     1     -11.046 -35.996 -25.980  1.00  0.00     0.072 C 
ATOM      8  O   UNL     1     -11.615 -37.096 -25.747  1.00  0.00    -0.545 OA
ATOM      9  O   UNL     1     -10.848 -35.104 -24.933  1.00  0.00    -0.545 OA
ENDBRANCH   1   7
BRANCH   2  10
ATOM     10  C   UNL     1     -12.964 -34.725 -27.961  1.00  0.00     0.072 C 
ATOM     11  O   UNL     1     -13.821 -35.565 -28.342  1.00  0.00    -0.545 OA
ATOM     12  O   UNL     1     -13.379 -33.631 -27.209  1.00  0.00    -0.545 OA
ENDBRANCH   2  10
TORSDOF 2
ENDMDL
MODEL 9
REMARK VINA RESULT:    -4.100     18.418     19.959
REMARK INTER + INTRA:          -4.803
REMARK INTER:                  -4.578
REMARK INTRA:                  -0.224
REMARK UNBOUND:                -0.224
REMARK SMILES O=C([O-])c1ccccc1C(=O)[O-]
REMARK SMILES IDX 4 1 9 2 5 3 8 4 6 5 7 6 2 7 1 8 3 9 10 10 11 11 12 12
REMARK H PARENT
REMARK Flexibility Score: inf
ROOT
ATOM      1  C   UNL     1     -11.726 -34.849 -27.643  1.00  0.00     0.006 A 
ATOM      2  C   UNL     1     -10.787 -35.880 -27.361  1.00  0.00     0.006 A 
ATOM      3  C   UNL     1     -12.404 -34.231 -26.576  1.00  0.00     0.010 A 
ATOM      4  C   UNL     1     -10.515 -36.209 -26.019  1.00  0.00     0.010 A 
ATOM      5  C   UNL     1     -12.135 -34.589 -25.255  1.00  0.00     0.001 A 
ATOM      6  C   UNL     1     -11.183 -35.567 -24.976  1.00  0.00     0.001 A 
ENDROOT
BRANCH   1   7
ATOM      7  C   UNL     1     -11.977 -34.339 -29.011  1.00  0.00     0.072 C 
ATOM      8  O   UNL     1     -11.278 -33.407 -29.489  1.00  0.00    -0.545 OA
ATOM      9  O   UNL     1     -13.034 -34.842 -29.759  1.00  0.00    -0.545 OA
ENDBRANCH   1   7
BRANCH   2  10
ATOM     10  C   UNL     1     -10.131 -36.678 -28.422  1.00  0.00     0.072 C 
ATOM     11  O   UNL     1     -10.710 -37.685 -28.908  1.00  0.00    -0.545 OA
ATOM     12  O   UNL     1      -8.902 -36.289 -28.943  1.00  0.00    -0.545 OA
ENDBRANCH   2  10
TORSDOF 2
ENDMDL
