MODEL 1
REMARK VINA RESULT:    -5.849      0.000      0.000
REMARK INTER + INTRA:          -7.311
REMARK INTER:                  -7.046
REMARK INTRA:                  -0.266
REMARK UNBOUND:                -0.266
REMARK SMILES O=c1c(O)c(-c2ccc(O)c(O)c2)oc2cc(O)cc(O)c12
REMARK SMILES IDX 5 1 3 2 2 3 1 4 22 5 20 6 19 7 17 8 16 9 15 10 14 11 6 12
REMARK SMILES IDX 7 13 8 14 9 15 13 16 11 17 10 18 12 20 4 22 21 24 18 26
REMARK H PARENT 10 19 12 21 4 23 21 25 18 27
REMARK Flexibility Score: inf
ROOT
ATOM      1  C   UNL     1      -7.833  18.638 -20.856  1.00  0.00     0.180 A 
ATOM      2  C   UNL     1      -7.935  17.401 -20.197  1.00  0.00     0.208 A 
ATOM      3  C   UNL     1      -7.854  16.219 -20.952  1.00  0.00     0.238 A 
ATOM      4  O   UNL     1      -7.890  15.114 -20.350  1.00  0.00    -0.285 OA
ATOM      5  C   UNL     1      -7.688  16.290 -22.356  1.00  0.00     0.111 A 
ATOM      6  C   UNL     1      -7.635  15.158 -23.224  1.00  0.00     0.134 A 
ATOM      7  C   UNL     1      -7.338  15.341 -24.580  1.00  0.00     0.093 A 
ATOM      8  C   UNL     1      -7.158  16.620 -25.111  1.00  0.00     0.123 A 
ATOM      9  C   UNL     1      -7.268  17.735 -24.284  1.00  0.00     0.094 A 
ATOM     10  C   UNL     1      -7.527  17.582 -22.921  1.00  0.00     0.146 A 
ATOM     11  O   UNL     1      -7.614  18.671 -22.165  1.00  0.00    -0.452 OA
ENDROOT
BRANCH   1  12
ATOM     12  C   UNL     1      -7.935  19.926 -20.133  1.00  0.00     0.025 A 
ATOM     13  C   UNL     1      -6.875  20.411 -19.347  1.00  0.00     0.016 A 
ATOM     14  C   UNL     1      -7.004  21.617 -18.654  1.00  0.00     0.051 A 
ATOM     15  C   UNL     1      -8.192  22.349 -18.722  1.00  0.00     0.157 A 
ATOM     16  C   UNL     1      -9.135  20.655 -20.183  1.00  0.00     0.062 A 
ATOM     17  C   UNL     1      -9.266  21.865 -19.488  1.00  0.00     0.158 A 
BRANCH  15  18
ATOM     18  O   UNL     1      -8.289  23.552 -18.021  1.00  0.00    -0.504 OA
ATOM     19  H   UNL     1      -8.162  24.449 -18.473  1.00  0.00     0.293 HD
ENDBRANCH  15  18
BRANCH  17  20
ATOM     20  O   UNL     1     -10.456  22.587 -19.556  1.00  0.00    -0.504 OA
ATOM     21  H   UNL     1     -10.518  23.463 -20.063  1.00  0.00     0.293 HD
ENDBRANCH  17  20
ENDBRANCH   1  12
BRANCH   2  22
ATOM     22  O   UNL     1      -8.076  17.353 -18.808  1.00  0.00    -0.502 OA
ATOM     23  H   UNL     1      -7.495  17.898 -18.183  1.00  0.00     0.293 HD
ENDBRANCH   2  22
BRANCH   6  24
ATOM     24  O   UNL     1      -7.890  13.846 -22.812  1.00  0.00    -0.507 OA
ATOM     25  H   UNL     1      -8.525  13.212 -23.273  1.00  0.00     0.293 HD
ENDBRANCH   6  24
BRANCH   8  26
ATOM     26  O   UNL     1      -6.879  16.794 -26.465  1.00  0.00    -0.508 OA
ATOM     27  H   UNL     1      -7.202  16.133 -27.162  1.00  0.00     0.293 HD
ENDBRANCH   8  26
TORSDOF 6
ENDMDL
MODEL 2
REMARK VINA RESULT:    -5.375      1.310      2.881
REMARK INTER + INTRA:          -6.741
REMARK INTER:                  -6.410
REMARK INTRA:                  -0.331
REMARK UNBOUND:                -0.266
REMARK SMILES O=c1c(O)c(-c2ccc(O)c(O)c2)oc2cc(O)cc(O)c12
REMARK SMILES IDX 5 1 3 2 2 3 1 4 22 5 20 6 19 7 17 8 16 9 15 10 14 11 6 12
REMARK SMILES IDX 7 13 8 14 9 15 13 16 11 17 10 18 12 20 4 22 21 24 18 26
REMARK H PARENT 10 19 12 21 4 23 21 25 18 27
REMARK Flexibility Score: inf
ROOT
ATOM      1  C   UNL     1      -7.854  19.061 -20.889  1.00  0.00     0.180 A 
ATOM      2  C   UNL     1      -7.350  19.133 -22.200  1.00  0.00     0.208 A 
ATOM      3  C   UNL     1      -7.276  17.958 -22.967  1.00  0.00     0.238 A 
ATOM      4  O   UNL     1      -6.875  18.038 -24.157  1.00  0.00    -0.285 OA
ATOM      5  C   UNL     1      -7.691  16.725 -22.409  1.00  0.00     0.111 A 
ATOM      6  C   UNL     1      -7.622  15.468 -23.080  1.00  0.00     0.134 A 
ATOM      7  C   UNL     1      -8.182  14.333 -22.480  1.00  0.00     0.093 A 
ATOM      8  C   UNL     1      -8.749  14.398 -21.205  1.00  0.00     0.123 A 
ATOM      9  C   UNL     1      -8.767  15.609 -20.517  1.00  0.00     0.094 A 
ATOM     10  C   UNL     1      -8.250  16.765 -21.104  1.00  0.00     0.146 A 
ATOM     11  O   UNL     1      -8.296  17.901 -20.417  1.00  0.00    -0.452 OA
ENDROOT
BRANCH   1  12
ATOM     12  C   UNL     1      -7.939  20.250 -20.012  1.00  0.00     0.025 A 
ATOM     13  C   UNL     1      -6.875  20.617 -19.170  1.00  0.00     0.016 A 
ATOM     14  C   UNL     1      -6.988  21.730 -18.333  1.00  0.00     0.051 A 
ATOM     15  C   UNL     1      -8.164  22.483 -18.312  1.00  0.00     0.157 A 
ATOM     16  C   UNL     1      -9.128  20.998 -19.974  1.00  0.00     0.062 A 
ATOM     17  C   UNL     1      -9.243  22.115 -19.134  1.00  0.00     0.158 A 
BRANCH  15  18
ATOM     18  O   UNL     1      -8.246  23.590 -17.467  1.00  0.00    -0.504 OA
ATOM     19  H   UNL     1      -7.916  24.506 -17.747  1.00  0.00     0.293 HD
ENDBRANCH  15  18
BRANCH  17  20
ATOM     20  O   UNL     1     -10.422  22.858 -19.114  1.00  0.00    -0.504 OA
ATOM     21  H   UNL     1     -11.290  22.468 -18.767  1.00  0.00     0.293 HD
ENDBRANCH  17  20
ENDBRANCH   1  12
BRANCH   2  22
ATOM     22  O   UNL     1      -6.966  20.363 -22.739  1.00  0.00    -0.502 OA
ATOM     23  H   UNL     1      -6.003  20.677 -22.747  1.00  0.00     0.293 HD
ENDBRANCH   2  22
BRANCH   6  24
ATOM     24  O   UNL     1      -6.995  15.276 -24.315  1.00  0.00    -0.507 OA
ATOM     25  H   UNL     1      -6.518  15.996 -24.835  1.00  0.00     0.293 HD
ENDBRANCH   6  24
BRANCH   8  26
ATOM     26  O   UNL     1      -9.290  13.261 -20.610  1.00  0.00    -0.508 OA
ATOM     27  H   UNL     1     -10.051  12.748 -21.039  1.00  0.00     0.293 HD
ENDBRANCH   8  26
TORSDOF 6
ENDMDL
MODEL 3
REMARK VINA RESULT:    -4.772      1.515      3.052
REMARK INTER + INTRA:          -6.015
REMARK INTER:                  -5.681
REMARK INTRA:                  -0.334
REMARK UNBOUND:                -0.266
REMARK SMILES O=c1c(O)c(-c2ccc(O)c(O)c2)oc2cc(O)cc(O)c12
REMARK SMILES IDX 5 1 3 2 2 3 1 4 22 5 20 6 19 7 17 8 16 9 15 10 14 11 6 12
REMARK SMILES IDX 7 13 8 14 9 15 13 16 11 17 10 18 12 20 4 22 21 24 18 26
REMARK H PARENT 10 19 12 21 4 23 21 25 18 27
REMARK Flexibility Score: inf
ROOT
ATOM      1  C   UNL     1      -7.995  18.100 -21.420  1.00  0.00     0.180 A 
ATOM      2  C   UNL     1      -7.397  17.987 -22.687  1.00  0.00     0.208 A 
ATOM      3  C   UNL     1      -7.368  16.731 -23.317  1.00  0.00     0.238 A 
ATOM      4  O   UNL     1      -6.881  16.647 -24.474  1.00  0.00    -0.285 OA
ATOM      5  C   UNL     1      -7.921  15.603 -22.665  1.00  0.00     0.111 A 
ATOM      6  C   UNL     1      -7.910  14.277 -23.191  1.00  0.00     0.134 A 
ATOM      7  C   UNL     1      -8.602  13.261 -22.520  1.00  0.00     0.093 A 
ATOM      8  C   UNL     1      -9.248  13.511 -21.307  1.00  0.00     0.123 A 
ATOM      9  C   UNL     1      -9.214  14.789 -20.755  1.00  0.00     0.094 A 
ATOM     10  C   UNL     1      -8.563  15.831 -21.420  1.00  0.00     0.146 A 
ATOM     11  O   UNL     1      -8.562  17.036 -20.863  1.00  0.00    -0.452 OA
ENDROOT
BRANCH   1  12
ATOM     12  C   UNL     1      -8.041  19.383 -20.683  1.00  0.00     0.025 A 
ATOM     13  C   UNL     1      -6.990  19.782 -19.839  1.00  0.00     0.016 A 
ATOM     14  C   UNL     1      -7.068  20.986 -19.135  1.00  0.00     0.051 A 
ATOM     15  C   UNL     1      -8.196  21.802 -19.251  1.00  0.00     0.157 A 
ATOM     16  C   UNL     1      -9.183  20.196 -20.781  1.00  0.00     0.062 A 
ATOM     17  C   UNL     1      -9.262  21.405 -20.075  1.00  0.00     0.158 A 
BRANCH  15  18
ATOM     18  O   UNL     1      -8.243  23.000 -18.537  1.00  0.00    -0.504 OA
ATOM     19  H   UNL     1      -9.116  23.474 -18.340  1.00  0.00     0.293 HD
ENDBRANCH  15  18
BRANCH  17  20
ATOM     20  O   UNL     1     -10.393  22.211 -20.191  1.00  0.00    -0.504 OA
ATOM     21  H   UNL     1     -10.876  22.325 -21.075  1.00  0.00     0.293 HD
ENDBRANCH  17  20
ENDBRANCH   1  12
BRANCH   2  22
ATOM     22  O   UNL     1      -6.876  19.117 -23.323  1.00  0.00    -0.502 OA
ATOM     23  H   UNL     1      -7.114  20.059 -23.039  1.00  0.00     0.293 HD
ENDBRANCH   2  22
BRANCH   6  24
ATOM     24  O   UNL     1      -7.218  13.902 -24.347  1.00  0.00    -0.507 OA
ATOM     25  H   UNL     1      -6.213  13.876 -24.433  1.00  0.00     0.293 HD
ENDBRANCH   6  24
BRANCH   8  26
ATOM     26  O   UNL     1      -9.921  12.491 -20.638  1.00  0.00    -0.508 OA
ATOM     27  H   UNL     1      -9.508  12.016 -19.844  1.00  0.00     0.293 HD
ENDBRANCH   8  26
TORSDOF 6
ENDMDL
MODEL 4
REMARK VINA RESULT:    -3.958     12.647     15.667
REMARK INTER + INTRA:          -5.034
REMARK INTER:                  -4.764
REMARK INTRA:                  -0.270
REMARK UNBOUND:                -0.266
REMARK SMILES O=c1c(O)c(-c2ccc(O)c(O)c2)oc2cc(O)cc(O)c12
REMARK SMILES IDX 5 1 3 2 2 3 1 4 22 5 20 6 19 7 17 8 16 9 15 10 14 11 6 12
REMARK SMILES IDX 7 13 8 14 9 15 13 16 11 17 10 18 12 20 4 22 21 24 18 26
REMARK H PARENT 10 19 12 21 4 23 21 25 18 27
REMARK Flexibility Score: inf
ROOT
ATOM      1  C   UNL     1     -16.208  28.106 -27.150  1.00  0.00     0.180 A 
ATOM      2  C   UNL     1     -16.227  28.685 -25.870  1.00  0.00     0.208 A 
ATOM      3  C   UNL     1     -17.358  29.415 -25.469  1.00  0.00     0.238 A 
ATOM      4  O   UNL     1     -17.391  29.885 -24.302  1.00  0.00    -0.285 OA
ATOM      5  C   UNL     1     -18.448  29.571 -26.358  1.00  0.00     0.111 A 
ATOM      6  C   UNL     1     -19.626  30.323 -26.073  1.00  0.00     0.134 A 
ATOM      7  C   UNL     1     -20.696  30.300 -26.976  1.00  0.00     0.093 A 
ATOM      8  C   UNL     1     -20.603  29.606 -28.184  1.00  0.00     0.123 A 
ATOM      9  C   UNL     1     -19.435  28.918 -28.499  1.00  0.00     0.094 A 
ATOM     10  C   UNL     1     -18.365  28.892 -27.602  1.00  0.00     0.146 A 
ATOM     11  O   UNL     1     -17.272  28.215 -27.937  1.00  0.00    -0.452 OA
ENDROOT
BRANCH   1  12
ATOM     12  C   UNL     1     -15.042  27.345 -27.653  1.00  0.00     0.025 A 
ATOM     13  C   UNL     1     -14.162  27.894 -28.602  1.00  0.00     0.016 A 
ATOM     14  C   UNL     1     -13.083  27.147 -29.080  1.00  0.00     0.051 A 
ATOM     15  C   UNL     1     -12.872  25.840 -28.631  1.00  0.00     0.157 A 
ATOM     16  C   UNL     1     -14.840  26.023 -27.220  1.00  0.00     0.062 A 
ATOM     17  C   UNL     1     -13.757  25.273 -27.699  1.00  0.00     0.158 A 
BRANCH  15  18
ATOM     18  O   UNL     1     -11.784  25.120 -29.125  1.00  0.00    -0.504 OA
ATOM     19  H   UNL     1     -11.577  24.179 -28.814  1.00  0.00     0.293 HD
ENDBRANCH  15  18
BRANCH  17  20
ATOM     20  O   UNL     1     -13.557  23.968 -27.251  1.00  0.00    -0.504 OA
ATOM     21  H   UNL     1     -14.108  23.575 -26.497  1.00  0.00     0.293 HD
ENDBRANCH  17  20
ENDBRANCH   1  12
BRANCH   2  22
ATOM     22  O   UNL     1     -15.149  28.502 -24.999  1.00  0.00    -0.502 OA
ATOM     23  H   UNL     1     -14.964  27.618 -24.541  1.00  0.00     0.293 HD
ENDBRANCH   2  22
BRANCH   6  24
ATOM     24  O   UNL     1     -19.784  31.125 -24.938  1.00  0.00    -0.507 OA
ATOM     25  H   UNL     1     -19.641  30.813 -23.989  1.00  0.00     0.293 HD
ENDBRANCH   6  24
BRANCH   8  26
ATOM     26  O   UNL     1     -21.667  29.602 -29.084  1.00  0.00    -0.508 OA
ATOM     27  H   UNL     1     -21.909  30.425 -29.623  1.00  0.00     0.293 HD
ENDBRANCH   8  26
TORSDOF 6
ENDMDL
MODEL 5
REMARK VINA RESULT:    -3.807      2.503      6.833
REMARK INTER + INTRA:          -4.852
REMARK INTER:                  -4.693
REMARK INTRA:                  -0.158
REMARK UNBOUND:                -0.266
REMARK SMILES O=c1c(O)c(-c2ccc(O)c(O)c2)oc2cc(O)cc(O)c12
REMARK SMILES IDX 5 1 3 2 2 3 1 4 22 5 20 6 19 7 17 8 16 9 15 10 14 11 6 12
REMARK SMILES IDX 7 13 8 14 9 15 13 16 11 17 10 18 12 20 4 22 21 24 18 26
REMARK H PARENT 10 19 12 21 4 23 21 25 18 27
REMARK Flexibility Score: inf
ROOT
ATOM      1  C   UNL     1      -8.598  16.596 -21.548  1.00  0.00     0.180 A 
ATOM      2  C   UNL     1      -7.948  17.010 -22.723  1.00  0.00     0.208 A 
ATOM      3  C   UNL     1      -7.507  18.340 -22.827  1.00  0.00     0.238 A 
ATOM      4  O   UNL     1      -6.877  18.689 -23.858  1.00  0.00    -0.285 OA
ATOM      5  C   UNL     1      -7.737  19.242 -21.761  1.00  0.00     0.111 A 
ATOM      6  C   UNL     1      -7.370  20.621 -21.773  1.00  0.00     0.134 A 
ATOM      7  C   UNL     1      -7.528  21.389 -20.613  1.00  0.00     0.093 A 
ATOM      8  C   UNL     1      -8.102  20.844 -19.462  1.00  0.00     0.123 A 
ATOM      9  C   UNL     1      -8.518  19.515 -19.459  1.00  0.00     0.094 A 
ATOM     10  C   UNL     1      -8.340  18.714 -20.589  1.00  0.00     0.146 A 
ATOM     11  O   UNL     1      -8.741  17.450 -20.540  1.00  0.00    -0.452 OA
ENDROOT
BRANCH   1  12
ATOM     12  C   UNL     1      -9.114  15.219 -21.376  1.00  0.00     0.025 A 
ATOM     13  C   UNL     1      -8.248  14.112 -21.340  1.00  0.00     0.016 A 
ATOM     14  C   UNL     1      -8.759  12.820 -21.200  1.00  0.00     0.051 A 
ATOM     15  C   UNL     1     -10.138  12.610 -21.109  1.00  0.00     0.157 A 
ATOM     16  C   UNL     1     -10.500  15.003 -21.304  1.00  0.00     0.062 A 
ATOM     17  C   UNL     1     -11.015  13.706 -21.164  1.00  0.00     0.158 A 
BRANCH  15  18
ATOM     18  O   UNL     1     -10.619  11.308 -20.968  1.00  0.00    -0.504 OA
ATOM     19  H   UNL     1     -10.031  10.498 -21.128  1.00  0.00     0.293 HD
ENDBRANCH  15  18
BRANCH  17  20
ATOM     20  O   UNL     1     -12.391  13.505 -21.080  1.00  0.00    -0.504 OA
ATOM     21  H   UNL     1     -12.896  12.979 -21.785  1.00  0.00     0.293 HD
ENDBRANCH  17  20
ENDBRANCH   1  12
BRANCH   2  22
ATOM     22  O   UNL     1      -7.712  16.097 -23.755  1.00  0.00    -0.502 OA
ATOM     23  H   UNL     1      -8.298  15.286 -23.909  1.00  0.00     0.293 HD
ENDBRANCH   2  22
BRANCH   6  24
ATOM     24  O   UNL     1      -6.875  21.287 -22.900  1.00  0.00    -0.507 OA
ATOM     25  H   UNL     1      -6.545  22.240 -22.905  1.00  0.00     0.293 HD
ENDBRANCH   6  24
BRANCH   8  26
ATOM     26  O   UNL     1      -8.270  21.619 -18.317  1.00  0.00    -0.508 OA
ATOM     27  H   UNL     1      -8.817  21.291 -17.530  1.00  0.00     0.293 HD
ENDBRANCH   8  26
TORSDOF 6
ENDMDL
MODEL 6
REMARK VINA RESULT:    -3.635     14.766     17.642
REMARK INTER + INTRA:          -4.645
REMARK INTER:                  -4.316
REMARK INTRA:                  -0.329
REMARK UNBOUND:                -0.266
REMARK SMILES O=c1c(O)c(-c2ccc(O)c(O)c2)oc2cc(O)cc(O)c12
REMARK SMILES IDX 5 1 3 2 2 3 1 4 22 5 20 6 19 7 17 8 16 9 15 10 14 11 6 12
REMARK SMILES IDX 7 13 8 14 9 15 13 16 11 17 10 18 12 20 4 22 21 24 18 26
REMARK H PARENT 10 19 12 21 4 23 21 25 18 27
REMARK Flexibility Score: inf
ROOT
ATOM      1  C   UNL     1     -19.746  29.317 -27.375  1.00  0.00     0.180 A 
ATOM      2  C   UNL     1     -19.028  28.294 -28.018  1.00  0.00     0.208 A 
ATOM      3  C   UNL     1     -17.735  27.982 -27.567  1.00  0.00     0.238 A 
ATOM      4  O   UNL     1     -17.119  27.029 -28.111  1.00  0.00    -0.285 OA
ATOM      5  C   UNL     1     -17.169  28.708 -26.492  1.00  0.00     0.111 A 
ATOM      6  C   UNL     1     -15.853  28.505 -25.980  1.00  0.00     0.134 A 
ATOM      7  C   UNL     1     -15.446  29.190 -24.829  1.00  0.00     0.093 A 
ATOM      8  C   UNL     1     -16.284  30.120 -24.210  1.00  0.00     0.123 A 
ATOM      9  C   UNL     1     -17.549  30.370 -24.737  1.00  0.00     0.094 A 
ATOM     10  C   UNL     1     -17.997  29.675 -25.863  1.00  0.00     0.146 A 
ATOM     11  O   UNL     1     -19.213  29.936 -26.327  1.00  0.00    -0.452 OA
ENDROOT
BRANCH   1  12
ATOM     12  C   UNL     1     -21.103  29.720 -27.808  1.00  0.00     0.025 A 
ATOM     13  C   UNL     1     -21.297  30.746 -28.749  1.00  0.00     0.016 A 
ATOM     14  C   UNL     1     -22.588  31.125 -29.125  1.00  0.00     0.051 A 
ATOM     15  C   UNL     1     -23.702  30.498 -28.560  1.00  0.00     0.157 A 
ATOM     16  C   UNL     1     -22.225  29.106 -27.227  1.00  0.00     0.062 A 
ATOM     17  C   UNL     1     -23.522  29.485 -27.603  1.00  0.00     0.158 A 
BRANCH  15  18
ATOM     18  O   UNL     1     -24.979  30.897 -28.957  1.00  0.00    -0.504 OA
ATOM     19  H   UNL     1     -25.624  30.260 -29.409  1.00  0.00     0.293 HD
ENDBRANCH  15  18
BRANCH  17  20
ATOM     20  O   UNL     1     -24.628  28.860 -27.031  1.00  0.00    -0.504 OA
ATOM     21  H   UNL     1     -24.938  29.083 -26.092  1.00  0.00     0.293 HD
ENDBRANCH  17  20
ENDBRANCH   1  12
BRANCH   2  22
ATOM     22  O   UNL     1     -19.613  27.575 -29.064  1.00  0.00    -0.502 OA
ATOM     23  H   UNL     1     -20.606  27.384 -29.104  1.00  0.00     0.293 HD
ENDBRANCH   2  22
BRANCH   6  24
ATOM     24  O   UNL     1     -14.904  27.668 -26.576  1.00  0.00    -0.507 OA
ATOM     25  H   UNL     1     -14.931  27.361 -27.537  1.00  0.00     0.293 HD
ENDBRANCH   6  24
BRANCH   8  26
ATOM     26  O   UNL     1     -15.865  30.810 -23.074  1.00  0.00    -0.508 OA
ATOM     27  H   UNL     1     -14.942  31.222 -23.015  1.00  0.00     0.293 HD
ENDBRANCH   8  26
TORSDOF 6
ENDMDL
MODEL 7
REMARK VINA RESULT:    -3.447     14.499     17.162
REMARK INTER + INTRA:          -4.418
REMARK INTER:                  -4.200
REMARK INTRA:                  -0.218
REMARK UNBOUND:                -0.266
REMARK SMILES O=c1c(O)c(-c2ccc(O)c(O)c2)oc2cc(O)cc(O)c12
REMARK SMILES IDX 5 1 3 2 2 3 1 4 22 5 20 6 19 7 17 8 16 9 15 10 14 11 6 12
REMARK SMILES IDX 7 13 8 14 9 15 13 16 11 17 10 18 12 20 4 22 21 24 18 26
REMARK H PARENT 10 19 12 21 4 23 21 25 18 27
REMARK Flexibility Score: inf
ROOT
ATOM      1  C   UNL     1     -19.238  29.645 -27.149  1.00  0.00     0.180 A 
ATOM      2  C   UNL     1     -18.869  30.007 -25.842  1.00  0.00     0.208 A 
ATOM      3  C   UNL     1     -17.570  29.712 -25.395  1.00  0.00     0.238 A 
ATOM      4  O   UNL     1     -17.228  30.087 -24.244  1.00  0.00    -0.285 OA
ATOM      5  C   UNL     1     -16.663  29.046 -26.254  1.00  0.00     0.111 A 
ATOM      6  C   UNL     1     -15.337  28.663 -25.892  1.00  0.00     0.134 A 
ATOM      7  C   UNL     1     -14.484  28.126 -26.864  1.00  0.00     0.093 A 
ATOM      8  C   UNL     1     -14.931  27.898 -28.168  1.00  0.00     0.123 A 
ATOM      9  C   UNL     1     -16.242  28.214 -28.515  1.00  0.00     0.094 A 
ATOM     10  C   UNL     1     -17.105  28.784 -27.577  1.00  0.00     0.146 A 
ATOM     11  O   UNL     1     -18.344  29.079 -27.953  1.00  0.00    -0.452 OA
ENDROOT
BRANCH   1  12
ATOM     12  C   UNL     1     -20.595  29.898 -27.683  1.00  0.00     0.025 A 
ATOM     13  C   UNL     1     -20.828  30.887 -28.653  1.00  0.00     0.016 A 
ATOM     14  C   UNL     1     -22.122  31.125 -29.124  1.00  0.00     0.051 A 
ATOM     15  C   UNL     1     -23.202  30.391 -28.626  1.00  0.00     0.157 A 
ATOM     16  C   UNL     1     -21.686  29.176 -27.169  1.00  0.00     0.062 A 
ATOM     17  C   UNL     1     -22.985  29.413 -27.641  1.00  0.00     0.158 A 
BRANCH  15  18
ATOM     18  O   UNL     1     -24.482  30.649 -29.117  1.00  0.00    -0.504 OA
ATOM     19  H   UNL     1     -24.648  30.880 -30.089  1.00  0.00     0.293 HD
ENDBRANCH  15  18
BRANCH  17  20
ATOM     20  O   UNL     1     -24.058  28.681 -27.135  1.00  0.00    -0.504 OA
ATOM     21  H   UNL     1     -24.758  28.273 -27.745  1.00  0.00     0.293 HD
ENDBRANCH  17  20
ENDBRANCH   1  12
BRANCH   2  22
ATOM     22  O   UNL     1     -19.772  30.683 -25.018  1.00  0.00    -0.502 OA
ATOM     23  H   UNL     1     -19.603  30.830 -24.031  1.00  0.00     0.293 HD
ENDBRANCH   2  22
BRANCH   6  24
ATOM     24  O   UNL     1     -14.822  28.762 -24.596  1.00  0.00    -0.507 OA
ATOM     25  H   UNL     1     -14.936  29.562 -23.992  1.00  0.00     0.293 HD
ENDBRANCH   6  24
BRANCH   8  26
ATOM     26  O   UNL     1     -14.080  27.349 -29.125  1.00  0.00    -0.508 OA
ATOM     27  H   UNL     1     -14.147  27.604 -30.103  1.00  0.00     0.293 HD
ENDBRANCH   8  26
TORSDOF 6
ENDMDL
MODEL 8
REMARK VINA RESULT:    -3.430      2.124      2.963
REMARK INTER + INTRA:          -4.398
REMARK INTER:                  -4.347
REMARK INTRA:                  -0.051
REMARK UNBOUND:                -0.266
REMARK SMILES O=c1c(O)c(-c2ccc(O)c(O)c2)oc2cc(O)cc(O)c12
REMARK SMILES IDX 5 1 3 2 2 3 1 4 22 5 20 6 19 7 17 8 16 9 15 10 14 11 6 12
REMARK SMILES IDX 7 13 8 14 9 15 13 16 11 17 10 18 12 20 4 22 21 24 18 26
REMARK H PARENT 10 19 12 21 4 23 21 25 18 27
REMARK Flexibility Score: inf
ROOT
ATOM      1  C   UNL     1      -7.559  17.267 -20.985  1.00  0.00     0.180 A 
ATOM      2  C   UNL     1      -7.266  16.762 -19.706  1.00  0.00     0.208 A 
ATOM      3  C   UNL     1      -7.191  15.371 -19.523  1.00  0.00     0.238 A 
ATOM      4  O   UNL     1      -6.875  14.927 -18.389  1.00  0.00    -0.285 OA
ATOM      5  C   UNL     1      -7.424  14.503 -20.617  1.00  0.00     0.111 A 
ATOM      6  C   UNL     1      -7.414  13.079 -20.538  1.00  0.00     0.134 A 
ATOM      7  C   UNL     1      -7.529  12.321 -21.709  1.00  0.00     0.093 A 
ATOM      8  C   UNL     1      -7.720  12.936 -22.949  1.00  0.00     0.123 A 
ATOM      9  C   UNL     1      -7.792  14.324 -23.028  1.00  0.00     0.094 A 
ATOM     10  C   UNL     1      -7.644  15.108 -21.882  1.00  0.00     0.146 A 
ATOM     11  O   UNL     1      -7.709  16.429 -22.004  1.00  0.00    -0.452 OA
ENDROOT
BRANCH   1  12
ATOM     12  C   UNL     1      -7.681  18.718 -21.249  1.00  0.00     0.025 A 
ATOM     13  C   UNL     1      -6.875  19.358 -22.207  1.00  0.00     0.016 A 
ATOM     14  C   UNL     1      -6.991  20.734 -22.422  1.00  0.00     0.051 A 
ATOM     15  C   UNL     1      -7.900  21.492 -21.679  1.00  0.00     0.157 A 
ATOM     16  C   UNL     1      -8.579  19.487 -20.490  1.00  0.00     0.062 A 
ATOM     17  C   UNL     1      -8.696  20.867 -20.705  1.00  0.00     0.158 A 
BRANCH  15  18
ATOM     18  O   UNL     1      -7.995  22.863 -21.918  1.00  0.00    -0.504 OA
ATOM     19  H   UNL     1      -8.421  23.496 -21.253  1.00  0.00     0.293 HD
ENDBRANCH  15  18
BRANCH  17  20
ATOM     20  O   UNL     1      -9.600  21.618 -19.955  1.00  0.00    -0.504 OA
ATOM     21  H   UNL     1      -9.680  21.507 -18.951  1.00  0.00     0.293 HD
ENDBRANCH  17  20
ENDBRANCH   1  12
BRANCH   2  22
ATOM     22  O   UNL     1      -7.018  17.636 -18.644  1.00  0.00    -0.502 OA
ATOM     23  H   UNL     1      -7.580  18.461 -18.475  1.00  0.00     0.293 HD
ENDBRANCH   2  22
BRANCH   6  24
ATOM     24  O   UNL     1      -7.321  12.364 -19.339  1.00  0.00    -0.507 OA
ATOM     25  H   UNL     1      -6.467  12.215 -18.823  1.00  0.00     0.293 HD
ENDBRANCH   6  24
BRANCH   8  26
ATOM     26  O   UNL     1      -7.850  12.173 -24.108  1.00  0.00    -0.508 OA
ATOM     27  H   UNL     1      -7.063  12.010 -24.725  1.00  0.00     0.293 HD
ENDBRANCH   8  26
TORSDOF 6
ENDMDL
