MODEL 1
REMARK VINA RESULT:    -5.989      0.000      0.000
REMARK INTER + INTRA:          -5.989
REMARK INTER:                  -5.989
REMARK INTRA:                   0.000
REMARK UNBOUND:                 0.000
REMARK SMILES CC1=CC[C@]2(C)CCCC(C)(C)[C@]23C[C@H]13
REMARK SMILES IDX 1 1 2 2 3 3 4 4 5 5 7 6 8 7 9 8 10 9 13 10 15 11 14 12 11 13
REMARK SMILES IDX 12 14 6 15
REMARK H PARENT
REMARK Flexibility Score: inf
ROOT
ATOM      1  C   UNL     1     -45.755 -51.756  31.922  1.00  0.00     0.039 C 
ATOM      2  C   UNL     1     -44.603 -50.988  31.340  1.00  0.00    -0.074 C 
ATOM      3  C   UNL     1     -43.370 -51.151  31.866  1.00  0.00    -0.027 C 
ATOM      4  C   UNL     1     -42.171 -50.404  31.336  1.00  0.00     0.034 C 
ATOM      5  C   UNL     1     -42.280 -50.188  29.798  1.00  0.00    -0.022 C 
ATOM      6  C   UNL     1     -41.124 -49.268  29.337  1.00  0.00     0.008 C 
ATOM      7  C   UNL     1     -41.219 -48.867  27.854  1.00  0.00     0.001 C 
ATOM      8  C   UNL     1     -42.557 -48.191  27.513  1.00  0.00     0.007 C 
ATOM      9  C   UNL     1     -43.821 -49.010  27.901  1.00  0.00    -0.029 C 
ATOM     10  C   UNL     1     -43.648 -49.502  29.401  1.00  0.00    -0.012 C 
ATOM     11  C   UNL     1     -44.861 -50.048  30.172  1.00  0.00     0.022 C 
ATOM     12  C   UNL     1     -44.377 -48.627  30.460  1.00  0.00     0.017 C 
ATOM     13  C   UNL     1     -45.042 -48.075  27.659  1.00  0.00     0.012 C 
ATOM     14  C   UNL     1     -44.011 -50.215  26.944  1.00  0.00     0.012 C 
ATOM     15  C   UNL     1     -42.138 -51.601  29.147  1.00  0.00     0.012 C 
ENDROOT
TORSDOF 0
ENDMDL
MODEL 2
REMARK VINA RESULT:    -5.812      9.905     12.742
REMARK INTER + INTRA:          -5.812
REMARK INTER:                  -5.812
REMARK INTRA:                   0.000
REMARK UNBOUND:                 0.000
REMARK SMILES CC1=CC[C@]2(C)CCCC(C)(C)[C@]23C[C@H]13
REMARK SMILES IDX 1 1 2 2 3 3 4 4 5 5 7 6 8 7 9 8 10 9 13 10 15 11 14 12 11 13
REMARK SMILES IDX 12 14 6 15
REMARK H PARENT
REMARK Flexibility Score: inf
ROOT
ATOM      1  C   UNL     1     -48.063 -51.228  17.649  1.00  0.00     0.039 C 
ATOM      2  C   UNL     1     -49.305 -50.577  18.188  1.00  0.00    -0.074 C 
ATOM      3  C   UNL     1     -50.490 -50.826  17.590  1.00  0.00    -0.027 C 
ATOM      4  C   UNL     1     -51.775 -50.199  18.073  1.00  0.00     0.034 C 
ATOM      5  C   UNL     1     -51.766 -50.024  19.619  1.00  0.00    -0.022 C 
ATOM      6  C   UNL     1     -53.019 -49.219  20.040  1.00  0.00     0.008 C 
ATOM      7  C   UNL     1     -53.037 -48.858  21.537  1.00  0.00     0.001 C 
ATOM      8  C   UNL     1     -51.781 -48.083  21.969  1.00  0.00     0.007 C 
ATOM      9  C   UNL     1     -50.433 -48.781  21.630  1.00  0.00    -0.029 C 
ATOM     10  C   UNL     1     -50.484 -49.238  20.109  1.00  0.00    -0.012 C 
ATOM     11  C   UNL     1     -49.190 -49.657  19.392  1.00  0.00     0.022 C 
ATOM     12  C   UNL     1     -49.778 -48.273  19.116  1.00  0.00     0.017 C 
ATOM     13  C   UNL     1     -49.311 -47.755  21.964  1.00  0.00     0.012 C 
ATOM     14  C   UNL     1     -50.192 -49.995  22.563  1.00  0.00     0.012 C 
ATOM     15  C   UNL     1     -51.821 -51.463  20.223  1.00  0.00     0.012 C 
ENDROOT
TORSDOF 0
ENDMDL
MODEL 3
REMARK VINA RESULT:    -5.677      1.765      3.646
REMARK INTER + INTRA:          -5.677
REMARK INTER:                  -5.677
REMARK INTRA:                   0.000
REMARK UNBOUND:                 0.000
REMARK SMILES CC1=CC[C@]2(C)CCCC(C)(C)[C@]23C[C@H]13
REMARK SMILES IDX 1 1 2 2 3 3 4 4 5 5 7 6 8 7 9 8 10 9 13 10 15 11 14 12 11 13
REMARK SMILES IDX 12 14 6 15
REMARK H PARENT
REMARK Flexibility Score: inf
ROOT
ATOM      1  C   UNL     1     -40.259 -49.215  31.428  1.00  0.00     0.039 C 
ATOM      2  C   UNL     1     -41.068 -49.494  30.193  1.00  0.00    -0.074 C 
ATOM      3  C   UNL     1     -41.882 -50.571  30.169  1.00  0.00    -0.027 C 
ATOM      4  C   UNL     1     -42.715 -50.915  28.959  1.00  0.00     0.034 C 
ATOM      5  C   UNL     1     -43.192 -49.629  28.223  1.00  0.00    -0.022 C 
ATOM      6  C   UNL     1     -43.885 -50.035  26.900  1.00  0.00     0.008 C 
ATOM      7  C   UNL     1     -44.266 -48.833  26.018  1.00  0.00     0.001 C 
ATOM      8  C   UNL     1     -43.060 -47.938  25.692  1.00  0.00     0.007 C 
ATOM      9  C   UNL     1     -42.269 -47.429  26.931  1.00  0.00    -0.029 C 
ATOM     10  C   UNL     1     -41.982 -48.673  27.877  1.00  0.00    -0.012 C 
ATOM     11  C   UNL     1     -40.945 -48.553  29.005  1.00  0.00     0.022 C 
ATOM     12  C   UNL     1     -40.564 -49.292  27.723  1.00  0.00     0.017 C 
ATOM     13  C   UNL     1     -40.996 -46.722  26.380  1.00  0.00     0.012 C 
ATOM     14  C   UNL     1     -43.070 -46.337  27.685  1.00  0.00     0.012 C 
ATOM     15  C   UNL     1     -44.216 -48.934  29.177  1.00  0.00     0.012 C 
ENDROOT
TORSDOF 0
ENDMDL
MODEL 4
REMARK VINA RESULT:    -5.524      1.269      3.406
REMARK INTER + INTRA:          -5.524
REMARK INTER:                  -5.524
REMARK INTRA:                   0.000
REMARK UNBOUND:                 0.000
REMARK SMILES CC1=CC[C@]2(C)CCCC(C)(C)[C@]23C[C@H]13
REMARK SMILES IDX 1 1 2 2 3 3 4 4 5 5 7 6 8 7 9 8 10 9 13 10 15 11 14 12 11 13
REMARK SMILES IDX 12 14 6 15
REMARK H PARENT
REMARK Flexibility Score: inf
ROOT
ATOM      1  C   UNL     1     -45.575 -51.284  34.119  1.00  0.00     0.039 C 
ATOM      2  C   UNL     1     -45.611 -50.839  32.685  1.00  0.00    -0.074 C 
ATOM      3  C   UNL     1     -46.649 -50.089  32.255  1.00  0.00    -0.027 C 
ATOM      4  C   UNL     1     -46.754 -49.616  30.826  1.00  0.00     0.034 C 
ATOM      5  C   UNL     1     -45.347 -49.317  30.230  1.00  0.00    -0.022 C 
ATOM      6  C   UNL     1     -45.497 -49.011  28.720  1.00  0.00     0.008 C 
ATOM      7  C   UNL     1     -44.149 -48.845  27.996  1.00  0.00     0.001 C 
ATOM      8  C   UNL     1     -43.236 -50.071  28.166  1.00  0.00     0.007 C 
ATOM      9  C   UNL     1     -42.974 -50.491  29.640  1.00  0.00    -0.029 C 
ATOM     10  C   UNL     1     -44.372 -50.551  30.392  1.00  0.00    -0.012 C 
ATOM     11  C   UNL     1     -44.477 -51.247  31.758  1.00  0.00     0.022 C 
ATOM     12  C   UNL     1     -44.985 -51.974  30.513  1.00  0.00     0.017 C 
ATOM     13  C   UNL     1     -42.209 -51.846  29.581  1.00  0.00     0.012 C 
ATOM     14  C   UNL     1     -42.016 -49.490  30.335  1.00  0.00     0.012 C 
ATOM     15  C   UNL     1     -44.811 -48.059  30.985  1.00  0.00     0.012 C 
ENDROOT
TORSDOF 0
ENDMDL
MODEL 5
REMARK VINA RESULT:    -5.520      1.113      3.185
REMARK INTER + INTRA:          -5.520
REMARK INTER:                  -5.520
REMARK INTRA:                   0.000
REMARK UNBOUND:                 0.000
REMARK SMILES CC1=CC[C@]2(C)CCCC(C)(C)[C@]23C[C@H]13
REMARK SMILES IDX 1 1 2 2 3 3 4 4 5 5 7 6 8 7 9 8 10 9 13 10 15 11 14 12 11 13
REMARK SMILES IDX 12 14 6 15
REMARK H PARENT
REMARK Flexibility Score: inf
ROOT
ATOM      1  C   UNL     1     -42.666 -51.092  32.437  1.00  0.00     0.039 C 
ATOM      2  C   UNL     1     -43.035 -50.740  31.024  1.00  0.00    -0.074 C 
ATOM      3  C   UNL     1     -44.337 -50.733  30.666  1.00  0.00    -0.027 C 
ATOM      4  C   UNL     1     -44.777 -50.399  29.262  1.00  0.00     0.034 C 
ATOM      5  C   UNL     1     -43.844 -49.330  28.621  1.00  0.00    -0.022 C 
ATOM      6  C   UNL     1     -44.228 -49.157  27.132  1.00  0.00     0.008 C 
ATOM      7  C   UNL     1     -43.271 -48.230  26.361  1.00  0.00     0.001 C 
ATOM      8  C   UNL     1     -41.808 -48.694  26.445  1.00  0.00     0.007 C 
ATOM      9  C   UNL     1     -41.268 -48.894  27.890  1.00  0.00    -0.029 C 
ATOM     10  C   UNL     1     -42.325 -49.764  28.695  1.00  0.00    -0.012 C 
ATOM     11  C   UNL     1     -41.929 -50.402  30.037  1.00  0.00     0.022 C 
ATOM     12  C   UNL     1     -41.987 -51.279  28.786  1.00  0.00     0.017 C 
ATOM     13  C   UNL     1     -39.862 -49.547  27.748  1.00  0.00     0.012 C 
ATOM     14  C   UNL     1     -41.035 -47.528  28.584  1.00  0.00     0.012 C 
ATOM     15  C   UNL     1     -44.100 -48.002  29.402  1.00  0.00     0.012 C 
ENDROOT
TORSDOF 0
ENDMDL
MODEL 6
REMARK VINA RESULT:    -5.516      2.841      4.851
REMARK INTER + INTRA:          -5.516
REMARK INTER:                  -5.516
REMARK INTRA:                   0.000
REMARK UNBOUND:                 0.000
REMARK SMILES CC1=CC[C@]2(C)CCCC(C)(C)[C@]23C[C@H]13
REMARK SMILES IDX 1 1 2 2 3 3 4 4 5 5 7 6 8 7 9 8 10 9 13 10 15 11 14 12 11 13
REMARK SMILES IDX 12 14 6 15
REMARK H PARENT
REMARK Flexibility Score: inf
ROOT
ATOM      1  C   UNL     1     -39.019 -48.728  28.495  1.00  0.00     0.039 C 
ATOM      2  C   UNL     1     -40.273 -48.010  28.083  1.00  0.00    -0.074 C 
ATOM      3  C   UNL     1     -40.269 -46.661  28.026  1.00  0.00    -0.027 C 
ATOM      4  C   UNL     1     -41.495 -45.875  27.631  1.00  0.00     0.034 C 
ATOM      5  C   UNL     1     -42.333 -46.643  26.567  1.00  0.00    -0.022 C 
ATOM      6  C   UNL     1     -43.661 -45.884  26.331  1.00  0.00     0.008 C 
ATOM      7  C   UNL     1     -44.635 -46.634  25.404  1.00  0.00     0.001 C 
ATOM      8  C   UNL     1     -44.956 -48.049  25.912  1.00  0.00     0.007 C 
ATOM      9  C   UNL     1     -43.714 -48.946  26.178  1.00  0.00    -0.029 C 
ATOM     10  C   UNL     1     -42.679 -48.110  27.046  1.00  0.00    -0.012 C 
ATOM     11  C   UNL     1     -41.510 -48.825  27.742  1.00  0.00     0.022 C 
ATOM     12  C   UNL     1     -42.723 -48.404  28.572  1.00  0.00     0.017 C 
ATOM     13  C   UNL     1     -44.244 -50.239  26.865  1.00  0.00     0.012 C 
ATOM     14  C   UNL     1     -43.071 -49.405  24.845  1.00  0.00     0.012 C 
ATOM     15  C   UNL     1     -41.478 -46.653  25.261  1.00  0.00     0.012 C 
ENDROOT
TORSDOF 0
ENDMDL
MODEL 7
REMARK VINA RESULT:    -5.468      2.224      4.470
REMARK INTER + INTRA:          -5.468
REMARK INTER:                  -5.468
REMARK INTRA:                   0.000
REMARK UNBOUND:                 0.000
REMARK SMILES CC1=CC[C@]2(C)CCCC(C)(C)[C@]23C[C@H]13
REMARK SMILES IDX 1 1 2 2 3 3 4 4 5 5 7 6 8 7 9 8 10 9 13 10 15 11 14 12 11 13
REMARK SMILES IDX 12 14 6 15
REMARK H PARENT
REMARK Flexibility Score: inf
ROOT
ATOM      1  C   UNL     1     -39.186 -46.719  29.001  1.00  0.00     0.039 C 
ATOM      2  C   UNL     1     -40.305 -47.572  28.476  1.00  0.00    -0.074 C 
ATOM      3  C   UNL     1     -40.417 -48.847  28.905  1.00  0.00    -0.027 C 
ATOM      4  C   UNL     1     -41.511 -49.762  28.412  1.00  0.00     0.034 C 
ATOM      5  C   UNL     1     -42.824 -48.971  28.143  1.00  0.00    -0.022 C 
ATOM      6  C   UNL     1     -43.851 -49.916  27.474  1.00  0.00     0.008 C 
ATOM      7  C   UNL     1     -45.138 -49.199  27.027  1.00  0.00     0.001 C 
ATOM      8  C   UNL     1     -44.856 -48.022  26.080  1.00  0.00     0.007 C 
ATOM      9  C   UNL     1     -43.850 -46.969  26.626  1.00  0.00    -0.029 C 
ATOM     10  C   UNL     1     -42.577 -47.744  27.177  1.00  0.00    -0.012 C 
ATOM     11  C   UNL     1     -41.282 -46.972  27.477  1.00  0.00     0.022 C 
ATOM     12  C   UNL     1     -41.373 -47.799  26.195  1.00  0.00     0.017 C 
ATOM     13  C   UNL     1     -43.557 -45.990  25.452  1.00  0.00     0.012 C 
ATOM     14  C   UNL     1     -44.501 -46.113  27.742  1.00  0.00     0.012 C 
ATOM     15  C   UNL     1     -43.348 -48.506  29.539  1.00  0.00     0.012 C 
ENDROOT
TORSDOF 0
ENDMDL
MODEL 8
REMARK VINA RESULT:    -5.463      1.469      3.416
REMARK INTER + INTRA:          -5.463
REMARK INTER:                  -5.463
REMARK INTRA:                   0.000
REMARK UNBOUND:                 0.000
REMARK SMILES CC1=CC[C@]2(C)CCCC(C)(C)[C@]23C[C@H]13
REMARK SMILES IDX 1 1 2 2 3 3 4 4 5 5 7 6 8 7 9 8 10 9 13 10 15 11 14 12 11 13
REMARK SMILES IDX 12 14 6 15
REMARK H PARENT
REMARK Flexibility Score: inf
ROOT
ATOM      1  C   UNL     1     -44.945 -50.000  26.251  1.00  0.00     0.039 C 
ATOM      2  C   UNL     1     -44.163 -49.751  27.509  1.00  0.00    -0.074 C 
ATOM      3  C   UNL     1     -44.567 -50.331  28.660  1.00  0.00    -0.027 C 
ATOM      4  C   UNL     1     -43.834 -50.116  29.962  1.00  0.00     0.034 C 
ATOM      5  C   UNL     1     -42.303 -49.965  29.724  1.00  0.00    -0.022 C 
ATOM      6  C   UNL     1     -41.625 -49.571  31.058  1.00  0.00     0.008 C 
ATOM      7  C   UNL     1     -40.127 -49.250  30.908  1.00  0.00     0.001 C 
ATOM      8  C   UNL     1     -39.864 -48.145  29.873  1.00  0.00     0.007 C 
ATOM      9  C   UNL     1     -40.471 -48.410  28.465  1.00  0.00    -0.029 C 
ATOM     10  C   UNL     1     -41.987 -48.843  28.656  1.00  0.00    -0.012 C 
ATOM     11  C   UNL     1     -42.938 -48.853  27.449  1.00  0.00     0.022 C 
ATOM     12  C   UNL     1     -43.020 -47.700  28.449  1.00  0.00     0.017 C 
ATOM     13  C   UNL     1     -40.265 -47.104  27.645  1.00  0.00     0.012 C 
ATOM     14  C   UNL     1     -39.673 -49.511  27.720  1.00  0.00     0.012 C 
ATOM     15  C   UNL     1     -41.794 -51.365  29.253  1.00  0.00     0.012 C 
ENDROOT
TORSDOF 0
ENDMDL
