MODEL 1
REMARK VINA RESULT:    16.336      0.000      0.000
REMARK INTER + INTRA:          25.653
REMARK INTER:                  23.022
REMARK INTRA:                   2.631
REMARK UNBOUND:                 2.631
REMARK SMILES CC1=CCC(=C(C)C)C(=O)CC(C)=CCC1
REMARK SMILES IDX 12 1 14 2 13 3 15 4 16 5 2 6 1 7 3 8 11 10 9 11 10 12 5 13
REMARK SMILES IDX 6 14 7 15 8 16 4 17
REMARK H PARENT
REMARK Flexibility Score: 60.00
ROOT
ATOM      1  C   UNL     1      12.334  13.433  -1.458  1.00  0.00    -0.070 C 
ATOM      2  C   UNL     1      11.855  13.893  -2.638  1.00  0.00    -0.027 C 
ATOM      3  C   UNL     1      13.752  12.920  -1.436  1.00  0.00     0.039 C 
ENDROOT
BRANCH   2   4
ATOM      4  C   UNL     1      10.443  14.351  -2.912  1.00  0.00     0.032 C 
BRANCH   4   5
ATOM      5  C   UNL     1       9.995  15.486  -1.971  1.00  0.00     0.034 C 
BRANCH   5   6
ATOM      6  C   UNL     1       8.522  15.392  -1.623  1.00  0.00    -0.077 C 
ATOM      7  C   UNL     1       7.517  15.911  -2.620  1.00  0.00     0.039 C 
ATOM      8  C   UNL     1       8.054  14.844  -0.479  1.00  0.00    -0.023 CG0
ATOM      9  G   UNL     1       8.897  14.242   0.619  1.00  0.00     0.000 G0
ENDBRANCH   5   6
ENDBRANCH   4   5
ENDBRANCH   2   4
BRANCH   1  10
ATOM     10  C   UNL     1      11.505  13.347  -0.187  1.00  0.00     0.111 C 
BRANCH  10  11
ATOM     11  C   UNL     1      11.366  14.695   0.477  1.00  0.00     0.163 C 
ATOM     12  O   UNL     1      12.402  15.402   0.608  1.00  0.00    -0.294 OA
BRANCH  11  13
ATOM     13  C   UNL     1      10.040  15.222   0.929  1.00  0.00    -0.002 C 
ATOM     14  C   UNL     1       9.927  16.409   1.596  1.00  0.00    -0.069 C 
ATOM     15  C   UNL     1      11.144  17.220   1.981  1.00  0.00     0.039 C 
ATOM     16  C   UNL     1       8.579  16.953   2.015  1.00  0.00     0.039 C 
BRANCH  13  17
ATOM     17  C   UNL     1       8.828  14.342   0.678  1.00  0.00     0.066 CG0
ATOM     18  G   UNL     1       8.018  14.902  -0.466  1.00  0.00     0.000 G0
ENDBRANCH  13  17
ENDBRANCH  11  13
ENDBRANCH  10  11
ENDBRANCH   1  10
TORSDOF 0
ENDMDL
MODEL 2
REMARK VINA RESULT:    16.859     13.872     14.965
REMARK INTER + INTRA:          26.389
REMARK INTER:                  25.558
REMARK INTRA:                   0.831
REMARK UNBOUND:                 2.631
REMARK SMILES CC1=CCC(=C(C)C)C(=O)CC(C)=CCC1
REMARK SMILES IDX 12 1 14 2 13 3 15 4 16 5 2 6 1 7 3 8 11 10 9 11 10 12 5 13
REMARK SMILES IDX 6 14 7 15 8 16 4 17
REMARK H PARENT
REMARK Flexibility Score: 60.00
ROOT
ATOM      1  C   UNL     1      20.596  16.651 -11.626  1.00  0.00    -0.070 C 
ATOM      2  C   UNL     1      20.517  15.581 -12.453  1.00  0.00    -0.027 C 
ATOM      3  C   UNL     1      21.755  17.597 -11.823  1.00  0.00     0.039 C 
ENDROOT
BRANCH   2   4
ATOM      4  C   UNL     1      19.510  14.460 -12.369  1.00  0.00     0.032 C 
BRANCH   4   5
ATOM      5  C   UNL     1      18.565  14.419 -13.586  1.00  0.00     0.034 C 
BRANCH   5   6
ATOM      6  C   UNL     1      17.213  15.033 -13.279  1.00  0.00    -0.077 C 
ATOM      7  C   UNL     1      16.067  14.109 -12.947  1.00  0.00     0.039 C 
ATOM      8  C   UNL     1      16.978  16.364 -13.260  1.00  0.00    -0.023 CG0
ATOM      9  G   UNL     1      18.000  17.443 -13.529  1.00  0.00     0.000 G0
ENDBRANCH   5   6
ENDBRANCH   4   5
ENDBRANCH   2   4
BRANCH   1  10
ATOM     10  C   UNL     1      19.628  16.908 -10.483  1.00  0.00     0.111 C 
BRANCH  10  11
ATOM     11  C   UNL     1      18.331  17.500 -10.976  1.00  0.00     0.163 C 
ATOM     12  O   UNL     1      17.309  17.381 -10.247  1.00  0.00    -0.294 OA
BRANCH  11  13
ATOM     13  C   UNL     1      18.246  18.257 -12.265  1.00  0.00    -0.002 C 
ATOM     14  C   UNL     1      18.317  19.621 -12.304  1.00  0.00    -0.069 C 
ATOM     15  C   UNL     1      18.411  20.446 -11.040  1.00  0.00     0.039 C 
ATOM     16  C   UNL     1      18.269  20.375 -13.614  1.00  0.00     0.039 C 
BRANCH  13  17
ATOM     17  C   UNL     1      18.002  17.446 -13.525  1.00  0.00     0.066 CG0
ATOM     18  G   UNL     1      16.983  16.366 -13.249  1.00  0.00     0.000 G0
ENDBRANCH  13  17
ENDBRANCH  11  13
ENDBRANCH  10  11
ENDBRANCH   1  10
TORSDOF 0
ENDMDL
MODEL 3
REMARK VINA RESULT:    18.249     14.504     15.577
REMARK INTER + INTRA:          28.348
REMARK INTER:                  27.743
REMARK INTRA:                   0.605
REMARK UNBOUND:                 2.631
REMARK SMILES CC1=CCC(=C(C)C)C(=O)CC(C)=CCC1
REMARK SMILES IDX 12 1 14 2 13 3 15 4 16 5 2 6 1 7 3 8 11 10 9 11 10 12 5 13
REMARK SMILES IDX 6 14 7 15 8 16 4 17
REMARK H PARENT
REMARK Flexibility Score: 60.00
ROOT
ATOM      1  C   UNL     1      17.896  14.869 -13.608  1.00  0.00    -0.070 C 
ATOM      2  C   UNL     1      18.899  14.098 -13.125  1.00  0.00    -0.027 C 
ATOM      3  C   UNL     1      16.621  14.174 -14.021  1.00  0.00     0.039 C 
ENDROOT
BRANCH   2   4
ATOM      4  C   UNL     1      20.285  14.564 -12.754  1.00  0.00     0.032 C 
BRANCH   4   5
ATOM      5  C   UNL     1      20.292  15.474 -11.510  1.00  0.00     0.034 C 
BRANCH   5   6
ATOM      6  C   UNL     1      21.092  16.742 -11.733  1.00  0.00    -0.077 C 
ATOM      7  C   UNL     1      22.502  16.614 -12.256  1.00  0.00     0.039 C 
ATOM      8  C   UNL     1      20.608  17.985 -11.516  1.00  0.00    -0.023 CG0
ATOM      9  G   UNL     1      19.218  18.317 -11.030  1.00  0.00     0.000 G0
ENDBRANCH   5   6
ENDBRANCH   4   5
ENDBRANCH   2   4
BRANCH   1  10
ATOM     10  C   UNL     1      18.010  16.370 -13.815  1.00  0.00     0.111 C 
BRANCH  10  11
ATOM     11  C   UNL     1      17.585  17.134 -12.585  1.00  0.00     0.163 C 
ATOM     12  O   UNL     1      16.668  16.646 -11.871  1.00  0.00    -0.294 OA
BRANCH  11  13
ATOM     13  C   UNL     1      18.253  18.409 -12.175  1.00  0.00    -0.002 C 
ATOM     14  C   UNL     1      18.061  19.575 -12.863  1.00  0.00    -0.069 C 
ATOM     15  C   UNL     1      17.222  19.625 -14.120  1.00  0.00     0.039 C 
ATOM     16  C   UNL     1      18.709  20.868 -12.418  1.00  0.00     0.039 C 
BRANCH  13  17
ATOM     17  C   UNL     1      19.214  18.337 -11.002  1.00  0.00     0.066 CG0
ATOM     18  G   UNL     1      20.594  17.971 -11.494  1.00  0.00     0.000 G0
ENDBRANCH  13  17
ENDBRANCH  11  13
ENDBRANCH  10  11
ENDBRANCH   1  10
TORSDOF 0
ENDMDL
MODEL 4
REMARK VINA RESULT:    18.668     14.085     15.640
REMARK INTER + INTRA:          28.938
REMARK INTER:                  24.895
REMARK INTRA:                   4.043
REMARK UNBOUND:                 2.631
REMARK SMILES CC1=CCC(=C(C)C)C(=O)CC(C)=CCC1
REMARK SMILES IDX 12 1 14 2 13 3 15 4 16 5 2 6 1 7 3 8 11 10 9 11 10 12 5 13
REMARK SMILES IDX 6 14 7 15 8 16 4 17
REMARK H PARENT
REMARK Flexibility Score: 60.00
ROOT
ATOM      1  C   UNL     1      21.261  18.533 -12.104  1.00  0.00    -0.070 C 
ATOM      2  C   UNL     1      21.192  19.832 -12.481  1.00  0.00    -0.027 C 
ATOM      3  C   UNL     1      22.549  17.797 -12.378  1.00  0.00     0.039 C 
ENDROOT
BRANCH   2   4
ATOM      4  C   UNL     1      19.976  20.722 -12.401  1.00  0.00     0.032 C 
BRANCH   4   5
ATOM      5  C   UNL     1      18.720  20.067 -13.009  1.00  0.00     0.034 C 
BRANCH   5   6
ATOM      6  C   UNL     1      17.886  19.353 -11.963  1.00  0.00    -0.077 C 
ATOM      7  C   UNL     1      17.477  20.118 -10.730  1.00  0.00     0.039 C 
ATOM      8  C   UNL     1      17.465  18.075 -12.084  1.00  0.00    -0.023 CG0
ATOM      9  G   UNL     1      17.740  17.162 -13.254  1.00  0.00     0.000 G0
ENDBRANCH   5   6
ENDBRANCH   4   5
ENDBRANCH   2   4
BRANCH   1  10
ATOM     10  C   UNL     1      20.099  17.770 -11.490  1.00  0.00     0.111 C 
BRANCH  10  11
ATOM     11  C   UNL     1      19.926  16.414 -12.131  1.00  0.00     0.163 C 
ATOM     12  O   UNL     1      20.858  15.575 -12.006  1.00  0.00    -0.294 OA
BRANCH  11  13
ATOM     13  C   UNL     1      18.671  16.035 -12.854  1.00  0.00    -0.002 C 
ATOM     14  C   UNL     1      18.400  14.738 -13.191  1.00  0.00    -0.069 C 
ATOM     15  C   UNL     1      19.387  13.625 -12.919  1.00  0.00     0.039 C 
ATOM     16  C   UNL     1      17.111  14.358 -13.887  1.00  0.00     0.039 C 
BRANCH  13  17
ATOM     17  C   UNL     1      17.744  17.165 -13.263  1.00  0.00     0.066 CG0
ATOM     18  G   UNL     1      17.487  18.070 -12.082  1.00  0.00     0.000 G0
ENDBRANCH  13  17
ENDBRANCH  11  13
ENDBRANCH  10  11
ENDBRANCH   1  10
TORSDOF 0
ENDMDL
MODEL 5
REMARK VINA RESULT:    18.978     12.106     14.235
REMARK INTER + INTRA:          29.375
REMARK INTER:                  28.095
REMARK INTRA:                   1.280
REMARK UNBOUND:                 2.631
REMARK SMILES CC1=CCC(=C(C)C)C(=O)CC(C)=CCC1
REMARK SMILES IDX 12 1 14 2 13 3 15 4 16 5 2 6 1 7 3 8 11 10 9 11 10 12 5 13
REMARK SMILES IDX 6 14 7 15 8 16 4 17
REMARK H PARENT
REMARK Flexibility Score: 60.00
ROOT
ATOM      1  C   UNL     1      15.592  16.237 -10.005  1.00  0.00    -0.070 C 
ATOM      2  C   UNL     1      15.382  15.409 -11.056  1.00  0.00    -0.027 C 
ATOM      3  C   UNL     1      15.191  15.740  -8.637  1.00  0.00     0.039 C 
ENDROOT
BRANCH   2   4
ATOM      4  C   UNL     1      15.608  15.738 -12.511  1.00  0.00     0.032 C 
BRANCH   4   5
ATOM      5  C   UNL     1      16.427  14.658 -13.244  1.00  0.00     0.034 C 
BRANCH   5   6
ATOM      6  C   UNL     1      17.916  14.943 -13.202  1.00  0.00    -0.077 C 
ATOM      7  C   UNL     1      18.868  13.773 -13.179  1.00  0.00     0.039 C 
ATOM      8  C   UNL     1      18.443  16.187 -13.210  1.00  0.00    -0.023 CG0
ATOM      9  G   UNL     1      17.659  17.477 -13.267  1.00  0.00     0.000 G0
ENDBRANCH   5   6
ENDBRANCH   4   5
ENDBRANCH   2   4
BRANCH   1  10
ATOM     10  C   UNL     1      16.140  17.648 -10.138  1.00  0.00     0.111 C 
BRANCH  10  11
ATOM     11  C   UNL     1      17.542  17.649 -10.694  1.00  0.00     0.163 C 
ATOM     12  O   UNL     1      18.437  17.039 -10.047  1.00  0.00    -0.294 OA
BRANCH  11  13
ATOM     13  C   UNL     1      17.877  18.301 -11.999  1.00  0.00    -0.002 C 
ATOM     14  C   UNL     1      18.295  19.600 -12.067  1.00  0.00    -0.069 C 
ATOM     15  C   UNL     1      18.372  20.474 -10.836  1.00  0.00     0.039 C 
ATOM     16  C   UNL     1      18.668  20.239 -13.387  1.00  0.00     0.039 C 
BRANCH  13  17
ATOM     17  C   UNL     1      17.660  17.477 -13.256  1.00  0.00     0.066 CG0
ATOM     18  G   UNL     1      18.453  16.195 -13.171  1.00  0.00     0.000 G0
ENDBRANCH  13  17
ENDBRANCH  11  13
ENDBRANCH  10  11
ENDBRANCH   1  10
TORSDOF 0
ENDMDL
MODEL 6
REMARK VINA RESULT:    19.118     13.650     15.786
REMARK INTER + INTRA:          29.572
REMARK INTER:                  27.666
REMARK INTRA:                   1.906
REMARK UNBOUND:                 2.631
REMARK SMILES CC1=CCC(=C(C)C)C(=O)CC(C)=CCC1
REMARK SMILES IDX 12 1 14 2 13 3 15 4 16 5 2 6 1 7 3 8 11 10 9 11 10 12 5 13
REMARK SMILES IDX 6 14 7 15 8 16 4 17
REMARK H PARENT
REMARK Flexibility Score: 60.00
ROOT
ATOM      1  C   UNL     1      17.845  19.974 -12.567  1.00  0.00    -0.070 C 
ATOM      2  C   UNL     1      18.949  20.550 -13.101  1.00  0.00    -0.027 C 
ATOM      3  C   UNL     1      16.579  20.005 -13.387  1.00  0.00     0.039 C 
ENDROOT
BRANCH   2   4
ATOM      4  C   UNL     1      20.283  20.727 -12.419  1.00  0.00     0.032 C 
BRANCH   4   5
ATOM      5  C   UNL     1      21.334  19.708 -12.900  1.00  0.00     0.034 C 
BRANCH   5   6
ATOM      6  C   UNL     1      21.347  18.454 -12.048  1.00  0.00    -0.077 C 
ATOM      7  C   UNL     1      22.422  18.312 -11.000  1.00  0.00     0.039 C 
ATOM      8  C   UNL     1      20.433  17.464 -12.154  1.00  0.00    -0.023 CG0
ATOM      9  G   UNL     1      19.267  17.440 -13.113  1.00  0.00     0.000 G0
ENDBRANCH   5   6
ENDBRANCH   4   5
ENDBRANCH   2   4
BRANCH   1  10
ATOM     10  C   UNL     1      17.800  19.367 -11.175  1.00  0.00     0.111 C 
BRANCH  10  11
ATOM     11  C   UNL     1      17.610  17.870 -11.229  1.00  0.00     0.163 C 
ATOM     12  O   UNL     1      17.087  17.303 -10.232  1.00  0.00    -0.294 OA
BRANCH  11  13
ATOM     13  C   UNL     1      17.975  17.069 -12.439  1.00  0.00    -0.002 C 
ATOM     14  C   UNL     1      17.207  16.022 -12.866  1.00  0.00    -0.069 C 
ATOM     15  C   UNL     1      15.987  15.567 -12.097  1.00  0.00     0.039 C 
ATOM     16  C   UNL     1      17.562  15.242 -14.113  1.00  0.00     0.039 C 
BRANCH  13  17
ATOM     17  C   UNL     1      19.278  17.423 -13.133  1.00  0.00     0.066 CG0
ATOM     18  G   UNL     1      20.407  17.423 -12.131  1.00  0.00     0.000 G0
ENDBRANCH  13  17
ENDBRANCH  11  13
ENDBRANCH  10  11
ENDBRANCH   1  10
TORSDOF 0
ENDMDL
MODEL 7
REMARK VINA RESULT:    19.174     12.158     14.418
REMARK INTER + INTRA:          29.652
REMARK INTER:                  27.825
REMARK INTRA:                   1.827
REMARK UNBOUND:                 2.631
REMARK SMILES CC1=CCC(=C(C)C)C(=O)CC(C)=CCC1
REMARK SMILES IDX 12 1 14 2 13 3 15 4 16 5 2 6 1 7 3 8 11 10 9 11 10 12 5 13
REMARK SMILES IDX 6 14 7 15 8 16 4 17
REMARK H PARENT
REMARK Flexibility Score: 60.00
ROOT
ATOM      1  C   UNL     1      18.540  19.579 -12.204  1.00  0.00    -0.070 C 
ATOM      2  C   UNL     1      17.856  19.700 -11.042  1.00  0.00    -0.027 C 
ATOM      3  C   UNL     1      19.596  20.616 -12.501  1.00  0.00     0.039 C 
ENDROOT
BRANCH   2   4
ATOM      4  C   UNL     1      16.696  18.844 -10.595  1.00  0.00     0.032 C 
BRANCH   4   5
ATOM      5  C   UNL     1      17.131  17.428 -10.172  1.00  0.00     0.034 C 
BRANCH   5   6
ATOM      6  C   UNL     1      16.017  16.414 -10.339  1.00  0.00    -0.077 C 
ATOM      7  C   UNL     1      15.250  15.985  -9.114  1.00  0.00     0.039 C 
ATOM      8  C   UNL     1      15.653  15.888 -11.530  1.00  0.00    -0.023 CG0
ATOM      9  G   UNL     1      16.273  16.218 -12.866  1.00  0.00     0.000 G0
ENDBRANCH   5   6
ENDBRANCH   4   5
ENDBRANCH   2   4
BRANCH   1  10
ATOM     10  C   UNL     1      18.257  18.507 -13.243  1.00  0.00     0.111 C 
BRANCH  10  11
ATOM     11  C   UNL     1      18.637  17.135 -12.741  1.00  0.00     0.163 C 
ATOM     12  O   UNL     1      19.727  17.011 -12.121  1.00  0.00    -0.294 OA
BRANCH  11  13
ATOM     13  C   UNL     1      17.737  15.951 -12.916  1.00  0.00    -0.002 C 
ATOM     14  C   UNL     1      18.234  14.698 -13.141  1.00  0.00    -0.069 C 
ATOM     15  C   UNL     1      19.717  14.449 -13.301  1.00  0.00     0.039 C 
ATOM     16  C   UNL     1      17.319  13.501 -13.277  1.00  0.00     0.039 C 
BRANCH  13  17
ATOM     17  C   UNL     1      16.242  16.215 -12.906  1.00  0.00     0.066 CG0
ATOM     18  G   UNL     1      15.674  15.885 -11.546  1.00  0.00     0.000 G0
ENDBRANCH  13  17
ENDBRANCH  11  13
ENDBRANCH  10  11
ENDBRANCH   1  10
TORSDOF 0
ENDMDL
