MODEL 1
REMARK VINA RESULT:    -5.612      0.000      0.000
REMARK INTER + INTRA:          -6.261
REMARK INTER:                  -6.924
REMARK INTRA:                   0.662
REMARK UNBOUND:                 0.662
REMARK SMILES COc1cc(-c2oc3cc(O)cc(O)c3c(=O)c2O)ccc1O
REMARK SMILES IDX 6 1 18 2 16 3 17 4 15 5 13 6 12 7 10 8 9 9 8 10 7 11 5 12
REMARK SMILES IDX 3 13 22 14 4 15 21 16 20 17 2 18 1 19 23 20 19 22 14 24
REMARK SMILES IDX 11 26
REMARK H PARENT 23 21 19 23 14 25 11 27
REMARK Flexibility Score: inf
ROOT
ATOM      1  C   UNL     1      -1.757  -1.064  -9.620  1.00  0.00     0.180 A 
ATOM      2  C   UNL     1      -1.767  -2.468  -9.671  1.00  0.00     0.208 A 
ATOM      3  C   UNL     1      -0.545  -3.156  -9.754  1.00  0.00     0.238 A 
ATOM      4  O   UNL     1      -0.564  -4.411  -9.855  1.00  0.00    -0.285 OA
ATOM      5  C   UNL     1       0.670  -2.432  -9.772  1.00  0.00     0.111 A 
ATOM      6  C   UNL     1       1.967  -3.028  -9.814  1.00  0.00     0.134 A 
ATOM      7  C   UNL     1       3.097  -2.213  -9.959  1.00  0.00     0.093 A 
ATOM      8  C   UNL     1       2.981  -0.821  -9.997  1.00  0.00     0.123 A 
ATOM      9  C   UNL     1       1.724  -0.229  -9.896  1.00  0.00     0.094 A 
ATOM     10  C   UNL     1       0.575  -1.016  -9.788  1.00  0.00     0.146 A 
ATOM     11  O   UNL     1      -0.604  -0.412  -9.705  1.00  0.00    -0.452 OA
ENDROOT
BRANCH   1  12
ATOM     12  C   UNL     1      -3.002  -0.271  -9.505  1.00  0.00     0.025 A 
ATOM     13  C   UNL     1      -5.261   0.051  -8.625  1.00  0.00     0.161 A 
ATOM     14  C   UNL     1      -5.327   1.294  -9.270  1.00  0.00     0.157 A 
ATOM     15  C   UNL     1      -4.091  -0.726  -8.740  1.00  0.00     0.062 A 
ATOM     16  C   UNL     1      -4.235   1.758 -10.014  1.00  0.00     0.051 A 
ATOM     17  C   UNL     1      -3.078   0.985 -10.125  1.00  0.00     0.016 A 
BRANCH  13  18
ATOM     18  O   UNL     1      -6.371  -0.375  -7.880  1.00  0.00    -0.493 OA
ATOM     19  C   UNL     1      -7.087   0.442  -6.959  1.00  0.00     0.278 C 
ENDBRANCH  13  18
BRANCH  14  20
ATOM     20  O   UNL     1      -6.483   2.065  -9.163  1.00  0.00    -0.504 OA
ATOM     21  H   UNL     1      -7.309   1.863  -9.714  1.00  0.00     0.293 HD
ENDBRANCH  14  20
ENDBRANCH   1  12
BRANCH   2  22
ATOM     22  O   UNL     1      -2.981  -3.162  -9.675  1.00  0.00    -0.502 OA
ATOM     23  H   UNL     1      -3.795  -2.836  -9.169  1.00  0.00     0.293 HD
ENDBRANCH   2  22
BRANCH   6  24
ATOM     24  O   UNL     1       2.200  -4.400  -9.691  1.00  0.00    -0.507 OA
ATOM     25  H   UNL     1       2.790  -4.940 -10.305  1.00  0.00     0.293 HD
ENDBRANCH   6  24
BRANCH   8  26
ATOM     26  O   UNL     1       4.111  -0.016 -10.125  1.00  0.00    -0.508 OA
ATOM     27  H   UNL     1       4.795  -0.176 -10.855  1.00  0.00     0.293 HD
ENDBRANCH   8  26
TORSDOF 6
ENDMDL
MODEL 2
REMARK VINA RESULT:    -4.832      1.313      2.844
REMARK INTER + INTRA:          -5.299
REMARK INTER:                  -5.602
REMARK INTRA:                   0.303
REMARK UNBOUND:                 0.662
REMARK SMILES COc1cc(-c2oc3cc(O)cc(O)c3c(=O)c2O)ccc1O
REMARK SMILES IDX 6 1 18 2 16 3 17 4 15 5 13 6 12 7 10 8 9 9 8 10 7 11 5 12
REMARK SMILES IDX 3 13 22 14 4 15 21 16 20 17 2 18 1 19 23 20 19 22 14 24
REMARK SMILES IDX 11 26
REMARK H PARENT 23 21 19 23 14 25 11 27
REMARK Flexibility Score: inf
ROOT
ATOM      1  C   UNL     1      -0.932  -0.574  -9.457  1.00  0.00     0.180 A 
ATOM      2  C   UNL     1       0.219   0.185  -9.183  1.00  0.00     0.208 A 
ATOM      3  C   UNL     1       1.472  -0.450  -9.198  1.00  0.00     0.238 A 
ATOM      4  O   UNL     1       2.494   0.223  -8.898  1.00  0.00    -0.285 OA
ATOM      5  C   UNL     1       1.559  -1.829  -9.502  1.00  0.00     0.111 A 
ATOM      6  C   UNL     1       2.781  -2.564  -9.586  1.00  0.00     0.134 A 
ATOM      7  C   UNL     1       2.739  -3.953  -9.765  1.00  0.00     0.093 A 
ATOM      8  C   UNL     1       1.524  -4.622  -9.930  1.00  0.00     0.123 A 
ATOM      9  C   UNL     1       0.331  -3.904  -9.910  1.00  0.00     0.094 A 
ATOM     10  C   UNL     1       0.337  -2.523  -9.696  1.00  0.00     0.146 A 
ATOM     11  O   UNL     1      -0.823  -1.879  -9.674  1.00  0.00    -0.452 OA
ENDROOT
BRANCH   1  12
ATOM     12  C   UNL     1      -2.284   0.029  -9.484  1.00  0.00     0.025 A 
ATOM     13  C   UNL     1      -4.651   0.006  -8.871  1.00  0.00     0.161 A 
ATOM     14  C   UNL     1      -4.822   1.239  -9.515  1.00  0.00     0.157 A 
ATOM     15  C   UNL     1      -3.376  -0.592  -8.853  1.00  0.00     0.062 A 
ATOM     16  C   UNL     1      -3.732   1.871 -10.125  1.00  0.00     0.051 A 
ATOM     17  C   UNL     1      -2.470   1.275 -10.104  1.00  0.00     0.016 A 
BRANCH  13  18
ATOM     18  O   UNL     1      -5.766  -0.590  -8.261  1.00  0.00    -0.493 OA
ATOM     19  C   UNL     1      -6.453  -0.054  -7.136  1.00  0.00     0.278 C 
ENDBRANCH  13  18
BRANCH  14  20
ATOM     20  O   UNL     1      -6.082   1.835  -9.539  1.00  0.00    -0.504 OA
ATOM     21  H   UNL     1      -6.892   1.380  -9.132  1.00  0.00     0.293 HD
ENDBRANCH  14  20
ENDBRANCH   1  12
BRANCH   2  22
ATOM     22  O   UNL     1       0.107   1.541  -8.863  1.00  0.00    -0.502 OA
ATOM     23  H   UNL     1      -0.566   1.887  -8.190  1.00  0.00     0.293 HD
ENDBRANCH   2  22
BRANCH   6  24
ATOM     24  O   UNL     1       4.049  -1.981  -9.526  1.00  0.00    -0.507 OA
ATOM     25  H   UNL     1       4.223  -1.001  -9.364  1.00  0.00     0.293 HD
ENDBRANCH   6  24
BRANCH   8  26
ATOM     26  O   UNL     1       1.493  -6.001 -10.125  1.00  0.00    -0.508 OA
ATOM     27  H   UNL     1       1.979  -6.438 -10.899  1.00  0.00     0.293 HD
ENDBRANCH   8  26
TORSDOF 6
ENDMDL
MODEL 3
REMARK VINA RESULT:    -4.654      2.020      3.662
REMARK INTER + INTRA:          -5.080
REMARK INTER:                  -4.834
REMARK INTRA:                  -0.246
REMARK UNBOUND:                 0.662
REMARK SMILES COc1cc(-c2oc3cc(O)cc(O)c3c(=O)c2O)ccc1O
REMARK SMILES IDX 6 1 18 2 16 3 17 4 15 5 13 6 12 7 10 8 9 9 8 10 7 11 5 12
REMARK SMILES IDX 3 13 22 14 4 15 21 16 20 17 2 18 1 19 23 20 19 22 14 24
REMARK SMILES IDX 11 26
REMARK H PARENT 23 21 19 23 14 25 11 27
REMARK Flexibility Score: inf
ROOT
ATOM      1  C   UNL     1      -3.574  -0.238  -9.273  1.00  0.00     0.180 A 
ATOM      2  C   UNL     1      -2.282   0.300  -9.139  1.00  0.00     0.208 A 
ATOM      3  C   UNL     1      -1.173  -0.550  -9.282  1.00  0.00     0.238 A 
ATOM      4  O   UNL     1      -0.020  -0.074  -9.107  1.00  0.00    -0.285 OA
ATOM      5  C   UNL     1      -1.370  -1.922  -9.570  1.00  0.00     0.111 A 
ATOM      6  C   UNL     1      -0.317  -2.865  -9.775  1.00  0.00     0.134 A 
ATOM      7  C   UNL     1      -0.627  -4.222  -9.925  1.00  0.00     0.093 A 
ATOM      8  C   UNL     1      -1.953  -4.661  -9.944  1.00  0.00     0.123 A 
ATOM      9  C   UNL     1      -2.988  -3.740  -9.805  1.00  0.00     0.094 A 
ATOM     10  C   UNL     1      -2.710  -2.383  -9.617  1.00  0.00     0.146 A 
ATOM     11  O   UNL     1      -3.726  -1.540  -9.478  1.00  0.00    -0.452 OA
ENDROOT
BRANCH   1  12
ATOM     12  C   UNL     1      -4.790   0.600  -9.162  1.00  0.00     0.025 A 
ATOM     13  C   UNL     1      -6.819   1.281  -7.978  1.00  0.00     0.161 A 
ATOM     14  C   UNL     1      -7.058   2.250  -8.962  1.00  0.00     0.157 A 
ATOM     15  C   UNL     1      -5.677   0.462  -8.079  1.00  0.00     0.062 A 
ATOM     16  C   UNL     1      -6.164   2.405 -10.029  1.00  0.00     0.051 A 
ATOM     17  C   UNL     1      -5.035   1.591 -10.124  1.00  0.00     0.016 A 
BRANCH  13  18
ATOM     18  O   UNL     1      -7.732   1.165  -6.918  1.00  0.00    -0.493 OA
ATOM     19  C   UNL     1      -7.576   1.786  -5.647  1.00  0.00     0.278 C 
ENDBRANCH  13  18
BRANCH  14  20
ATOM     20  O   UNL     1      -8.188   3.062  -8.870  1.00  0.00    -0.504 OA
ATOM     21  H   UNL     1      -8.513   3.611  -9.657  1.00  0.00     0.293 HD
ENDBRANCH  14  20
ENDBRANCH   1  12
BRANCH   2  22
ATOM     22  O   UNL     1      -2.112   1.653  -8.832  1.00  0.00    -0.502 OA
ATOM     23  H   UNL     1      -1.386   1.981  -8.207  1.00  0.00     0.293 HD
ENDBRANCH   2  22
BRANCH   6  24
ATOM     24  O   UNL     1       1.034  -2.520  -9.865  1.00  0.00    -0.507 OA
ATOM     25  H   UNL     1       1.431  -1.935 -10.584  1.00  0.00     0.293 HD
ENDBRANCH   6  24
BRANCH   8  26
ATOM     26  O   UNL     1      -2.254  -6.011 -10.111  1.00  0.00    -0.508 OA
ATOM     27  H   UNL     1      -3.200  -6.360 -10.010  1.00  0.00     0.293 HD
ENDBRANCH   8  26
TORSDOF 6
ENDMDL
MODEL 4
REMARK VINA RESULT:    -4.512      1.741      3.852
REMARK INTER + INTRA:          -4.904
REMARK INTER:                  -5.405
REMARK INTRA:                   0.500
REMARK UNBOUND:                 0.662
REMARK SMILES COc1cc(-c2oc3cc(O)cc(O)c3c(=O)c2O)ccc1O
REMARK SMILES IDX 6 1 18 2 16 3 17 4 15 5 13 6 12 7 10 8 9 9 8 10 7 11 5 12
REMARK SMILES IDX 3 13 22 14 4 15 21 16 20 17 2 18 1 19 23 20 19 22 14 24
REMARK SMILES IDX 11 26
REMARK H PARENT 23 21 19 23 14 25 11 27
REMARK Flexibility Score: inf
ROOT
ATOM      1  C   UNL     1       0.357  -1.989  -9.819  1.00  0.00     0.180 A 
ATOM      2  C   UNL     1       1.309  -0.961  -9.710  1.00  0.00     0.208 A 
ATOM      3  C   UNL     1       2.674  -1.289  -9.758  1.00  0.00     0.238 A 
ATOM      4  O   UNL     1       3.522  -0.370  -9.605  1.00  0.00    -0.285 OA
ATOM      5  C   UNL     1       3.068  -2.638  -9.927  1.00  0.00     0.111 A 
ATOM      6  C   UNL     1       4.423  -3.078 -10.029  1.00  0.00     0.134 A 
ATOM      7  C   UNL     1       4.701  -4.451 -10.065  1.00  0.00     0.093 A 
ATOM      8  C   UNL     1       3.670  -5.395 -10.069  1.00  0.00     0.123 A 
ATOM      9  C   UNL     1       2.345  -4.971 -10.030  1.00  0.00     0.094 A 
ATOM     10  C   UNL     1       2.036  -3.610  -9.957  1.00  0.00     0.146 A 
ATOM     11  O   UNL     1       0.759  -3.250  -9.911  1.00  0.00    -0.452 OA
ENDROOT
BRANCH   1  12
ATOM     12  C   UNL     1      -1.099  -1.718  -9.804  1.00  0.00     0.025 A 
ATOM     13  C   UNL     1      -2.989  -0.171  -9.919  1.00  0.00     0.161 A 
ATOM     14  C   UNL     1      -3.872  -1.255  -9.826  1.00  0.00     0.157 A 
ATOM     15  C   UNL     1      -1.601  -0.409  -9.915  1.00  0.00     0.062 A 
ATOM     16  C   UNL     1      -3.375  -2.561  -9.738  1.00  0.00     0.051 A 
ATOM     17  C   UNL     1      -1.999  -2.792  -9.734  1.00  0.00     0.016 A 
BRANCH  13  18
ATOM     18  O   UNL     1      -3.526   1.122 -10.017  1.00  0.00    -0.493 OA
ATOM     19  C   UNL     1      -4.089   1.846  -8.929  1.00  0.00     0.278 C 
ENDBRANCH  13  18
BRANCH  14  20
ATOM     20  O   UNL     1      -5.248  -1.026  -9.826  1.00  0.00    -0.504 OA
ATOM     21  H   UNL     1      -5.637  -0.132  -9.548  1.00  0.00     0.293 HD
ENDBRANCH  14  20
ENDBRANCH   1  12
BRANCH   2  22
ATOM     22  O   UNL     1       0.897   0.362  -9.521  1.00  0.00    -0.502 OA
ATOM     23  H   UNL     1       0.539   0.698  -8.635  1.00  0.00     0.293 HD
ENDBRANCH   2  22
BRANCH   6  24
ATOM     24  O   UNL     1       5.519  -2.217 -10.125  1.00  0.00    -0.507 OA
ATOM     25  H   UNL     1       5.598  -1.333  -9.647  1.00  0.00     0.293 HD
ENDBRANCH   6  24
BRANCH   8  26
ATOM     26  O   UNL     1       3.955  -6.757 -10.121  1.00  0.00    -0.508 OA
ATOM     27  H   UNL     1       3.389  -7.396 -10.667  1.00  0.00     0.293 HD
ENDBRANCH   8  26
TORSDOF 6
ENDMDL
MODEL 5
REMARK VINA RESULT:    -4.070      3.272      9.105
REMARK INTER + INTRA:          -4.359
REMARK INTER:                  -4.768
REMARK INTRA:                   0.408
REMARK UNBOUND:                 0.662
REMARK SMILES COc1cc(-c2oc3cc(O)cc(O)c3c(=O)c2O)ccc1O
REMARK SMILES IDX 6 1 18 2 16 3 17 4 15 5 13 6 12 7 10 8 9 9 8 10 7 11 5 12
REMARK SMILES IDX 3 13 22 14 4 15 21 16 20 17 2 18 1 19 23 20 19 22 14 24
REMARK SMILES IDX 11 26
REMARK H PARENT 23 21 19 23 14 25 11 27
REMARK Flexibility Score: inf
ROOT
ATOM      1  C   UNL     1       2.854  -4.236  -9.962  1.00  0.00     0.180 A 
ATOM      2  C   UNL     1       3.464  -2.971 -10.010  1.00  0.00     0.208 A 
ATOM      3  C   UNL     1       2.655  -1.823  -9.993  1.00  0.00     0.238 A 
ATOM      4  O   UNL     1       3.205  -0.694 -10.091  1.00  0.00    -0.285 OA
ATOM      5  C   UNL     1       1.248  -1.955  -9.915  1.00  0.00     0.111 A 
ATOM      6  C   UNL     1       0.334  -0.859  -9.852  1.00  0.00     0.134 A 
ATOM      7  C   UNL     1      -1.043  -1.105  -9.908  1.00  0.00     0.093 A 
ATOM      8  C   UNL     1      -1.541  -2.410  -9.959  1.00  0.00     0.123 A 
ATOM      9  C   UNL     1      -0.658  -3.487  -9.960  1.00  0.00     0.094 A 
ATOM     10  C   UNL     1       0.723  -3.273  -9.942  1.00  0.00     0.146 A 
ATOM     11  O   UNL     1       1.529  -4.327  -9.956  1.00  0.00    -0.452 OA
ENDROOT
BRANCH   1  12
ATOM     12  C   UNL     1       3.641  -5.490  -9.950  1.00  0.00     0.025 A 
ATOM     13  C   UNL     1       5.779  -6.675 -10.016  1.00  0.00     0.161 A 
ATOM     14  C   UNL     1       5.100  -7.892  -9.866  1.00  0.00     0.157 A 
ATOM     15  C   UNL     1       5.044  -5.474 -10.050  1.00  0.00     0.062 A 
ATOM     16  C   UNL     1       3.706  -7.909  -9.743  1.00  0.00     0.051 A 
ATOM     17  C   UNL     1       2.982  -6.716  -9.777  1.00  0.00     0.016 A 
BRANCH  13  18
ATOM     18  O   UNL     1       7.179  -6.699 -10.125  1.00  0.00    -0.493 OA
ATOM     19  C   UNL     1       8.041  -5.662  -9.670  1.00  0.00     0.278 C 
ENDBRANCH  13  18
BRANCH  14  20
ATOM     20  O   UNL     1       5.822  -9.085  -9.835  1.00  0.00    -0.504 OA
ATOM     21  H   UNL     1       6.072  -9.531  -8.960  1.00  0.00     0.293 HD
ENDBRANCH  14  20
ENDBRANCH   1  12
BRANCH   2  22
ATOM     22  O   UNL     1       4.854  -2.865 -10.109  1.00  0.00    -0.502 OA
ATOM     23  H   UNL     1       5.368  -2.077  -9.732  1.00  0.00     0.293 HD
ENDBRANCH   2  22
BRANCH   6  24
ATOM     24  O   UNL     1       0.724   0.475  -9.707  1.00  0.00    -0.507 OA
ATOM     25  H   UNL     1       1.288   0.830  -8.950  1.00  0.00     0.293 HD
ENDBRANCH   6  24
BRANCH   8  26
ATOM     26  O   UNL     1      -2.913  -2.647  -9.998  1.00  0.00    -0.508 OA
ATOM     27  H   UNL     1      -3.300  -3.558  -9.781  1.00  0.00     0.293 HD
ENDBRANCH   8  26
TORSDOF 6
ENDMDL
MODEL 6
REMARK VINA RESULT:    -3.750     11.656     13.661
REMARK INTER + INTRA:          -3.964
REMARK INTER:                  -3.741
REMARK INTRA:                  -0.223
REMARK UNBOUND:                 0.662
REMARK SMILES COc1cc(-c2oc3cc(O)cc(O)c3c(=O)c2O)ccc1O
REMARK SMILES IDX 6 1 18 2 16 3 17 4 15 5 13 6 12 7 10 8 9 9 8 10 7 11 5 12
REMARK SMILES IDX 3 13 22 14 4 15 21 16 20 17 2 18 1 19 23 20 19 22 14 24
REMARK SMILES IDX 11 26
REMARK H PARENT 23 21 19 23 14 25 11 27
REMARK Flexibility Score: inf
ROOT
ATOM      1  C   UNL     1      -0.145   4.893   0.934  1.00  0.00     0.180 A 
ATOM      2  C   UNL     1       0.951   5.762   1.076  1.00  0.00     0.208 A 
ATOM      3  C   UNL     1       0.759   7.138   0.869  1.00  0.00     0.238 A 
ATOM      4  O   UNL     1       1.756   7.905   0.944  1.00  0.00    -0.285 OA
ATOM      5  C   UNL     1      -0.526   7.628   0.537  1.00  0.00     0.111 A 
ATOM      6  C   UNL     1      -0.842   9.007   0.345  1.00  0.00     0.134 A 
ATOM      7  C   UNL     1      -2.118   9.367  -0.108  1.00  0.00     0.093 A 
ATOM      8  C   UNL     1      -3.108   8.402  -0.312  1.00  0.00     0.123 A 
ATOM      9  C   UNL     1      -2.826   7.060  -0.070  1.00  0.00     0.094 A 
ATOM     10  C   UNL     1      -1.552   6.667   0.348  1.00  0.00     0.146 A 
ATOM     11  O   UNL     1      -1.323   5.376   0.558  1.00  0.00    -0.452 OA
ENDROOT
BRANCH   1  12
ATOM     12  C   UNL     1      -0.027   3.435   1.161  1.00  0.00     0.025 A 
ATOM     13  C   UNL     1       0.902   1.247   0.586  1.00  0.00     0.161 A 
ATOM     14  C   UNL     1       0.210   0.678   1.664  1.00  0.00     0.157 A 
ATOM     15  C   UNL     1       0.785   2.630   0.343  1.00  0.00     0.062 A 
ATOM     16  C   UNL     1      -0.581   1.481   2.494  1.00  0.00     0.051 A 
ATOM     17  C   UNL     1      -0.694   2.851   2.249  1.00  0.00     0.016 A 
BRANCH  13  18
ATOM     18  O   UNL     1       1.695   0.411  -0.216  1.00  0.00    -0.493 OA
ATOM     19  C   UNL     1       1.609   0.337  -1.635  1.00  0.00     0.278 C 
ENDBRANCH  13  18
BRANCH  14  20
ATOM     20  O   UNL     1       0.319  -0.690   1.908  1.00  0.00    -0.504 OA
ATOM     21  H   UNL     1      -0.085  -1.375   1.279  1.00  0.00     0.293 HD
ENDBRANCH  14  20
ENDBRANCH   1  12
BRANCH   2  22
ATOM     22  O   UNL     1       2.216   5.254   1.383  1.00  0.00    -0.502 OA
ATOM     23  H   UNL     1       2.351   4.323   1.758  1.00  0.00     0.293 HD
ENDBRANCH   2  22
BRANCH   6  24
ATOM     24  O   UNL     1       0.044  10.055   0.608  1.00  0.00    -0.507 OA
ATOM     25  H   UNL     1       0.980  10.124   0.237  1.00  0.00     0.293 HD
ENDBRANCH   6  24
BRANCH   8  26
ATOM     26  O   UNL     1      -4.379   8.769  -0.747  1.00  0.00    -0.508 OA
ATOM     27  H   UNL     1      -4.514   9.514  -1.421  1.00  0.00     0.293 HD
ENDBRANCH   8  26
TORSDOF 6
ENDMDL
MODEL 7
REMARK VINA RESULT:    -3.246     11.386     11.965
REMARK INTER + INTRA:          -3.342
REMARK INTER:                  -3.046
REMARK INTRA:                  -0.297
REMARK UNBOUND:                 0.662
REMARK SMILES COc1cc(-c2oc3cc(O)cc(O)c3c(=O)c2O)ccc1O
REMARK SMILES IDX 6 1 18 2 16 3 17 4 15 5 13 6 12 7 10 8 9 9 8 10 7 11 5 12
REMARK SMILES IDX 3 13 22 14 4 15 21 16 20 17 2 18 1 19 23 20 19 22 14 24
REMARK SMILES IDX 11 26
REMARK H PARENT 23 21 19 23 14 25 11 27
REMARK Flexibility Score: inf
ROOT
ATOM      1  C   UNL     1       0.346   3.263   1.075  1.00  0.00     0.180 A 
ATOM      2  C   UNL     1      -0.173   2.627   2.215  1.00  0.00     0.208 A 
ATOM      3  C   UNL     1      -0.269   1.225   2.229  1.00  0.00     0.238 A 
ATOM      4  O   UNL     1      -0.785   0.664   3.231  1.00  0.00    -0.285 OA
ATOM      5  C   UNL     1       0.169   0.479   1.108  1.00  0.00     0.111 A 
ATOM      6  C   UNL     1       0.156  -0.947   1.030  1.00  0.00     0.134 A 
ATOM      7  C   UNL     1       0.491  -1.575  -0.176  1.00  0.00     0.093 A 
ATOM      8  C   UNL     1       0.902  -0.831  -1.285  1.00  0.00     0.123 A 
ATOM      9  C   UNL     1       0.975   0.556  -1.199  1.00  0.00     0.094 A 
ATOM     10  C   UNL     1       0.612   1.214  -0.021  1.00  0.00     0.146 A 
ATOM     11  O   UNL     1       0.687   2.539   0.015  1.00  0.00    -0.452 OA
ENDROOT
BRANCH   1  12
ATOM     12  C   UNL     1       0.501   4.734   0.997  1.00  0.00     0.025 A 
ATOM     13  C   UNL     1      -0.449   6.980   0.816  1.00  0.00     0.161 A 
ATOM     14  C   UNL     1       0.840   7.524   0.908  1.00  0.00     0.157 A 
ATOM     15  C   UNL     1      -0.613   5.581   0.868  1.00  0.00     0.062 A 
ATOM     16  C   UNL     1       1.949   6.683   1.058  1.00  0.00     0.051 A 
ATOM     17  C   UNL     1       1.781   5.298   1.110  1.00  0.00     0.016 A 
BRANCH  13  18
ATOM     18  O   UNL     1      -1.536   7.856   0.677  1.00  0.00    -0.493 OA
ATOM     19  C   UNL     1      -2.616   7.664  -0.231  1.00  0.00     0.278 C 
ENDBRANCH  13  18
BRANCH  14  20
ATOM     20  O   UNL     1       1.009   8.907   0.853  1.00  0.00    -0.504 OA
ATOM     21  H   UNL     1       0.231   9.530   0.672  1.00  0.00     0.293 HD
ENDBRANCH  14  20
ENDBRANCH   1  12
BRANCH   2  22
ATOM     22  O   UNL     1      -0.621   3.385   3.301  1.00  0.00    -0.502 OA
ATOM     23  H   UNL     1       0.009   3.749   4.006  1.00  0.00     0.293 HD
ENDBRANCH   2  22
BRANCH   6  24
ATOM     24  O   UNL     1      -0.150  -1.785   2.106  1.00  0.00    -0.507 OA
ATOM     25  H   UNL     1      -0.808  -2.548   2.071  1.00  0.00     0.293 HD
ENDBRANCH   6  24
BRANCH   8  26
ATOM     26  O   UNL     1       1.250  -1.465  -2.476  1.00  0.00    -0.508 OA
ATOM     27  H   UNL     1       0.561  -1.659  -3.194  1.00  0.00     0.293 HD
ENDBRANCH   8  26
TORSDOF 6
ENDMDL
