MODEL 1
REMARK VINA RESULT:    -3.345      0.000      0.000
REMARK INTER + INTRA:          -3.711
REMARK INTER:                  -3.540
REMARK INTRA:                  -0.171
REMARK UNBOUND:                -0.171
REMARK SMILES CC(C)[C@@H]1CC[C@H](C)CC1=O
REMARK SMILES IDX 8 1 7 2 6 3 5 4 4 5 10 6 11 7 9 8 2 9 1 10 3 11
REMARK H PARENT
REMARK Flexibility Score: inf
ROOT
ATOM      1  C   UNL     1     143.666 139.602 141.692  1.00  0.00     0.008 C 
ATOM      2  C   UNL     1     142.818 139.933 142.930  1.00  0.00    -0.007 C 
ATOM      3  C   UNL     1     142.456 141.435 142.995  1.00  0.00     0.004 C 
ATOM      4  C   UNL     1     141.409 141.852 141.942  1.00  0.00     0.012 C 
ATOM      5  C   UNL     1     140.124 140.993 142.032  1.00  0.00     0.058 C 
ATOM      6  C   UNL     1     140.546 139.534 141.989  1.00  0.00     0.136 C 
ATOM      7  O   UNL     1     140.160 138.774 141.112  1.00  0.00    -0.299 OA
ATOM      8  C   UNL     1     141.552 139.059 142.997  1.00  0.00     0.079 C 
ENDROOT
BRANCH   5   9
ATOM      9  C   UNL     1     139.064 141.353 140.939  1.00  0.00    -0.007 C 
ATOM     10  C   UNL     1     137.789 141.932 141.581  1.00  0.00     0.008 C 
ATOM     11  C   UNL     1     139.593 142.364 139.908  1.00  0.00     0.008 C 
ENDBRANCH   5   9
TORSDOF 1
ENDMDL
MODEL 2
REMARK VINA RESULT:    -3.340      1.803      4.118
REMARK INTER + INTRA:          -3.706
REMARK INTER:                  -3.532
REMARK INTRA:                  -0.174
REMARK UNBOUND:                -0.171
REMARK SMILES CC(C)[C@@H]1CC[C@H](C)CC1=O
REMARK SMILES IDX 8 1 7 2 6 3 5 4 4 5 10 6 11 7 9 8 2 9 1 10 3 11
REMARK H PARENT
REMARK Flexibility Score: inf
ROOT
ATOM      1  C   UNL     1     138.021 141.861 141.677  1.00  0.00     0.008 C 
ATOM      2  C   UNL     1     138.896 141.601 142.913  1.00  0.00    -0.007 C 
ATOM      3  C   UNL     1     139.306 140.115 143.026  1.00  0.00     0.004 C 
ATOM      4  C   UNL     1     140.352 139.694 141.974  1.00  0.00     0.012 C 
ATOM      5  C   UNL     1     141.610 140.596 142.016  1.00  0.00     0.058 C 
ATOM      6  C   UNL     1     141.141 142.038 141.928  1.00  0.00     0.136 C 
ATOM      7  O   UNL     1     141.491 142.778 141.018  1.00  0.00    -0.299 OA
ATOM      8  C   UNL     1     140.134 142.517 142.932  1.00  0.00     0.079 C 
ENDROOT
BRANCH   5   9
ATOM      9  C   UNL     1     142.667 140.231 140.922  1.00  0.00    -0.007 C 
ATOM     10  C   UNL     1     143.917 139.592 141.558  1.00  0.00     0.008 C 
ATOM     11  C   UNL     1     142.114 139.265 139.859  1.00  0.00     0.008 C 
ENDBRANCH   5   9
TORSDOF 1
ENDMDL
MODEL 3
REMARK VINA RESULT:    -3.286      1.659      2.947
REMARK INTER + INTRA:          -3.649
REMARK INTER:                  -3.478
REMARK INTRA:                  -0.170
REMARK UNBOUND:                -0.171
REMARK SMILES CC(C)[C@@H]1CC[C@H](C)CC1=O
REMARK SMILES IDX 8 1 7 2 6 3 5 4 4 5 10 6 11 7 9 8 2 9 1 10 3 11
REMARK H PARENT
REMARK Flexibility Score: inf
ROOT
ATOM      1  C   UNL     1     141.992 143.570 141.618  1.00  0.00     0.008 C 
ATOM      2  C   UNL     1     141.609 142.729 142.846  1.00  0.00    -0.007 C 
ATOM      3  C   UNL     1     140.109 142.352 142.840  1.00  0.00     0.004 C 
ATOM      4  C   UNL     1     139.756 141.292 141.777  1.00  0.00     0.012 C 
ATOM      5  C   UNL     1     140.622 140.017 141.922  1.00  0.00     0.058 C 
ATOM      6  C   UNL     1     142.077 140.454 141.947  1.00  0.00     0.136 C 
ATOM      7  O   UNL     1     142.883 140.068 141.112  1.00  0.00    -0.299 OA
ATOM      8  C   UNL     1     142.491 141.473 142.968  1.00  0.00     0.079 C 
ENDROOT
BRANCH   5   9
ATOM      9  C   UNL     1     140.328 138.943 140.822  1.00  0.00    -0.007 C 
ATOM     10  C   UNL     1     139.740 137.664 141.448  1.00  0.00     0.008 C 
ATOM     11  C   UNL     1     139.356 139.449 139.743  1.00  0.00     0.008 C 
ENDBRANCH   5   9
TORSDOF 1
ENDMDL
MODEL 4
REMARK VINA RESULT:    -3.250      1.683      2.842
REMARK INTER + INTRA:          -3.610
REMARK INTER:                  -3.434
REMARK INTRA:                  -0.176
REMARK UNBOUND:                -0.171
REMARK SMILES CC(C)[C@@H]1CC[C@H](C)CC1=O
REMARK SMILES IDX 8 1 7 2 6 3 5 4 4 5 10 6 11 7 9 8 2 9 1 10 3 11
REMARK H PARENT
REMARK Flexibility Score: inf
ROOT
ATOM      1  C   UNL     1     139.782 137.960 141.615  1.00  0.00     0.008 C 
ATOM      2  C   UNL     1     140.059 138.817 142.860  1.00  0.00    -0.007 C 
ATOM      3  C   UNL     1     141.535 139.274 142.928  1.00  0.00     0.004 C 
ATOM      4  C   UNL     1     141.882 140.355 141.884  1.00  0.00     0.012 C 
ATOM      5  C   UNL     1     140.943 141.581 141.986  1.00  0.00     0.058 C 
ATOM      6  C   UNL     1     139.514 141.066 141.939  1.00  0.00     0.136 C 
ATOM      7  O   UNL     1     138.730 141.410 141.066  1.00  0.00    -0.299 OA
ATOM      8  C   UNL     1     139.105 140.024 142.938  1.00  0.00     0.079 C 
ENDROOT
BRANCH   5   9
ATOM      9  C   UNL     1     141.233 142.671 140.902  1.00  0.00    -0.007 C 
ATOM     10  C   UNL     1     141.920 143.899 141.529  1.00  0.00     0.008 C 
ATOM     11  C   UNL     1     142.118 142.150 139.756  1.00  0.00     0.008 C 
ENDBRANCH   5   9
TORSDOF 1
ENDMDL
MODEL 5
REMARK VINA RESULT:    -3.158      7.189      8.993
REMARK INTER + INTRA:          -3.513
REMARK INTER:                  -3.356
REMARK INTRA:                  -0.156
REMARK UNBOUND:                -0.171
REMARK SMILES CC(C)[C@@H]1CC[C@H](C)CC1=O
REMARK SMILES IDX 8 1 7 2 6 3 5 4 4 5 10 6 11 7 9 8 2 9 1 10 3 11
REMARK H PARENT
REMARK Flexibility Score: inf
ROOT
ATOM      1  C   UNL     1     141.360 145.729 137.759  1.00  0.00     0.008 C 
ATOM      2  C   UNL     1     141.403 147.126 137.121  1.00  0.00    -0.007 C 
ATOM      3  C   UNL     1     140.182 147.983 137.530  1.00  0.00     0.004 C 
ATOM      4  C   UNL     1     140.237 148.454 138.998  1.00  0.00     0.012 C 
ATOM      5  C   UNL     1     141.548 149.214 139.313  1.00  0.00     0.058 C 
ATOM      6  C   UNL     1     142.704 148.336 138.867  1.00  0.00     0.136 C 
ATOM      7  O   UNL     1     143.559 147.945 139.649  1.00  0.00    -0.299 OA
ATOM      8  C   UNL     1     142.720 147.856 137.445  1.00  0.00     0.079 C 
ENDROOT
BRANCH   5   9
ATOM      9  C   UNL     1     141.661 149.656 140.810  1.00  0.00    -0.007 C 
ATOM     10  C   UNL     1     142.274 151.065 140.922  1.00  0.00     0.008 C 
ATOM     11  C   UNL     1     140.303 149.656 141.533  1.00  0.00     0.008 C 
ENDBRANCH   5   9
TORSDOF 1
ENDMDL
MODEL 6
REMARK VINA RESULT:    -3.146      6.875      8.037
REMARK INTER + INTRA:          -3.500
REMARK INTER:                  -3.336
REMARK INTRA:                  -0.164
REMARK UNBOUND:                -0.171
REMARK SMILES CC(C)[C@@H]1CC[C@H](C)CC1=O
REMARK SMILES IDX 8 1 7 2 6 3 5 4 4 5 10 6 11 7 9 8 2 9 1 10 3 11
REMARK H PARENT
REMARK Flexibility Score: inf
ROOT
ATOM      1  C   UNL     1     151.125 139.508 140.119  1.00  0.00     0.008 C 
ATOM      2  C   UNL     1     149.807 139.590 140.905  1.00  0.00    -0.007 C 
ATOM      3  C   UNL     1     149.135 140.975 140.757  1.00  0.00     0.004 C 
ATOM      4  C   UNL     1     148.526 141.207 139.359  1.00  0.00     0.012 C 
ATOM      5  C   UNL     1     147.528 140.090 138.970  1.00  0.00     0.058 C 
ATOM      6  C   UNL     1     148.236 138.759 139.160  1.00  0.00     0.136 C 
ATOM      7  O   UNL     1     148.401 137.976 138.235  1.00  0.00    -0.299 OA
ATOM      8  C   UNL     1     148.838 138.463 140.503  1.00  0.00     0.079 C 
ENDROOT
BRANCH   5   9
ATOM      9  C   UNL     1     146.935 140.265 137.533  1.00  0.00    -0.007 C 
ATOM     10  C   UNL     1     145.395 140.269 137.571  1.00  0.00     0.008 C 
ATOM     11  C   UNL     1     147.409 141.558 136.848  1.00  0.00     0.008 C 
ENDBRANCH   5   9
TORSDOF 1
ENDMDL
MODEL 7
REMARK VINA RESULT:    -3.145      1.773      2.545
REMARK INTER + INTRA:          -3.499
REMARK INTER:                  -3.330
REMARK INTRA:                  -0.169
REMARK UNBOUND:                -0.171
REMARK SMILES CC(C)[C@@H]1CC[C@H](C)CC1=O
REMARK SMILES IDX 8 1 7 2 6 3 5 4 4 5 10 6 11 7 9 8 2 9 1 10 3 11
REMARK H PARENT
REMARK Flexibility Score: inf
ROOT
ATOM      1  C   UNL     1     143.250 139.964 142.330  1.00  0.00     0.008 C 
ATOM      2  C   UNL     1     142.535 139.560 141.031  1.00  0.00    -0.007 C 
ATOM      3  C   UNL     1     141.179 138.873 141.311  1.00  0.00     0.004 C 
ATOM      4  C   UNL     1     140.097 139.849 141.816  1.00  0.00     0.012 C 
ATOM      5  C   UNL     1     139.898 141.041 140.849  1.00  0.00     0.058 C 
ATOM      6  C   UNL     1     141.263 141.656 140.594  1.00  0.00     0.136 C 
ATOM      7  O   UNL     1     141.510 142.821 140.872  1.00  0.00    -0.299 OA
ATOM      8  C   UNL     1     142.357 140.763 140.086  1.00  0.00     0.079 C 
ENDROOT
BRANCH   5   9
ATOM      9  C   UNL     1     138.847 142.082 141.361  1.00  0.00    -0.007 C 
ATOM     10  C   UNL     1     137.449 141.777 140.789  1.00  0.00     0.008 C 
ATOM     11  C   UNL     1     138.748 142.120 142.895  1.00  0.00     0.008 C 
ENDBRANCH   5   9
TORSDOF 1
ENDMDL
MODEL 8
REMARK VINA RESULT:    -3.141      7.434      8.822
REMARK INTER + INTRA:          -3.495
REMARK INTER:                  -3.329
REMARK INTRA:                  -0.166
REMARK UNBOUND:                -0.171
REMARK SMILES CC(C)[C@@H]1CC[C@H](C)CC1=O
REMARK SMILES IDX 8 1 7 2 6 3 5 4 4 5 10 6 11 7 9 8 2 9 1 10 3 11
REMARK H PARENT
REMARK Flexibility Score: inf
ROOT
ATOM      1  C   UNL     1     141.776 151.125 140.386  1.00  0.00     0.008 C 
ATOM      2  C   UNL     1     141.806 149.737 141.045  1.00  0.00    -0.007 C 
ATOM      3  C   UNL     1     140.461 148.992 140.878  1.00  0.00     0.004 C 
ATOM      4  C   UNL     1     140.215 148.502 139.437  1.00  0.00     0.012 C 
ATOM      5  C   UNL     1     141.377 147.620 138.920  1.00  0.00     0.058 C 
ATOM      6  C   UNL     1     142.667 148.393 139.133  1.00  0.00     0.136 C 
ATOM      7  O   UNL     1     143.402 148.695 138.203  1.00  0.00    -0.299 OA
ATOM      8  C   UNL     1     142.975 148.886 140.517  1.00  0.00     0.079 C 
ENDROOT
BRANCH   5   9
ATOM      9  C   UNL     1     141.185 147.153 137.438  1.00  0.00    -0.007 C 
ATOM     10  C   UNL     1     141.184 145.615 137.344  1.00  0.00     0.008 C 
ATOM     11  C   UNL     1     139.882 147.680 136.813  1.00  0.00     0.008 C 
ENDBRANCH   5   9
TORSDOF 1
ENDMDL
MODEL 9
REMARK VINA RESULT:    -3.060      1.827      2.531
REMARK INTER + INTRA:          -3.409
REMARK INTER:                  -3.236
REMARK INTRA:                  -0.173
REMARK UNBOUND:                -0.171
REMARK SMILES CC(C)[C@@H]1CC[C@H](C)CC1=O
REMARK SMILES IDX 8 1 7 2 6 3 5 4 4 5 10 6 11 7 9 8 2 9 1 10 3 11
REMARK H PARENT
REMARK Flexibility Score: inf
ROOT
ATOM      1  C   UNL     1     142.460 141.243 142.893  1.00  0.00     0.008 C 
ATOM      2  C   UNL     1     141.820 142.596 142.544  1.00  0.00    -0.007 C 
ATOM      3  C   UNL     1     141.817 142.855 141.019  1.00  0.00     0.004 C 
ATOM      4  C   UNL     1     140.805 141.975 140.257  1.00  0.00     0.012 C 
ATOM      5  C   UNL     1     139.372 142.121 140.822  1.00  0.00     0.058 C 
ATOM      6  C   UNL     1     139.444 141.881 142.320  1.00  0.00     0.136 C 
ATOM      7  O   UNL     1     138.821 140.979 142.862  1.00  0.00    -0.299 OA
ATOM      8  C   UNL     1     140.398 142.714 143.124  1.00  0.00     0.079 C 
ENDROOT
BRANCH   5   9
ATOM      9  C   UNL     1     138.330 141.197 140.107  1.00  0.00    -0.007 C 
ATOM     10  C   UNL     1     137.336 142.030 139.277  1.00  0.00     0.008 C 
ATOM     11  C   UNL     1     138.992 140.162 139.181  1.00  0.00     0.008 C 
ENDBRANCH   5   9
TORSDOF 1
ENDMDL
