MODEL 1
REMARK VINA RESULT:    -2.946      0.000      0.000
REMARK INTER + INTRA:          -3.315
REMARK INTER:                  -3.290
REMARK INTRA:                  -0.024
REMARK UNBOUND:                -0.024
REMARK SMILES CCCC(=O)[O-]
REMARK SMILES IDX 3 1 4 2 5 3 6 4 2 5 1 6
REMARK H PARENT
REMARK Flexibility Score: inf
ROOT
ATOM      1  C   UNL     1     -21.034   0.571 -26.059  1.00  0.00     0.052 C 
ENDROOT
BRANCH   1   2
ATOM      2  C   UNL     1     -19.744   0.203 -25.397  1.00  0.00     0.041 C 
ATOM      3  O   UNL     1     -18.682   0.139 -26.070  1.00  0.00    -0.550 OA
ATOM      4  O   UNL     1     -19.723  -0.115 -24.044  1.00  0.00    -0.550 OA
ENDBRANCH   1   2
BRANCH   1   5
ATOM      5  C   UNL     1     -20.844   0.689 -27.574  1.00  0.00     0.003 C 
ATOM      6  C   UNL     1     -21.566   1.914 -28.125  1.00  0.00     0.004 C 
ENDBRANCH   1   5
TORSDOF 2
ENDMDL
MODEL 2
REMARK VINA RESULT:    -2.885      1.031      1.705
REMARK INTER + INTRA:          -3.246
REMARK INTER:                  -3.225
REMARK INTRA:                  -0.022
REMARK UNBOUND:                -0.024
REMARK SMILES CCCC(=O)[O-]
REMARK SMILES IDX 3 1 4 2 5 3 6 4 2 5 1 6
REMARK H PARENT
REMARK Flexibility Score: inf
ROOT
ATOM      1  C   UNL     1     -20.588   0.012 -26.901  1.00  0.00     0.052 C 
ENDROOT
BRANCH   1   2
ATOM      2  C   UNL     1     -19.446  -0.426 -26.040  1.00  0.00     0.041 C 
ATOM      3  O   UNL     1     -19.403  -0.090 -24.827  1.00  0.00    -0.550 OA
ATOM      4  O   UNL     1     -18.405  -1.165 -26.588  1.00  0.00    -0.550 OA
ENDBRANCH   1   2
BRANCH   1   5
ATOM      5  C   UNL     1     -21.480   1.001 -26.147  1.00  0.00     0.003 C 
ATOM      6  C   UNL     1     -21.864   2.183 -27.032  1.00  0.00     0.004 C 
ENDBRANCH   1   5
TORSDOF 2
ENDMDL
MODEL 3
REMARK VINA RESULT:    -2.834     12.640     13.539
REMARK INTER + INTRA:          -3.190
REMARK INTER:                  -3.151
REMARK INTRA:                  -0.038
REMARK UNBOUND:                -0.024
REMARK SMILES CCCC(=O)[O-]
REMARK SMILES IDX 3 1 4 2 5 3 6 4 2 5 1 6
REMARK H PARENT
REMARK Flexibility Score: inf
ROOT
ATOM      1  C   UNL     1      -7.455  -2.122 -24.033  1.00  0.00     0.052 C 
ENDROOT
BRANCH   1   2
ATOM      2  C   UNL     1      -6.437  -1.833 -22.976  1.00  0.00     0.041 C 
ATOM      3  O   UNL     1      -5.623  -2.724 -22.620  1.00  0.00    -0.550 OA
ATOM      4  O   UNL     1      -6.418  -0.592 -22.350  1.00  0.00    -0.550 OA
ENDBRANCH   1   2
BRANCH   1   5
ATOM      5  C   UNL     1      -8.611  -1.122 -23.952  1.00  0.00     0.003 C 
ATOM      6  C   UNL     1      -8.645  -0.220 -25.182  1.00  0.00     0.004 C 
ENDBRANCH   1   5
TORSDOF 2
ENDMDL
MODEL 4
REMARK VINA RESULT:    -2.809     13.449     14.068
REMARK INTER + INTRA:          -3.162
REMARK INTER:                  -3.135
REMARK INTRA:                  -0.027
REMARK UNBOUND:                -0.024
REMARK SMILES CCCC(=O)[O-]
REMARK SMILES IDX 3 1 4 2 5 3 6 4 2 5 1 6
REMARK H PARENT
REMARK Flexibility Score: inf
ROOT
ATOM      1  C   UNL     1      -6.921  -2.051 -24.464  1.00  0.00     0.052 C 
ENDROOT
BRANCH   1   2
ATOM      2  C   UNL     1      -6.326  -1.857 -23.105  1.00  0.00     0.041 C 
ATOM      3  O   UNL     1      -5.638  -2.770 -22.579  1.00  0.00    -0.550 OA
ATOM      4  O   UNL     1      -6.571  -0.684 -22.400  1.00  0.00    -0.550 OA
ENDBRANCH   1   2
BRANCH   1   5
ATOM      5  C   UNL     1      -8.005  -3.132 -24.424  1.00  0.00     0.003 C 
ATOM      6  C   UNL     1      -7.800  -4.158 -25.534  1.00  0.00     0.004 C 
ENDBRANCH   1   5
TORSDOF 2
ENDMDL
MODEL 5
REMARK VINA RESULT:    -2.654      2.215      2.792
REMARK INTER + INTRA:          -2.988
REMARK INTER:                  -2.957
REMARK INTRA:                  -0.031
REMARK UNBOUND:                -0.024
REMARK SMILES CCCC(=O)[O-]
REMARK SMILES IDX 3 1 4 2 5 3 6 4 2 5 1 6
REMARK H PARENT
REMARK Flexibility Score: inf
ROOT
ATOM      1  C   UNL     1     -20.193   0.578 -24.871  1.00  0.00     0.052 C 
ENDROOT
BRANCH   1   2
ATOM      2  C   UNL     1     -19.073   0.409 -25.848  1.00  0.00     0.041 C 
ATOM      3  O   UNL     1     -18.464   1.417 -26.293  1.00  0.00    -0.550 OA
ATOM      4  O   UNL     1     -18.732  -0.859 -26.303  1.00  0.00    -0.550 OA
ENDBRANCH   1   2
BRANCH   1   5
ATOM      5  C   UNL     1     -20.537   2.060 -24.700  1.00  0.00     0.003 C 
ATOM      6  C   UNL     1     -20.532   2.460 -23.228  1.00  0.00     0.004 C 
ENDBRANCH   1   5
TORSDOF 2
ENDMDL
MODEL 6
REMARK VINA RESULT:    -2.647     10.869     11.509
REMARK INTER + INTRA:          -2.980
REMARK INTER:                  -2.970
REMARK INTRA:                  -0.010
REMARK UNBOUND:                -0.024
REMARK SMILES CCCC(=O)[O-]
REMARK SMILES IDX 3 1 4 2 5 3 6 4 2 5 1 6
REMARK H PARENT
REMARK Flexibility Score: inf
ROOT
ATOM      1  C   UNL     1     -14.919  -2.617 -16.108  1.00  0.00     0.052 C 
ENDROOT
BRANCH   1   2
ATOM      2  C   UNL     1     -15.734  -3.698 -16.744  1.00  0.00     0.041 C 
ATOM      3  O   UNL     1     -16.819  -3.420 -17.317  1.00  0.00    -0.550 OA
ATOM      4  O   UNL     1     -15.317  -5.022 -16.662  1.00  0.00    -0.550 OA
ENDBRANCH   1   2
BRANCH   1   5
ATOM      5  C   UNL     1     -15.162  -1.279 -16.811  1.00  0.00     0.003 C 
ATOM      6  C   UNL     1     -14.307  -0.172 -16.201  1.00  0.00     0.004 C 
ENDBRANCH   1   5
TORSDOF 2
ENDMDL
MODEL 7
REMARK VINA RESULT:    -2.640     13.890     14.588
REMARK INTER + INTRA:          -2.974
REMARK INTER:                  -2.951
REMARK INTRA:                  -0.022
REMARK UNBOUND:                -0.024
REMARK SMILES CCCC(=O)[O-]
REMARK SMILES IDX 3 1 4 2 5 3 6 4 2 5 1 6
REMARK H PARENT
REMARK Flexibility Score: inf
ROOT
ATOM      1  C   UNL     1      -7.023  -0.858 -22.699  1.00  0.00     0.052 C 
ENDROOT
BRANCH   1   2
ATOM      2  C   UNL     1      -6.505  -2.197 -23.120  1.00  0.00     0.041 C 
ATOM      3  O   UNL     1      -5.462  -2.667 -22.595  1.00  0.00    -0.550 OA
ATOM      4  O   UNL     1      -7.150  -2.906 -24.127  1.00  0.00    -0.550 OA
ENDBRANCH   1   2
BRANCH   1   5
ATOM      5  C   UNL     1      -6.108   0.256 -23.215  1.00  0.00     0.003 C 
ATOM      6  C   UNL     1      -5.828   1.287 -22.126  1.00  0.00     0.004 C 
ENDBRANCH   1   5
TORSDOF 2
ENDMDL
MODEL 8
REMARK VINA RESULT:    -2.469     13.248     13.847
REMARK INTER + INTRA:          -2.782
REMARK INTER:                  -2.740
REMARK INTRA:                  -0.042
REMARK UNBOUND:                -0.024
REMARK SMILES CCCC(=O)[O-]
REMARK SMILES IDX 3 1 4 2 5 3 6 4 2 5 1 6
REMARK H PARENT
REMARK Flexibility Score: inf
ROOT
ATOM      1  C   UNL     1     -10.125  -9.431 -27.503  1.00  0.00     0.052 C 
ENDROOT
BRANCH   1   2
ATOM      2  C   UNL     1     -10.078  -8.983 -26.076  1.00  0.00     0.041 C 
ATOM      3  O   UNL     1     -10.130  -9.828 -25.145  1.00  0.00    -0.550 OA
ATOM      4  O   UNL     1     -10.024  -7.627 -25.775  1.00  0.00    -0.550 OA
ENDBRANCH   1   2
BRANCH   1   5
ATOM      5  C   UNL     1     -11.527  -9.224 -28.083  1.00  0.00     0.003 C 
ATOM      6  C   UNL     1     -12.361 -10.496 -27.975  1.00  0.00     0.004 C 
ENDBRANCH   1   5
TORSDOF 2
ENDMDL
MODEL 9
REMARK VINA RESULT:    -2.438     14.802     15.723
REMARK INTER + INTRA:          -2.747
REMARK INTER:                  -2.742
REMARK INTRA:                  -0.005
REMARK UNBOUND:                -0.024
REMARK SMILES CCCC(=O)[O-]
REMARK SMILES IDX 3 1 4 2 5 3 6 4 2 5 1 6
REMARK H PARENT
REMARK Flexibility Score: inf
ROOT
ATOM      1  C   UNL     1     -11.433 -12.867 -27.017  1.00  0.00     0.052 C 
ENDROOT
BRANCH   1   2
ATOM      2  C   UNL     1     -11.679 -11.402 -26.839  1.00  0.00     0.041 C 
ATOM      3  O   UNL     1     -11.137 -10.779 -25.889  1.00  0.00    -0.550 OA
ATOM      4  O   UNL     1     -12.547 -10.734 -27.696  1.00  0.00    -0.550 OA
ENDBRANCH   1   2
BRANCH   1   5
ATOM      5  C   UNL     1     -12.660 -13.673 -26.583  1.00  0.00     0.003 C 
ATOM      6  C   UNL     1     -12.290 -15.125 -26.294  1.00  0.00     0.004 C 
ENDBRANCH   1   5
TORSDOF 2
ENDMDL
