MODEL 1
REMARK VINA RESULT:    -4.044      0.000      0.000
REMARK INTER + INTRA:         -15.430
REMARK INTER:                 -10.190
REMARK INTRA:                  -5.239
REMARK UNBOUND:                -5.239
REMARK SMILES CCCCCCCCCCCCCCCCCCCCCCCCCCCC(=O)[O-]
REMARK SMILES IDX 15 1 16 2 17 3 18 4 19 5 20 6 21 7 22 8 23 9 24 10 25 11
REMARK SMILES IDX 26 12 27 13 28 14 29 15 30 16 14 17 13 18 12 19 11 20 10 21
REMARK SMILES IDX 9 22 8 23 7 24 6 25 5 26 4 27 3 28 2 29 1 30
REMARK H PARENT
REMARK Flexibility Score: inf
ROOT
ATOM      1  C   UNL     1       3.044  18.965  27.575  1.00  0.00     0.000 C 
ENDROOT
BRANCH   1   2
ATOM      2  C   UNL     1       3.182  17.435  27.705  1.00  0.00     0.000 C 
BRANCH   2   3
ATOM      3  C   UNL     1       1.857  16.656  27.618  1.00  0.00     0.000 C 
BRANCH   3   4
ATOM      4  C   UNL     1       0.627  17.578  27.617  1.00  0.00     0.000 C 
BRANCH   4   5
ATOM      5  C   UNL     1      -0.140  17.540  28.948  1.00  0.00     0.000 C 
BRANCH   5   6
ATOM      6  C   UNL     1       0.054  18.822  29.777  1.00  0.00     0.000 C 
BRANCH   6   7
ATOM      7  C   UNL     1       1.208  18.684  30.794  1.00  0.00     0.000 C 
BRANCH   7   8
ATOM      8  C   UNL     1       1.329  17.277  31.405  1.00  0.00     0.000 C 
BRANCH   8   9
ATOM      9  C   UNL     1       2.746  16.693  31.289  1.00  0.00     0.000 C 
BRANCH   9  10
ATOM     10  C   UNL     1       2.746  15.205  30.896  1.00  0.00     0.000 C 
BRANCH  10  11
ATOM     11  C   UNL     1       1.397  14.482  31.083  1.00  0.00     0.000 C 
BRANCH  11  12
ATOM     12  C   UNL     1       0.781  13.907  29.796  1.00  0.00     0.006 C 
BRANCH  12  13
ATOM     13  C   UNL     1      -0.752  13.846  29.844  1.00  0.00     0.053 C 
BRANCH  13  14
ATOM     14  C   UNL     1      -1.206  12.616  30.567  1.00  0.00     0.041 C 
ATOM     15  O   UNL     1      -2.208  12.661  31.329  1.00  0.00    -0.550 OA
ATOM     16  O   UNL     1      -0.496  11.429  30.432  1.00  0.00    -0.550 OA
ENDBRANCH  13  14
ENDBRANCH  12  13
ENDBRANCH  11  12
ENDBRANCH  10  11
ENDBRANCH   9  10
ENDBRANCH   8   9
ENDBRANCH   7   8
ENDBRANCH   6   7
ENDBRANCH   5   6
ENDBRANCH   4   5
ENDBRANCH   3   4
ENDBRANCH   2   3
ENDBRANCH   1   2
BRANCH   1  17
ATOM     17  C   UNL     1       3.874  19.784  28.584  1.00  0.00     0.000 C 
BRANCH  17  18
ATOM     18  C   UNL     1       4.981  18.994  29.304  1.00  0.00     0.000 C 
BRANCH  18  19
ATOM     19  C   UNL     1       5.150  19.409  30.774  1.00  0.00     0.000 C 
BRANCH  19  20
ATOM     20  C   UNL     1       4.400  20.718  31.064  1.00  0.00     0.000 C 
BRANCH  20  21
ATOM     21  C   UNL     1       5.348  21.919  31.217  1.00  0.00     0.000 C 
BRANCH  21  22
ATOM     22  C   UNL     1       5.286  22.875  30.012  1.00  0.00    -0.000 C 
BRANCH  22  23
ATOM     23  C   UNL     1       6.656  23.062  29.339  1.00  0.00    -0.000 C 
BRANCH  23  24
ATOM     24  C   UNL     1       6.810  22.212  28.069  1.00  0.00    -0.000 C 
BRANCH  24  25
ATOM     25  C   UNL     1       7.804  21.065  28.295  1.00  0.00    -0.000 C 
BRANCH  25  26
ATOM     26  C   UNL     1       8.710  21.353  29.501  1.00  0.00    -0.000 C 
BRANCH  26  27
ATOM     27  C   UNL     1       8.677  20.225  30.544  1.00  0.00    -0.000 C 
BRANCH  27  28
ATOM     28  C   UNL     1       9.867  19.262  30.413  1.00  0.00    -0.000 C 
BRANCH  28  29
ATOM     29  C   UNL     1      11.147  20.022  30.044  1.00  0.00    -0.003 C 
ATOM     30  C   UNL     1      11.962  20.365  31.290  1.00  0.00     0.004 C 
ENDBRANCH  28  29
ENDBRANCH  27  28
ENDBRANCH  26  27
ENDBRANCH  25  26
ENDBRANCH  24  25
ENDBRANCH  23  24
ENDBRANCH  22  23
ENDBRANCH  21  22
ENDBRANCH  20  21
ENDBRANCH  19  20
ENDBRANCH  18  19
ENDBRANCH  17  18
ENDBRANCH   1  17
TORSDOF 26
ENDMDL
MODEL 2
REMARK VINA RESULT:    -3.980      2.364      4.006
REMARK INTER + INTRA:         -15.269
REMARK INTER:                 -11.166
REMARK INTRA:                  -4.104
REMARK UNBOUND:                -5.239
REMARK SMILES CCCCCCCCCCCCCCCCCCCCCCCCCCCC(=O)[O-]
REMARK SMILES IDX 15 1 16 2 17 3 18 4 19 5 20 6 21 7 22 8 23 9 24 10 25 11
REMARK SMILES IDX 26 12 27 13 28 14 29 15 30 16 14 17 13 18 12 19 11 20 10 21
REMARK SMILES IDX 9 22 8 23 7 24 6 25 5 26 4 27 3 28 2 29 1 30
REMARK H PARENT
REMARK Flexibility Score: inf
ROOT
ATOM      1  C   UNL     1      -0.628  22.428  30.706  1.00  0.00     0.000 C 
ENDROOT
BRANCH   1   2
ATOM      2  C   UNL     1      -0.283  20.995  30.252  1.00  0.00     0.000 C 
BRANCH   2   3
ATOM      3  C   UNL     1       0.993  20.407  30.882  1.00  0.00     0.000 C 
BRANCH   3   4
ATOM      4  C   UNL     1       2.195  20.440  29.924  1.00  0.00     0.000 C 
BRANCH   4   5
ATOM      5  C   UNL     1       3.328  19.501  30.365  1.00  0.00     0.000 C 
BRANCH   5   6
ATOM      6  C   UNL     1       3.762  18.536  29.248  1.00  0.00     0.000 C 
BRANCH   6   7
ATOM      7  C   UNL     1       2.858  18.647  28.002  1.00  0.00     0.000 C 
BRANCH   7   8
ATOM      8  C   UNL     1       2.187  17.320  27.605  1.00  0.00     0.000 C 
BRANCH   8   9
ATOM      9  C   UNL     1       0.652  17.393  27.635  1.00  0.00     0.000 C 
BRANCH   9  10
ATOM     10  C   UNL     1       0.086  17.449  29.064  1.00  0.00     0.000 C 
BRANCH  10  11
ATOM     11  C   UNL     1       0.611  16.355  30.015  1.00  0.00     0.000 C 
BRANCH  11  12
ATOM     12  C   UNL     1       0.166  14.923  29.671  1.00  0.00     0.006 C 
BRANCH  12  13
ATOM     13  C   UNL     1       1.248  13.875  29.966  1.00  0.00     0.053 C 
BRANCH  13  14
ATOM     14  C   UNL     1       1.586  13.107  28.726  1.00  0.00     0.041 C 
ATOM     15  O   UNL     1       1.001  12.019  28.475  1.00  0.00    -0.550 OA
ATOM     16  O   UNL     1       2.576  13.571  27.870  1.00  0.00    -0.550 OA
ENDBRANCH  13  14
ENDBRANCH  12  13
ENDBRANCH  11  12
ENDBRANCH  10  11
ENDBRANCH   9  10
ENDBRANCH   8   9
ENDBRANCH   7   8
ENDBRANCH   6   7
ENDBRANCH   5   6
ENDBRANCH   4   5
ENDBRANCH   3   4
ENDBRANCH   2   3
ENDBRANCH   1   2
BRANCH   1  17
ATOM     17  C   UNL     1       0.040  23.551  29.887  1.00  0.00     0.000 C 
BRANCH  17  18
ATOM     18  C   UNL     1       0.979  24.467  30.691  1.00  0.00     0.000 C 
BRANCH  18  19
ATOM     19  C   UNL     1       1.475  23.817  31.992  1.00  0.00     0.000 C 
BRANCH  19  20
ATOM     20  C   UNL     1       2.989  23.565  31.938  1.00  0.00     0.000 C 
BRANCH  20  21
ATOM     21  C   UNL     1       3.633  24.114  30.654  1.00  0.00     0.000 C 
BRANCH  21  22
ATOM     22  C   UNL     1       5.169  24.009  30.674  1.00  0.00    -0.000 C 
BRANCH  22  23
ATOM     23  C   UNL     1       5.662  22.742  31.392  1.00  0.00    -0.000 C 
BRANCH  23  24
ATOM     24  C   UNL     1       6.507  21.839  30.482  1.00  0.00    -0.000 C 
BRANCH  24  25
ATOM     25  C   UNL     1       5.883  21.735  29.084  1.00  0.00    -0.000 C 
BRANCH  25  26
ATOM     26  C   UNL     1       6.925  22.029  27.994  1.00  0.00    -0.000 C 
BRANCH  26  27
ATOM     27  C   UNL     1       7.923  23.120  28.413  1.00  0.00    -0.000 C 
BRANCH  27  28
ATOM     28  C   UNL     1       9.385  22.690  28.219  1.00  0.00    -0.000 C 
BRANCH  28  29
ATOM     29  C   UNL     1       9.480  21.188  27.926  1.00  0.00    -0.003 C 
ATOM     30  C   UNL     1      10.108  20.931  26.558  1.00  0.00     0.004 C 
ENDBRANCH  28  29
ENDBRANCH  27  28
ENDBRANCH  26  27
ENDBRANCH  25  26
ENDBRANCH  24  25
ENDBRANCH  23  24
ENDBRANCH  22  23
ENDBRANCH  21  22
ENDBRANCH  20  21
ENDBRANCH  19  20
ENDBRANCH  18  19
ENDBRANCH  17  18
ENDBRANCH   1  17
TORSDOF 26
ENDMDL
MODEL 3
REMARK VINA RESULT:    -3.917      1.521      2.811
REMARK INTER + INTRA:         -15.109
REMARK INTER:                 -10.890
REMARK INTRA:                  -4.219
REMARK UNBOUND:                -5.239
REMARK SMILES CCCCCCCCCCCCCCCCCCCCCCCCCCCC(=O)[O-]
REMARK SMILES IDX 15 1 16 2 17 3 18 4 19 5 20 6 21 7 22 8 23 9 24 10 25 11
REMARK SMILES IDX 26 12 27 13 28 14 29 15 30 16 14 17 13 18 12 19 11 20 10 21
REMARK SMILES IDX 9 22 8 23 7 24 6 25 5 26 4 27 3 28 2 29 1 30
REMARK H PARENT
REMARK Flexibility Score: inf
ROOT
ATOM      1  C   UNL     1       0.665  17.481  27.262  1.00  0.00     0.000 C 
ENDROOT
BRANCH   1   2
ATOM      2  C   UNL     1      -0.403  17.616  28.366  1.00  0.00     0.000 C 
BRANCH   2   3
ATOM      3  C   UNL     1       0.151  17.645  29.802  1.00  0.00     0.000 C 
BRANCH   3   4
ATOM      4  C   UNL     1       0.659  19.038  30.212  1.00  0.00     0.000 C 
BRANCH   4   5
ATOM      5  C   UNL     1       1.612  18.988  31.415  1.00  0.00     0.000 C 
BRANCH   5   6
ATOM      6  C   UNL     1       1.920  17.550  31.866  1.00  0.00     0.000 C 
BRANCH   6   7
ATOM      7  C   UNL     1       3.429  17.328  32.104  1.00  0.00     0.000 C 
BRANCH   7   8
ATOM      8  C   UNL     1       3.947  15.979  31.572  1.00  0.00     0.000 C 
BRANCH   8   9
ATOM      9  C   UNL     1       2.940  15.272  30.651  1.00  0.00     0.000 C 
BRANCH   9  10
ATOM     10  C   UNL     1       2.822  13.766  30.943  1.00  0.00     0.000 C 
BRANCH  10  11
ATOM     11  C   UNL     1       1.424  13.298  31.395  1.00  0.00     0.000 C 
BRANCH  11  12
ATOM     12  C   UNL     1       0.276  14.271  31.074  1.00  0.00     0.006 C 
BRANCH  12  13
ATOM     13  C   UNL     1      -0.531  13.854  29.836  1.00  0.00     0.053 C 
BRANCH  13  14
ATOM     14  C   UNL     1      -0.483  12.369  29.655  1.00  0.00     0.041 C 
ATOM     15  O   UNL     1       0.263  11.861  28.776  1.00  0.00    -0.550 OA
ATOM     16  O   UNL     1      -1.295  11.548  30.428  1.00  0.00    -0.550 OA
ENDBRANCH  13  14
ENDBRANCH  12  13
ENDBRANCH  11  12
ENDBRANCH  10  11
ENDBRANCH   9  10
ENDBRANCH   8   9
ENDBRANCH   7   8
ENDBRANCH   6   7
ENDBRANCH   5   6
ENDBRANCH   4   5
ENDBRANCH   3   4
ENDBRANCH   2   3
ENDBRANCH   1   2
BRANCH   1  17
ATOM     17  C   UNL     1       1.801  16.485  27.571  1.00  0.00     0.000 C 
BRANCH  17  18
ATOM     18  C   UNL     1       3.222  17.052  27.407  1.00  0.00     0.000 C 
BRANCH  18  19
ATOM     19  C   UNL     1       3.332  18.520  27.847  1.00  0.00     0.000 C 
BRANCH  19  20
ATOM     20  C   UNL     1       4.521  18.720  28.798  1.00  0.00     0.000 C 
BRANCH  20  21
ATOM     21  C   UNL     1       4.768  20.201  29.131  1.00  0.00     0.000 C 
BRANCH  21  22
ATOM     22  C   UNL     1       5.824  20.843  28.213  1.00  0.00    -0.000 C 
BRANCH  22  23
ATOM     23  C   UNL     1       6.336  22.187  28.756  1.00  0.00    -0.000 C 
BRANCH  23  24
ATOM     24  C   UNL     1       7.756  22.086  29.334  1.00  0.00    -0.000 C 
BRANCH  24  25
ATOM     25  C   UNL     1       8.757  22.859  28.465  1.00  0.00    -0.000 C 
BRANCH  25  26
ATOM     26  C   UNL     1       9.449  21.924  27.462  1.00  0.00    -0.000 C 
BRANCH  26  27
ATOM     27  C   UNL     1      10.347  20.884  28.149  1.00  0.00    -0.000 C 
BRANCH  27  28
ATOM     28  C   UNL     1      10.612  19.655  27.266  1.00  0.00    -0.000 C 
BRANCH  28  29
ATOM     29  C   UNL     1       9.296  18.993  26.839  1.00  0.00    -0.003 C 
ATOM     30  C   UNL     1       8.569  18.388  28.037  1.00  0.00     0.004 C 
ENDBRANCH  28  29
ENDBRANCH  27  28
ENDBRANCH  26  27
ENDBRANCH  25  26
ENDBRANCH  24  25
ENDBRANCH  23  24
ENDBRANCH  22  23
ENDBRANCH  21  22
ENDBRANCH  20  21
ENDBRANCH  19  20
ENDBRANCH  18  19
ENDBRANCH  17  18
ENDBRANCH   1  17
TORSDOF 26
ENDMDL
MODEL 4
REMARK VINA RESULT:    -3.848      1.427      2.287
REMARK INTER + INTRA:         -14.937
REMARK INTER:                 -10.610
REMARK INTRA:                  -4.327
REMARK UNBOUND:                -5.239
REMARK SMILES CCCCCCCCCCCCCCCCCCCCCCCCCCCC(=O)[O-]
REMARK SMILES IDX 15 1 16 2 17 3 18 4 19 5 20 6 21 7 22 8 23 9 24 10 25 11
REMARK SMILES IDX 26 12 27 13 28 14 29 15 30 16 14 17 13 18 12 19 11 20 10 21
REMARK SMILES IDX 9 22 8 23 7 24 6 25 5 26 4 27 3 28 2 29 1 30
REMARK H PARENT
REMARK Flexibility Score: inf
ROOT
ATOM      1  C   UNL     1       3.137  17.295  27.812  1.00  0.00     0.000 C 
ENDROOT
BRANCH   1   2
ATOM      2  C   UNL     1       1.790  18.037  27.699  1.00  0.00     0.000 C 
BRANCH   2   3
ATOM      3  C   UNL     1       0.559  17.209  28.110  1.00  0.00     0.000 C 
BRANCH   3   4
ATOM      4  C   UNL     1      -0.047  17.674  29.445  1.00  0.00     0.000 C 
BRANCH   4   5
ATOM      5  C   UNL     1       0.512  19.028  29.908  1.00  0.00     0.000 C 
BRANCH   5   6
ATOM      6  C   UNL     1       1.220  18.939  31.271  1.00  0.00     0.000 C 
BRANCH   6   7
ATOM      7  C   UNL     1       1.383  17.479  31.745  1.00  0.00     0.000 C 
BRANCH   7   8
ATOM      8  C   UNL     1       2.793  16.907  31.514  1.00  0.00     0.000 C 
BRANCH   8   9
ATOM      9  C   UNL     1       2.776  15.461  30.992  1.00  0.00     0.000 C 
BRANCH   9  10
ATOM     10  C   UNL     1       1.418  14.770  31.198  1.00  0.00     0.000 C 
BRANCH  10  11
ATOM     11  C   UNL     1       0.879  14.012  29.968  1.00  0.00     0.000 C 
BRANCH  11  12
ATOM     12  C   UNL     1      -0.647  13.820  29.937  1.00  0.00     0.006 C 
BRANCH  12  13
ATOM     13  C   UNL     1      -1.060  12.346  29.822  1.00  0.00     0.053 C 
BRANCH  13  14
ATOM     14  C   UNL     1      -1.419  11.795  31.167  1.00  0.00     0.041 C 
ATOM     15  O   UNL     1      -0.532  11.650  32.050  1.00  0.00    -0.550 OA
ATOM     16  O   UNL     1      -2.725  11.403  31.431  1.00  0.00    -0.550 OA
ENDBRANCH  13  14
ENDBRANCH  12  13
ENDBRANCH  11  12
ENDBRANCH  10  11
ENDBRANCH   9  10
ENDBRANCH   8   9
ENDBRANCH   7   8
ENDBRANCH   6   7
ENDBRANCH   5   6
ENDBRANCH   4   5
ENDBRANCH   3   4
ENDBRANCH   2   3
ENDBRANCH   1   2
BRANCH   1  17
ATOM     17  C   UNL     1       4.286  18.117  28.428  1.00  0.00     0.000 C 
BRANCH  17  18
ATOM     18  C   UNL     1       4.017  19.629  28.531  1.00  0.00     0.000 C 
BRANCH  18  19
ATOM     19  C   UNL     1       4.277  20.186  29.940  1.00  0.00     0.000 C 
BRANCH  19  20
ATOM     20  C   UNL     1       5.632  20.906  30.004  1.00  0.00     0.000 C 
BRANCH  20  21
ATOM     21  C   UNL     1       5.495  22.433  29.880  1.00  0.00     0.000 C 
BRANCH  21  22
ATOM     22  C   UNL     1       6.808  23.109  29.444  1.00  0.00    -0.000 C 
BRANCH  22  23
ATOM     23  C   UNL     1       7.326  22.574  28.098  1.00  0.00    -0.000 C 
BRANCH  23  24
ATOM     24  C   UNL     1       8.858  22.610  28.000  1.00  0.00    -0.000 C 
BRANCH  24  25
ATOM     25  C   UNL     1       9.488  21.521  28.878  1.00  0.00    -0.000 C 
BRANCH  25  26
ATOM     26  C   UNL     1      10.226  20.483  28.021  1.00  0.00    -0.000 C 
BRANCH  26  27
ATOM     27  C   UNL     1       9.265  19.553  27.264  1.00  0.00    -0.000 C 
BRANCH  27  28
ATOM     28  C   UNL     1       8.186  18.949  28.176  1.00  0.00    -0.000 C 
BRANCH  28  29
ATOM     29  C   UNL     1       8.467  17.467  28.451  1.00  0.00    -0.003 C 
ATOM     30  C   UNL     1       7.592  16.569  27.578  1.00  0.00     0.004 C 
ENDBRANCH  28  29
ENDBRANCH  27  28
ENDBRANCH  26  27
ENDBRANCH  25  26
ENDBRANCH  24  25
ENDBRANCH  23  24
ENDBRANCH  22  23
ENDBRANCH  21  22
ENDBRANCH  20  21
ENDBRANCH  19  20
ENDBRANCH  18  19
ENDBRANCH  17  18
ENDBRANCH   1  17
TORSDOF 26
ENDMDL
MODEL 5
REMARK VINA RESULT:    -3.827      2.352      5.608
REMARK INTER + INTRA:         -14.882
REMARK INTER:                  -8.783
REMARK INTRA:                  -6.099
REMARK UNBOUND:                -5.239
REMARK SMILES CCCCCCCCCCCCCCCCCCCCCCCCCCCC(=O)[O-]
REMARK SMILES IDX 15 1 16 2 17 3 18 4 19 5 20 6 21 7 22 8 23 9 24 10 25 11
REMARK SMILES IDX 26 12 27 13 28 14 29 15 30 16 14 17 13 18 12 19 11 20 10 21
REMARK SMILES IDX 9 22 8 23 7 24 6 25 5 26 4 27 3 28 2 29 1 30
REMARK H PARENT
REMARK Flexibility Score: inf
ROOT
ATOM      1  C   UNL     1       4.222  12.789  29.152  1.00  0.00     0.000 C 
ENDROOT
BRANCH   1   2
ATOM      2  C   UNL     1       5.707  12.587  29.512  1.00  0.00     0.000 C 
BRANCH   2   3
ATOM      3  C   UNL     1       6.704  13.230  28.530  1.00  0.00     0.000 C 
BRANCH   3   4
ATOM      4  C   UNL     1       7.365  14.496  29.100  1.00  0.00     0.000 C 
BRANCH   4   5
ATOM      5  C   UNL     1       6.990  15.762  28.316  1.00  0.00     0.000 C 
BRANCH   5   6
ATOM      6  C   UNL     1       6.300  16.819  29.196  1.00  0.00     0.000 C 
BRANCH   6   7
ATOM      7  C   UNL     1       5.719  16.206  30.489  1.00  0.00     0.000 C 
BRANCH   7   8
ATOM      8  C   UNL     1       4.280  16.658  30.796  1.00  0.00     0.000 C 
BRANCH   8   9
ATOM      9  C   UNL     1       3.413  15.537  31.390  1.00  0.00     0.000 C 
BRANCH   9  10
ATOM     10  C   UNL     1       1.928  15.667  31.009  1.00  0.00     0.000 C 
BRANCH  10  11
ATOM     11  C   UNL     1       1.130  14.348  31.045  1.00  0.00     0.000 C 
BRANCH  11  12
ATOM     12  C   UNL     1      -0.136  14.328  30.171  1.00  0.00     0.006 C 
BRANCH  12  13
ATOM     13  C   UNL     1      -0.518  12.915  29.707  1.00  0.00     0.053 C 
BRANCH  13  14
ATOM     14  C   UNL     1      -1.168  12.156  30.822  1.00  0.00     0.041 C 
ATOM     15  O   UNL     1      -0.978  10.916  30.940  1.00  0.00    -0.550 OA
ATOM     16  O   UNL     1      -2.019  12.809  31.704  1.00  0.00    -0.550 OA
ENDBRANCH  13  14
ENDBRANCH  12  13
ENDBRANCH  11  12
ENDBRANCH  10  11
ENDBRANCH   9  10
ENDBRANCH   8   9
ENDBRANCH   7   8
ENDBRANCH   6   7
ENDBRANCH   5   6
ENDBRANCH   4   5
ENDBRANCH   3   4
ENDBRANCH   2   3
ENDBRANCH   1   2
BRANCH   1  17
ATOM     17  C   UNL     1       3.949  13.875  28.093  1.00  0.00     0.000 C 
BRANCH  17  18
ATOM     18  C   UNL     1       2.490  13.956  27.609  1.00  0.00     0.000 C 
BRANCH  18  19
ATOM     19  C   UNL     1       2.180  15.265  26.866  1.00  0.00     0.000 C 
BRANCH  19  20
ATOM     20  C   UNL     1       2.978  16.435  27.461  1.00  0.00     0.000 C 
BRANCH  20  21
ATOM     21  C   UNL     1       2.081  17.624  27.845  1.00  0.00     0.000 C 
BRANCH  21  22
ATOM     22  C   UNL     1       0.592  17.239  27.919  1.00  0.00    -0.000 C 
BRANCH  22  23
ATOM     23  C   UNL     1      -0.137  17.931  29.082  1.00  0.00    -0.000 C 
BRANCH  23  24
ATOM     24  C   UNL     1       0.530  19.252  29.494  1.00  0.00    -0.000 C 
BRANCH  24  25
ATOM     25  C   UNL     1       0.829  19.269  30.998  1.00  0.00    -0.000 C 
BRANCH  25  26
ATOM     26  C   UNL     1       2.309  19.584  31.260  1.00  0.00    -0.000 C 
BRANCH  26  27
ATOM     27  C   UNL     1       2.933  20.445  30.151  1.00  0.00    -0.000 C 
BRANCH  27  28
ATOM     28  C   UNL     1       4.402  20.085  29.878  1.00  0.00    -0.000 C 
BRANCH  28  29
ATOM     29  C   UNL     1       4.726  20.202  28.384  1.00  0.00    -0.003 C 
ATOM     30  C   UNL     1       6.008  21.001  28.158  1.00  0.00     0.004 C 
ENDBRANCH  28  29
ENDBRANCH  27  28
ENDBRANCH  26  27
ENDBRANCH  25  26
ENDBRANCH  24  25
ENDBRANCH  23  24
ENDBRANCH  22  23
ENDBRANCH  21  22
ENDBRANCH  20  21
ENDBRANCH  19  20
ENDBRANCH  18  19
ENDBRANCH  17  18
ENDBRANCH   1  17
TORSDOF 26
ENDMDL
MODEL 6
REMARK VINA RESULT:    -3.824      2.126      3.333
REMARK INTER + INTRA:         -14.875
REMARK INTER:                 -10.631
REMARK INTRA:                  -4.243
REMARK UNBOUND:                -5.239
REMARK SMILES CCCCCCCCCCCCCCCCCCCCCCCCCCCC(=O)[O-]
REMARK SMILES IDX 15 1 16 2 17 3 18 4 19 5 20 6 21 7 22 8 23 9 24 10 25 11
REMARK SMILES IDX 26 12 27 13 28 14 29 15 30 16 14 17 13 18 12 19 11 20 10 21
REMARK SMILES IDX 9 22 8 23 7 24 6 25 5 26 4 27 3 28 2 29 1 30
REMARK H PARENT
REMARK Flexibility Score: inf
ROOT
ATOM      1  C   UNL     1       1.140  21.701  30.251  1.00  0.00     0.000 C 
ENDROOT
BRANCH   1   2
ATOM      2  C   UNL     1      -0.128  20.823  30.269  1.00  0.00     0.000 C 
BRANCH   2   3
ATOM      3  C   UNL     1       0.136  19.306  30.234  1.00  0.00     0.000 C 
BRANCH   3   4
ATOM      4  C   UNL     1      -0.730  18.579  29.191  1.00  0.00     0.000 C 
BRANCH   4   5
ATOM      5  C   UNL     1       0.077  17.581  28.346  1.00  0.00     0.000 C 
BRANCH   5   6
ATOM      6  C   UNL     1       1.545  17.479  28.795  1.00  0.00     0.000 C 
BRANCH   6   7
ATOM      7  C   UNL     1       2.517  18.006  27.718  1.00  0.00     0.000 C 
BRANCH   7   8
ATOM      8  C   UNL     1       3.831  17.210  27.627  1.00  0.00     0.000 C 
BRANCH   8   9
ATOM      9  C   UNL     1       4.199  16.508  28.944  1.00  0.00     0.000 C 
BRANCH   9  10
ATOM     10  C   UNL     1       4.496  15.010  28.759  1.00  0.00     0.000 C 
BRANCH  10  11
ATOM     11  C   UNL     1       3.671  14.315  27.657  1.00  0.00     0.000 C 
BRANCH  11  12
ATOM     12  C   UNL     1       2.271  13.846  28.088  1.00  0.00     0.006 C 
BRANCH  12  13
ATOM     13  C   UNL     1       2.162  13.607  29.600  1.00  0.00     0.053 C 
BRANCH  13  14
ATOM     14  C   UNL     1       2.369  12.159  29.919  1.00  0.00     0.041 C 
ATOM     15  O   UNL     1       3.504  11.745  30.277  1.00  0.00    -0.550 OA
ATOM     16  O   UNL     1       1.320  11.260  29.780  1.00  0.00    -0.550 OA
ENDBRANCH  13  14
ENDBRANCH  12  13
ENDBRANCH  11  12
ENDBRANCH  10  11
ENDBRANCH   9  10
ENDBRANCH   8   9
ENDBRANCH   7   8
ENDBRANCH   6   7
ENDBRANCH   5   6
ENDBRANCH   4   5
ENDBRANCH   3   4
ENDBRANCH   2   3
ENDBRANCH   1   2
BRANCH   1  17
ATOM     17  C   UNL     1       2.427  20.981  29.803  1.00  0.00     0.000 C 
BRANCH  17  18
ATOM     18  C   UNL     1       3.534  20.909  30.870  1.00  0.00     0.000 C 
BRANCH  18  19
ATOM     19  C   UNL     1       4.491  19.726  30.656  1.00  0.00     0.000 C 
BRANCH  19  20
ATOM     20  C   UNL     1       5.877  20.216  30.210  1.00  0.00     0.000 C 
BRANCH  20  21
ATOM     21  C   UNL     1       6.111  20.029  28.702  1.00  0.00     0.000 C 
BRANCH  21  22
ATOM     22  C   UNL     1       6.157  21.368  27.943  1.00  0.00    -0.000 C 
BRANCH  22  23
ATOM     23  C   UNL     1       6.649  22.527  28.824  1.00  0.00    -0.000 C 
BRANCH  23  24
ATOM     24  C   UNL     1       8.001  23.088  28.359  1.00  0.00    -0.000 C 
BRANCH  24  25
ATOM     25  C   UNL     1       9.162  22.260  28.927  1.00  0.00    -0.000 C 
BRANCH  25  26
ATOM     26  C   UNL     1       9.933  21.553  27.804  1.00  0.00    -0.000 C 
BRANCH  26  27
ATOM     27  C   UNL     1       9.644  20.044  27.751  1.00  0.00    -0.000 C 
BRANCH  27  28
ATOM     28  C   UNL     1       9.316  19.554  26.332  1.00  0.00    -0.000 C 
BRANCH  28  29
ATOM     29  C   UNL     1       9.370  18.023  26.255  1.00  0.00    -0.003 C 
ATOM     30  C   UNL     1       8.567  17.385  27.387  1.00  0.00     0.004 C 
ENDBRANCH  28  29
ENDBRANCH  27  28
ENDBRANCH  26  27
ENDBRANCH  25  26
ENDBRANCH  24  25
ENDBRANCH  23  24
ENDBRANCH  22  23
ENDBRANCH  21  22
ENDBRANCH  20  21
ENDBRANCH  19  20
ENDBRANCH  18  19
ENDBRANCH  17  18
ENDBRANCH   1  17
TORSDOF 26
ENDMDL
MODEL 7
REMARK VINA RESULT:    -3.811      2.766      4.088
REMARK INTER + INTRA:         -14.844
REMARK INTER:                 -10.780
REMARK INTRA:                  -4.064
REMARK UNBOUND:                -5.239
REMARK SMILES CCCCCCCCCCCCCCCCCCCCCCCCCCCC(=O)[O-]
REMARK SMILES IDX 15 1 16 2 17 3 18 4 19 5 20 6 21 7 22 8 23 9 24 10 25 11
REMARK SMILES IDX 26 12 27 13 28 14 29 15 30 16 14 17 13 18 12 19 11 20 10 21
REMARK SMILES IDX 9 22 8 23 7 24 6 25 5 26 4 27 3 28 2 29 1 30
REMARK H PARENT
REMARK Flexibility Score: inf
ROOT
ATOM      1  C   UNL     1       1.286  21.415  30.351  1.00  0.00     0.000 C 
ENDROOT
BRANCH   1   2
ATOM      2  C   UNL     1      -0.065  20.674  30.282  1.00  0.00     0.000 C 
BRANCH   2   3
ATOM      3  C   UNL     1       0.033  19.183  29.909  1.00  0.00     0.000 C 
BRANCH   3   4
ATOM      4  C   UNL     1      -1.235  18.663  29.212  1.00  0.00     0.000 C 
BRANCH   4   5
ATOM      5  C   UNL     1      -1.142  17.172  28.851  1.00  0.00     0.000 C 
BRANCH   5   6
ATOM      6  C   UNL     1       0.296  16.632  28.942  1.00  0.00     0.000 C 
BRANCH   6   7
ATOM      7  C   UNL     1       0.361  15.283  29.691  1.00  0.00     0.000 C 
BRANCH   7   8
ATOM      8  C   UNL     1       1.579  15.152  30.623  1.00  0.00     0.000 C 
BRANCH   8   9
ATOM      9  C   UNL     1       1.880  16.442  31.402  1.00  0.00     0.000 C 
BRANCH   9  10
ATOM     10  C   UNL     1       3.252  17.043  31.053  1.00  0.00     0.000 C 
BRANCH  10  11
ATOM     11  C   UNL     1       3.961  16.391  29.849  1.00  0.00     0.000 C 
BRANCH  11  12
ATOM     12  C   UNL     1       4.352  17.360  28.720  1.00  0.00     0.006 C 
BRANCH  12  13
ATOM     13  C   UNL     1       3.422  17.264  27.503  1.00  0.00     0.053 C 
BRANCH  13  14
ATOM     14  C   UNL     1       3.583  15.940  26.823  1.00  0.00     0.041 C 
ATOM     15  O   UNL     1       4.637  15.679  26.184  1.00  0.00    -0.550 OA
ATOM     16  O   UNL     1       2.551  15.010  26.859  1.00  0.00    -0.550 OA
ENDBRANCH  13  14
ENDBRANCH  12  13
ENDBRANCH  11  12
ENDBRANCH  10  11
ENDBRANCH   9  10
ENDBRANCH   8   9
ENDBRANCH   7   8
ENDBRANCH   6   7
ENDBRANCH   5   6
ENDBRANCH   4   5
ENDBRANCH   3   4
ENDBRANCH   2   3
ENDBRANCH   1   2
BRANCH   1  17
ATOM     17  C   UNL     1       2.529  20.503  30.388  1.00  0.00     0.000 C 
BRANCH  17  18
ATOM     18  C   UNL     1       3.869  21.226  30.164  1.00  0.00     0.000 C 
BRANCH  18  19
ATOM     19  C   UNL     1       5.069  20.442  30.717  1.00  0.00     0.000 C 
BRANCH  19  20
ATOM     20  C   UNL     1       6.198  20.362  29.679  1.00  0.00     0.000 C 
BRANCH  20  21
ATOM     21  C   UNL     1       5.800  20.976  28.326  1.00  0.00     0.000 C 
BRANCH  21  22
ATOM     22  C   UNL     1       6.665  22.195  27.956  1.00  0.00    -0.000 C 
BRANCH  22  23
ATOM     23  C   UNL     1       7.841  22.397  28.925  1.00  0.00    -0.000 C 
BRANCH  23  24
ATOM     24  C   UNL     1       9.157  22.712  28.198  1.00  0.00    -0.000 C 
BRANCH  24  25
ATOM     25  C   UNL     1       9.574  21.546  27.292  1.00  0.00    -0.000 C 
BRANCH  25  26
ATOM     26  C   UNL     1       9.888  20.291  28.121  1.00  0.00    -0.000 C 
BRANCH  26  27
ATOM     27  C   UNL     1       9.090  19.063  27.655  1.00  0.00    -0.000 C 
BRANCH  27  28
ATOM     28  C   UNL     1       9.379  18.691  26.192  1.00  0.00    -0.000 C 
BRANCH  28  29
ATOM     29  C   UNL     1       9.887  17.248  26.084  1.00  0.00    -0.003 C 
ATOM     30  C   UNL     1       9.581  16.657  24.710  1.00  0.00     0.004 C 
ENDBRANCH  28  29
ENDBRANCH  27  28
ENDBRANCH  26  27
ENDBRANCH  25  26
ENDBRANCH  24  25
ENDBRANCH  23  24
ENDBRANCH  22  23
ENDBRANCH  21  22
ENDBRANCH  20  21
ENDBRANCH  19  20
ENDBRANCH  18  19
ENDBRANCH  17  18
ENDBRANCH   1  17
TORSDOF 26
ENDMDL
MODEL 8
REMARK VINA RESULT:    -3.772      2.360      4.697
REMARK INTER + INTRA:         -14.744
REMARK INTER:                 -10.098
REMARK INTRA:                  -4.646
REMARK UNBOUND:                -5.239
REMARK SMILES CCCCCCCCCCCCCCCCCCCCCCCCCCCC(=O)[O-]
REMARK SMILES IDX 15 1 16 2 17 3 18 4 19 5 20 6 21 7 22 8 23 9 24 10 25 11
REMARK SMILES IDX 26 12 27 13 28 14 29 15 30 16 14 17 13 18 12 19 11 20 10 21
REMARK SMILES IDX 9 22 8 23 7 24 6 25 5 26 4 27 3 28 2 29 1 30
REMARK H PARENT
REMARK Flexibility Score: inf
ROOT
ATOM      1  C   UNL     1      -0.397  18.014  28.785  1.00  0.00     0.000 C 
ENDROOT
BRANCH   1   2
ATOM      2  C   UNL     1      -0.597  16.485  28.765  1.00  0.00     0.000 C 
BRANCH   2   3
ATOM      3  C   UNL     1       0.226  15.711  29.811  1.00  0.00     0.000 C 
BRANCH   3   4
ATOM      4  C   UNL     1       1.160  16.624  30.623  1.00  0.00     0.000 C 
BRANCH   4   5
ATOM      5  C   UNL     1       2.461  15.919  31.037  1.00  0.00     0.000 C 
BRANCH   5   6
ATOM      6  C   UNL     1       3.617  16.906  31.278  1.00  0.00     0.000 C 
BRANCH   6   7
ATOM      7  C   UNL     1       3.149  18.375  31.198  1.00  0.00     0.000 C 
BRANCH   7   8
ATOM      8  C   UNL     1       3.922  19.215  30.165  1.00  0.00     0.000 C 
BRANCH   8   9
ATOM      9  C   UNL     1       3.132  19.443  28.866  1.00  0.00     0.000 C 
BRANCH   9  10
ATOM     10  C   UNL     1       3.635  18.572  27.703  1.00  0.00     0.000 C 
BRANCH  10  11
ATOM     11  C   UNL     1       2.842  17.270  27.475  1.00  0.00     0.000 C 
BRANCH  11  12
ATOM     12  C   UNL     1       3.700  16.006  27.293  1.00  0.00     0.006 C 
BRANCH  12  13
ATOM     13  C   UNL     1       2.867  14.762  26.955  1.00  0.00     0.053 C 
BRANCH  13  14
ATOM     14  C   UNL     1       2.910  13.779  28.083  1.00  0.00     0.041 C 
ATOM     15  O   UNL     1       3.964  13.632  28.757  1.00  0.00    -0.550 OA
ATOM     16  O   UNL     1       1.798  12.995  28.363  1.00  0.00    -0.550 OA
ENDBRANCH  13  14
ENDBRANCH  12  13
ENDBRANCH  11  12
ENDBRANCH  10  11
ENDBRANCH   9  10
ENDBRANCH   8   9
ENDBRANCH   7   8
ENDBRANCH   6   7
ENDBRANCH   5   6
ENDBRANCH   4   5
ENDBRANCH   3   4
ENDBRANCH   2   3
ENDBRANCH   1   2
BRANCH   1  17
ATOM     17  C   UNL     1      -1.655  18.833  29.135  1.00  0.00     0.000 C 
BRANCH  17  18
ATOM     18  C   UNL     1      -1.384  20.147  29.889  1.00  0.00     0.000 C 
BRANCH  18  19
ATOM     19  C   UNL     1       0.009  20.186  30.535  1.00  0.00     0.000 C 
BRANCH  19  20
ATOM     20  C   UNL     1       0.669  21.558  30.333  1.00  0.00     0.000 C 
BRANCH  20  21
ATOM     21  C   UNL     1      -0.356  22.703  30.270  1.00  0.00     0.000 C 
BRANCH  21  22
ATOM     22  C   UNL     1       0.312  24.086  30.162  1.00  0.00    -0.000 C 
BRANCH  22  23
ATOM     23  C   UNL     1       1.542  24.218  31.075  1.00  0.00    -0.000 C 
BRANCH  23  24
ATOM     24  C   UNL     1       2.713  24.935  30.386  1.00  0.00    -0.000 C 
BRANCH  24  25
ATOM     25  C   UNL     1       4.048  24.552  31.037  1.00  0.00    -0.000 C 
BRANCH  25  26
ATOM     26  C   UNL     1       4.539  23.190  30.525  1.00  0.00    -0.000 C 
BRANCH  26  27
ATOM     27  C   UNL     1       5.999  23.232  30.048  1.00  0.00    -0.000 C 
BRANCH  27  28
ATOM     28  C   UNL     1       6.267  22.272  28.879  1.00  0.00    -0.000 C 
BRANCH  28  29
ATOM     29  C   UNL     1       7.265  21.180  29.284  1.00  0.00    -0.003 C 
ATOM     30  C   UNL     1       7.103  19.935  28.415  1.00  0.00     0.004 C 
ENDBRANCH  28  29
ENDBRANCH  27  28
ENDBRANCH  26  27
ENDBRANCH  25  26
ENDBRANCH  24  25
ENDBRANCH  23  24
ENDBRANCH  22  23
ENDBRANCH  21  22
ENDBRANCH  20  21
ENDBRANCH  19  20
ENDBRANCH  18  19
ENDBRANCH  17  18
ENDBRANCH   1  17
TORSDOF 26
ENDMDL
MODEL 9
REMARK VINA RESULT:    -3.741      4.077      9.128
REMARK INTER + INTRA:         -14.667
REMARK INTER:                 -10.244
REMARK INTRA:                  -4.423
REMARK UNBOUND:                -5.239
REMARK SMILES CCCCCCCCCCCCCCCCCCCCCCCCCCCC(=O)[O-]
REMARK SMILES IDX 15 1 16 2 17 3 18 4 19 5 20 6 21 7 22 8 23 9 24 10 25 11
REMARK SMILES IDX 26 12 27 13 28 14 29 15 30 16 14 17 13 18 12 19 11 20 10 21
REMARK SMILES IDX 9 22 8 23 7 24 6 25 5 26 4 27 3 28 2 29 1 30
REMARK H PARENT
REMARK Flexibility Score: inf
ROOT
ATOM      1  C   UNL     1       6.444  15.884  27.795  1.00  0.00     0.000 C 
ENDROOT
BRANCH   1   2
ATOM      2  C   UNL     1       7.652  16.777  28.142  1.00  0.00     0.000 C 
BRANCH   2   3
ATOM      3  C   UNL     1       7.710  17.246  29.608  1.00  0.00     0.000 C 
BRANCH   3   4
ATOM      4  C   UNL     1       7.502  18.762  29.753  1.00  0.00     0.000 C 
BRANCH   4   5
ATOM      5  C   UNL     1       7.003  19.417  28.456  1.00  0.00     0.000 C 
BRANCH   5   6
ATOM      6  C   UNL     1       5.993  20.548  28.716  1.00  0.00     0.000 C 
BRANCH   6   7
ATOM      7  C   UNL     1       6.361  21.840  27.956  1.00  0.00     0.000 C 
BRANCH   7   8
ATOM      8  C   UNL     1       7.086  22.883  28.825  1.00  0.00     0.000 C 
BRANCH   8   9
ATOM      9  C   UNL     1       8.486  23.235  28.296  1.00  0.00     0.000 C 
BRANCH   9  10
ATOM     10  C   UNL     1       9.494  22.087  28.469  1.00  0.00     0.000 C 
BRANCH  10  11
ATOM     11  C   UNL     1      10.081  21.533  27.155  1.00  0.00     0.000 C 
BRANCH  11  12
ATOM     12  C   UNL     1      10.435  20.035  27.179  1.00  0.00     0.006 C 
BRANCH  12  13
ATOM     13  C   UNL     1      10.841  19.541  28.574  1.00  0.00     0.053 C 
BRANCH  13  14
ATOM     14  C   UNL     1      11.704  18.322  28.468  1.00  0.00     0.041 C 
ATOM     15  O   UNL     1      12.882  18.415  28.030  1.00  0.00    -0.550 OA
ATOM     16  O   UNL     1      11.193  17.077  28.812  1.00  0.00    -0.550 OA
ENDBRANCH  13  14
ENDBRANCH  12  13
ENDBRANCH  11  12
ENDBRANCH  10  11
ENDBRANCH   9  10
ENDBRANCH   8   9
ENDBRANCH   7   8
ENDBRANCH   6   7
ENDBRANCH   5   6
ENDBRANCH   4   5
ENDBRANCH   3   4
ENDBRANCH   2   3
ENDBRANCH   1   2
BRANCH   1  17
ATOM     17  C   UNL     1       5.173  16.152  28.626  1.00  0.00     0.000 C 
BRANCH  17  18
ATOM     18  C   UNL     1       4.100  16.993  27.914  1.00  0.00     0.000 C 
BRANCH  18  19
ATOM     19  C   UNL     1       3.266  16.174  26.917  1.00  0.00     0.000 C 
BRANCH  19  20
ATOM     20  C   UNL     1       1.771  16.241  27.265  1.00  0.00     0.000 C 
BRANCH  20  21
ATOM     21  C   UNL     1       1.358  17.611  27.829  1.00  0.00     0.000 C 
BRANCH  21  22
ATOM     22  C   UNL     1      -0.121  17.651  28.255  1.00  0.00    -0.000 C 
BRANCH  22  23
ATOM     23  C   UNL     1      -0.380  18.656  29.389  1.00  0.00    -0.000 C 
BRANCH  23  24
ATOM     24  C   UNL     1       0.910  19.323  29.890  1.00  0.00    -0.000 C 
BRANCH  24  25
ATOM     25  C   UNL     1       1.200  18.929  31.345  1.00  0.00    -0.000 C 
BRANCH  25  26
ATOM     26  C   UNL     1       2.218  17.782  31.411  1.00  0.00    -0.000 C 
BRANCH  26  27
ATOM     27  C   UNL     1       1.549  16.411  31.595  1.00  0.00    -0.000 C 
BRANCH  27  28
ATOM     28  C   UNL     1       2.272  15.292  30.829  1.00  0.00    -0.000 C 
BRANCH  28  29
ATOM     29  C   UNL     1       1.355  14.078  30.637  1.00  0.00    -0.003 C 
ATOM     30  C   UNL     1       0.018  14.488  30.022  1.00  0.00     0.004 C 
ENDBRANCH  28  29
ENDBRANCH  27  28
ENDBRANCH  26  27
ENDBRANCH  25  26
ENDBRANCH  24  25
ENDBRANCH  23  24
ENDBRANCH  22  23
ENDBRANCH  21  22
ENDBRANCH  20  21
ENDBRANCH  19  20
ENDBRANCH  18  19
ENDBRANCH  17  18
ENDBRANCH   1  17
TORSDOF 26
ENDMDL
