MODEL 1
REMARK VINA RESULT:    -3.817      0.000      0.000
REMARK INTER + INTRA:         -11.791
REMARK INTER:                  -9.617
REMARK INTRA:                  -2.174
REMARK UNBOUND:                -2.174
REMARK SMILES CCCCCCCCCCCCCCCCCCCCCCCCCCCC(=O)[O-]
REMARK SMILES IDX 15 1 16 2 17 3 18 4 19 5 20 6 21 7 22 8 23 9 24 10 25 11
REMARK SMILES IDX 26 12 27 13 28 14 29 15 30 16 14 17 13 18 12 19 11 20 10 21
REMARK SMILES IDX 9 22 8 23 7 24 6 25 5 26 4 27 3 28 2 29 1 30
REMARK H PARENT
REMARK Flexibility Score: inf
ROOT
ATOM      1  C   UNL     1      22.086 -19.866 -18.626  1.00  0.00     0.000 C 
ENDROOT
BRANCH   1   2
ATOM      2  C   UNL     1      20.970 -20.925 -18.562  1.00  0.00     0.000 C 
BRANCH   2   3
ATOM      3  C   UNL     1      20.056 -20.963 -19.802  1.00  0.00     0.000 C 
BRANCH   3   4
ATOM      4  C   UNL     1      20.226 -22.252 -20.624  1.00  0.00     0.000 C 
BRANCH   4   5
ATOM      5  C   UNL     1      20.470 -23.486 -19.741  1.00  0.00     0.000 C 
BRANCH   5   6
ATOM      6  C   UNL     1      19.666 -24.713 -20.208  1.00  0.00     0.000 C 
BRANCH   6   7
ATOM      7  C   UNL     1      18.145 -24.449 -20.199  1.00  0.00     0.000 C 
BRANCH   7   8
ATOM      8  C   UNL     1      17.606 -23.988 -18.833  1.00  0.00     0.000 C 
BRANCH   8   9
ATOM      9  C   UNL     1      16.127 -24.351 -18.621  1.00  0.00     0.000 C 
BRANCH   9  10
ATOM     10  C   UNL     1      15.485 -23.561 -17.468  1.00  0.00     0.000 C 
BRANCH  10  11
ATOM     11  C   UNL     1      14.526 -22.467 -17.970  1.00  0.00     0.000 C 
BRANCH  11  12
ATOM     12  C   UNL     1      13.975 -22.752 -19.381  1.00  0.00     0.006 C 
BRANCH  12  13
ATOM     13  C   UNL     1      14.604 -21.882 -20.484  1.00  0.00     0.053 C 
BRANCH  13  14
ATOM     14  C   UNL     1      14.244 -20.434 -20.352  1.00  0.00     0.041 C 
ATOM     15  O   UNL     1      13.038 -20.086 -20.260  1.00  0.00    -0.550 OA
ATOM     16  O   UNL     1      15.243 -19.468 -20.308  1.00  0.00    -0.550 OA
ENDBRANCH  13  14
ENDBRANCH  12  13
ENDBRANCH  11  12
ENDBRANCH  10  11
ENDBRANCH   9  10
ENDBRANCH   8   9
ENDBRANCH   7   8
ENDBRANCH   6   7
ENDBRANCH   5   6
ENDBRANCH   4   5
ENDBRANCH   3   4
ENDBRANCH   2   3
ENDBRANCH   1   2
BRANCH   1  17
ATOM     17  C   UNL     1      23.337 -20.369 -19.365  1.00  0.00     0.000 C 
BRANCH  17  18
ATOM     18  C   UNL     1      24.612 -19.625 -18.931  1.00  0.00     0.000 C 
BRANCH  18  19
ATOM     19  C   UNL     1      24.539 -19.151 -17.470  1.00  0.00     0.000 C 
BRANCH  19  20
ATOM     20  C   UNL     1      25.048 -17.704 -17.288  1.00  0.00     0.000 C 
BRANCH  20  21
ATOM     21  C   UNL     1      24.597 -16.741 -18.403  1.00  0.00     0.000 C 
BRANCH  21  22
ATOM     22  C   UNL     1      23.078 -16.509 -18.489  1.00  0.00    -0.000 C 
BRANCH  22  23
ATOM     23  C   UNL     1      22.348 -16.434 -17.130  1.00  0.00    -0.000 C 
BRANCH  23  24
ATOM     24  C   UNL     1      21.940 -15.018 -16.686  1.00  0.00    -0.000 C 
BRANCH  24  25
ATOM     25  C   UNL     1      20.626 -14.998 -15.886  1.00  0.00    -0.000 C 
BRANCH  25  26
ATOM     26  C   UNL     1      19.707 -16.188 -16.235  1.00  0.00    -0.000 C 
BRANCH  26  27
ATOM     27  C   UNL     1      18.552 -16.396 -15.236  1.00  0.00    -0.000 C 
BRANCH  27  28
ATOM     28  C   UNL     1      17.753 -15.127 -14.887  1.00  0.00    -0.000 C 
BRANCH  28  29
ATOM     29  C   UNL     1      17.126 -14.406 -16.096  1.00  0.00    -0.003 C 
ATOM     30  C   UNL     1      16.226 -15.316 -16.931  1.00  0.00     0.004 C 
ENDBRANCH  28  29
ENDBRANCH  27  28
ENDBRANCH  26  27
ENDBRANCH  25  26
ENDBRANCH  24  25
ENDBRANCH  23  24
ENDBRANCH  22  23
ENDBRANCH  21  22
ENDBRANCH  20  21
ENDBRANCH  19  20
ENDBRANCH  18  19
ENDBRANCH  17  18
ENDBRANCH   1  17
TORSDOF 26
ENDMDL
MODEL 2
REMARK VINA RESULT:    -3.525      2.294      6.370
REMARK INTER + INTRA:         -11.056
REMARK INTER:                  -8.510
REMARK INTRA:                  -2.545
REMARK UNBOUND:                -2.174
REMARK SMILES CCCCCCCCCCCCCCCCCCCCCCCCCCCC(=O)[O-]
REMARK SMILES IDX 15 1 16 2 17 3 18 4 19 5 20 6 21 7 22 8 23 9 24 10 25 11
REMARK SMILES IDX 26 12 27 13 28 14 29 15 30 16 14 17 13 18 12 19 11 20 10 21
REMARK SMILES IDX 9 22 8 23 7 24 6 25 5 26 4 27 3 28 2 29 1 30
REMARK H PARENT
REMARK Flexibility Score: inf
ROOT
ATOM      1  C   UNL     1      14.484 -17.598 -21.055  1.00  0.00     0.000 C 
ENDROOT
BRANCH   1   2
ATOM      2  C   UNL     1      15.795 -18.402 -20.990  1.00  0.00     0.000 C 
BRANCH   2   3
ATOM      3  C   UNL     1      15.607 -19.907 -20.714  1.00  0.00     0.000 C 
BRANCH   3   4
ATOM      4  C   UNL     1      14.153 -20.368 -20.915  1.00  0.00     0.000 C 
BRANCH   4   5
ATOM      5  C   UNL     1      13.568 -21.035 -19.661  1.00  0.00     0.000 C 
BRANCH   5   6
ATOM      6  C   UNL     1      14.167 -22.428 -19.398  1.00  0.00     0.000 C 
BRANCH   6   7
ATOM      7  C   UNL     1      14.957 -22.481 -18.073  1.00  0.00     0.000 C 
BRANCH   7   8
ATOM      8  C   UNL     1      16.251 -23.311 -18.159  1.00  0.00     0.000 C 
BRANCH   8   9
ATOM      9  C   UNL     1      16.118 -24.530 -19.087  1.00  0.00     0.000 C 
BRANCH   9  10
ATOM     10  C   UNL     1      17.196 -24.557 -20.184  1.00  0.00     0.000 C 
BRANCH  10  11
ATOM     11  C   UNL     1      17.395 -23.181 -20.843  1.00  0.00     0.000 C 
BRANCH  11  12
ATOM     12  C   UNL     1      18.858 -22.698 -20.796  1.00  0.00     0.006 C 
BRANCH  12  13
ATOM     13  C   UNL     1      19.061 -21.395 -20.003  1.00  0.00     0.053 C 
BRANCH  13  14
ATOM     14  C   UNL     1      20.451 -21.260 -19.462  1.00  0.00     0.041 C 
ATOM     15  O   UNL     1      20.681 -20.495 -18.489  1.00  0.00    -0.550 OA
ATOM     16  O   UNL     1      21.491 -21.995 -20.018  1.00  0.00    -0.550 OA
ENDBRANCH  13  14
ENDBRANCH  12  13
ENDBRANCH  11  12
ENDBRANCH  10  11
ENDBRANCH   9  10
ENDBRANCH   8   9
ENDBRANCH   7   8
ENDBRANCH   6   7
ENDBRANCH   5   6
ENDBRANCH   4   5
ENDBRANCH   3   4
ENDBRANCH   2   3
ENDBRANCH   1   2
BRANCH   1  17
ATOM     17  C   UNL     1      14.697 -16.097 -20.793  1.00  0.00     0.000 C 
BRANCH  17  18
ATOM     18  C   UNL     1      15.884 -15.831 -19.852  1.00  0.00     0.000 C 
BRANCH  18  19
ATOM     19  C   UNL     1      15.494 -14.937 -18.662  1.00  0.00     0.000 C 
BRANCH  19  20
ATOM     20  C   UNL     1      15.907 -15.543 -17.303  1.00  0.00     0.000 C 
BRANCH  20  21
ATOM     21  C   UNL     1      16.987 -14.732 -16.561  1.00  0.00     0.000 C 
BRANCH  21  22
ATOM     22  C   UNL     1      17.361 -15.267 -15.168  1.00  0.00    -0.000 C 
BRANCH  22  23
ATOM     23  C   UNL     1      18.547 -16.255 -15.142  1.00  0.00    -0.000 C 
BRANCH  23  24
ATOM     24  C   UNL     1      19.620 -16.015 -16.220  1.00  0.00    -0.000 C 
BRANCH  24  25
ATOM     25  C   UNL     1      20.350 -17.305 -16.634  1.00  0.00    -0.000 C 
BRANCH  25  26
ATOM     26  C   UNL     1      21.817 -17.046 -17.038  1.00  0.00    -0.000 C 
BRANCH  26  27
ATOM     27  C   UNL     1      22.266 -15.584 -16.850  1.00  0.00    -0.000 C 
BRANCH  27  28
ATOM     28  C   UNL     1      23.717 -15.287 -17.269  1.00  0.00    -0.000 C 
BRANCH  28  29
ATOM     29  C   UNL     1      24.419 -16.434 -18.022  1.00  0.00    -0.003 C 
ATOM     30  C   UNL     1      24.221 -16.362 -19.536  1.00  0.00     0.004 C 
ENDBRANCH  28  29
ENDBRANCH  27  28
ENDBRANCH  26  27
ENDBRANCH  25  26
ENDBRANCH  24  25
ENDBRANCH  23  24
ENDBRANCH  22  23
ENDBRANCH  21  22
ENDBRANCH  20  21
ENDBRANCH  19  20
ENDBRANCH  18  19
ENDBRANCH  17  18
ENDBRANCH   1  17
TORSDOF 26
ENDMDL
MODEL 3
REMARK VINA RESULT:    -2.945      2.035      3.131
REMARK INTER + INTRA:          -9.596
REMARK INTER:                  -7.910
REMARK INTRA:                  -1.686
REMARK UNBOUND:                -2.174
REMARK SMILES CCCCCCCCCCCCCCCCCCCCCCCCCCCC(=O)[O-]
REMARK SMILES IDX 15 1 16 2 17 3 18 4 19 5 20 6 21 7 22 8 23 9 24 10 25 11
REMARK SMILES IDX 26 12 27 13 28 14 29 15 30 16 14 17 13 18 12 19 11 20 10 21
REMARK SMILES IDX 9 22 8 23 7 24 6 25 5 26 4 27 3 28 2 29 1 30
REMARK H PARENT
REMARK Flexibility Score: inf
ROOT
ATOM      1  C   UNL     1      21.300 -21.719 -19.131  1.00  0.00     0.000 C 
ENDROOT
BRANCH   1   2
ATOM      2  C   UNL     1      20.940 -21.792 -20.625  1.00  0.00     0.000 C 
BRANCH   2   3
ATOM      3  C   UNL     1      19.543 -21.243 -20.972  1.00  0.00     0.000 C 
BRANCH   3   4
ATOM      4  C   UNL     1      18.413 -22.006 -20.261  1.00  0.00     0.000 C 
BRANCH   4   5
ATOM      5  C   UNL     1      17.123 -22.060 -21.094  1.00  0.00     0.000 C 
BRANCH   5   6
ATOM      6  C   UNL     1      16.364 -20.720 -21.094  1.00  0.00     0.000 C 
BRANCH   6   7
ATOM      7  C   UNL     1      14.967 -20.844 -20.449  1.00  0.00     0.000 C 
BRANCH   7   8
ATOM      8  C   UNL     1      14.309 -22.220 -20.659  1.00  0.00     0.000 C 
BRANCH   8   9
ATOM      9  C   UNL     1      13.755 -22.821 -19.357  1.00  0.00     0.000 C 
BRANCH   9  10
ATOM     10  C   UNL     1      14.566 -24.035 -18.875  1.00  0.00     0.000 C 
BRANCH  10  11
ATOM     11  C   UNL     1      15.765 -23.630 -18.001  1.00  0.00     0.000 C 
BRANCH  11  12
ATOM     12  C   UNL     1      15.366 -23.303 -16.549  1.00  0.00     0.006 C 
BRANCH  12  13
ATOM     13  C   UNL     1      14.157 -22.358 -16.431  1.00  0.00     0.053 C 
BRANCH  13  14
ATOM     14  C   UNL     1      14.085 -21.679 -15.097  1.00  0.00     0.041 C 
ATOM     15  O   UNL     1      12.970 -21.356 -14.610  1.00  0.00    -0.550 OA
ATOM     16  O   UNL     1      15.248 -21.421 -14.381  1.00  0.00    -0.550 OA
ENDBRANCH  13  14
ENDBRANCH  12  13
ENDBRANCH  11  12
ENDBRANCH  10  11
ENDBRANCH   9  10
ENDBRANCH   8   9
ENDBRANCH   7   8
ENDBRANCH   6   7
ENDBRANCH   5   6
ENDBRANCH   4   5
ENDBRANCH   3   4
ENDBRANCH   2   3
ENDBRANCH   1   2
BRANCH   1  17
ATOM     17  C   UNL     1      21.125 -20.306 -18.548  1.00  0.00     0.000 C 
BRANCH  17  18
ATOM     18  C   UNL     1      21.415 -20.256 -17.038  1.00  0.00     0.000 C 
BRANCH  18  19
ATOM     19  C   UNL     1      22.282 -19.046 -16.652  1.00  0.00     0.000 C 
BRANCH  19  20
ATOM     20  C   UNL     1      23.717 -19.140 -17.213  1.00  0.00     0.000 C 
BRANCH  20  21
ATOM     21  C   UNL     1      23.859 -18.612 -18.654  1.00  0.00     0.000 C 
BRANCH  21  22
ATOM     22  C   UNL     1      24.190 -17.113 -18.768  1.00  0.00    -0.000 C 
BRANCH  22  23
ATOM     23  C   UNL     1      23.032 -16.157 -18.408  1.00  0.00    -0.000 C 
BRANCH  23  24
ATOM     24  C   UNL     1      23.324 -15.186 -17.249  1.00  0.00    -0.000 C 
BRANCH  24  25
ATOM     25  C   UNL     1      22.130 -15.019 -16.294  1.00  0.00    -0.000 C 
BRANCH  25  26
ATOM     26  C   UNL     1      20.958 -15.959 -16.648  1.00  0.00    -0.000 C 
BRANCH  26  27
ATOM     27  C   UNL     1      19.573 -15.393 -16.279  1.00  0.00    -0.000 C 
BRANCH  27  28
ATOM     28  C   UNL     1      18.742 -16.272 -15.326  1.00  0.00    -0.000 C 
BRANCH  28  29
ATOM     29  C   UNL     1      17.258 -15.876 -15.212  1.00  0.00    -0.003 C 
ATOM     30  C   UNL     1      16.785 -14.994 -16.368  1.00  0.00     0.004 C 
ENDBRANCH  28  29
ENDBRANCH  27  28
ENDBRANCH  26  27
ENDBRANCH  25  26
ENDBRANCH  24  25
ENDBRANCH  23  24
ENDBRANCH  22  23
ENDBRANCH  21  22
ENDBRANCH  20  21
ENDBRANCH  19  20
ENDBRANCH  18  19
ENDBRANCH  17  18
ENDBRANCH   1  17
TORSDOF 26
ENDMDL
MODEL 4
REMARK VINA RESULT:    -2.891      6.435     11.631
REMARK INTER + INTRA:          -9.459
REMARK INTER:                  -8.126
REMARK INTRA:                  -1.333
REMARK UNBOUND:                -2.174
REMARK SMILES CCCCCCCCCCCCCCCCCCCCCCCCCCCC(=O)[O-]
REMARK SMILES IDX 15 1 16 2 17 3 18 4 19 5 20 6 21 7 22 8 23 9 24 10 25 11
REMARK SMILES IDX 26 12 27 13 28 14 29 15 30 16 14 17 13 18 12 19 11 20 10 21
REMARK SMILES IDX 9 22 8 23 7 24 6 25 5 26 4 27 3 28 2 29 1 30
REMARK H PARENT
REMARK Flexibility Score: inf
ROOT
ATOM      1  C   UNL     1      14.320 -22.000 -16.420  1.00  0.00     0.000 C 
ENDROOT
BRANCH   1   2
ATOM      2  C   UNL     1      15.012 -23.348 -16.690  1.00  0.00     0.000 C 
BRANCH   2   3
ATOM      3  C   UNL     1      14.712 -23.953 -18.075  1.00  0.00     0.000 C 
BRANCH   3   4
ATOM      4  C   UNL     1      15.988 -24.239 -18.885  1.00  0.00     0.000 C 
BRANCH   4   5
ATOM      5  C   UNL     1      17.206 -23.465 -18.359  1.00  0.00     0.000 C 
BRANCH   5   6
ATOM      6  C   UNL     1      17.848 -22.573 -19.438  1.00  0.00     0.000 C 
BRANCH   6   7
ATOM      7  C   UNL     1      19.370 -22.413 -19.229  1.00  0.00     0.000 C 
BRANCH   7   8
ATOM      8  C   UNL     1      19.924 -21.069 -19.735  1.00  0.00     0.000 C 
BRANCH   8   9
ATOM      9  C   UNL     1      21.303 -20.732 -19.143  1.00  0.00     0.000 C 
BRANCH   9  10
ATOM     10  C   UNL     1      21.267 -20.579 -17.613  1.00  0.00     0.000 C 
BRANCH  10  11
ATOM     11  C   UNL     1      22.042 -19.340 -17.130  1.00  0.00     0.000 C 
BRANCH  11  12
ATOM     12  C   UNL     1      21.591 -18.041 -17.825  1.00  0.00     0.006 C 
BRANCH  12  13
ATOM     13  C   UNL     1      22.751 -17.111 -18.224  1.00  0.00     0.053 C 
BRANCH  13  14
ATOM     14  C   UNL     1      23.168 -16.200 -17.111  1.00  0.00     0.041 C 
ATOM     15  O   UNL     1      23.849 -16.644 -16.149  1.00  0.00    -0.550 OA
ATOM     16  O   UNL     1      22.823 -14.854 -17.143  1.00  0.00    -0.550 OA
ENDBRANCH  13  14
ENDBRANCH  12  13
ENDBRANCH  11  12
ENDBRANCH  10  11
ENDBRANCH   9  10
ENDBRANCH   8   9
ENDBRANCH   7   8
ENDBRANCH   6   7
ENDBRANCH   5   6
ENDBRANCH   4   5
ENDBRANCH   3   4
ENDBRANCH   2   3
ENDBRANCH   1   2
BRANCH   1  17
ATOM     17  C   UNL     1      14.055 -21.760 -14.924  1.00  0.00     0.000 C 
BRANCH  17  18
ATOM     18  C   UNL     1      12.754 -20.976 -14.679  1.00  0.00     0.000 C 
BRANCH  18  19
ATOM     19  C   UNL     1      11.811 -21.019 -15.894  1.00  0.00     0.000 C 
BRANCH  19  20
ATOM     20  C   UNL     1      10.539 -20.169 -15.688  1.00  0.00     0.000 C 
BRANCH  20  21
ATOM     21  C   UNL     1       9.227 -20.950 -15.901  1.00  0.00     0.000 C 
BRANCH  21  22
ATOM     22  C   UNL     1       7.947 -20.097 -15.856  1.00  0.00    -0.000 C 
BRANCH  22  23
ATOM     23  C   UNL     1       6.662 -20.816 -16.320  1.00  0.00    -0.000 C 
BRANCH  23  24
ATOM     24  C   UNL     1       5.614 -21.055 -15.219  1.00  0.00    -0.000 C 
BRANCH  24  25
ATOM     25  C   UNL     1       6.027 -20.461 -13.861  1.00  0.00    -0.000 C 
BRANCH  25  26
ATOM     26  C   UNL     1       5.112 -20.931 -12.711  1.00  0.00    -0.000 C 
BRANCH  26  27
ATOM     27  C   UNL     1       4.914 -22.458 -12.657  1.00  0.00    -0.000 C 
BRANCH  27  28
ATOM     28  C   UNL     1       6.007 -23.232 -11.899  1.00  0.00    -0.000 C 
BRANCH  28  29
ATOM     29  C   UNL     1       5.482 -24.246 -10.865  1.00  0.00    -0.003 C 
ATOM     30  C   UNL     1       6.037 -24.009  -9.461  1.00  0.00     0.004 C 
ENDBRANCH  28  29
ENDBRANCH  27  28
ENDBRANCH  26  27
ENDBRANCH  25  26
ENDBRANCH  24  25
ENDBRANCH  23  24
ENDBRANCH  22  23
ENDBRANCH  21  22
ENDBRANCH  20  21
ENDBRANCH  19  20
ENDBRANCH  18  19
ENDBRANCH  17  18
ENDBRANCH   1  17
TORSDOF 26
ENDMDL
MODEL 5
REMARK VINA RESULT:    -2.777      2.109      6.319
REMARK INTER + INTRA:          -9.172
REMARK INTER:                  -7.107
REMARK INTRA:                  -2.065
REMARK UNBOUND:                -2.174
REMARK SMILES CCCCCCCCCCCCCCCCCCCCCCCCCCCC(=O)[O-]
REMARK SMILES IDX 15 1 16 2 17 3 18 4 19 5 20 6 21 7 22 8 23 9 24 10 25 11
REMARK SMILES IDX 26 12 27 13 28 14 29 15 30 16 14 17 13 18 12 19 11 20 10 21
REMARK SMILES IDX 9 22 8 23 7 24 6 25 5 26 4 27 3 28 2 29 1 30
REMARK H PARENT
REMARK Flexibility Score: inf
ROOT
ATOM      1  C   UNL     1      17.486 -15.928 -15.377  1.00  0.00     0.000 C 
ENDROOT
BRANCH   1   2
ATOM      2  C   UNL     1      16.165 -15.605 -16.097  1.00  0.00     0.000 C 
BRANCH   2   3
ATOM      3  C   UNL     1      16.335 -14.889 -17.451  1.00  0.00     0.000 C 
BRANCH   3   4
ATOM      4  C   UNL     1      15.465 -15.505 -18.559  1.00  0.00     0.000 C 
BRANCH   4   5
ATOM      5  C   UNL     1      15.653 -14.805 -19.914  1.00  0.00     0.000 C 
BRANCH   5   6
ATOM      6  C   UNL     1      15.314 -15.721 -21.104  1.00  0.00     0.000 C 
BRANCH   6   7
ATOM      7  C   UNL     1      14.640 -17.035 -20.653  1.00  0.00     0.000 C 
BRANCH   7   8
ATOM      8  C   UNL     1      15.580 -18.253 -20.681  1.00  0.00     0.000 C 
BRANCH   8   9
ATOM      9  C   UNL     1      14.858 -19.556 -21.059  1.00  0.00     0.000 C 
BRANCH   9  10
ATOM     10  C   UNL     1      15.727 -20.803 -20.822  1.00  0.00     0.000 C 
BRANCH  10  11
ATOM     11  C   UNL     1      15.284 -21.600 -19.583  1.00  0.00     0.000 C 
BRANCH  11  12
ATOM     12  C   UNL     1      14.779 -23.014 -19.927  1.00  0.00     0.006 C 
BRANCH  12  13
ATOM     13  C   UNL     1      14.465 -23.882 -18.696  1.00  0.00     0.053 C 
BRANCH  13  14
ATOM     14  C   UNL     1      15.222 -23.450 -17.477  1.00  0.00     0.041 C 
ATOM     15  O   UNL     1      16.377 -23.897 -17.257  1.00  0.00    -0.550 OA
ATOM     16  O   UNL     1      14.659 -22.536 -16.594  1.00  0.00    -0.550 OA
ENDBRANCH  13  14
ENDBRANCH  12  13
ENDBRANCH  11  12
ENDBRANCH  10  11
ENDBRANCH   9  10
ENDBRANCH   8   9
ENDBRANCH   7   8
ENDBRANCH   6   7
ENDBRANCH   5   6
ENDBRANCH   4   5
ENDBRANCH   3   4
ENDBRANCH   2   3
ENDBRANCH   1   2
BRANCH   1  17
ATOM     17  C   UNL     1      18.706 -15.292 -16.065  1.00  0.00     0.000 C 
BRANCH  17  18
ATOM     18  C   UNL     1      19.818 -16.317 -16.348  1.00  0.00     0.000 C 
BRANCH  18  19
ATOM     19  C   UNL     1      21.207 -15.796 -15.944  1.00  0.00     0.000 C 
BRANCH  19  20
ATOM     20  C   UNL     1      22.201 -15.775 -17.126  1.00  0.00     0.000 C 
BRANCH  20  21
ATOM     21  C   UNL     1      23.680 -15.817 -16.697  1.00  0.00     0.000 C 
BRANCH  21  22
ATOM     22  C   UNL     1      24.444 -17.085 -17.120  1.00  0.00    -0.000 C 
BRANCH  22  23
ATOM     23  C   UNL     1      23.672 -18.033 -18.062  1.00  0.00    -0.000 C 
BRANCH  23  24
ATOM     24  C   UNL     1      22.932 -19.187 -17.364  1.00  0.00    -0.000 C 
BRANCH  24  25
ATOM     25  C   UNL     1      21.775 -19.752 -18.206  1.00  0.00    -0.000 C 
BRANCH  25  26
ATOM     26  C   UNL     1      22.263 -20.722 -19.302  1.00  0.00    -0.000 C 
BRANCH  26  27
ATOM     27  C   UNL     1      21.242 -21.817 -19.665  1.00  0.00    -0.000 C 
BRANCH  27  28
ATOM     28  C   UNL     1      19.784 -21.502 -19.284  1.00  0.00    -0.000 C 
BRANCH  28  29
ATOM     29  C   UNL     1      18.841 -22.720 -19.279  1.00  0.00    -0.003 C 
ATOM     30  C   UNL     1      18.591 -23.287 -20.676  1.00  0.00     0.004 C 
ENDBRANCH  28  29
ENDBRANCH  27  28
ENDBRANCH  26  27
ENDBRANCH  25  26
ENDBRANCH  24  25
ENDBRANCH  23  24
ENDBRANCH  22  23
ENDBRANCH  21  22
ENDBRANCH  20  21
ENDBRANCH  19  20
ENDBRANCH  18  19
ENDBRANCH  17  18
ENDBRANCH   1  17
TORSDOF 26
ENDMDL
MODEL 6
REMARK VINA RESULT:    -2.648      2.115      6.697
REMARK INTER + INTRA:          -8.848
REMARK INTER:                  -6.666
REMARK INTRA:                  -2.182
REMARK UNBOUND:                -2.174
REMARK SMILES CCCCCCCCCCCCCCCCCCCCCCCCCCCC(=O)[O-]
REMARK SMILES IDX 15 1 16 2 17 3 18 4 19 5 20 6 21 7 22 8 23 9 24 10 25 11
REMARK SMILES IDX 26 12 27 13 28 14 29 15 30 16 14 17 13 18 12 19 11 20 10 21
REMARK SMILES IDX 9 22 8 23 7 24 6 25 5 26 4 27 3 28 2 29 1 30
REMARK H PARENT
REMARK Flexibility Score: inf
ROOT
ATOM      1  C   UNL     1      17.313 -15.214 -15.557  1.00  0.00     0.000 C 
ENDROOT
BRANCH   1   2
ATOM      2  C   UNL     1      16.499 -15.896 -16.671  1.00  0.00     0.000 C 
BRANCH   2   3
ATOM      3  C   UNL     1      15.866 -14.924 -17.685  1.00  0.00     0.000 C 
BRANCH   3   4
ATOM      4  C   UNL     1      15.110 -15.651 -18.810  1.00  0.00     0.000 C 
BRANCH   4   5
ATOM      5  C   UNL     1      15.676 -15.333 -20.202  1.00  0.00     0.000 C 
BRANCH   5   6
ATOM      6  C   UNL     1      15.745 -16.576 -21.109  1.00  0.00     0.000 C 
BRANCH   6   7
ATOM      7  C   UNL     1      14.543 -17.520 -20.893  1.00  0.00     0.000 C 
BRANCH   7   8
ATOM      8  C   UNL     1      14.922 -19.012 -20.895  1.00  0.00     0.000 C 
BRANCH   8   9
ATOM      9  C   UNL     1      13.793 -19.916 -20.373  1.00  0.00     0.000 C 
BRANCH   9  10
ATOM     10  C   UNL     1      13.888 -21.352 -20.916  1.00  0.00     0.000 C 
BRANCH  10  11
ATOM     11  C   UNL     1      14.675 -22.283 -19.977  1.00  0.00     0.000 C 
BRANCH  11  12
ATOM     12  C   UNL     1      14.315 -23.769 -20.164  1.00  0.00     0.006 C 
BRANCH  12  13
ATOM     13  C   UNL     1      14.746 -24.669 -18.992  1.00  0.00     0.053 C 
BRANCH  13  14
ATOM     14  C   UNL     1      15.481 -23.915 -17.927  1.00  0.00     0.041 C 
ATOM     15  O   UNL     1      14.870 -23.498 -16.908  1.00  0.00    -0.550 OA
ATOM     16  O   UNL     1      16.847 -23.689 -18.047  1.00  0.00    -0.550 OA
ENDBRANCH  13  14
ENDBRANCH  12  13
ENDBRANCH  11  12
ENDBRANCH  10  11
ENDBRANCH   9  10
ENDBRANCH   8   9
ENDBRANCH   7   8
ENDBRANCH   6   7
ENDBRANCH   5   6
ENDBRANCH   4   5
ENDBRANCH   3   4
ENDBRANCH   2   3
ENDBRANCH   1   2
BRANCH   1  17
ATOM     17  C   UNL     1      18.511 -16.062 -15.095  1.00  0.00     0.000 C 
BRANCH  17  18
ATOM     18  C   UNL     1      19.392 -16.518 -16.270  1.00  0.00     0.000 C 
BRANCH  18  19
ATOM     19  C   UNL     1      20.722 -15.749 -16.334  1.00  0.00     0.000 C 
BRANCH  19  20
ATOM     20  C   UNL     1      21.921 -16.661 -16.672  1.00  0.00     0.000 C 
BRANCH  20  21
ATOM     21  C   UNL     1      21.657 -17.629 -17.841  1.00  0.00     0.000 C 
BRANCH  21  22
ATOM     22  C   UNL     1      21.397 -19.090 -17.432  1.00  0.00    -0.000 C 
BRANCH  22  23
ATOM     23  C   UNL     1      20.895 -20.010 -18.566  1.00  0.00    -0.000 C 
BRANCH  23  24
ATOM     24  C   UNL     1      19.865 -19.372 -19.516  1.00  0.00    -0.000 C 
BRANCH  24  25
ATOM     25  C   UNL     1      19.433 -20.317 -20.650  1.00  0.00    -0.000 C 
BRANCH  25  26
ATOM     26  C   UNL     1      18.285 -21.258 -20.226  1.00  0.00    -0.000 C 
BRANCH  26  27
ATOM     27  C   UNL     1      18.135 -22.501 -21.124  1.00  0.00    -0.000 C 
BRANCH  27  28
ATOM     28  C   UNL     1      19.226 -23.572 -20.945  1.00  0.00    -0.000 C 
BRANCH  28  29
ATOM     29  C   UNL     1      20.092 -23.406 -19.681  1.00  0.00    -0.003 C 
ATOM     30  C   UNL     1      21.329 -24.304 -19.684  1.00  0.00     0.004 C 
ENDBRANCH  28  29
ENDBRANCH  27  28
ENDBRANCH  26  27
ENDBRANCH  25  26
ENDBRANCH  24  25
ENDBRANCH  23  24
ENDBRANCH  22  23
ENDBRANCH  21  22
ENDBRANCH  20  21
ENDBRANCH  19  20
ENDBRANCH  18  19
ENDBRANCH  17  18
ENDBRANCH   1  17
TORSDOF 26
ENDMDL
MODEL 7
REMARK VINA RESULT:    -2.636      5.363      8.347
REMARK INTER + INTRA:          -8.816
REMARK INTER:                  -7.686
REMARK INTRA:                  -1.130
REMARK UNBOUND:                -2.174
REMARK SMILES CCCCCCCCCCCCCCCCCCCCCCCCCCCC(=O)[O-]
REMARK SMILES IDX 15 1 16 2 17 3 18 4 19 5 20 6 21 7 22 8 23 9 24 10 25 11
REMARK SMILES IDX 26 12 27 13 28 14 29 15 30 16 14 17 13 18 12 19 11 20 10 21
REMARK SMILES IDX 9 22 8 23 7 24 6 25 5 26 4 27 3 28 2 29 1 30
REMARK H PARENT
REMARK Flexibility Score: inf
ROOT
ATOM      1  C   UNL     1      15.376 -23.063 -16.644  1.00  0.00     0.000 C 
ENDROOT
BRANCH   1   2
ATOM      2  C   UNL     1      14.204 -22.098 -16.390  1.00  0.00     0.000 C 
BRANCH   2   3
ATOM      3  C   UNL     1      14.044 -21.662 -14.921  1.00  0.00     0.000 C 
BRANCH   3   4
ATOM      4  C   UNL     1      12.732 -20.900 -14.669  1.00  0.00     0.000 C 
BRANCH   4   5
ATOM      5  C   UNL     1      11.783 -20.944 -15.877  1.00  0.00     0.000 C 
BRANCH   5   6
ATOM      6  C   UNL     1      10.442 -20.241 -15.600  1.00  0.00     0.000 C 
BRANCH   6   7
ATOM      7  C   UNL     1       9.238 -21.061 -16.112  1.00  0.00     0.000 C 
BRANCH   7   8
ATOM      8  C   UNL     1       7.937 -20.800 -15.333  1.00  0.00     0.000 C 
BRANCH   8   9
ATOM      9  C   UNL     1       6.700 -20.730 -16.244  1.00  0.00     0.000 C 
BRANCH   9  10
ATOM     10  C   UNL     1       5.631 -19.758 -15.714  1.00  0.00     0.000 C 
BRANCH  10  11
ATOM     11  C   UNL     1       6.244 -18.464 -15.151  1.00  0.00     0.000 C 
BRANCH  11  12
ATOM     12  C   UNL     1       5.948 -17.230 -16.025  1.00  0.00     0.006 C 
BRANCH  12  13
ATOM     13  C   UNL     1       5.277 -17.563 -17.369  1.00  0.00     0.053 C 
BRANCH  13  14
ATOM     14  C   UNL     1       5.515 -16.511 -18.409  1.00  0.00     0.041 C 
ATOM     15  O   UNL     1       5.361 -15.294 -18.126  1.00  0.00    -0.550 OA
ATOM     16  O   UNL     1       5.929 -16.872 -19.686  1.00  0.00    -0.550 OA
ENDBRANCH  13  14
ENDBRANCH  12  13
ENDBRANCH  11  12
ENDBRANCH  10  11
ENDBRANCH   9  10
ENDBRANCH   8   9
ENDBRANCH   7   8
ENDBRANCH   6   7
ENDBRANCH   5   6
ENDBRANCH   4   5
ENDBRANCH   3   4
ENDBRANCH   2   3
ENDBRANCH   1   2
BRANCH   1  17
ATOM     17  C   UNL     1      15.470 -23.506 -18.114  1.00  0.00     0.000 C 
BRANCH  17  18
ATOM     18  C   UNL     1      16.925 -23.685 -18.579  1.00  0.00     0.000 C 
BRANCH  18  19
ATOM     19  C   UNL     1      17.236 -22.866 -19.844  1.00  0.00     0.000 C 
BRANCH  19  20
ATOM     20  C   UNL     1      18.299 -23.538 -20.740  1.00  0.00     0.000 C 
BRANCH  20  21
ATOM     21  C   UNL     1      19.749 -23.169 -20.371  1.00  0.00     0.000 C 
BRANCH  21  22
ATOM     22  C   UNL     1      20.004 -21.666 -20.160  1.00  0.00    -0.000 C 
BRANCH  22  23
ATOM     23  C   UNL     1      20.641 -21.293 -18.804  1.00  0.00    -0.000 C 
BRANCH  23  24
ATOM     24  C   UNL     1      21.118 -19.834 -18.687  1.00  0.00    -0.000 C 
BRANCH  24  25
ATOM     25  C   UNL     1      21.880 -19.558 -17.379  1.00  0.00    -0.000 C 
BRANCH  25  26
ATOM     26  C   UNL     1      22.722 -18.266 -17.450  1.00  0.00    -0.000 C 
BRANCH  26  27
ATOM     27  C   UNL     1      21.955 -16.999 -17.027  1.00  0.00    -0.000 C 
BRANCH  27  28
ATOM     28  C   UNL     1      20.482 -17.226 -16.641  1.00  0.00    -0.000 C 
BRANCH  28  29
ATOM     29  C   UNL     1      19.773 -15.994 -16.045  1.00  0.00    -0.003 C 
ATOM     30  C   UNL     1      18.532 -16.357 -15.230  1.00  0.00     0.004 C 
ENDBRANCH  28  29
ENDBRANCH  27  28
ENDBRANCH  26  27
ENDBRANCH  25  26
ENDBRANCH  24  25
ENDBRANCH  23  24
ENDBRANCH  22  23
ENDBRANCH  21  22
ENDBRANCH  20  21
ENDBRANCH  19  20
ENDBRANCH  18  19
ENDBRANCH  17  18
ENDBRANCH   1  17
TORSDOF 26
ENDMDL
MODEL 8
REMARK VINA RESULT:    -2.579      5.457      8.729
REMARK INTER + INTRA:          -8.672
REMARK INTER:                  -7.294
REMARK INTRA:                  -1.378
REMARK UNBOUND:                -2.174
REMARK SMILES CCCCCCCCCCCCCCCCCCCCCCCCCCCC(=O)[O-]
REMARK SMILES IDX 15 1 16 2 17 3 18 4 19 5 20 6 21 7 22 8 23 9 24 10 25 11
REMARK SMILES IDX 26 12 27 13 28 14 29 15 30 16 14 17 13 18 12 19 11 20 10 21
REMARK SMILES IDX 9 22 8 23 7 24 6 25 5 26 4 27 3 28 2 29 1 30
REMARK H PARENT
REMARK Flexibility Score: inf
ROOT
ATOM      1  C   UNL     1      15.324 -22.965 -16.604  1.00  0.00     0.000 C 
ENDROOT
BRANCH   1   2
ATOM      2  C   UNL     1      14.115 -22.039 -16.384  1.00  0.00     0.000 C 
BRANCH   2   3
ATOM      3  C   UNL     1      13.848 -21.679 -14.909  1.00  0.00     0.000 C 
BRANCH   3   4
ATOM      4  C   UNL     1      12.572 -20.840 -14.726  1.00  0.00     0.000 C 
BRANCH   4   5
ATOM      5  C   UNL     1      11.661 -20.874 -15.963  1.00  0.00     0.000 C 
BRANCH   5   6
ATOM      6  C   UNL     1      10.303 -20.192 -15.716  1.00  0.00     0.000 C 
BRANCH   6   7
ATOM      7  C   UNL     1       9.118 -21.091 -16.129  1.00  0.00     0.000 C 
BRANCH   7   8
ATOM      8  C   UNL     1       7.807 -20.761 -15.392  1.00  0.00     0.000 C 
BRANCH   8   9
ATOM      9  C   UNL     1       6.591 -20.705 -16.332  1.00  0.00     0.000 C 
BRANCH   9  10
ATOM     10  C   UNL     1       5.454 -19.834 -15.773  1.00  0.00     0.000 C 
BRANCH  10  11
ATOM     11  C   UNL     1       5.971 -18.533 -15.135  1.00  0.00     0.000 C 
BRANCH  11  12
ATOM     12  C   UNL     1       5.901 -17.326 -16.089  1.00  0.00     0.006 C 
BRANCH  12  13
ATOM     13  C   UNL     1       4.906 -17.504 -17.250  1.00  0.00     0.053 C 
BRANCH  13  14
ATOM     14  C   UNL     1       5.257 -16.671 -18.444  1.00  0.00     0.041 C 
ATOM     15  O   UNL     1       5.359 -17.202 -19.581  1.00  0.00    -0.550 OA
ATOM     16  O   UNL     1       5.453 -15.302 -18.306  1.00  0.00    -0.550 OA
ENDBRANCH  13  14
ENDBRANCH  12  13
ENDBRANCH  11  12
ENDBRANCH  10  11
ENDBRANCH   9  10
ENDBRANCH   8   9
ENDBRANCH   7   8
ENDBRANCH   6   7
ENDBRANCH   5   6
ENDBRANCH   4   5
ENDBRANCH   3   4
ENDBRANCH   2   3
ENDBRANCH   1   2
BRANCH   1  17
ATOM     17  C   UNL     1      15.593 -23.243 -18.093  1.00  0.00     0.000 C 
BRANCH  17  18
ATOM     18  C   UNL     1      17.058 -23.630 -18.360  1.00  0.00     0.000 C 
BRANCH  18  19
ATOM     19  C   UNL     1      17.647 -22.883 -19.568  1.00  0.00     0.000 C 
BRANCH  19  20
ATOM     20  C   UNL     1      19.017 -23.446 -20.005  1.00  0.00     0.000 C 
BRANCH  20  21
ATOM     21  C   UNL     1      20.217 -22.758 -19.326  1.00  0.00     0.000 C 
BRANCH  21  22
ATOM     22  C   UNL     1      20.267 -21.228 -19.485  1.00  0.00    -0.000 C 
BRANCH  22  23
ATOM     23  C   UNL     1      20.880 -20.464 -18.292  1.00  0.00    -0.000 C 
BRANCH  23  24
ATOM     24  C   UNL     1      20.897 -18.932 -18.437  1.00  0.00    -0.000 C 
BRANCH  24  25
ATOM     25  C   UNL     1      21.033 -18.205 -17.087  1.00  0.00    -0.000 C 
BRANCH  25  26
ATOM     26  C   UNL     1      22.246 -17.251 -17.053  1.00  0.00    -0.000 C 
BRANCH  26  27
ATOM     27  C   UNL     1      23.241 -17.469 -18.208  1.00  0.00    -0.000 C 
BRANCH  27  28
ATOM     28  C   UNL     1      24.109 -18.735 -18.093  1.00  0.00    -0.000 C 
BRANCH  28  29
ATOM     29  C   UNL     1      24.744 -19.206 -19.415  1.00  0.00    -0.003 C 
ATOM     30  C   UNL     1      24.437 -20.669 -19.736  1.00  0.00     0.004 C 
ENDBRANCH  28  29
ENDBRANCH  27  28
ENDBRANCH  26  27
ENDBRANCH  25  26
ENDBRANCH  24  25
ENDBRANCH  23  24
ENDBRANCH  22  23
ENDBRANCH  21  22
ENDBRANCH  20  21
ENDBRANCH  19  20
ENDBRANCH  18  19
ENDBRANCH  17  18
ENDBRANCH   1  17
TORSDOF 26
ENDMDL
MODEL 9
REMARK VINA RESULT:    -2.551      2.095      8.287
REMARK INTER + INTRA:          -8.602
REMARK INTER:                  -6.984
REMARK INTRA:                  -1.618
REMARK UNBOUND:                -2.174
REMARK SMILES CCCCCCCCCCCCCCCCCCCCCCCCCCCC(=O)[O-]
REMARK SMILES IDX 15 1 16 2 17 3 18 4 19 5 20 6 21 7 22 8 23 9 24 10 25 11
REMARK SMILES IDX 26 12 27 13 28 14 29 15 30 16 14 17 13 18 12 19 11 20 10 21
REMARK SMILES IDX 9 22 8 23 7 24 6 25 5 26 4 27 3 28 2 29 1 30
REMARK H PARENT
REMARK Flexibility Score: inf
ROOT
ATOM      1  C   UNL     1      19.374 -16.075 -16.253  1.00  0.00     0.000 C 
ENDROOT
BRANCH   1   2
ATOM      2  C   UNL     1      20.784 -15.740 -15.735  1.00  0.00     0.000 C 
BRANCH   2   3
ATOM      3  C   UNL     1      21.553 -14.719 -16.595  1.00  0.00     0.000 C 
BRANCH   3   4
ATOM      4  C   UNL     1      22.949 -15.221 -17.003  1.00  0.00     0.000 C 
BRANCH   4   5
ATOM      5  C   UNL     1      22.899 -16.567 -17.741  1.00  0.00     0.000 C 
BRANCH   5   6
ATOM      6  C   UNL     1      23.904 -17.587 -17.176  1.00  0.00     0.000 C 
BRANCH   6   7
ATOM      7  C   UNL     1      23.691 -18.999 -17.762  1.00  0.00     0.000 C 
BRANCH   7   8
ATOM      8  C   UNL     1      24.342 -19.200 -19.143  1.00  0.00     0.000 C 
BRANCH   8   9
ATOM      9  C   UNL     1      24.512 -20.683 -19.513  1.00  0.00     0.000 C 
BRANCH   9  10
ATOM     10  C   UNL     1      23.984 -21.004 -20.921  1.00  0.00     0.000 C 
BRANCH  10  11
ATOM     11  C   UNL     1      22.672 -21.807 -20.887  1.00  0.00     0.000 C 
BRANCH  11  12
ATOM     12  C   UNL     1      21.510 -21.031 -20.239  1.00  0.00     0.006 C 
BRANCH  12  13
ATOM     13  C   UNL     1      20.941 -21.698 -18.974  1.00  0.00     0.053 C 
BRANCH  13  14
ATOM     14  C   UNL     1      19.938 -22.766 -19.287  1.00  0.00     0.041 C 
ATOM     15  O   UNL     1      20.320 -23.910 -19.646  1.00  0.00    -0.550 OA
ATOM     16  O   UNL     1      18.578 -22.505 -19.162  1.00  0.00    -0.550 OA
ENDBRANCH  13  14
ENDBRANCH  12  13
ENDBRANCH  11  12
ENDBRANCH  10  11
ENDBRANCH   9  10
ENDBRANCH   8   9
ENDBRANCH   7   8
ENDBRANCH   6   7
ENDBRANCH   5   6
ENDBRANCH   4   5
ENDBRANCH   3   4
ENDBRANCH   2   3
ENDBRANCH   1   2
BRANCH   1  17
ATOM     17  C   UNL     1      18.280 -15.814 -15.203  1.00  0.00     0.000 C 
BRANCH  17  18
ATOM     18  C   UNL     1      16.865 -15.877 -15.805  1.00  0.00     0.000 C 
BRANCH  18  19
ATOM     19  C   UNL     1      16.568 -14.677 -16.720  1.00  0.00     0.000 C 
BRANCH  19  20
ATOM     20  C   UNL     1      15.499 -14.995 -17.788  1.00  0.00     0.000 C 
BRANCH  20  21
ATOM     21  C   UNL     1      16.056 -15.716 -19.030  1.00  0.00     0.000 C 
BRANCH  21  22
ATOM     22  C   UNL     1      15.046 -15.917 -20.174  1.00  0.00    -0.000 C 
BRANCH  22  23
ATOM     23  C   UNL     1      15.357 -17.093 -21.125  1.00  0.00    -0.000 C 
BRANCH  23  24
ATOM     24  C   UNL     1      14.332 -18.241 -21.099  1.00  0.00    -0.000 C 
BRANCH  24  25
ATOM     25  C   UNL     1      14.883 -19.520 -20.446  1.00  0.00    -0.000 C 
BRANCH  25  26
ATOM     26  C   UNL     1      13.814 -20.626 -20.324  1.00  0.00    -0.000 C 
BRANCH  26  27
ATOM     27  C   UNL     1      14.155 -21.710 -19.284  1.00  0.00    -0.000 C 
BRANCH  27  28
ATOM     28  C   UNL     1      13.835 -23.153 -19.715  1.00  0.00    -0.000 C 
BRANCH  28  29
ATOM     29  C   UNL     1      14.620 -24.242 -18.959  1.00  0.00    -0.003 C 
ATOM     30  C   UNL     1      14.971 -23.839 -17.527  1.00  0.00     0.004 C 
ENDBRANCH  28  29
ENDBRANCH  27  28
ENDBRANCH  26  27
ENDBRANCH  25  26
ENDBRANCH  24  25
ENDBRANCH  23  24
ENDBRANCH  22  23
ENDBRANCH  21  22
ENDBRANCH  20  21
ENDBRANCH  19  20
ENDBRANCH  18  19
ENDBRANCH  17  18
ENDBRANCH   1  17
TORSDOF 26
ENDMDL
