MODEL 1
REMARK VINA RESULT:    -5.090      0.000      0.000
REMARK INTER + INTRA:         -11.445
REMARK INTER:                  -9.554
REMARK INTRA:                  -1.891
REMARK UNBOUND:                -1.891
REMARK SMILES O=C([O-])CCCCCCCCCCCCCCC(=O)[O-]
REMARK SMILES IDX 10 1 9 2 8 3 7 4 6 5 5 6 4 7 2 8 1 9 3 10 11 11 12 12 13 13
REMARK SMILES IDX 14 14 15 15 16 16 17 17 18 18 19 19 20 20
REMARK H PARENT
REMARK Flexibility Score: inf
ROOT
ATOM      1  C   UNL     1      17.967 -23.062 -25.580  1.00  0.00     0.000 C 
ENDROOT
BRANCH   1   2
ATOM      2  C   UNL     1      17.071 -24.247 -25.190  1.00  0.00     0.000 C 
BRANCH   2   3
ATOM      3  C   UNL     1      17.614 -25.593 -25.696  1.00  0.00     0.000 C 
BRANCH   3   4
ATOM      4  C   UNL     1      18.851 -25.433 -26.592  1.00  0.00     0.000 C 
BRANCH   4   5
ATOM      5  C   UNL     1      18.806 -26.411 -27.774  1.00  0.00     0.000 C 
BRANCH   5   6
ATOM      6  C   UNL     1      17.491 -27.211 -27.845  1.00  0.00     0.006 C 
BRANCH   6   7
ATOM      7  C   UNL     1      17.431 -28.209 -29.015  1.00  0.00     0.053 C 
BRANCH   7   8
ATOM      8  C   UNL     1      16.097 -28.224 -29.696  1.00  0.00     0.041 C 
ATOM      9  O   UNL     1      15.740 -29.223 -30.376  1.00  0.00    -0.550 OA
ATOM     10  O   UNL     1      15.257 -27.120 -29.607  1.00  0.00    -0.550 OA
ENDBRANCH   7   8
ENDBRANCH   6   7
ENDBRANCH   5   6
ENDBRANCH   4   5
ENDBRANCH   3   4
ENDBRANCH   2   3
ENDBRANCH   1   2
BRANCH   1  11
ATOM     11  C   UNL     1      17.277 -22.175 -26.628  1.00  0.00     0.000 C 
BRANCH  11  12
ATOM     12  C   UNL     1      17.988 -22.200 -27.993  1.00  0.00     0.000 C 
BRANCH  12  13
ATOM     13  C   UNL     1      17.200 -22.884 -29.129  1.00  0.00     0.000 C 
BRANCH  13  14
ATOM     14  C   UNL     1      16.100 -23.855 -28.666  1.00  0.00     0.000 C 
BRANCH  14  15
ATOM     15  C   UNL     1      14.703 -23.458 -29.168  1.00  0.00     0.000 C 
BRANCH  15  16
ATOM     16  C   UNL     1      13.930 -22.689 -28.087  1.00  0.00     0.006 C 
BRANCH  16  17
ATOM     17  C   UNL     1      12.427 -22.999 -28.117  1.00  0.00     0.053 C 
BRANCH  17  18
ATOM     18  C   UNL     1      11.697 -22.126 -29.092  1.00  0.00     0.041 C 
ATOM     19  O   UNL     1      11.001 -22.643 -30.005  1.00  0.00    -0.550 OA
ATOM     20  O   UNL     1      11.757 -20.744 -28.971  1.00  0.00    -0.550 OA
ENDBRANCH  17  18
ENDBRANCH  16  17
ENDBRANCH  15  16
ENDBRANCH  14  15
ENDBRANCH  13  14
ENDBRANCH  12  13
ENDBRANCH  11  12
ENDBRANCH   1  11
TORSDOF 15
ENDMDL
MODEL 2
REMARK VINA RESULT:    -4.982      2.415      7.726
REMARK INTER + INTRA:         -11.243
REMARK INTER:                 -10.503
REMARK INTRA:                  -0.740
REMARK UNBOUND:                -1.891
REMARK SMILES O=C([O-])CCCCCCCCCCCCCCC(=O)[O-]
REMARK SMILES IDX 10 1 9 2 8 3 7 4 6 5 5 6 4 7 2 8 1 9 3 10 11 11 12 12 13 13
REMARK SMILES IDX 14 14 15 15 16 16 17 17 18 18 19 19 20 20
REMARK H PARENT
REMARK Flexibility Score: inf
ROOT
ATOM      1  C   UNL     1      15.486 -22.994 -27.609  1.00  0.00     0.000 C 
ENDROOT
BRANCH   1   2
ATOM      2  C   UNL     1      13.967 -22.985 -27.383  1.00  0.00     0.000 C 
BRANCH   2   3
ATOM      3  C   UNL     1      13.375 -21.566 -27.383  1.00  0.00     0.000 C 
BRANCH   3   4
ATOM      4  C   UNL     1      12.007 -21.497 -26.687  1.00  0.00     0.000 C 
BRANCH   4   5
ATOM      5  C   UNL     1      11.734 -20.085 -26.150  1.00  0.00     0.000 C 
BRANCH   5   6
ATOM      6  C   UNL     1      12.688 -19.024 -26.728  1.00  0.00     0.006 C 
BRANCH   6   7
ATOM      7  C   UNL     1      12.143 -18.312 -27.980  1.00  0.00     0.053 C 
BRANCH   7   8
ATOM      8  C   UNL     1      10.665 -18.076 -27.916  1.00  0.00     0.041 C 
ATOM      9  O   UNL     1       9.912 -18.503 -28.832  1.00  0.00    -0.550 OA
ATOM     10  O   UNL     1      10.120 -17.357 -26.860  1.00  0.00    -0.550 OA
ENDBRANCH   7   8
ENDBRANCH   6   7
ENDBRANCH   5   6
ENDBRANCH   4   5
ENDBRANCH   3   4
ENDBRANCH   2   3
ENDBRANCH   1   2
BRANCH   1  11
ATOM     11  C   UNL     1      16.232 -23.337 -26.309  1.00  0.00     0.000 C 
BRANCH  11  12
ATOM     12  C   UNL     1      17.760 -23.367 -26.487  1.00  0.00     0.000 C 
BRANCH  12  13
ATOM     13  C   UNL     1      18.471 -24.570 -25.835  1.00  0.00     0.000 C 
BRANCH  13  14
ATOM     14  C   UNL     1      18.117 -25.942 -26.436  1.00  0.00     0.000 C 
BRANCH  14  15
ATOM     15  C   UNL     1      18.931 -26.269 -27.697  1.00  0.00     0.000 C 
BRANCH  15  16
ATOM     16  C   UNL     1      18.331 -27.470 -28.441  1.00  0.00     0.006 C 
BRANCH  16  17
ATOM     17  C   UNL     1      16.986 -27.134 -29.098  1.00  0.00     0.053 C 
BRANCH  17  18
ATOM     18  C   UNL     1      15.997 -28.249 -28.947  1.00  0.00     0.041 C 
ATOM     19  O   UNL     1      15.983 -28.943 -27.896  1.00  0.00    -0.550 OA
ATOM     20  O   UNL     1      15.070 -28.499 -29.949  1.00  0.00    -0.550 OA
ENDBRANCH  17  18
ENDBRANCH  16  17
ENDBRANCH  15  16
ENDBRANCH  14  15
ENDBRANCH  13  14
ENDBRANCH  12  13
ENDBRANCH  11  12
ENDBRANCH   1  11
TORSDOF 15
ENDMDL
MODEL 3
REMARK VINA RESULT:    -4.976      2.552      7.531
REMARK INTER + INTRA:         -11.231
REMARK INTER:                 -10.107
REMARK INTRA:                  -1.124
REMARK UNBOUND:                -1.891
REMARK SMILES O=C([O-])CCCCCCCCCCCCCCC(=O)[O-]
REMARK SMILES IDX 10 1 9 2 8 3 7 4 6 5 5 6 4 7 2 8 1 9 3 10 11 11 12 12 13 13
REMARK SMILES IDX 14 14 15 15 16 16 17 17 18 18 19 19 20 20
REMARK H PARENT
REMARK Flexibility Score: inf
ROOT
ATOM      1  C   UNL     1      16.424 -23.410 -28.185  1.00  0.00     0.000 C 
ENDROOT
BRANCH   1   2
ATOM      2  C   UNL     1      14.909 -23.590 -28.365  1.00  0.00     0.000 C 
BRANCH   2   3
ATOM      3  C   UNL     1      14.089 -22.744 -27.378  1.00  0.00     0.000 C 
BRANCH   3   4
ATOM      4  C   UNL     1      12.686 -22.412 -27.907  1.00  0.00     0.000 C 
BRANCH   4   5
ATOM      5  C   UNL     1      12.425 -20.900 -27.866  1.00  0.00     0.000 C 
BRANCH   5   6
ATOM      6  C   UNL     1      12.199 -20.364 -26.440  1.00  0.00     0.006 C 
BRANCH   6   7
ATOM      7  C   UNL     1      12.905 -19.026 -26.157  1.00  0.00     0.053 C 
BRANCH   7   8
ATOM      8  C   UNL     1      12.350 -18.321 -24.957  1.00  0.00     0.041 C 
ATOM      9  O   UNL     1      13.087 -18.079 -23.963  1.00  0.00    -0.550 OA
ATOM     10  O   UNL     1      11.011 -17.956 -24.922  1.00  0.00    -0.550 OA
ENDBRANCH   7   8
ENDBRANCH   6   7
ENDBRANCH   5   6
ENDBRANCH   4   5
ENDBRANCH   3   4
ENDBRANCH   2   3
ENDBRANCH   1   2
BRANCH   1  11
ATOM     11  C   UNL     1      16.734 -22.613 -26.909  1.00  0.00     0.000 C 
BRANCH  11  12
ATOM     12  C   UNL     1      17.228 -23.502 -25.754  1.00  0.00     0.000 C 
BRANCH  12  13
ATOM     13  C   UNL     1      17.510 -24.970 -26.134  1.00  0.00     0.000 C 
BRANCH  13  14
ATOM     14  C   UNL     1      18.977 -25.285 -26.476  1.00  0.00     0.000 C 
BRANCH  14  15
ATOM     15  C   UNL     1      19.127 -26.090 -27.776  1.00  0.00     0.000 C 
BRANCH  15  16
ATOM     16  C   UNL     1      17.943 -27.049 -27.967  1.00  0.00     0.006 C 
BRANCH  16  17
ATOM     17  C   UNL     1      17.639 -27.311 -29.448  1.00  0.00     0.053 C 
BRANCH  17  18
ATOM     18  C   UNL     1      16.444 -28.196 -29.624  1.00  0.00     0.041 C 
ATOM     19  O   UNL     1      16.442 -29.359 -29.141  1.00  0.00    -0.550 OA
ATOM     20  O   UNL     1      15.320 -27.725 -30.290  1.00  0.00    -0.550 OA
ENDBRANCH  17  18
ENDBRANCH  16  17
ENDBRANCH  15  16
ENDBRANCH  14  15
ENDBRANCH  13  14
ENDBRANCH  12  13
ENDBRANCH  11  12
ENDBRANCH   1  11
TORSDOF 15
ENDMDL
MODEL 4
REMARK VINA RESULT:    -4.966      2.545      3.502
REMARK INTER + INTRA:         -11.213
REMARK INTER:                 -10.117
REMARK INTRA:                  -1.096
REMARK UNBOUND:                -1.891
REMARK SMILES O=C([O-])CCCCCCCCCCCCCCC(=O)[O-]
REMARK SMILES IDX 10 1 9 2 8 3 7 4 6 5 5 6 4 7 2 8 1 9 3 10 11 11 12 12 13 13
REMARK SMILES IDX 14 14 15 15 16 16 17 17 18 18 19 19 20 20
REMARK H PARENT
REMARK Flexibility Score: inf
ROOT
ATOM      1  C   UNL     1      16.954 -22.812 -27.460  1.00  0.00     0.000 C 
ENDROOT
BRANCH   1   2
ATOM      2  C   UNL     1      17.128 -23.857 -28.572  1.00  0.00     0.000 C 
BRANCH   2   3
ATOM      3  C   UNL     1      18.599 -24.078 -28.955  1.00  0.00     0.000 C 
BRANCH   3   4
ATOM      4  C   UNL     1      18.956 -25.566 -29.100  1.00  0.00     0.000 C 
BRANCH   4   5
ATOM      5  C   UNL     1      18.257 -26.407 -28.023  1.00  0.00     0.000 C 
BRANCH   5   6
ATOM      6  C   UNL     1      17.967 -27.849 -28.477  1.00  0.00     0.006 C 
BRANCH   6   7
ATOM      7  C   UNL     1      16.502 -28.281 -28.282  1.00  0.00     0.053 C 
BRANCH   7   8
ATOM      8  C   UNL     1      15.634 -27.930 -29.451  1.00  0.00     0.041 C 
ATOM      9  O   UNL     1      15.351 -28.799 -30.319  1.00  0.00    -0.550 OA
ATOM     10  O   UNL     1      15.159 -26.633 -29.600  1.00  0.00    -0.550 OA
ENDBRANCH   7   8
ENDBRANCH   6   7
ENDBRANCH   5   6
ENDBRANCH   4   5
ENDBRANCH   3   4
ENDBRANCH   2   3
ENDBRANCH   1   2
BRANCH   1  11
ATOM     11  C   UNL     1      15.492 -22.746 -26.992  1.00  0.00     0.000 C 
BRANCH  11  12
ATOM     12  C   UNL     1      14.490 -23.065 -28.117  1.00  0.00     0.000 C 
BRANCH  12  13
ATOM     13  C   UNL     1      13.023 -22.703 -27.808  1.00  0.00     0.000 C 
BRANCH  13  14
ATOM     14  C   UNL     1      12.347 -21.785 -28.842  1.00  0.00     0.000 C 
BRANCH  14  15
ATOM     15  C   UNL     1      11.994 -20.403 -28.273  1.00  0.00     0.000 C 
BRANCH  15  16
ATOM     16  C   UNL     1      12.107 -20.395 -26.741  1.00  0.00     0.006 C 
BRANCH  16  17
ATOM     17  C   UNL     1      12.924 -19.203 -26.225  1.00  0.00     0.053 C 
BRANCH  17  18
ATOM     18  C   UNL     1      12.219 -18.482 -25.117  1.00  0.00     0.041 C 
ATOM     19  O   UNL     1      10.968 -18.344 -25.149  1.00  0.00    -0.550 OA
ATOM     20  O   UNL     1      12.939 -17.994 -24.035  1.00  0.00    -0.550 OA
ENDBRANCH  17  18
ENDBRANCH  16  17
ENDBRANCH  15  16
ENDBRANCH  14  15
ENDBRANCH  13  14
ENDBRANCH  12  13
ENDBRANCH  11  12
ENDBRANCH   1  11
TORSDOF 15
ENDMDL
MODEL 5
REMARK VINA RESULT:    -4.928      1.016      5.843
REMARK INTER + INTRA:         -11.140
REMARK INTER:                  -9.312
REMARK INTRA:                  -1.828
REMARK UNBOUND:                -1.891
REMARK SMILES O=C([O-])CCCCCCCCCCCCCCC(=O)[O-]
REMARK SMILES IDX 10 1 9 2 8 3 7 4 6 5 5 6 4 7 2 8 1 9 3 10 11 11 12 12 13 13
REMARK SMILES IDX 14 14 15 15 16 16 17 17 18 18 19 19 20 20
REMARK H PARENT
REMARK Flexibility Score: inf
ROOT
ATOM      1  C   UNL     1      19.043 -21.943 -26.189  1.00  0.00     0.000 C 
ENDROOT
BRANCH   1   2
ATOM      2  C   UNL     1      17.662 -21.905 -26.862  1.00  0.00     0.000 C 
BRANCH   2   3
ATOM      3  C   UNL     1      17.662 -22.557 -28.254  1.00  0.00     0.000 C 
BRANCH   3   4
ATOM      4  C   UNL     1      16.419 -23.425 -28.500  1.00  0.00     0.000 C 
BRANCH   4   5
ATOM      5  C   UNL     1      15.273 -23.024 -27.561  1.00  0.00     0.000 C 
BRANCH   5   6
ATOM      6  C   UNL     1      13.928 -22.846 -28.290  1.00  0.00     0.006 C 
BRANCH   6   7
ATOM      7  C   UNL     1      12.873 -22.076 -27.475  1.00  0.00     0.053 C 
BRANCH   7   8
ATOM      8  C   UNL     1      12.065 -21.135 -28.315  1.00  0.00     0.041 C 
ATOM      9  O   UNL     1      11.377 -21.571 -29.277  1.00  0.00    -0.550 OA
ATOM     10  O   UNL     1      12.093 -19.771 -28.055  1.00  0.00    -0.550 OA
ENDBRANCH   7   8
ENDBRANCH   6   7
ENDBRANCH   5   6
ENDBRANCH   4   5
ENDBRANCH   3   4
ENDBRANCH   2   3
ENDBRANCH   1   2
BRANCH   1  11
ATOM     11  C   UNL     1      19.124 -23.087 -25.166  1.00  0.00     0.000 C 
BRANCH  11  12
ATOM     12  C   UNL     1      17.739 -23.612 -24.747  1.00  0.00     0.000 C 
BRANCH  12  13
ATOM     13  C   UNL     1      17.486 -25.103 -25.050  1.00  0.00     0.000 C 
BRANCH  13  14
ATOM     14  C   UNL     1      18.237 -25.657 -26.273  1.00  0.00     0.000 C 
BRANCH  14  15
ATOM     15  C   UNL     1      17.438 -26.730 -27.029  1.00  0.00     0.000 C 
BRANCH  15  16
ATOM     16  C   UNL     1      18.077 -27.031 -28.392  1.00  0.00     0.006 C 
BRANCH  16  17
ATOM     17  C   UNL     1      17.309 -28.109 -29.169  1.00  0.00     0.053 C 
BRANCH  17  18
ATOM     18  C   UNL     1      15.989 -27.603 -29.666  1.00  0.00     0.041 C 
ATOM     19  O   UNL     1      14.928 -28.219 -29.381  1.00  0.00    -0.550 OA
ATOM     20  O   UNL     1      15.928 -26.435 -30.414  1.00  0.00    -0.550 OA
ENDBRANCH  17  18
ENDBRANCH  16  17
ENDBRANCH  15  16
ENDBRANCH  14  15
ENDBRANCH  13  14
ENDBRANCH  12  13
ENDBRANCH  11  12
ENDBRANCH   1  11
TORSDOF 15
ENDMDL
MODEL 6
REMARK VINA RESULT:    -4.901      2.498      7.922
REMARK INTER + INTRA:         -11.089
REMARK INTER:                 -10.101
REMARK INTRA:                  -0.988
REMARK UNBOUND:                -1.891
REMARK SMILES O=C([O-])CCCCCCCCCCCCCCC(=O)[O-]
REMARK SMILES IDX 10 1 9 2 8 3 7 4 6 5 5 6 4 7 2 8 1 9 3 10 11 11 12 12 13 13
REMARK SMILES IDX 14 14 15 15 16 16 17 17 18 18 19 19 20 20
REMARK H PARENT
REMARK Flexibility Score: inf
ROOT
ATOM      1  C   UNL     1      12.902 -23.138 -28.651  1.00  0.00     0.000 C 
ENDROOT
BRANCH   1   2
ATOM      2  C   UNL     1      12.436 -23.281 -27.195  1.00  0.00     0.000 C 
BRANCH   2   3
ATOM      3  C   UNL     1      11.916 -21.961 -26.604  1.00  0.00     0.000 C 
BRANCH   3   4
ATOM      4  C   UNL     1      12.221 -20.752 -27.501  1.00  0.00     0.000 C 
BRANCH   4   5
ATOM      5  C   UNL     1      12.618 -19.530 -26.661  1.00  0.00     0.000 C 
BRANCH   5   6
ATOM      6  C   UNL     1      12.034 -18.211 -27.201  1.00  0.00     0.006 C 
BRANCH   6   7
ATOM      7  C   UNL     1      10.496 -18.164 -27.200  1.00  0.00     0.053 C 
BRANCH   7   8
ATOM      8  C   UNL     1       9.919 -18.034 -28.577  1.00  0.00     0.041 C 
ATOM      9  O   UNL     1      10.656 -17.714 -29.549  1.00  0.00    -0.550 OA
ATOM     10  O   UNL     1       8.561 -18.236 -28.784  1.00  0.00    -0.550 OA
ENDBRANCH   7   8
ENDBRANCH   6   7
ENDBRANCH   5   6
ENDBRANCH   4   5
ENDBRANCH   3   4
ENDBRANCH   2   3
ENDBRANCH   1   2
BRANCH   1  11
ATOM     11  C   UNL     1      14.398 -23.464 -28.783  1.00  0.00     0.000 C 
BRANCH  11  12
ATOM     12  C   UNL     1      15.211 -23.054 -27.542  1.00  0.00     0.000 C 
BRANCH  12  13
ATOM     13  C   UNL     1      16.742 -23.137 -27.707  1.00  0.00     0.000 C 
BRANCH  13  14
ATOM     14  C   UNL     1      17.461 -24.031 -26.680  1.00  0.00     0.000 C 
BRANCH  14  15
ATOM     15  C   UNL     1      18.356 -25.093 -27.337  1.00  0.00     0.000 C 
BRANCH  15  16
ATOM     16  C   UNL     1      17.693 -26.477 -27.287  1.00  0.00     0.006 C 
BRANCH  16  17
ATOM     17  C   UNL     1      17.587 -27.121 -28.676  1.00  0.00     0.053 C 
BRANCH  17  18
ATOM     18  C   UNL     1      16.301 -27.871 -28.845  1.00  0.00     0.041 C 
ATOM     19  O   UNL     1      16.167 -29.017 -28.341  1.00  0.00    -0.550 OA
ATOM     20  O   UNL     1      15.241 -27.291 -29.528  1.00  0.00    -0.550 OA
ENDBRANCH  17  18
ENDBRANCH  16  17
ENDBRANCH  15  16
ENDBRANCH  14  15
ENDBRANCH  13  14
ENDBRANCH  12  13
ENDBRANCH  11  12
ENDBRANCH   1  11
TORSDOF 15
ENDMDL
MODEL 7
REMARK VINA RESULT:    -4.855      1.492      2.467
REMARK INTER + INTRA:         -11.003
REMARK INTER:                  -8.799
REMARK INTRA:                  -2.204
REMARK UNBOUND:                -1.891
REMARK SMILES O=C([O-])CCCCCCCCCCCCCCC(=O)[O-]
REMARK SMILES IDX 10 1 9 2 8 3 7 4 6 5 5 6 4 7 2 8 1 9 3 10 11 11 12 12 13 13
REMARK SMILES IDX 14 14 15 15 16 16 17 17 18 18 19 19 20 20
REMARK H PARENT
REMARK Flexibility Score: inf
ROOT
ATOM      1  C   UNL     1      17.744 -23.625 -24.004  1.00  0.00     0.000 C 
ENDROOT
BRANCH   1   2
ATOM      2  C   UNL     1      17.323 -24.912 -24.730  1.00  0.00     0.000 C 
BRANCH   2   3
ATOM      3  C   UNL     1      18.354 -25.370 -25.774  1.00  0.00     0.000 C 
BRANCH   3   4
ATOM      4  C   UNL     1      17.749 -26.305 -26.832  1.00  0.00     0.000 C 
BRANCH   4   5
ATOM      5  C   UNL     1      18.680 -26.440 -28.044  1.00  0.00     0.000 C 
BRANCH   5   6
ATOM      6  C   UNL     1      17.922 -26.652 -29.368  1.00  0.00     0.006 C 
BRANCH   6   7
ATOM      7  C   UNL     1      16.394 -26.745 -29.203  1.00  0.00     0.053 C 
BRANCH   7   8
ATOM      8  C   UNL     1      15.889 -28.154 -29.270  1.00  0.00     0.041 C 
ATOM      9  O   UNL     1      15.141 -28.518 -30.216  1.00  0.00    -0.550 OA
ATOM     10  O   UNL     1      16.218 -29.059 -28.269  1.00  0.00    -0.550 OA
ENDBRANCH   7   8
ENDBRANCH   6   7
ENDBRANCH   5   6
ENDBRANCH   4   5
ENDBRANCH   3   4
ENDBRANCH   2   3
ENDBRANCH   1   2
BRANCH   1  11
ATOM     11  C   UNL     1      19.206 -23.272 -24.318  1.00  0.00     0.000 C 
BRANCH  11  12
ATOM     12  C   UNL     1      19.354 -21.915 -25.028  1.00  0.00     0.000 C 
BRANCH  12  13
ATOM     13  C   UNL     1      18.191 -21.538 -25.968  1.00  0.00     0.000 C 
BRANCH  13  14
ATOM     14  C   UNL     1      18.513 -21.625 -27.471  1.00  0.00     0.000 C 
BRANCH  14  15
ATOM     15  C   UNL     1      17.596 -22.601 -28.222  1.00  0.00     0.000 C 
BRANCH  15  16
ATOM     16  C   UNL     1      16.252 -22.761 -27.496  1.00  0.00     0.006 C 
BRANCH  16  17
ATOM     17  C   UNL     1      15.186 -23.416 -28.383  1.00  0.00     0.053 C 
BRANCH  17  18
ATOM     18  C   UNL     1      13.799 -23.054 -27.948  1.00  0.00     0.041 C 
ATOM     19  O   UNL     1      13.603 -22.023 -27.252  1.00  0.00    -0.550 OA
ATOM     20  O   UNL     1      12.719 -23.834 -28.340  1.00  0.00    -0.550 OA
ENDBRANCH  17  18
ENDBRANCH  16  17
ENDBRANCH  15  16
ENDBRANCH  14  15
ENDBRANCH  13  14
ENDBRANCH  12  13
ENDBRANCH  11  12
ENDBRANCH   1  11
TORSDOF 15
ENDMDL
MODEL 8
REMARK VINA RESULT:    -4.850      1.967      3.236
REMARK INTER + INTRA:         -10.994
REMARK INTER:                  -9.872
REMARK INTRA:                  -1.122
REMARK UNBOUND:                -1.891
REMARK SMILES O=C([O-])CCCCCCCCCCCCCCC(=O)[O-]
REMARK SMILES IDX 10 1 9 2 8 3 7 4 6 5 5 6 4 7 2 8 1 9 3 10 11 11 12 12 13 13
REMARK SMILES IDX 14 14 15 15 16 16 17 17 18 18 19 19 20 20
REMARK H PARENT
REMARK Flexibility Score: inf
ROOT
ATOM      1  C   UNL     1      16.000 -23.289 -28.051  1.00  0.00     0.000 C 
ENDROOT
BRANCH   1   2
ATOM      2  C   UNL     1      17.362 -23.139 -28.743  1.00  0.00     0.000 C 
BRANCH   2   3
ATOM      3  C   UNL     1      18.529 -23.634 -27.873  1.00  0.00     0.000 C 
BRANCH   3   4
ATOM      4  C   UNL     1      18.223 -24.971 -27.181  1.00  0.00     0.000 C 
BRANCH   4   5
ATOM      5  C   UNL     1      19.067 -26.106 -27.778  1.00  0.00     0.000 C 
BRANCH   5   6
ATOM      6  C   UNL     1      18.223 -27.311 -28.233  1.00  0.00     0.006 C 
BRANCH   6   7
ATOM      7  C   UNL     1      17.032 -26.935 -29.133  1.00  0.00     0.053 C 
BRANCH   7   8
ATOM      8  C   UNL     1      16.082 -28.074 -29.345  1.00  0.00     0.041 C 
ATOM      9  O   UNL     1      16.517 -29.249 -29.478  1.00  0.00    -0.550 OA
ATOM     10  O   UNL     1      14.716 -27.834 -29.425  1.00  0.00    -0.550 OA
ENDBRANCH   7   8
ENDBRANCH   6   7
ENDBRANCH   5   6
ENDBRANCH   4   5
ENDBRANCH   3   4
ENDBRANCH   2   3
ENDBRANCH   1   2
BRANCH   1  11
ATOM     11  C   UNL     1      14.935 -23.790 -29.040  1.00  0.00     0.000 C 
BRANCH  11  12
ATOM     12  C   UNL     1      13.500 -23.456 -28.593  1.00  0.00     0.000 C 
BRANCH  12  13
ATOM     13  C   UNL     1      13.364 -22.982 -27.132  1.00  0.00     0.000 C 
BRANCH  13  14
ATOM     14  C   UNL     1      12.115 -22.132 -26.836  1.00  0.00     0.000 C 
BRANCH  14  15
ATOM     15  C   UNL     1      12.007 -20.894 -27.740  1.00  0.00     0.000 C 
BRANCH  15  16
ATOM     16  C   UNL     1      12.533 -19.643 -27.021  1.00  0.00     0.006 C 
BRANCH  16  17
ATOM     17  C   UNL     1      11.627 -18.424 -27.238  1.00  0.00     0.053 C 
BRANCH  17  18
ATOM     18  C   UNL     1      11.152 -18.328 -28.655  1.00  0.00     0.041 C 
ATOM     19  O   UNL     1       9.929 -18.465 -28.923  1.00  0.00    -0.550 OA
ATOM     20  O   UNL     1      12.053 -18.052 -29.675  1.00  0.00    -0.550 OA
ENDBRANCH  17  18
ENDBRANCH  16  17
ENDBRANCH  15  16
ENDBRANCH  14  15
ENDBRANCH  13  14
ENDBRANCH  12  13
ENDBRANCH  11  12
ENDBRANCH   1  11
TORSDOF 15
ENDMDL
MODEL 9
REMARK VINA RESULT:    -4.833      3.448      5.004
REMARK INTER + INTRA:         -10.962
REMARK INTER:                  -9.901
REMARK INTRA:                  -1.061
REMARK UNBOUND:                -1.891
REMARK SMILES O=C([O-])CCCCCCCCCCCCCCC(=O)[O-]
REMARK SMILES IDX 10 1 9 2 8 3 7 4 6 5 5 6 4 7 2 8 1 9 3 10 11 11 12 12 13 13
REMARK SMILES IDX 14 14 15 15 16 16 17 17 18 18 19 19 20 20
REMARK H PARENT
REMARK Flexibility Score: inf
ROOT
ATOM      1  C   UNL     1      13.282 -23.054 -28.323  1.00  0.00     0.000 C 
ENDROOT
BRANCH   1   2
ATOM      2  C   UNL     1      14.813 -23.157 -28.397  1.00  0.00     0.000 C 
BRANCH   2   3
ATOM      3  C   UNL     1      15.492 -22.897 -27.043  1.00  0.00     0.000 C 
BRANCH   3   4
ATOM      4  C   UNL     1      17.024 -22.989 -27.122  1.00  0.00     0.000 C 
BRANCH   4   5
ATOM      5  C   UNL     1      17.499 -23.013 -28.582  1.00  0.00     0.000 C 
BRANCH   5   6
ATOM      6  C   UNL     1      18.299 -24.280 -28.935  1.00  0.00     0.006 C 
BRANCH   6   7
ATOM      7  C   UNL     1      17.556 -25.593 -28.628  1.00  0.00     0.053 C 
BRANCH   7   8
ATOM      8  C   UNL     1      18.479 -26.696 -28.207  1.00  0.00     0.041 C 
ATOM      9  O   UNL     1      18.191 -27.897 -28.457  1.00  0.00    -0.550 OA
ATOM     10  O   UNL     1      19.644 -26.401 -27.510  1.00  0.00    -0.550 OA
ENDBRANCH   7   8
ENDBRANCH   6   7
ENDBRANCH   5   6
ENDBRANCH   4   5
ENDBRANCH   3   4
ENDBRANCH   2   3
ENDBRANCH   1   2
BRANCH   1  11
ATOM     11  C   UNL     1      12.808 -22.972 -26.864  1.00  0.00     0.000 C 
BRANCH  11  12
ATOM     12  C   UNL     1      11.880 -21.773 -26.603  1.00  0.00     0.000 C 
BRANCH  12  13
ATOM     13  C   UNL     1      12.325 -20.448 -27.254  1.00  0.00     0.000 C 
BRANCH  13  14
ATOM     14  C   UNL     1      12.704 -19.330 -26.267  1.00  0.00     0.000 C 
BRANCH  14  15
ATOM     15  C   UNL     1      11.553 -18.345 -26.010  1.00  0.00     0.000 C 
BRANCH  15  16
ATOM     16  C   UNL     1      10.738 -18.108 -27.290  1.00  0.00     0.006 C 
BRANCH  16  17
ATOM     17  C   UNL     1       9.306 -17.647 -26.990  1.00  0.00     0.053 C 
BRANCH  17  18
ATOM     18  C   UNL     1       8.577 -17.247 -28.236  1.00  0.00     0.041 C 
ATOM     19  O   UNL     1       7.958 -16.151 -28.282  1.00  0.00    -0.550 OA
ATOM     20  O   UNL     1       8.610 -18.066 -29.356  1.00  0.00    -0.550 OA
ENDBRANCH  17  18
ENDBRANCH  16  17
ENDBRANCH  15  16
ENDBRANCH  14  15
ENDBRANCH  13  14
ENDBRANCH  12  13
ENDBRANCH  11  12
ENDBRANCH   1  11
TORSDOF 15
ENDMDL
