MODEL 1
REMARK VINA RESULT:    -5.578      0.000      0.000
REMARK INTER + INTRA:         -14.645
REMARK INTER:                 -12.099
REMARK INTRA:                  -2.546
REMARK UNBOUND:                -2.546
REMARK SMILES CCCCCCCCCCCCCCCCCCCCCC(=O)[O-]
REMARK SMILES IDX 12 1 11 2 10 3 9 4 8 5 7 6 6 7 5 8 4 9 3 10 2 11 1 12 13 13
REMARK SMILES IDX 14 14 15 15 16 16 17 17 18 18 19 19 20 20 21 21 22 22 23 23
REMARK SMILES IDX 24 24
REMARK H PARENT
REMARK Flexibility Score: inf
ROOT
ATOM      1  C   UNL     1      18.648   1.748 -22.686  1.00  0.00     0.000 C 
ENDROOT
BRANCH   1   2
ATOM      2  C   UNL     1      17.125   1.584 -22.735  1.00  0.00     0.000 C 
BRANCH   2   3
ATOM      3  C   UNL     1      16.736   0.164 -23.173  1.00  0.00     0.000 C 
BRANCH   3   4
ATOM      4  C   UNL     1      16.156   0.112 -24.598  1.00  0.00    -0.000 C 
BRANCH   4   5
ATOM      5  C   UNL     1      16.015   1.478 -25.294  1.00  0.00    -0.000 C 
BRANCH   5   6
ATOM      6  C   UNL     1      16.902   1.614 -26.540  1.00  0.00    -0.000 C 
BRANCH   6   7
ATOM      7  C   UNL     1      18.282   0.982 -26.301  1.00  0.00    -0.000 C 
BRANCH   7   8
ATOM      8  C   UNL     1      18.626  -0.108 -27.333  1.00  0.00    -0.000 C 
BRANCH   8   9
ATOM      9  C   UNL     1      19.153  -1.425 -26.732  1.00  0.00    -0.000 C 
BRANCH   9  10
ATOM     10  C   UNL     1      19.700  -1.311 -25.295  1.00  0.00    -0.000 C 
BRANCH  10  11
ATOM     11  C   UNL     1      21.238  -1.414 -25.209  1.00  0.00    -0.003 C 
ATOM     12  C   UNL     1      21.898  -0.075 -24.879  1.00  0.00     0.004 C 
ENDBRANCH  10  11
ENDBRANCH   9  10
ENDBRANCH   8   9
ENDBRANCH   7   8
ENDBRANCH   6   7
ENDBRANCH   5   6
ENDBRANCH   4   5
ENDBRANCH   3   4
ENDBRANCH   2   3
ENDBRANCH   1   2
BRANCH   1  13
ATOM     13  C   UNL     1      19.321   0.465 -22.172  1.00  0.00     0.000 C 
BRANCH  13  14
ATOM     14  C   UNL     1      20.666   0.738 -21.480  1.00  0.00     0.000 C 
BRANCH  14  15
ATOM     15  C   UNL     1      20.545   0.777 -19.946  1.00  0.00     0.000 C 
BRANCH  15  16
ATOM     16  C   UNL     1      20.093  -0.579 -19.363  1.00  0.00     0.000 C 
BRANCH  16  17
ATOM     17  C   UNL     1      21.130  -1.230 -18.431  1.00  0.00     0.000 C 
BRANCH  17  18
ATOM     18  C   UNL     1      20.485  -1.964 -17.245  1.00  0.00     0.000 C 
BRANCH  18  19
ATOM     19  C   UNL     1      20.983  -1.453 -15.883  1.00  0.00     0.000 C 
BRANCH  19  20
ATOM     20  C   UNL     1      19.916  -0.651 -15.120  1.00  0.00     0.006 C 
BRANCH  20  21
ATOM     21  C   UNL     1      19.795   0.771 -15.676  1.00  0.00     0.053 C 
BRANCH  21  22
ATOM     22  C   UNL     1      18.357   1.135 -15.889  1.00  0.00     0.041 C 
ATOM     23  O   UNL     1      18.004   1.735 -16.937  1.00  0.00    -0.550 OA
ATOM     24  O   UNL     1      17.405   0.798 -14.933  1.00  0.00    -0.550 OA
ENDBRANCH  21  22
ENDBRANCH  20  21
ENDBRANCH  19  20
ENDBRANCH  18  19
ENDBRANCH  17  18
ENDBRANCH  16  17
ENDBRANCH  15  16
ENDBRANCH  14  15
ENDBRANCH  13  14
ENDBRANCH   1  13
TORSDOF 20
ENDMDL
MODEL 2
REMARK VINA RESULT:    -5.562      1.664      4.332
REMARK INTER + INTRA:         -14.611
REMARK INTER:                 -11.824
REMARK INTRA:                  -2.787
REMARK UNBOUND:                -2.546
REMARK SMILES CCCCCCCCCCCCCCCCCCCCCC(=O)[O-]
REMARK SMILES IDX 12 1 11 2 10 3 9 4 8 5 7 6 6 7 5 8 4 9 3 10 2 11 1 12 13 13
REMARK SMILES IDX 14 14 15 15 16 16 17 17 18 18 19 19 20 20 21 21 22 22 23 23
REMARK SMILES IDX 24 24
REMARK H PARENT
REMARK Flexibility Score: inf
ROOT
ATOM      1  C   UNL     1      19.864  -0.907 -19.121  1.00  0.00     0.000 C 
ENDROOT
BRANCH   1   2
ATOM      2  C   UNL     1      20.923   0.081 -19.625  1.00  0.00     0.000 C 
BRANCH   2   3
ATOM      3  C   UNL     1      20.275   1.389 -20.103  1.00  0.00     0.000 C 
BRANCH   3   4
ATOM      4  C   UNL     1      21.074   2.080 -21.224  1.00  0.00    -0.000 C 
BRANCH   4   5
ATOM      5  C   UNL     1      20.539   1.840 -22.647  1.00  0.00    -0.000 C 
BRANCH   5   6
ATOM      6  C   UNL     1      20.870   0.440 -23.187  1.00  0.00    -0.000 C 
BRANCH   6   7
ATOM      7  C   UNL     1      19.628  -0.215 -23.809  1.00  0.00    -0.000 C 
BRANCH   7   8
ATOM      8  C   UNL     1      18.577  -0.620 -22.759  1.00  0.00    -0.000 C 
BRANCH   8   9
ATOM      9  C   UNL     1      17.132  -0.208 -23.098  1.00  0.00    -0.000 C 
BRANCH   9  10
ATOM     10  C   UNL     1      16.851   1.305 -23.014  1.00  0.00    -0.000 C 
BRANCH  10  11
ATOM     11  C   UNL     1      16.896   2.020 -24.381  1.00  0.00    -0.003 C 
ATOM     12  C   UNL     1      15.884   1.449 -25.376  1.00  0.00     0.004 C 
ENDBRANCH  10  11
ENDBRANCH   9  10
ENDBRANCH   8   9
ENDBRANCH   7   8
ENDBRANCH   6   7
ENDBRANCH   5   6
ENDBRANCH   4   5
ENDBRANCH   3   4
ENDBRANCH   2   3
ENDBRANCH   1   2
BRANCH   1  13
ATOM     13  C   UNL     1      20.525  -2.140 -18.485  1.00  0.00     0.000 C 
BRANCH  13  14
ATOM     14  C   UNL     1      19.884  -2.530 -17.143  1.00  0.00     0.000 C 
BRANCH  14  15
ATOM     15  C   UNL     1      19.889  -1.374 -16.126  1.00  0.00     0.000 C 
BRANCH  15  16
ATOM     16  C   UNL     1      21.142  -1.400 -15.224  1.00  0.00     0.000 C 
BRANCH  16  17
ATOM     17  C   UNL     1      22.260  -0.450 -15.688  1.00  0.00     0.000 C 
BRANCH  17  18
ATOM     18  C   UNL     1      21.722   0.895 -16.202  1.00  0.00     0.000 C 
BRANCH  18  19
ATOM     19  C   UNL     1      21.466   1.907 -15.073  1.00  0.00     0.000 C 
BRANCH  19  20
ATOM     20  C   UNL     1      19.970   2.108 -14.780  1.00  0.00     0.006 C 
BRANCH  20  21
ATOM     21  C   UNL     1      19.172   2.268 -16.077  1.00  0.00     0.053 C 
BRANCH  21  22
ATOM     22  C   UNL     1      17.799   1.687 -15.929  1.00  0.00     0.041 C 
ATOM     23  O   UNL     1      17.546   0.892 -14.985  1.00  0.00    -0.550 OA
ATOM     24  O   UNL     1      16.796   2.034 -16.826  1.00  0.00    -0.550 OA
ENDBRANCH  21  22
ENDBRANCH  20  21
ENDBRANCH  19  20
ENDBRANCH  18  19
ENDBRANCH  17  18
ENDBRANCH  16  17
ENDBRANCH  15  16
ENDBRANCH  14  15
ENDBRANCH  13  14
ENDBRANCH   1  13
TORSDOF 20
ENDMDL
MODEL 3
REMARK VINA RESULT:    -5.486      3.387      8.204
REMARK INTER + INTRA:         -14.447
REMARK INTER:                 -11.498
REMARK INTRA:                  -2.948
REMARK UNBOUND:                -2.546
REMARK SMILES CCCCCCCCCCCCCCCCCCCCCC(=O)[O-]
REMARK SMILES IDX 12 1 11 2 10 3 9 4 8 5 7 6 6 7 5 8 4 9 3 10 2 11 1 12 13 13
REMARK SMILES IDX 14 14 15 15 16 16 17 17 18 18 19 19 20 20 21 21 22 22 23 23
REMARK SMILES IDX 24 24
REMARK H PARENT
REMARK Flexibility Score: inf
ROOT
ATOM      1  C   UNL     1      16.367  -0.485 -24.588  1.00  0.00     0.000 C 
ENDROOT
BRANCH   1   2
ATOM      2  C   UNL     1      16.729   0.221 -23.275  1.00  0.00     0.000 C 
BRANCH   2   3
ATOM      3  C   UNL     1      18.088  -0.261 -22.746  1.00  0.00     0.000 C 
BRANCH   3   4
ATOM      4  C   UNL     1      18.862   0.835 -21.991  1.00  0.00    -0.000 C 
BRANCH   4   5
ATOM      5  C   UNL     1      20.389   0.649 -21.959  1.00  0.00    -0.000 C 
BRANCH   5   6
ATOM      6  C   UNL     1      20.977   0.735 -20.542  1.00  0.00    -0.000 C 
BRANCH   6   7
ATOM      7  C   UNL     1      20.047   0.060 -19.522  1.00  0.00    -0.000 C 
BRANCH   7   8
ATOM      8  C   UNL     1      20.777  -0.967 -18.637  1.00  0.00    -0.000 C 
BRANCH   8   9
ATOM      9  C   UNL     1      19.863  -2.014 -17.971  1.00  0.00    -0.000 C 
BRANCH   9  10
ATOM     10  C   UNL     1      20.121  -2.240 -16.469  1.00  0.00    -0.000 C 
BRANCH  10  11
ATOM     11  C   UNL     1      20.603  -0.975 -15.726  1.00  0.00    -0.003 C 
ATOM     12  C   UNL     1      22.010  -1.133 -15.150  1.00  0.00     0.004 C 
ENDBRANCH  10  11
ENDBRANCH   9  10
ENDBRANCH   8   9
ENDBRANCH   7   8
ENDBRANCH   6   7
ENDBRANCH   5   6
ENDBRANCH   4   5
ENDBRANCH   3   4
ENDBRANCH   2   3
ENDBRANCH   1   2
BRANCH   1  13
ATOM     13  C   UNL     1      15.666   0.484 -25.554  1.00  0.00     0.000 C 
BRANCH  13  14
ATOM     14  C   UNL     1      15.997   1.956 -25.260  1.00  0.00     0.000 C 
BRANCH  14  15
ATOM     15  C   UNL     1      17.189   2.472 -26.086  1.00  0.00     0.000 C 
BRANCH  15  16
ATOM     16  C   UNL     1      18.345   2.967 -25.192  1.00  0.00     0.000 C 
BRANCH  16  17
ATOM     17  C   UNL     1      19.629   2.129 -25.318  1.00  0.00     0.000 C 
BRANCH  17  18
ATOM     18  C   UNL     1      19.429   0.856 -26.155  1.00  0.00     0.000 C 
BRANCH  18  19
ATOM     19  C   UNL     1      20.340  -0.300 -25.712  1.00  0.00     0.000 C 
BRANCH  19  20
ATOM     20  C   UNL     1      19.850  -1.670 -26.208  1.00  0.00     0.006 C 
BRANCH  20  21
ATOM     21  C   UNL     1      19.749  -2.670 -25.052  1.00  0.00     0.053 C 
BRANCH  21  22
ATOM     22  C   UNL     1      19.397  -4.034 -25.562  1.00  0.00     0.041 C 
ATOM     23  O   UNL     1      19.982  -4.503 -26.573  1.00  0.00    -0.550 OA
ATOM     24  O   UNL     1      18.430  -4.792 -24.912  1.00  0.00    -0.550 OA
ENDBRANCH  21  22
ENDBRANCH  20  21
ENDBRANCH  19  20
ENDBRANCH  18  19
ENDBRANCH  17  18
ENDBRANCH  16  17
ENDBRANCH  15  16
ENDBRANCH  14  15
ENDBRANCH  13  14
ENDBRANCH   1  13
TORSDOF 20
ENDMDL
MODEL 4
REMARK VINA RESULT:    -5.481      3.151      8.881
REMARK INTER + INTRA:         -14.436
REMARK INTER:                 -12.041
REMARK INTRA:                  -2.395
REMARK UNBOUND:                -2.546
REMARK SMILES CCCCCCCCCCCCCCCCCCCCCC(=O)[O-]
REMARK SMILES IDX 12 1 11 2 10 3 9 4 8 5 7 6 6 7 5 8 4 9 3 10 2 11 1 12 13 13
REMARK SMILES IDX 14 14 15 15 16 16 17 17 18 18 19 19 20 20 21 21 22 22 23 23
REMARK SMILES IDX 24 24
REMARK H PARENT
REMARK Flexibility Score: inf
ROOT
ATOM      1  C   UNL     1      18.293   1.406 -22.064  1.00  0.00     0.000 C 
ENDROOT
BRANCH   1   2
ATOM      2  C   UNL     1      19.388   0.506 -22.649  1.00  0.00     0.000 C 
BRANCH   2   3
ATOM      3  C   UNL     1      20.637   0.505 -21.756  1.00  0.00     0.000 C 
BRANCH   3   4
ATOM      4  C   UNL     1      20.454   1.324 -20.465  1.00  0.00    -0.000 C 
BRANCH   4   5
ATOM      5  C   UNL     1      20.792   0.573 -19.164  1.00  0.00    -0.000 C 
BRANCH   5   6
ATOM      6  C   UNL     1      20.086  -0.787 -19.053  1.00  0.00    -0.000 C 
BRANCH   6   7
ATOM      7  C   UNL     1      20.879  -1.744 -18.151  1.00  0.00    -0.000 C 
BRANCH   7   8
ATOM      8  C   UNL     1      21.821  -1.007 -17.180  1.00  0.00    -0.000 C 
BRANCH   8   9
ATOM      9  C   UNL     1      21.528  -1.248 -15.687  1.00  0.00    -0.000 C 
BRANCH   9  10
ATOM     10  C   UNL     1      20.076  -0.962 -15.255  1.00  0.00    -0.000 C 
BRANCH  10  11
ATOM     11  C   UNL     1      19.739   0.542 -15.174  1.00  0.00    -0.003 C 
ATOM     12  C   UNL     1      18.319   0.853 -15.646  1.00  0.00     0.004 C 
ENDBRANCH  10  11
ENDBRANCH   9  10
ENDBRANCH   8   9
ENDBRANCH   7   8
ENDBRANCH   6   7
ENDBRANCH   5   6
ENDBRANCH   4   5
ENDBRANCH   3   4
ENDBRANCH   2   3
ENDBRANCH   1   2
BRANCH   1  13
ATOM     13  C   UNL     1      17.109   1.529 -23.036  1.00  0.00     0.000 C 
BRANCH  13  14
ATOM     14  C   UNL     1      16.500   0.166 -23.403  1.00  0.00     0.000 C 
BRANCH  14  15
ATOM     15  C   UNL     1      16.036   0.099 -24.869  1.00  0.00     0.000 C 
BRANCH  15  16
ATOM     16  C   UNL     1      16.220   1.447 -25.599  1.00  0.00     0.000 C 
BRANCH  16  17
ATOM     17  C   UNL     1      17.126   1.361 -26.840  1.00  0.00     0.000 C 
BRANCH  17  18
ATOM     18  C   UNL     1      18.394   0.528 -26.594  1.00  0.00     0.000 C 
BRANCH  18  19
ATOM     19  C   UNL     1      18.712  -0.432 -27.752  1.00  0.00     0.000 C 
BRANCH  19  20
ATOM     20  C   UNL     1      19.426  -1.712 -27.287  1.00  0.00     0.006 C 
BRANCH  20  21
ATOM     21  C   UNL     1      19.424  -1.818 -25.760  1.00  0.00     0.053 C 
BRANCH  21  22
ATOM     22  C   UNL     1      19.613  -3.241 -25.329  1.00  0.00     0.041 C 
ATOM     23  O   UNL     1      20.753  -3.773 -25.378  1.00  0.00    -0.550 OA
ATOM     24  O   UNL     1      18.529  -3.976 -24.862  1.00  0.00    -0.550 OA
ENDBRANCH  21  22
ENDBRANCH  20  21
ENDBRANCH  19  20
ENDBRANCH  18  19
ENDBRANCH  17  18
ENDBRANCH  16  17
ENDBRANCH  15  16
ENDBRANCH  14  15
ENDBRANCH  13  14
ENDBRANCH   1  13
TORSDOF 20
ENDMDL
MODEL 5
REMARK VINA RESULT:    -5.425      1.020      1.493
REMARK INTER + INTRA:         -14.313
REMARK INTER:                 -12.124
REMARK INTRA:                  -2.189
REMARK UNBOUND:                -2.546
REMARK SMILES CCCCCCCCCCCCCCCCCCCCCC(=O)[O-]
REMARK SMILES IDX 12 1 11 2 10 3 9 4 8 5 7 6 6 7 5 8 4 9 3 10 2 11 1 12 13 13
REMARK SMILES IDX 14 14 15 15 16 16 17 17 18 18 19 19 20 20 21 21 22 22 23 23
REMARK SMILES IDX 24 24
REMARK H PARENT
REMARK Flexibility Score: inf
ROOT
ATOM      1  C   UNL     1      19.264   0.549 -23.306  1.00  0.00     0.000 C 
ENDROOT
BRANCH   1   2
ATOM      2  C   UNL     1      18.024  -0.228 -22.847  1.00  0.00     0.000 C 
BRANCH   2   3
ATOM      3  C   UNL     1      16.744   0.585 -23.084  1.00  0.00     0.000 C 
BRANCH   3   4
ATOM      4  C   UNL     1      16.073   0.269 -24.434  1.00  0.00    -0.000 C 
BRANCH   4   5
ATOM      5  C   UNL     1      16.104   1.416 -25.460  1.00  0.00    -0.000 C 
BRANCH   5   6
ATOM      6  C   UNL     1      17.153   1.209 -26.563  1.00  0.00    -0.000 C 
BRANCH   6   7
ATOM      7  C   UNL     1      17.623  -0.253 -26.604  1.00  0.00    -0.000 C 
BRANCH   7   8
ATOM      8  C   UNL     1      18.395  -0.596 -27.892  1.00  0.00    -0.000 C 
BRANCH   8   9
ATOM      9  C   UNL     1      19.779  -1.233 -27.667  1.00  0.00    -0.000 C 
BRANCH   9  10
ATOM     10  C   UNL     1      20.153  -1.469 -26.190  1.00  0.00    -0.000 C 
BRANCH  10  11
ATOM     11  C   UNL     1      20.084  -2.951 -25.763  1.00  0.00    -0.003 C 
ATOM     12  C   UNL     1      18.965  -3.221 -24.757  1.00  0.00     0.004 C 
ENDBRANCH  10  11
ENDBRANCH   9  10
ENDBRANCH   8   9
ENDBRANCH   7   8
ENDBRANCH   6   7
ENDBRANCH   5   6
ENDBRANCH   4   5
ENDBRANCH   3   4
ENDBRANCH   2   3
ENDBRANCH   1   2
BRANCH   1  13
ATOM     13  C   UNL     1      20.335   0.572 -22.203  1.00  0.00     0.000 C 
BRANCH  13  14
ATOM     14  C   UNL     1      19.730   0.658 -20.793  1.00  0.00     0.000 C 
BRANCH  14  15
ATOM     15  C   UNL     1      20.534  -0.143 -19.754  1.00  0.00     0.000 C 
BRANCH  15  16
ATOM     16  C   UNL     1      19.714  -0.430 -18.478  1.00  0.00     0.000 C 
BRANCH  16  17
ATOM     17  C   UNL     1      19.741  -1.906 -18.042  1.00  0.00     0.000 C 
BRANCH  17  18
ATOM     18  C   UNL     1      20.197  -2.086 -16.585  1.00  0.00     0.000 C 
BRANCH  18  19
ATOM     19  C   UNL     1      20.878  -0.832 -16.013  1.00  0.00     0.000 C 
BRANCH  19  20
ATOM     20  C   UNL     1      20.059  -0.165 -14.896  1.00  0.00     0.006 C 
BRANCH  20  21
ATOM     21  C   UNL     1      19.690   1.274 -15.269  1.00  0.00     0.053 C 
BRANCH  21  22
ATOM     22  C   UNL     1      18.228   1.381 -15.577  1.00  0.00     0.041 C 
ATOM     23  O   UNL     1      17.383   0.781 -14.862  1.00  0.00    -0.550 OA
ATOM     24  O   UNL     1      17.797   2.157 -16.648  1.00  0.00    -0.550 OA
ENDBRANCH  21  22
ENDBRANCH  20  21
ENDBRANCH  19  20
ENDBRANCH  18  19
ENDBRANCH  17  18
ENDBRANCH  16  17
ENDBRANCH  15  16
ENDBRANCH  14  15
ENDBRANCH  13  14
ENDBRANCH   1  13
TORSDOF 20
ENDMDL
MODEL 6
REMARK VINA RESULT:    -5.406      1.169      3.508
REMARK INTER + INTRA:         -14.272
REMARK INTER:                 -11.569
REMARK INTRA:                  -2.703
REMARK UNBOUND:                -2.546
REMARK SMILES CCCCCCCCCCCCCCCCCCCCCC(=O)[O-]
REMARK SMILES IDX 12 1 11 2 10 3 9 4 8 5 7 6 6 7 5 8 4 9 3 10 2 11 1 12 13 13
REMARK SMILES IDX 14 14 15 15 16 16 17 17 18 18 19 19 20 20 21 21 22 22 23 23
REMARK SMILES IDX 24 24
REMARK H PARENT
REMARK Flexibility Score: inf
ROOT
ATOM      1  C   UNL     1      19.925  -0.333 -19.033  1.00  0.00     0.000 C 
ENDROOT
BRANCH   1   2
ATOM      2  C   UNL     1      20.975   0.464 -19.816  1.00  0.00     0.000 C 
BRANCH   2   3
ATOM      3  C   UNL     1      20.330   1.236 -20.977  1.00  0.00     0.000 C 
BRANCH   3   4
ATOM      4  C   UNL     1      19.301   0.398 -21.757  1.00  0.00    -0.000 C 
BRANCH   4   5
ATOM      5  C   UNL     1      17.915   1.050 -21.914  1.00  0.00    -0.000 C 
BRANCH   5   6
ATOM      6  C   UNL     1      16.992   0.278 -22.869  1.00  0.00    -0.000 C 
BRANCH   6   7
ATOM      7  C   UNL     1      16.551   1.167 -24.042  1.00  0.00    -0.000 C 
BRANCH   7   8
ATOM      8  C   UNL     1      17.739   1.811 -24.782  1.00  0.00    -0.000 C 
BRANCH   8   9
ATOM      9  C   UNL     1      17.997   1.259 -26.196  1.00  0.00    -0.000 C 
BRANCH   9  10
ATOM     10  C   UNL     1      19.304   0.456 -26.351  1.00  0.00    -0.000 C 
BRANCH  10  11
ATOM     11  C   UNL     1      19.375  -0.791 -25.443  1.00  0.00    -0.003 C 
ATOM     12  C   UNL     1      20.773  -1.019 -24.867  1.00  0.00     0.004 C 
ENDBRANCH  10  11
ENDBRANCH   9  10
ENDBRANCH   8   9
ENDBRANCH   7   8
ENDBRANCH   6   7
ENDBRANCH   5   6
ENDBRANCH   4   5
ENDBRANCH   3   4
ENDBRANCH   2   3
ENDBRANCH   1   2
BRANCH   1  13
ATOM     13  C   UNL     1      20.443  -1.741 -18.699  1.00  0.00     0.000 C 
BRANCH  13  14
ATOM     14  C   UNL     1      19.778  -2.335 -17.447  1.00  0.00     0.000 C 
BRANCH  14  15
ATOM     15  C   UNL     1      19.797  -1.367 -16.250  1.00  0.00     0.000 C 
BRANCH  15  16
ATOM     16  C   UNL     1      21.139  -1.412 -15.488  1.00  0.00     0.000 C 
BRANCH  16  17
ATOM     17  C   UNL     1      22.025  -0.175 -15.718  1.00  0.00     0.000 C 
BRANCH  17  18
ATOM     18  C   UNL     1      21.332   1.136 -15.313  1.00  0.00     0.000 C 
BRANCH  18  19
ATOM     19  C   UNL     1      21.269   2.157 -16.461  1.00  0.00     0.000 C 
BRANCH  19  20
ATOM     20  C   UNL     1      19.832   2.576 -16.809  1.00  0.00     0.006 C 
BRANCH  20  21
ATOM     21  C   UNL     1      18.948   2.602 -15.559  1.00  0.00     0.053 C 
BRANCH  21  22
ATOM     22  C   UNL     1      17.736   1.742 -15.750  1.00  0.00     0.041 C 
ATOM     23  O   UNL     1      17.472   0.826 -14.928  1.00  0.00    -0.550 OA
ATOM     24  O   UNL     1      16.891   1.962 -16.832  1.00  0.00    -0.550 OA
ENDBRANCH  21  22
ENDBRANCH  20  21
ENDBRANCH  19  20
ENDBRANCH  18  19
ENDBRANCH  17  18
ENDBRANCH  16  17
ENDBRANCH  15  16
ENDBRANCH  14  15
ENDBRANCH  13  14
ENDBRANCH   1  13
TORSDOF 20
ENDMDL
MODEL 7
REMARK VINA RESULT:    -5.351      1.934      5.377
REMARK INTER + INTRA:         -14.153
REMARK INTER:                 -11.582
REMARK INTRA:                  -2.571
REMARK UNBOUND:                -2.546
REMARK SMILES CCCCCCCCCCCCCCCCCCCCCC(=O)[O-]
REMARK SMILES IDX 12 1 11 2 10 3 9 4 8 5 7 6 6 7 5 8 4 9 3 10 2 11 1 12 13 13
REMARK SMILES IDX 14 14 15 15 16 16 17 17 18 18 19 19 20 20 21 21 22 22 23 23
REMARK SMILES IDX 24 24
REMARK H PARENT
REMARK Flexibility Score: inf
ROOT
ATOM      1  C   UNL     1      20.484  -2.060 -16.671  1.00  0.00     0.000 C 
ENDROOT
BRANCH   1   2
ATOM      2  C   UNL     1      19.406  -1.350 -17.498  1.00  0.00     0.000 C 
BRANCH   2   3
ATOM      3  C   UNL     1      19.881   0.038 -17.950  1.00  0.00     0.000 C 
BRANCH   3   4
ATOM      4  C   UNL     1      20.907  -0.022 -19.096  1.00  0.00    -0.000 C 
BRANCH   4   5
ATOM      5  C   UNL     1      21.297   1.343 -19.693  1.00  0.00    -0.000 C 
BRANCH   5   6
ATOM      6  C   UNL     1      20.558   1.660 -21.002  1.00  0.00    -0.000 C 
BRANCH   6   7
ATOM      7  C   UNL     1      20.433   0.405 -21.878  1.00  0.00    -0.000 C 
BRANCH   7   8
ATOM      8  C   UNL     1      19.329   0.529 -22.946  1.00  0.00    -0.000 C 
BRANCH   8   9
ATOM      9  C   UNL     1      17.993   1.098 -22.432  1.00  0.00    -0.000 C 
BRANCH   9  10
ATOM     10  C   UNL     1      16.773   0.800 -23.326  1.00  0.00    -0.000 C 
BRANCH  10  11
ATOM     11  C   UNL     1      16.546   1.851 -24.433  1.00  0.00    -0.003 C 
ATOM     12  C   UNL     1      15.756   1.295 -25.618  1.00  0.00     0.004 C 
ENDBRANCH  10  11
ENDBRANCH   9  10
ENDBRANCH   8   9
ENDBRANCH   7   8
ENDBRANCH   6   7
ENDBRANCH   5   6
ENDBRANCH   4   5
ENDBRANCH   3   4
ENDBRANCH   2   3
ENDBRANCH   1   2
BRANCH   1  13
ATOM     13  C   UNL     1      20.638  -1.401 -15.291  1.00  0.00     0.000 C 
BRANCH  13  14
ATOM     14  C   UNL     1      22.107  -1.272 -14.857  1.00  0.00     0.000 C 
BRANCH  14  15
ATOM     15  C   UNL     1      22.973  -0.550 -15.905  1.00  0.00     0.000 C 
BRANCH  15  16
ATOM     16  C   UNL     1      23.320   0.892 -15.479  1.00  0.00     0.000 C 
BRANCH  16  17
ATOM     17  C   UNL     1      22.293   1.940 -15.943  1.00  0.00     0.000 C 
BRANCH  17  18
ATOM     18  C   UNL     1      22.171   3.125 -14.971  1.00  0.00     0.000 C 
BRANCH  18  19
ATOM     19  C   UNL     1      20.880   3.083 -14.138  1.00  0.00     0.000 C 
BRANCH  19  20
ATOM     20  C   UNL     1      19.858   2.066 -14.671  1.00  0.00     0.006 C 
BRANCH  20  21
ATOM     21  C   UNL     1      18.811   2.751 -15.555  1.00  0.00     0.053 C 
BRANCH  21  22
ATOM     22  C   UNL     1      17.648   1.839 -15.799  1.00  0.00     0.041 C 
ATOM     23  O   UNL     1      16.901   2.017 -16.797  1.00  0.00    -0.550 OA
ATOM     24  O   UNL     1      17.396   0.784 -14.929  1.00  0.00    -0.550 OA
ENDBRANCH  21  22
ENDBRANCH  20  21
ENDBRANCH  19  20
ENDBRANCH  18  19
ENDBRANCH  17  18
ENDBRANCH  16  17
ENDBRANCH  15  16
ENDBRANCH  14  15
ENDBRANCH  13  14
ENDBRANCH   1  13
TORSDOF 20
ENDMDL
MODEL 8
REMARK VINA RESULT:    -5.275      3.301      8.803
REMARK INTER + INTRA:         -13.989
REMARK INTER:                 -11.132
REMARK INTRA:                  -2.857
REMARK UNBOUND:                -2.546
REMARK SMILES CCCCCCCCCCCCCCCCCCCCCC(=O)[O-]
REMARK SMILES IDX 12 1 11 2 10 3 9 4 8 5 7 6 6 7 5 8 4 9 3 10 2 11 1 12 13 13
REMARK SMILES IDX 14 14 15 15 16 16 17 17 18 18 19 19 20 20 21 21 22 22 23 23
REMARK SMILES IDX 24 24
REMARK H PARENT
REMARK Flexibility Score: inf
ROOT
ATOM      1  C   UNL     1      19.544   0.998 -22.437  1.00  0.00     0.000 C 
ENDROOT
BRANCH   1   2
ATOM      2  C   UNL     1      20.335   1.994 -21.582  1.00  0.00     0.000 C 
BRANCH   2   3
ATOM      3  C   UNL     1      20.751   1.365 -20.244  1.00  0.00     0.000 C 
BRANCH   3   4
ATOM      4  C   UNL     1      20.054   0.021 -19.969  1.00  0.00    -0.000 C 
BRANCH   4   5
ATOM      5  C   UNL     1      20.750  -0.873 -18.927  1.00  0.00    -0.000 C 
BRANCH   5   6
ATOM      6  C   UNL     1      19.956  -2.146 -18.598  1.00  0.00    -0.000 C 
BRANCH   6   7
ATOM      7  C   UNL     1      19.960  -2.418 -17.086  1.00  0.00    -0.000 C 
BRANCH   7   8
ATOM      8  C   UNL     1      20.582  -1.267 -16.273  1.00  0.00    -0.000 C 
BRANCH   8   9
ATOM      9  C   UNL     1      19.625  -0.588 -15.276  1.00  0.00    -0.000 C 
BRANCH   9  10
ATOM     10  C   UNL     1      19.848   0.926 -15.089  1.00  0.00    -0.000 C 
BRANCH  10  11
ATOM     11  C   UNL     1      19.550   1.756 -16.356  1.00  0.00    -0.003 C 
ATOM     12  C   UNL     1      18.224   1.371 -17.013  1.00  0.00     0.004 C 
ENDBRANCH  10  11
ENDBRANCH   9  10
ENDBRANCH   8   9
ENDBRANCH   7   8
ENDBRANCH   6   7
ENDBRANCH   5   6
ENDBRANCH   4   5
ENDBRANCH   3   4
ENDBRANCH   2   3
ENDBRANCH   1   2
BRANCH   1  13
ATOM     13  C   UNL     1      18.122   1.516 -22.707  1.00  0.00     0.000 C 
BRANCH  13  14
ATOM     14  C   UNL     1      17.076   0.390 -22.731  1.00  0.00     0.000 C 
BRANCH  14  15
ATOM     15  C   UNL     1      16.350   0.284 -24.084  1.00  0.00     0.000 C 
BRANCH  15  16
ATOM     16  C   UNL     1      16.644   1.493 -24.997  1.00  0.00     0.000 C 
BRANCH  16  17
ATOM     17  C   UNL     1      16.835   1.120 -26.478  1.00  0.00     0.000 C 
BRANCH  17  18
ATOM     18  C   UNL     1      17.966   0.101 -26.692  1.00  0.00     0.000 C 
BRANCH  18  19
ATOM     19  C   UNL     1      19.333   0.617 -26.215  1.00  0.00     0.000 C 
BRANCH  19  20
ATOM     20  C   UNL     1      20.247  -0.505 -25.698  1.00  0.00     0.006 C 
BRANCH  20  21
ATOM     21  C   UNL     1      19.425  -1.673 -25.144  1.00  0.00     0.053 C 
BRANCH  21  22
ATOM     22  C   UNL     1      19.803  -2.954 -25.822  1.00  0.00     0.041 C 
ATOM     23  O   UNL     1      19.457  -3.167 -27.013  1.00  0.00    -0.550 OA
ATOM     24  O   UNL     1      20.550  -3.909 -25.140  1.00  0.00    -0.550 OA
ENDBRANCH  21  22
ENDBRANCH  20  21
ENDBRANCH  19  20
ENDBRANCH  18  19
ENDBRANCH  17  18
ENDBRANCH  16  17
ENDBRANCH  15  16
ENDBRANCH  14  15
ENDBRANCH  13  14
ENDBRANCH   1  13
TORSDOF 20
ENDMDL
MODEL 9
REMARK VINA RESULT:    -5.249      1.155      2.095
REMARK INTER + INTRA:         -13.933
REMARK INTER:                 -10.714
REMARK INTRA:                  -3.219
REMARK UNBOUND:                -2.546
REMARK SMILES CCCCCCCCCCCCCCCCCCCCCC(=O)[O-]
REMARK SMILES IDX 12 1 11 2 10 3 9 4 8 5 7 6 6 7 5 8 4 9 3 10 2 11 1 12 13 13
REMARK SMILES IDX 14 14 15 15 16 16 17 17 18 18 19 19 20 20 21 21 22 22 23 23
REMARK SMILES IDX 24 24
REMARK H PARENT
REMARK Flexibility Score: inf
ROOT
ATOM      1  C   UNL     1      19.139   0.052 -22.394  1.00  0.00     0.000 C 
ENDROOT
BRANCH   1   2
ATOM      2  C   UNL     1      18.206   1.261 -22.247  1.00  0.00     0.000 C 
BRANCH   2   3
ATOM      3  C   UNL     1      16.775   0.910 -22.680  1.00  0.00     0.000 C 
BRANCH   3   4
ATOM      4  C   UNL     1      16.715  -0.296 -23.634  1.00  0.00    -0.000 C 
BRANCH   4   5
ATOM      5  C   UNL     1      16.057  -0.016 -24.997  1.00  0.00    -0.000 C 
BRANCH   5   6
ATOM      6  C   UNL     1      15.968   1.482 -25.326  1.00  0.00    -0.000 C 
BRANCH   6   7
ATOM      7  C   UNL     1      17.031   1.881 -26.360  1.00  0.00    -0.000 C 
BRANCH   7   8
ATOM      8  C   UNL     1      18.391   2.216 -25.719  1.00  0.00    -0.000 C 
BRANCH   8   9
ATOM      9  C   UNL     1      19.476   1.138 -25.902  1.00  0.00    -0.000 C 
BRANCH   9  10
ATOM     10  C   UNL     1      19.220   0.146 -27.053  1.00  0.00    -0.000 C 
BRANCH  10  11
ATOM     11  C   UNL     1      19.147  -1.327 -26.597  1.00  0.00    -0.003 C 
ATOM     12  C   UNL     1      20.146  -1.648 -25.486  1.00  0.00     0.004 C 
ENDBRANCH  10  11
ENDBRANCH   9  10
ENDBRANCH   8   9
ENDBRANCH   7   8
ENDBRANCH   6   7
ENDBRANCH   5   6
ENDBRANCH   4   5
ENDBRANCH   3   4
ENDBRANCH   2   3
ENDBRANCH   1   2
BRANCH   1  13
ATOM     13  C   UNL     1      20.607   0.501 -22.474  1.00  0.00     0.000 C 
BRANCH  13  14
ATOM     14  C   UNL     1      20.813   1.943 -21.985  1.00  0.00     0.000 C 
BRANCH  14  15
ATOM     15  C   UNL     1      21.640   2.017 -20.689  1.00  0.00     0.000 C 
BRANCH  15  16
ATOM     16  C   UNL     1      20.833   1.551 -19.458  1.00  0.00     0.000 C 
BRANCH  16  17
ATOM     17  C   UNL     1      21.270   0.180 -18.913  1.00  0.00     0.000 C 
BRANCH  17  18
ATOM     18  C   UNL     1      20.154  -0.874 -18.994  1.00  0.00     0.000 C 
BRANCH  18  19
ATOM     19  C   UNL     1      20.479  -2.149 -18.198  1.00  0.00     0.000 C 
BRANCH  19  20
ATOM     20  C   UNL     1      19.827  -2.166 -16.805  1.00  0.00     0.006 C 
BRANCH  20  21
ATOM     21  C   UNL     1      20.696  -1.429 -15.782  1.00  0.00     0.053 C 
BRANCH  21  22
ATOM     22  C   UNL     1      20.009  -0.188 -15.301  1.00  0.00     0.041 C 
ATOM     23  O   UNL     1      18.752  -0.134 -15.260  1.00  0.00    -0.550 OA
ATOM     24  O   UNL     1      20.759   0.907 -14.885  1.00  0.00    -0.550 OA
ENDBRANCH  21  22
ENDBRANCH  20  21
ENDBRANCH  19  20
ENDBRANCH  18  19
ENDBRANCH  17  18
ENDBRANCH  16  17
ENDBRANCH  15  16
ENDBRANCH  14  15
ENDBRANCH  13  14
ENDBRANCH   1  13
TORSDOF 20
ENDMDL
