MODEL 1
REMARK VINA RESULT:    -4.839      0.000      0.000
REMARK INTER + INTRA:          -5.273
REMARK INTER:                  -5.264
REMARK INTRA:                  -0.010
REMARK UNBOUND:                -0.010
REMARK SMILES OCc1ccccc1
REMARK SMILES IDX 2 1 3 2 6 3 5 4 7 5 4 6 8 7 1 8
REMARK H PARENT 1 9
REMARK Flexibility Score: inf
ROOT
ATOM      1  C   UNL     1      11.330  34.584  72.867  1.00  0.00     0.191 C 
ENDROOT
BRANCH   1   2
ATOM      2  C   UNL     1      11.323  33.115  73.189  1.00  0.00    -0.023 A 
ATOM      3  C   UNL     1      11.233  30.372  73.771  1.00  0.00     0.000 A 
ATOM      4  C   UNL     1      10.997  31.309  74.781  1.00  0.00     0.000 A 
ATOM      5  C   UNL     1      11.503  30.801  72.469  1.00  0.00     0.000 A 
ATOM      6  C   UNL     1      11.035  32.677  74.491  1.00  0.00     0.006 A 
ATOM      7  C   UNL     1      11.543  32.167  72.176  1.00  0.00     0.006 A 
ENDBRANCH   1   2
BRANCH   1   8
ATOM      8  O   UNL     1      12.494  35.180  73.368  1.00  0.00    -0.392 OA
ATOM      9  H   UNL     1      12.218  36.042  73.777  1.00  0.00     0.211 HD
ENDBRANCH   1   8
TORSDOF 2
ENDMDL
MODEL 2
REMARK VINA RESULT:    -4.814      0.112      1.717
REMARK INTER + INTRA:          -5.246
REMARK INTER:                  -5.235
REMARK INTRA:                  -0.011
REMARK UNBOUND:                -0.010
REMARK SMILES OCc1ccccc1
REMARK SMILES IDX 2 1 3 2 6 3 5 4 7 5 4 6 8 7 1 8
REMARK H PARENT 1 9
REMARK Flexibility Score: inf
ROOT
ATOM      1  C   UNL     1      11.388  34.676  72.885  1.00  0.00     0.191 C 
ENDROOT
BRANCH   1   2
ATOM      2  C   UNL     1      11.341  33.203  73.184  1.00  0.00    -0.023 A 
ATOM      3  C   UNL     1      11.331  30.457  73.761  1.00  0.00     0.000 A 
ATOM      4  C   UNL     1      11.591  30.897  72.460  1.00  0.00     0.000 A 
ATOM      5  C   UNL     1      11.086  31.385  74.777  1.00  0.00     0.000 A 
ATOM      6  C   UNL     1      11.602  32.266  72.172  1.00  0.00     0.006 A 
ATOM      7  C   UNL     1      11.096  32.754  74.492  1.00  0.00     0.006 A 
ENDBRANCH   1   2
BRANCH   1   8
ATOM      8  O   UNL     1      12.575  35.230  73.380  1.00  0.00    -0.392 OA
ATOM      9  H   UNL     1      12.339  35.702  74.220  1.00  0.00     0.211 HD
ENDBRANCH   1   8
TORSDOF 2
ENDMDL
MODEL 3
REMARK VINA RESULT:    -4.731      1.695      2.759
REMARK INTER + INTRA:          -5.155
REMARK INTER:                  -5.145
REMARK INTRA:                  -0.010
REMARK UNBOUND:                -0.010
REMARK SMILES OCc1ccccc1
REMARK SMILES IDX 2 1 3 2 6 3 5 4 7 5 4 6 8 7 1 8
REMARK H PARENT 1 9
REMARK Flexibility Score: inf
ROOT
ATOM      1  C   UNL     1      11.930  32.472  72.495  1.00  0.00     0.191 C 
ENDROOT
BRANCH   1   2
ATOM      2  C   UNL     1      11.445  31.117  72.931  1.00  0.00    -0.023 A 
ATOM      3  C   UNL     1      10.601  28.584  73.793  1.00  0.00     0.000 A 
ATOM      4  C   UNL     1      11.434  28.701  72.676  1.00  0.00     0.000 A 
ATOM      5  C   UNL     1      10.197  29.728  74.486  1.00  0.00     0.000 A 
ATOM      6  C   UNL     1      11.860  29.962  72.249  1.00  0.00     0.006 A 
ATOM      7  C   UNL     1      10.620  30.991  74.061  1.00  0.00     0.006 A 
ENDBRANCH   1   2
BRANCH   1   8
ATOM      8  O   UNL     1      11.278  32.860  71.317  1.00  0.00    -0.392 OA
ATOM      9  H   UNL     1      10.990  33.801  71.449  1.00  0.00     0.211 HD
ENDBRANCH   1   8
TORSDOF 2
ENDMDL
MODEL 4
REMARK VINA RESULT:    -4.712      1.698      2.210
REMARK INTER + INTRA:          -5.135
REMARK INTER:                  -5.124
REMARK INTRA:                  -0.011
REMARK UNBOUND:                -0.010
REMARK SMILES OCc1ccccc1
REMARK SMILES IDX 2 1 3 2 6 3 5 4 7 5 4 6 8 7 1 8
REMARK H PARENT 1 9
REMARK Flexibility Score: inf
ROOT
ATOM      1  C   UNL     1      11.926  32.487  72.520  1.00  0.00     0.191 C 
ENDROOT
BRANCH   1   2
ATOM      2  C   UNL     1      11.438  31.145  72.989  1.00  0.00    -0.023 A 
ATOM      3  C   UNL     1      10.465  28.646  73.815  1.00  0.00     0.000 A 
ATOM      4  C   UNL     1      10.071  29.806  74.487  1.00  0.00     0.000 A 
ATOM      5  C   UNL     1      11.335  28.731  72.725  1.00  0.00     0.000 A 
ATOM      6  C   UNL     1      10.550  31.053  74.074  1.00  0.00     0.006 A 
ATOM      7  C   UNL     1      11.817  29.976  72.309  1.00  0.00     0.006 A 
ENDBRANCH   1   2
BRANCH   1   8
ATOM      8  O   UNL     1      11.311  32.826  71.308  1.00  0.00    -0.392 OA
ATOM      9  H   UNL     1      10.334  32.856  71.484  1.00  0.00     0.211 HD
ENDBRANCH   1   8
TORSDOF 2
ENDMDL
MODEL 5
REMARK VINA RESULT:    -4.666      2.589      4.014
REMARK INTER + INTRA:          -5.085
REMARK INTER:                  -5.067
REMARK INTRA:                  -0.018
REMARK UNBOUND:                -0.010
REMARK SMILES OCc1ccccc1
REMARK SMILES IDX 2 1 3 2 6 3 5 4 7 5 4 6 8 7 1 8
REMARK H PARENT 1 9
REMARK Flexibility Score: inf
ROOT
ATOM      1  C   UNL     1      11.142  28.737  73.166  1.00  0.00     0.191 C 
ENDROOT
BRANCH   1   2
ATOM      2  C   UNL     1      11.265  30.220  73.377  1.00  0.00    -0.023 A 
ATOM      3  C   UNL     1      11.421  32.997  73.745  1.00  0.00     0.000 A 
ATOM      4  C   UNL     1      11.803  32.431  72.525  1.00  0.00     0.000 A 
ATOM      5  C   UNL     1      10.952  32.181  74.778  1.00  0.00     0.000 A 
ATOM      6  C   UNL     1      11.720  31.048  72.338  1.00  0.00     0.006 A 
ATOM      7  C   UNL     1      10.869  30.797  74.595  1.00  0.00     0.006 A 
ENDBRANCH   1   2
BRANCH   1   8
ATOM      8  O   UNL     1      12.003  28.323  72.142  1.00  0.00    -0.392 OA
ATOM      9  H   UNL     1      12.366  29.148  71.726  1.00  0.00     0.211 HD
ENDBRANCH   1   8
TORSDOF 2
ENDMDL
MODEL 6
REMARK VINA RESULT:    -4.647      2.596      3.682
REMARK INTER + INTRA:          -5.064
REMARK INTER:                  -5.045
REMARK INTRA:                  -0.019
REMARK UNBOUND:                -0.010
REMARK SMILES OCc1ccccc1
REMARK SMILES IDX 2 1 3 2 6 3 5 4 7 5 4 6 8 7 1 8
REMARK H PARENT 1 9
REMARK Flexibility Score: inf
ROOT
ATOM      1  C   UNL     1      11.261  28.663  73.306  1.00  0.00     0.191 C 
ENDROOT
BRANCH   1   2
ATOM      2  C   UNL     1      11.253  30.162  73.417  1.00  0.00    -0.023 A 
ATOM      3  C   UNL     1      11.311  32.957  73.649  1.00  0.00     0.000 A 
ATOM      4  C   UNL     1      10.903  32.174  74.733  1.00  0.00     0.000 A 
ATOM      5  C   UNL     1      11.700  32.347  72.453  1.00  0.00     0.000 A 
ATOM      6  C   UNL     1      10.879  30.781  74.621  1.00  0.00     0.006 A 
ATOM      7  C   UNL     1      11.676  30.954  72.337  1.00  0.00     0.006 A 
ENDBRANCH   1   2
BRANCH   1   8
ATOM      8  O   UNL     1      12.020  28.267  72.196  1.00  0.00    -0.392 OA
ATOM      9  H   UNL     1      12.965  28.485  72.406  1.00  0.00     0.211 HD
ENDBRANCH   1   8
TORSDOF 2
ENDMDL
MODEL 7
REMARK VINA RESULT:    -4.637      1.531      1.986
REMARK INTER + INTRA:          -5.054
REMARK INTER:                  -5.037
REMARK INTRA:                  -0.017
REMARK UNBOUND:                -0.010
REMARK SMILES OCc1ccccc1
REMARK SMILES IDX 2 1 3 2 6 3 5 4 7 5 4 6 8 7 1 8
REMARK H PARENT 1 9
REMARK Flexibility Score: inf
ROOT
ATOM      1  C   UNL     1      11.268  32.955  73.891  1.00  0.00     0.191 C 
ENDROOT
BRANCH   1   2
ATOM      2  C   UNL     1      11.210  31.483  73.596  1.00  0.00    -0.023 A 
ATOM      3  C   UNL     1      11.033  28.745  73.007  1.00  0.00     0.000 A 
ATOM      4  C   UNL     1      10.488  29.241  74.195  1.00  0.00     0.000 A 
ATOM      5  C   UNL     1      11.657  29.614  72.109  1.00  0.00     0.000 A 
ATOM      6  C   UNL     1      10.569  30.606  74.488  1.00  0.00     0.006 A 
ATOM      7  C   UNL     1      11.742  30.979  72.398  1.00  0.00     0.006 A 
ENDBRANCH   1   2
BRANCH   1   8
ATOM      8  O   UNL     1      11.217  33.171  75.275  1.00  0.00    -0.392 OA
ATOM      9  H   UNL     1      10.308  33.517  75.475  1.00  0.00     0.211 HD
ENDBRANCH   1   8
TORSDOF 2
ENDMDL
MODEL 8
REMARK VINA RESULT:    -4.510      3.035      4.311
REMARK INTER + INTRA:          -4.916
REMARK INTER:                  -4.904
REMARK INTRA:                  -0.011
REMARK UNBOUND:                -0.010
REMARK SMILES OCc1ccccc1
REMARK SMILES IDX 2 1 3 2 6 3 5 4 7 5 4 6 8 7 1 8
REMARK H PARENT 1 9
REMARK Flexibility Score: inf
ROOT
ATOM      1  C   UNL     1      11.453  30.621  73.104  1.00  0.00     0.191 C 
ENDROOT
BRANCH   1   2
ATOM      2  C   UNL     1      11.368  29.208  73.611  1.00  0.00    -0.023 A 
ATOM      3  C   UNL     1      11.232  26.596  74.627  1.00  0.00     0.000 A 
ATOM      4  C   UNL     1      12.409  27.052  74.027  1.00  0.00     0.000 A 
ATOM      5  C   UNL     1      10.126  27.444  74.730  1.00  0.00     0.000 A 
ATOM      6  C   UNL     1      12.481  28.356  73.525  1.00  0.00     0.006 A 
ATOM      7  C   UNL     1      10.193  28.747  74.229  1.00  0.00     0.006 A 
ENDBRANCH   1   2
BRANCH   1   8
ATOM      8  O   UNL     1      11.709  30.623  71.727  1.00  0.00    -0.392 OA
ATOM      9  H   UNL     1      10.898  30.992  71.289  1.00  0.00     0.211 HD
ENDBRANCH   1   8
TORSDOF 2
ENDMDL
MODEL 9
REMARK VINA RESULT:    -4.484      3.720      5.148
REMARK INTER + INTRA:          -4.888
REMARK INTER:                  -4.877
REMARK INTRA:                  -0.010
REMARK UNBOUND:                -0.010
REMARK SMILES OCc1ccccc1
REMARK SMILES IDX 2 1 3 2 6 3 5 4 7 5 4 6 8 7 1 8
REMARK H PARENT 1 9
REMARK Flexibility Score: inf
ROOT
ATOM      1  C   UNL     1      10.116  27.279  74.677  1.00  0.00     0.191 C 
ENDROOT
BRANCH   1   2
ATOM      2  C   UNL     1      10.628  28.507  73.977  1.00  0.00    -0.023 A 
ATOM      3  C   UNL     1      11.518  30.799  72.626  1.00  0.00     0.000 A 
ATOM      4  C   UNL     1      11.876  29.531  72.160  1.00  0.00     0.000 A 
ATOM      5  C   UNL     1      10.709  30.925  73.758  1.00  0.00     0.000 A 
ATOM      6  C   UNL     1      11.428  28.387  72.829  1.00  0.00     0.006 A 
ATOM      7  C   UNL     1      10.260  29.785  74.430  1.00  0.00     0.006 A 
ENDBRANCH   1   2
BRANCH   1   8
ATOM      8  O   UNL     1       8.972  26.797  74.028  1.00  0.00    -0.392 OA
ATOM      9  H   UNL     1       9.039  25.806  74.033  1.00  0.00     0.211 HD
ENDBRANCH   1   8
TORSDOF 2
ENDMDL
