MODEL 1
REMARK VINA RESULT:    -7.354      0.000      0.000
REMARK INTER + INTRA:         -11.924
REMARK INTER:                 -10.148
REMARK INTRA:                  -1.776
REMARK UNBOUND:                -1.776
REMARK SMILES CC[C@H](CC[C@H](C)[C@H]1CC[C@@H]2[C@@H]3CC=C4C[C@@H](O)CC[C@@]4(C)[C@@H]3CC[C@@]21C)C(C)C
REMARK SMILES IDX 5 1 4 2 3 3 2 4 1 5 28 6 29 7 30 8 6 9 7 10 8 11 9 12 26 13
REMARK SMILES IDX 10 14 11 15 25 16 27 17 12 18 24 19 23 20 13 21 21 22 14 23
REMARK SMILES IDX 15 24 20 25 22 26 16 27 19 28 17 29 18 30
REMARK H PARENT 18 31
REMARK Flexibility Score: inf
ROOT
ATOM      1  C   UNL     1     -26.950  56.990  -2.381  1.00  0.00     0.004 C 
ENDROOT
BRANCH   1   2
ATOM      2  C   UNL     1     -27.078  58.523  -2.206  1.00  0.00     0.004 C 
BRANCH   2   3
ATOM      3  C   UNL     1     -26.091  59.410  -3.031  1.00  0.00    -0.009 C 
BRANCH   3   4
ATOM      4  C   UNL     1     -26.757  60.012  -4.303  1.00  0.00     0.000 C 
ATOM      5  C   UNL     1     -25.789  60.749  -5.235  1.00  0.00     0.004 C 
ENDBRANCH   3   4
BRANCH   3   6
ATOM      6  C   UNL     1     -25.415  60.494  -2.120  1.00  0.00    -0.014 C 
ATOM      7  C   UNL     1     -25.914  60.399  -0.661  1.00  0.00     0.007 C 
ATOM      8  C   UNL     1     -23.876  60.390  -2.113  1.00  0.00     0.007 C 
ENDBRANCH   3   6
ENDBRANCH   2   3
ENDBRANCH   1   2
BRANCH   1   9
ATOM      9  C   UNL     1     -26.214  56.256  -1.221  1.00  0.00    -0.011 C 
ATOM     10  C   UNL     1     -27.115  56.254   0.029  1.00  0.00     0.008 C 
BRANCH   9  11
ATOM     11  C   UNL     1     -24.770  56.849  -0.976  1.00  0.00    -0.002 C 
ATOM     12  C   UNL     1     -24.431  56.997   0.514  1.00  0.00     0.005 C 
ATOM     13  C   UNL     1     -23.534  56.091  -1.593  1.00  0.00    -0.026 C 
ATOM     14  C   UNL     1     -23.617  55.773   0.887  1.00  0.00     0.005 C 
ATOM     15  C   UNL     1     -22.862  55.349  -0.383  1.00  0.00    -0.001 C 
ATOM     16  C   UNL     1     -22.564  57.140  -2.210  1.00  0.00     0.007 C 
ATOM     17  C   UNL     1     -23.922  55.103  -2.731  1.00  0.00     0.012 C 
ATOM     18  C   UNL     1     -21.299  55.467  -0.278  1.00  0.00     0.000 C 
ATOM     19  C   UNL     1     -21.150  56.613  -2.543  1.00  0.00     0.005 C 
ATOM     20  C   UNL     1     -20.669  55.400  -1.685  1.00  0.00     0.003 C 
ATOM     21  C   UNL     1     -20.733  56.690   0.491  1.00  0.00     0.031 C 
ATOM     22  C   UNL     1     -19.096  55.255  -1.621  1.00  0.00    -0.008 C 
ATOM     23  C   UNL     1     -19.234  56.786   0.390  1.00  0.00    -0.027 C 
ATOM     24  C   UNL     1     -18.489  56.177  -0.561  1.00  0.00    -0.065 C 
ATOM     25  C   UNL     1     -18.702  53.790  -1.238  1.00  0.00     0.014 C 
ATOM     26  C   UNL     1     -18.483  55.570  -3.018  1.00  0.00     0.016 C 
ATOM     27  C   UNL     1     -16.998  56.067  -0.340  1.00  0.00     0.063 C 
ATOM     28  C   UNL     1     -17.196  53.605  -0.923  1.00  0.00     0.033 C 
ATOM     29  C   UNL     1     -16.667  54.630   0.100  1.00  0.00     0.118 C 
BRANCH  29  30
ATOM     30  O   UNL     1     -17.228  54.360   1.360  1.00  0.00    -0.393 OA
ATOM     31  H   UNL     1     -16.481  54.075   1.948  1.00  0.00     0.210 HD
ENDBRANCH  29  30
ENDBRANCH   9  11
ENDBRANCH   1   9
TORSDOF 7
ENDMDL
MODEL 2
REMARK VINA RESULT:    -7.294      2.553      7.501
REMARK INTER + INTRA:         -11.842
REMARK INTER:                 -10.947
REMARK INTRA:                  -0.895
REMARK UNBOUND:                -1.776
REMARK SMILES CC[C@H](CC[C@H](C)[C@H]1CC[C@@H]2[C@@H]3CC=C4C[C@@H](O)CC[C@@]4(C)[C@@H]3CC[C@@]21C)C(C)C
REMARK SMILES IDX 5 1 4 2 3 3 2 4 1 5 28 6 29 7 30 8 6 9 7 10 8 11 9 12 26 13
REMARK SMILES IDX 10 14 11 15 25 16 27 17 12 18 24 19 23 20 13 21 21 22 14 23
REMARK SMILES IDX 15 24 20 25 22 26 16 27 19 28 17 29 18 30
REMARK H PARENT 18 31
REMARK Flexibility Score: inf
ROOT
ATOM      1  C   UNL     1     -20.084  53.110  -2.436  1.00  0.00     0.004 C 
ENDROOT
BRANCH   1   2
ATOM      2  C   UNL     1     -18.872  53.618  -3.254  1.00  0.00     0.004 C 
BRANCH   2   3
ATOM      3  C   UNL     1     -18.075  54.821  -2.655  1.00  0.00    -0.009 C 
BRANCH   3   4
ATOM      4  C   UNL     1     -16.644  54.414  -2.195  1.00  0.00     0.000 C 
ATOM      5  C   UNL     1     -16.441  54.428  -0.676  1.00  0.00     0.004 C 
ENDBRANCH   3   4
BRANCH   3   6
ATOM      6  C   UNL     1     -18.079  56.043  -3.641  1.00  0.00    -0.014 C 
ATOM      7  C   UNL     1     -19.467  56.716  -3.703  1.00  0.00     0.007 C 
ATOM      8  C   UNL     1     -17.037  57.115  -3.264  1.00  0.00     0.007 C 
ENDBRANCH   3   6
ENDBRANCH   2   3
ENDBRANCH   1   2
BRANCH   1   9
ATOM      9  C   UNL     1     -19.779  52.785  -0.943  1.00  0.00    -0.011 C 
ATOM     10  C   UNL     1     -19.956  51.272  -0.709  1.00  0.00     0.008 C 
BRANCH   9  11
ATOM     11  C   UNL     1     -20.621  53.693   0.037  1.00  0.00    -0.002 C 
ATOM     12  C   UNL     1     -19.839  54.914   0.540  1.00  0.00     0.005 C 
ATOM     13  C   UNL     1     -21.991  54.280  -0.474  1.00  0.00    -0.026 C 
ATOM     14  C   UNL     1     -20.255  56.076  -0.341  1.00  0.00     0.005 C 
ATOM     15  C   UNL     1     -21.701  55.792  -0.781  1.00  0.00    -0.001 C 
ATOM     16  C   UNL     1     -23.049  54.135   0.659  1.00  0.00     0.007 C 
ATOM     17  C   UNL     1     -22.553  53.536  -1.721  1.00  0.00     0.012 C 
ATOM     18  C   UNL     1     -22.757  56.824  -0.244  1.00  0.00     0.000 C 
ATOM     19  C   UNL     1     -24.338  54.964   0.464  1.00  0.00     0.005 C 
ATOM     20  C   UNL     1     -24.182  56.253  -0.403  1.00  0.00     0.003 C 
ATOM     21  C   UNL     1     -22.562  57.347   1.203  1.00  0.00     0.031 C 
ATOM     22  C   UNL     1     -25.290  57.344  -0.121  1.00  0.00    -0.008 C 
ATOM     23  C   UNL     1     -23.713  58.200   1.664  1.00  0.00    -0.027 C 
ATOM     24  C   UNL     1     -24.945  58.192   1.104  1.00  0.00    -0.065 C 
ATOM     25  C   UNL     1     -25.411  58.321  -1.338  1.00  0.00     0.014 C 
ATOM     26  C   UNL     1     -26.670  56.650   0.079  1.00  0.00     0.016 C 
ATOM     27  C   UNL     1     -25.885  59.331   1.428  1.00  0.00     0.063 C 
ATOM     28  C   UNL     1     -26.301  59.558  -1.066  1.00  0.00     0.033 C 
ATOM     29  C   UNL     1     -25.919  60.299   0.232  1.00  0.00     0.118 C 
BRANCH  29  30
ATOM     30  O   UNL     1     -24.667  60.916   0.062  1.00  0.00    -0.393 OA
ATOM     31  H   UNL     1     -24.070  60.544   0.762  1.00  0.00     0.210 HD
ENDBRANCH  29  30
ENDBRANCH   9  11
ENDBRANCH   1   9
TORSDOF 7
ENDMDL
MODEL 3
REMARK VINA RESULT:    -7.244      2.059      3.750
REMARK INTER + INTRA:         -11.772
REMARK INTER:                 -10.876
REMARK INTRA:                  -0.896
REMARK UNBOUND:                -1.776
REMARK SMILES CC[C@H](CC[C@H](C)[C@H]1CC[C@@H]2[C@@H]3CC=C4C[C@@H](O)CC[C@@]4(C)[C@@H]3CC[C@@]21C)C(C)C
REMARK SMILES IDX 5 1 4 2 3 3 2 4 1 5 28 6 29 7 30 8 6 9 7 10 8 11 9 12 26 13
REMARK SMILES IDX 10 14 11 15 25 16 27 17 12 18 24 19 23 20 13 21 21 22 14 23
REMARK SMILES IDX 15 24 20 25 22 26 16 27 19 28 17 29 18 30
REMARK H PARENT 18 31
REMARK Flexibility Score: inf
ROOT
ATOM      1  C   UNL     1     -25.371  57.819   0.971  1.00  0.00     0.004 C 
ENDROOT
BRANCH   1   2
ATOM      2  C   UNL     1     -25.256  59.363   0.987  1.00  0.00     0.004 C 
BRANCH   2   3
ATOM      3  C   UNL     1     -24.175  59.978   1.933  1.00  0.00    -0.009 C 
BRANCH   3   4
ATOM      4  C   UNL     1     -24.792  60.943   2.988  1.00  0.00     0.000 C 
ATOM      5  C   UNL     1     -26.322  60.898   3.068  1.00  0.00     0.004 C 
ENDBRANCH   3   4
BRANCH   3   6
ATOM      6  C   UNL     1     -23.286  58.855   2.573  1.00  0.00    -0.014 C 
ATOM      7  C   UNL     1     -21.826  58.934   2.075  1.00  0.00     0.007 C 
ATOM      8  C   UNL     1     -23.276  58.909   4.114  1.00  0.00     0.007 C 
ENDBRANCH   3   6
ENDBRANCH   2   3
ENDBRANCH   1   2
BRANCH   1   9
ATOM      9  C   UNL     1     -26.018  57.222  -0.314  1.00  0.00    -0.011 C 
ATOM     10  C   UNL     1     -27.121  56.225   0.091  1.00  0.00     0.008 C 
BRANCH   9  11
ATOM     11  C   UNL     1     -24.932  56.622  -1.292  1.00  0.00    -0.002 C 
ATOM     12  C   UNL     1     -24.247  57.692  -2.153  1.00  0.00     0.005 C 
ATOM     13  C   UNL     1     -23.747  55.787  -0.675  1.00  0.00    -0.026 C 
ATOM     14  C   UNL     1     -22.940  58.022  -1.458  1.00  0.00     0.005 C 
ATOM     15  C   UNL     1     -22.502  56.743  -0.726  1.00  0.00    -0.001 C 
ATOM     16  C   UNL     1     -23.516  54.524  -1.556  1.00  0.00     0.007 C 
ATOM     17  C   UNL     1     -24.033  55.288   0.772  1.00  0.00     0.012 C 
ATOM     18  C   UNL     1     -21.166  56.113  -1.262  1.00  0.00     0.000 C 
ATOM     19  C   UNL     1     -22.183  53.784  -1.305  1.00  0.00     0.005 C 
ATOM     20  C   UNL     1     -21.021  54.665  -0.748  1.00  0.00     0.003 C 
ATOM     21  C   UNL     1     -20.933  56.150  -2.795  1.00  0.00     0.031 C 
ATOM     22  C   UNL     1     -19.584  54.077  -1.042  1.00  0.00    -0.008 C 
ATOM     23  C   UNL     1     -19.706  55.381  -3.207  1.00  0.00    -0.027 C 
ATOM     24  C   UNL     1     -19.107  54.433  -2.450  1.00  0.00    -0.065 C 
ATOM     25  C   UNL     1     -18.540  54.670  -0.038  1.00  0.00     0.014 C 
ATOM     26  C   UNL     1     -19.603  52.530  -0.858  1.00  0.00     0.016 C 
ATOM     27  C   UNL     1     -17.706  54.002  -2.822  1.00  0.00     0.063 C 
ATOM     28  C   UNL     1     -17.069  54.335  -0.388  1.00  0.00     0.033 C 
ATOM     29  C   UNL     1     -16.711  54.663  -1.852  1.00  0.00     0.118 C 
BRANCH  29  30
ATOM     30  O   UNL     1     -16.706  56.058  -2.027  1.00  0.00    -0.393 OA
ATOM     31  H   UNL     1     -17.578  56.389  -1.692  1.00  0.00     0.210 HD
ENDBRANCH  29  30
ENDBRANCH   9  11
ENDBRANCH   1   9
TORSDOF 7
ENDMDL
MODEL 4
REMARK VINA RESULT:    -7.218      1.916      3.454
REMARK INTER + INTRA:         -11.736
REMARK INTER:                 -10.616
REMARK INTRA:                  -1.120
REMARK UNBOUND:                -1.776
REMARK SMILES CC[C@H](CC[C@H](C)[C@H]1CC[C@@H]2[C@@H]3CC=C4C[C@@H](O)CC[C@@]4(C)[C@@H]3CC[C@@]21C)C(C)C
REMARK SMILES IDX 5 1 4 2 3 3 2 4 1 5 28 6 29 7 30 8 6 9 7 10 8 11 9 12 26 13
REMARK SMILES IDX 10 14 11 15 25 16 27 17 12 18 24 19 23 20 13 21 21 22 14 23
REMARK SMILES IDX 15 24 20 25 22 26 16 27 19 28 17 29 18 30
REMARK H PARENT 18 31
REMARK Flexibility Score: inf
ROOT
ATOM      1  C   UNL     1     -25.502  57.590   0.874  1.00  0.00     0.004 C 
ENDROOT
BRANCH   1   2
ATOM      2  C   UNL     1     -25.643  59.127   0.990  1.00  0.00     0.004 C 
BRANCH   2   3
ATOM      3  C   UNL     1     -24.485  59.888   1.712  1.00  0.00    -0.009 C 
BRANCH   3   4
ATOM      4  C   UNL     1     -23.358  58.928   2.197  1.00  0.00     0.000 C 
ATOM      5  C   UNL     1     -23.189  58.871   3.719  1.00  0.00     0.004 C 
ENDBRANCH   3   4
BRANCH   3   6
ATOM      6  C   UNL     1     -23.949  61.066   0.825  1.00  0.00    -0.014 C 
ATOM      7  C   UNL     1     -22.414  61.010   0.672  1.00  0.00     0.007 C 
ATOM      8  C   UNL     1     -24.576  61.082  -0.585  1.00  0.00     0.007 C 
ENDBRANCH   3   6
ENDBRANCH   2   3
ENDBRANCH   1   2
BRANCH   1   9
ATOM      9  C   UNL     1     -26.068  56.976  -0.441  1.00  0.00    -0.011 C 
ATOM     10  C   UNL     1     -27.125  55.910  -0.087  1.00  0.00     0.008 C 
BRANCH   9  11
ATOM     11  C   UNL     1     -24.917  56.454  -1.388  1.00  0.00    -0.002 C 
ATOM     12  C   UNL     1     -24.221  57.583  -2.160  1.00  0.00     0.005 C 
ATOM     13  C   UNL     1     -23.740  55.623  -0.749  1.00  0.00    -0.026 C 
ATOM     14  C   UNL     1     -22.962  57.914  -1.383  1.00  0.00     0.005 C 
ATOM     15  C   UNL     1     -22.524  56.614  -0.690  1.00  0.00    -0.001 C 
ATOM     16  C   UNL     1     -23.427  54.411  -1.676  1.00  0.00     0.007 C 
ATOM     17  C   UNL     1     -24.084  55.047   0.655  1.00  0.00     0.012 C 
ATOM     18  C   UNL     1     -21.144  56.048  -1.185  1.00  0.00     0.000 C 
ATOM     19  C   UNL     1     -22.087  53.697  -1.391  1.00  0.00     0.005 C 
ATOM     20  C   UNL     1     -20.982  54.581  -0.733  1.00  0.00     0.003 C 
ATOM     21  C   UNL     1     -20.834  56.166  -2.700  1.00  0.00     0.031 C 
ATOM     22  C   UNL     1     -19.514  54.048  -0.979  1.00  0.00    -0.008 C 
ATOM     23  C   UNL     1     -19.565  55.452  -3.083  1.00  0.00    -0.027 C 
ATOM     24  C   UNL     1     -18.977  54.485  -2.342  1.00  0.00    -0.065 C 
ATOM     25  C   UNL     1     -18.541  54.620   0.105  1.00  0.00     0.014 C 
ATOM     26  C   UNL     1     -19.497  52.494  -0.869  1.00  0.00     0.016 C 
ATOM     27  C   UNL     1     -17.547  54.111  -2.660  1.00  0.00     0.063 C 
ATOM     28  C   UNL     1     -17.044  54.343  -0.183  1.00  0.00     0.033 C 
ATOM     29  C   UNL     1     -16.623  54.751  -1.609  1.00  0.00     0.118 C 
BRANCH  29  30
ATOM     30  O   UNL     1     -16.650  56.153  -1.718  1.00  0.00    -0.393 OA
ATOM     31  H   UNL     1     -17.604  56.422  -1.677  1.00  0.00     0.210 HD
ENDBRANCH  29  30
ENDBRANCH   9  11
ENDBRANCH   1   9
TORSDOF 7
ENDMDL
MODEL 5
REMARK VINA RESULT:    -7.213      1.093      1.856
REMARK INTER + INTRA:         -11.730
REMARK INTER:                  -9.790
REMARK INTRA:                  -1.940
REMARK UNBOUND:                -1.776
REMARK SMILES CC[C@H](CC[C@H](C)[C@H]1CC[C@@H]2[C@@H]3CC=C4C[C@@H](O)CC[C@@]4(C)[C@@H]3CC[C@@]21C)C(C)C
REMARK SMILES IDX 5 1 4 2 3 3 2 4 1 5 28 6 29 7 30 8 6 9 7 10 8 11 9 12 26 13
REMARK SMILES IDX 10 14 11 15 25 16 27 17 12 18 24 19 23 20 13 21 21 22 14 23
REMARK SMILES IDX 15 24 20 25 22 26 16 27 19 28 17 29 18 30
REMARK H PARENT 18 31
REMARK Flexibility Score: inf
ROOT
ATOM      1  C   UNL     1     -27.119  56.364  -1.363  1.00  0.00     0.004 C 
ENDROOT
BRANCH   1   2
ATOM      2  C   UNL     1     -26.555  57.644  -2.026  1.00  0.00     0.004 C 
BRANCH   2   3
ATOM      3  C   UNL     1     -27.040  59.010  -1.443  1.00  0.00    -0.009 C 
BRANCH   3   4
ATOM      4  C   UNL     1     -27.028  59.027   0.114  1.00  0.00     0.000 C 
ATOM      5  C   UNL     1     -25.664  59.356   0.732  1.00  0.00     0.004 C 
ENDBRANCH   3   4
BRANCH   3   6
ATOM      6  C   UNL     1     -26.244  60.204  -2.078  1.00  0.00    -0.014 C 
ATOM      7  C   UNL     1     -25.011  59.710  -2.865  1.00  0.00     0.007 C 
ATOM      8  C   UNL     1     -27.111  61.061  -3.023  1.00  0.00     0.007 C 
ENDBRANCH   3   6
ENDBRANCH   2   3
ENDBRANCH   1   2
BRANCH   1   9
ATOM      9  C   UNL     1     -26.046  55.414  -0.751  1.00  0.00    -0.011 C 
ATOM     10  C   UNL     1     -26.618  54.757   0.521  1.00  0.00     0.008 C 
BRANCH   9  11
ATOM     11  C   UNL     1     -24.667  56.152  -0.532  1.00  0.00    -0.002 C 
ATOM     12  C   UNL     1     -24.106  55.961   0.884  1.00  0.00     0.005 C 
ATOM     13  C   UNL     1     -23.465  55.796  -1.488  1.00  0.00    -0.026 C 
ATOM     14  C   UNL     1     -23.095  54.834   0.791  1.00  0.00     0.005 C 
ATOM     15  C   UNL     1     -22.515  54.886  -0.631  1.00  0.00    -0.001 C 
ATOM     16  C   UNL     1     -22.750  57.116  -1.901  1.00  0.00     0.007 C 
ATOM     17  C   UNL     1     -23.912  55.089  -2.801  1.00  0.00     0.012 C 
ATOM     18  C   UNL     1     -20.984  55.230  -0.695  1.00  0.00     0.000 C 
ATOM     19  C   UNL     1     -21.357  56.934  -2.544  1.00  0.00     0.005 C 
ATOM     20  C   UNL     1     -20.592  55.637  -2.131  1.00  0.00     0.003 C 
ATOM     21  C   UNL     1     -20.454  56.286   0.310  1.00  0.00     0.031 C 
ATOM     22  C   UNL     1     -19.025  55.742  -2.308  1.00  0.00    -0.008 C 
ATOM     23  C   UNL     1     -19.016  56.651   0.053  1.00  0.00    -0.027 C 
ATOM     24  C   UNL     1     -18.370  56.443  -1.117  1.00  0.00    -0.065 C 
ATOM     25  C   UNL     1     -18.394  54.313  -2.407  1.00  0.00     0.014 C 
ATOM     26  C   UNL     1     -18.697  56.506  -3.626  1.00  0.00     0.016 C 
ATOM     27  C   UNL     1     -16.861  56.527  -1.126  1.00  0.00     0.063 C 
ATOM     28  C   UNL     1     -16.846  54.304  -2.350  1.00  0.00     0.033 C 
ATOM     29  C   UNL     1     -16.285  55.100  -1.154  1.00  0.00     0.118 C 
BRANCH  29  30
ATOM     30  O   UNL     1     -16.591  54.423   0.039  1.00  0.00    -0.393 OA
ATOM     31  H   UNL     1     -15.932  54.728   0.715  1.00  0.00     0.210 HD
ENDBRANCH  29  30
ENDBRANCH   9  11
ENDBRANCH   1   9
TORSDOF 7
ENDMDL
MODEL 6
REMARK VINA RESULT:    -7.000      2.548      7.672
REMARK INTER + INTRA:         -11.436
REMARK INTER:                  -9.997
REMARK INTRA:                  -1.439
REMARK UNBOUND:                -1.776
REMARK SMILES CC[C@H](CC[C@H](C)[C@H]1CC[C@@H]2[C@@H]3CC=C4C[C@@H](O)CC[C@@]4(C)[C@@H]3CC[C@@]21C)C(C)C
REMARK SMILES IDX 5 1 4 2 3 3 2 4 1 5 28 6 29 7 30 8 6 9 7 10 8 11 9 12 26 13
REMARK SMILES IDX 10 14 11 15 25 16 27 17 12 18 24 19 23 20 13 21 21 22 14 23
REMARK SMILES IDX 15 24 20 25 22 26 16 27 19 28 17 29 18 30
REMARK H PARENT 18 31
REMARK Flexibility Score: inf
ROOT
ATOM      1  C   UNL     1     -18.997  52.917  -1.459  1.00  0.00     0.004 C 
ENDROOT
BRANCH   1   2
ATOM      2  C   UNL     1     -18.592  54.053  -2.430  1.00  0.00     0.004 C 
BRANCH   2   3
ATOM      3  C   UNL     1     -17.207  54.731  -2.180  1.00  0.00    -0.009 C 
BRANCH   3   4
ATOM      4  C   UNL     1     -17.086  56.110  -2.893  1.00  0.00     0.000 C 
ATOM      5  C   UNL     1     -18.122  56.343  -3.999  1.00  0.00     0.004 C 
ENDBRANCH   3   4
BRANCH   3   6
ATOM      6  C   UNL     1     -16.886  54.801  -0.646  1.00  0.00    -0.014 C 
ATOM      7  C   UNL     1     -15.690  53.898  -0.274  1.00  0.00     0.007 C 
ATOM      8  C   UNL     1     -16.578  56.235  -0.168  1.00  0.00     0.007 C 
ENDBRANCH   3   6
ENDBRANCH   2   3
ENDBRANCH   1   2
BRANCH   1   9
ATOM      9  C   UNL     1     -20.051  53.317  -0.384  1.00  0.00    -0.011 C 
ATOM     10  C   UNL     1     -20.383  52.085   0.482  1.00  0.00     0.008 C 
BRANCH   9  11
ATOM     11  C   UNL     1     -21.314  54.011  -1.031  1.00  0.00    -0.002 C 
ATOM     12  C   UNL     1     -22.640  53.462  -0.488  1.00  0.00     0.005 C 
ATOM     13  C   UNL     1     -21.452  55.576  -0.913  1.00  0.00    -0.026 C 
ATOM     14  C   UNL     1     -23.090  54.429   0.590  1.00  0.00     0.005 C 
ATOM     15  C   UNL     1     -22.544  55.810   0.191  1.00  0.00    -0.001 C 
ATOM     16  C   UNL     1     -21.919  56.140  -2.287  1.00  0.00     0.007 C 
ATOM     17  C   UNL     1     -20.113  56.288  -0.559  1.00  0.00     0.012 C 
ATOM     18  C   UNL     1     -23.651  56.873  -0.143  1.00  0.00     0.000 C 
ATOM     19  C   UNL     1     -22.438  57.595  -2.257  1.00  0.00     0.005 C 
ATOM     20  C   UNL     1     -23.026  58.069  -0.891  1.00  0.00     0.003 C 
ATOM     21  C   UNL     1     -24.903  56.373  -0.910  1.00  0.00     0.031 C 
ATOM     22  C   UNL     1     -24.037  59.277  -1.022  1.00  0.00    -0.008 C 
ATOM     23  C   UNL     1     -25.816  57.500  -1.314  1.00  0.00    -0.027 C 
ATOM     24  C   UNL     1     -25.440  58.797  -1.398  1.00  0.00    -0.065 C 
ATOM     25  C   UNL     1     -24.159  60.033   0.343  1.00  0.00     0.014 C 
ATOM     26  C   UNL     1     -23.514  60.286  -2.087  1.00  0.00     0.016 C 
ATOM     27  C   UNL     1     -26.522  59.851  -1.467  1.00  0.00     0.063 C 
ATOM     28  C   UNL     1     -25.296  61.085   0.381  1.00  0.00     0.033 C 
ATOM     29  C   UNL     1     -26.652  60.519  -0.087  1.00  0.00     0.118 C 
BRANCH  29  30
ATOM     30  O   UNL     1     -27.123  59.597   0.864  1.00  0.00    -0.393 OA
ATOM     31  H   UNL     1     -27.648  60.115   1.527  1.00  0.00     0.210 HD
ENDBRANCH  29  30
ENDBRANCH   9  11
ENDBRANCH   1   9
TORSDOF 7
ENDMDL
MODEL 7
REMARK VINA RESULT:    -6.569      2.352      7.423
REMARK INTER + INTRA:         -10.840
REMARK INTER:                 -10.399
REMARK INTRA:                  -0.441
REMARK UNBOUND:                -1.776
REMARK SMILES CC[C@H](CC[C@H](C)[C@H]1CC[C@@H]2[C@@H]3CC=C4C[C@@H](O)CC[C@@]4(C)[C@@H]3CC[C@@]21C)C(C)C
REMARK SMILES IDX 5 1 4 2 3 3 2 4 1 5 28 6 29 7 30 8 6 9 7 10 8 11 9 12 26 13
REMARK SMILES IDX 10 14 11 15 25 16 27 17 12 18 24 19 23 20 13 21 21 22 14 23
REMARK SMILES IDX 15 24 20 25 22 26 16 27 19 28 17 29 18 30
REMARK H PARENT 18 31
REMARK Flexibility Score: inf
ROOT
ATOM      1  C   UNL     1     -19.142  53.717  -0.838  1.00  0.00     0.004 C 
ENDROOT
BRANCH   1   2
ATOM      2  C   UNL     1     -17.844  54.173  -1.548  1.00  0.00     0.004 C 
BRANCH   2   3
ATOM      3  C   UNL     1     -17.455  55.679  -1.403  1.00  0.00    -0.009 C 
BRANCH   3   4
ATOM      4  C   UNL     1     -18.314  56.604  -2.313  1.00  0.00     0.000 C 
ATOM      5  C   UNL     1     -17.914  56.583  -3.793  1.00  0.00     0.004 C 
ENDBRANCH   3   4
BRANCH   3   6
ATOM      6  C   UNL     1     -17.465  56.118   0.104  1.00  0.00    -0.014 C 
ATOM      7  C   UNL     1     -16.182  56.891   0.480  1.00  0.00     0.007 C 
ATOM      8  C   UNL     1     -18.682  56.997   0.460  1.00  0.00     0.007 C 
ENDBRANCH   3   6
ENDBRANCH   2   3
ENDBRANCH   1   2
BRANCH   1   9
ATOM      9  C   UNL     1     -20.224  53.105  -1.778  1.00  0.00    -0.011 C 
ATOM     10  C   UNL     1     -19.865  53.430  -3.242  1.00  0.00     0.008 C 
BRANCH   9  11
ATOM     11  C   UNL     1     -21.681  53.544  -1.358  1.00  0.00    -0.002 C 
ATOM     12  C   UNL     1     -21.870  53.609   0.164  1.00  0.00     0.005 C 
ATOM     13  C   UNL     1     -22.231  54.923  -1.888  1.00  0.00    -0.026 C 
ATOM     14  C   UNL     1     -21.692  55.065   0.551  1.00  0.00     0.005 C 
ATOM     15  C   UNL     1     -22.151  55.896  -0.658  1.00  0.00    -0.001 C 
ATOM     16  C   UNL     1     -23.705  54.728  -2.348  1.00  0.00     0.007 C 
ATOM     17  C   UNL     1     -21.440  55.473  -3.110  1.00  0.00     0.012 C 
ATOM     18  C   UNL     1     -23.421  56.782  -0.391  1.00  0.00     0.000 C 
ATOM     19  C   UNL     1     -24.504  56.033  -2.565  1.00  0.00     0.005 C 
ATOM     20  C   UNL     1     -24.022  57.260  -1.730  1.00  0.00     0.003 C 
ATOM     21  C   UNL     1     -24.537  56.169   0.495  1.00  0.00     0.031 C 
ATOM     22  C   UNL     1     -25.139  58.358  -1.516  1.00  0.00    -0.008 C 
ATOM     23  C   UNL     1     -25.766  57.037   0.550  1.00  0.00    -0.027 C 
ATOM     24  C   UNL     1     -26.066  57.999  -0.354  1.00  0.00    -0.065 C 
ATOM     25  C   UNL     1     -24.484  59.738  -1.174  1.00  0.00     0.014 C 
ATOM     26  C   UNL     1     -25.964  58.528  -2.826  1.00  0.00     0.016 C 
ATOM     27  C   UNL     1     -27.125  59.015   0.009  1.00  0.00     0.063 C 
ATOM     28  C   UNL     1     -25.496  60.820  -0.720  1.00  0.00     0.033 C 
ATOM     29  C   UNL     1     -26.433  60.332   0.403  1.00  0.00     0.118 C 
BRANCH  29  30
ATOM     30  O   UNL     1     -25.691  60.163   1.585  1.00  0.00    -0.393 OA
ATOM     31  H   UNL     1     -24.768  59.926   1.310  1.00  0.00     0.210 HD
ENDBRANCH  29  30
ENDBRANCH   9  11
ENDBRANCH   1   9
TORSDOF 7
ENDMDL
MODEL 8
REMARK VINA RESULT:    -6.542      1.881      3.338
REMARK INTER + INTRA:         -10.804
REMARK INTER:                  -9.971
REMARK INTRA:                  -0.833
REMARK UNBOUND:                -1.776
REMARK SMILES CC[C@H](CC[C@H](C)[C@H]1CC[C@@H]2[C@@H]3CC=C4C[C@@H](O)CC[C@@]4(C)[C@@H]3CC[C@@]21C)C(C)C
REMARK SMILES IDX 5 1 4 2 3 3 2 4 1 5 28 6 29 7 30 8 6 9 7 10 8 11 9 12 26 13
REMARK SMILES IDX 10 14 11 15 25 16 27 17 12 18 24 19 23 20 13 21 21 22 14 23
REMARK SMILES IDX 15 24 20 25 22 26 16 27 19 28 17 29 18 30
REMARK H PARENT 18 31
REMARK Flexibility Score: inf
ROOT
ATOM      1  C   UNL     1     -26.040  56.891  -0.868  1.00  0.00     0.004 C 
ENDROOT
BRANCH   1   2
ATOM      2  C   UNL     1     -26.027  57.614   0.501  1.00  0.00     0.004 C 
BRANCH   2   3
ATOM      3  C   UNL     1     -25.121  58.881   0.618  1.00  0.00    -0.009 C 
BRANCH   3   4
ATOM      4  C   UNL     1     -23.750  58.570   1.286  1.00  0.00     0.000 C 
ATOM      5  C   UNL     1     -23.751  58.683   2.814  1.00  0.00     0.004 C 
ENDBRANCH   3   4
BRANCH   3   6
ATOM      6  C   UNL     1     -24.981  59.600  -0.770  1.00  0.00    -0.014 C 
ATOM      7  C   UNL     1     -25.767  60.928  -0.804  1.00  0.00     0.007 C 
ATOM      8  C   UNL     1     -23.513  59.896  -1.141  1.00  0.00     0.007 C 
ENDBRANCH   3   6
ENDBRANCH   2   3
ENDBRANCH   1   2
BRANCH   1   9
ATOM      9  C   UNL     1     -25.946  55.338  -0.791  1.00  0.00    -0.011 C 
ATOM     10  C   UNL     1     -26.159  54.890   0.668  1.00  0.00     0.008 C 
BRANCH   9  11
ATOM     11  C   UNL     1     -24.613  54.798  -1.444  1.00  0.00    -0.002 C 
ATOM     12  C   UNL     1     -24.309  55.445  -2.803  1.00  0.00     0.005 C 
ATOM     13  C   UNL     1     -23.271  54.934  -0.629  1.00  0.00    -0.026 C 
ATOM     14  C   UNL     1     -23.318  56.560  -2.530  1.00  0.00     0.005 C 
ATOM     15  C   UNL     1     -22.500  56.123  -1.304  1.00  0.00    -0.001 C 
ATOM     16  C   UNL     1     -22.471  53.604  -0.763  1.00  0.00     0.007 C 
ATOM     17  C   UNL     1     -23.496  55.180   0.891  1.00  0.00     0.012 C 
ATOM     18  C   UNL     1     -20.974  55.884  -1.595  1.00  0.00     0.000 C 
ATOM     19  C   UNL     1     -20.991  53.682  -0.326  1.00  0.00     0.005 C 
ATOM     20  C   UNL     1     -20.333  55.093  -0.435  1.00  0.00     0.003 C 
ATOM     21  C   UNL     1     -20.608  55.219  -2.947  1.00  0.00     0.031 C 
ATOM     22  C   UNL     1     -18.757  55.050  -0.551  1.00  0.00    -0.008 C 
ATOM     23  C   UNL     1     -19.141  54.895  -3.048  1.00  0.00    -0.027 C 
ATOM     24  C   UNL     1     -18.306  54.787  -1.989  1.00  0.00    -0.065 C 
ATOM     25  C   UNL     1     -18.144  56.423  -0.119  1.00  0.00     0.014 C 
ATOM     26  C   UNL     1     -18.192  53.950   0.397  1.00  0.00     0.016 C 
ATOM     27  C   UNL     1     -16.817  54.810  -2.248  1.00  0.00     0.063 C 
ATOM     28  C   UNL     1     -16.629  56.557  -0.417  1.00  0.00     0.033 C 
ATOM     29  C   UNL     1     -16.270  56.199  -1.873  1.00  0.00     0.118 C 
BRANCH  29  30
ATOM     30  O   UNL     1     -16.790  57.181  -2.734  1.00  0.00    -0.393 OA
ATOM     31  H   UNL     1     -17.703  57.391  -2.408  1.00  0.00     0.210 HD
ENDBRANCH  29  30
ENDBRANCH   9  11
ENDBRANCH   1   9
TORSDOF 7
ENDMDL
MODEL 9
REMARK VINA RESULT:    -6.527      1.795      3.017
REMARK INTER + INTRA:         -10.783
REMARK INTER:                  -9.194
REMARK INTRA:                  -1.589
REMARK UNBOUND:                -1.776
REMARK SMILES CC[C@H](CC[C@H](C)[C@H]1CC[C@@H]2[C@@H]3CC=C4C[C@@H](O)CC[C@@]4(C)[C@@H]3CC[C@@]21C)C(C)C
REMARK SMILES IDX 5 1 4 2 3 3 2 4 1 5 28 6 29 7 30 8 6 9 7 10 8 11 9 12 26 13
REMARK SMILES IDX 10 14 11 15 25 16 27 17 12 18 24 19 23 20 13 21 21 22 14 23
REMARK SMILES IDX 15 24 20 25 22 26 16 27 19 28 17 29 18 30
REMARK H PARENT 18 31
REMARK Flexibility Score: inf
ROOT
ATOM      1  C   UNL     1     -27.055  57.594   0.505  1.00  0.00     0.004 C 
ENDROOT
BRANCH   1   2
ATOM      2  C   UNL     1     -27.125  59.073   0.959  1.00  0.00     0.004 C 
BRANCH   2   3
ATOM      3  C   UNL     1     -25.808  59.906   0.849  1.00  0.00    -0.009 C 
BRANCH   3   4
ATOM      4  C   UNL     1     -25.955  61.125  -0.108  1.00  0.00     0.000 C 
ATOM      5  C   UNL     1     -25.599  60.828  -1.569  1.00  0.00     0.004 C 
ENDBRANCH   3   4
BRANCH   3   6
ATOM      6  C   UNL     1     -25.274  60.301   2.271  1.00  0.00    -0.014 C 
ATOM      7  C   UNL     1     -26.423  60.420   3.296  1.00  0.00     0.007 C 
ATOM      8  C   UNL     1     -24.239  59.296   2.818  1.00  0.00     0.007 C 
ENDBRANCH   3   6
ENDBRANCH   2   3
ENDBRANCH   1   2
BRANCH   1   9
ATOM      9  C   UNL     1     -26.038  57.307  -0.640  1.00  0.00    -0.011 C 
ATOM     10  C   UNL     1     -26.797  56.755  -1.863  1.00  0.00     0.008 C 
BRANCH   9  11
ATOM     11  C   UNL     1     -24.849  56.390  -0.151  1.00  0.00    -0.002 C 
ATOM     12  C   UNL     1     -24.852  55.005  -0.812  1.00  0.00     0.005 C 
ATOM     13  C   UNL     1     -23.374  56.915  -0.332  1.00  0.00    -0.026 C 
ATOM     14  C   UNL     1     -23.866  55.081  -1.961  1.00  0.00     0.005 C 
ATOM     15  C   UNL     1     -22.799  56.109  -1.551  1.00  0.00    -0.001 C 
ATOM     16  C   UNL     1     -22.573  56.607   0.967  1.00  0.00     0.007 C 
ATOM     17  C   UNL     1     -23.292  58.452  -0.566  1.00  0.00     0.012 C 
ATOM     18  C   UNL     1     -21.358  55.511  -1.368  1.00  0.00     0.000 C 
ATOM     19  C   UNL     1     -21.038  56.733   0.837  1.00  0.00     0.005 C 
ATOM     20  C   UNL     1     -20.466  56.507  -0.597  1.00  0.00     0.003 C 
ATOM     21  C   UNL     1     -21.253  54.105  -0.721  1.00  0.00     0.031 C 
ATOM     22  C   UNL     1     -18.947  56.071  -0.611  1.00  0.00    -0.008 C 
ATOM     23  C   UNL     1     -19.827  53.704  -0.450  1.00  0.00    -0.027 C 
ATOM     24  C   UNL     1     -18.790  54.569  -0.369  1.00  0.00    -0.065 C 
ATOM     25  C   UNL     1     -18.306  56.383  -2.004  1.00  0.00     0.014 C 
ATOM     26  C   UNL     1     -18.162  56.872   0.470  1.00  0.00     0.016 C 
ATOM     27  C   UNL     1     -17.387  54.011  -0.447  1.00  0.00     0.063 C 
ATOM     28  C   UNL     1     -16.890  55.783  -2.195  1.00  0.00     0.033 C 
ATOM     29  C   UNL     1     -16.824  54.281  -1.854  1.00  0.00     0.118 C 
BRANCH  29  30
ATOM     30  O   UNL     1     -17.543  53.554  -2.818  1.00  0.00    -0.393 OA
ATOM     31  H   UNL     1     -17.011  53.589  -3.655  1.00  0.00     0.210 HD
ENDBRANCH  29  30
ENDBRANCH   9  11
ENDBRANCH   1   9
TORSDOF 7
ENDMDL
