MODEL 1
REMARK VINA RESULT:     6.116      0.000      0.000
REMARK INTER + INTRA:           6.295
REMARK INTER:                   6.295
REMARK INTRA:                   0.000
REMARK UNBOUND:                 0.000
REMARK SMILES Cc1cccc(O)c1C
REMARK SMILES IDX 1 1 2 2 8 3 6 4 5 5 4 6 3 7 9 8 7 9
REMARK H PARENT 7 10
REMARK Flexibility Score: inf
ROOT
ATOM      1  C   UNL     1      13.545   4.345  27.550  1.00  0.00     0.045 C 
ATOM      2  C   UNL     1      13.312   3.432  28.726  1.00  0.00    -0.045 A 
ATOM      3  C   UNL     1      14.314   3.198  29.709  1.00  0.00    -0.006 A 
ATOM      4  C   UNL     1      14.025   2.326  30.791  1.00  0.00     0.118 A 
ATOM      5  C   UNL     1      12.774   1.711  30.881  1.00  0.00     0.046 A 
ATOM      6  C   UNL     1      11.799   1.945  29.916  1.00  0.00     0.004 A 
ATOM      7  C   UNL     1      12.063   2.798  28.847  1.00  0.00     0.004 A 
ATOM      8  C   UNL     1      15.674   3.852  29.631  1.00  0.00     0.048 C 
ENDROOT
BRANCH   4   9
ATOM      9  O   UNL     1      14.960   2.050  31.793  1.00  0.00    -0.508 OA
ATOM     10  H   UNL     1      14.790   2.216  32.776  1.00  0.00     0.293 HD
ENDBRANCH   4   9
TORSDOF 1
ENDMDL
MODEL 2
REMARK VINA RESULT:     6.203      1.768      2.778
REMARK INTER + INTRA:           6.384
REMARK INTER:                   6.384
REMARK INTRA:                   0.000
REMARK UNBOUND:                 0.000
REMARK SMILES Cc1cccc(O)c1C
REMARK SMILES IDX 1 1 2 2 8 3 6 4 5 5 4 6 3 7 9 8 7 9
REMARK H PARENT 7 10
REMARK Flexibility Score: inf
ROOT
ATOM      1  C   UNL     1      15.836   4.194  29.649  1.00  0.00     0.045 C 
ATOM      2  C   UNL     1      14.559   3.423  29.864  1.00  0.00    -0.045 A 
ATOM      3  C   UNL     1      13.495   3.447  28.919  1.00  0.00    -0.006 A 
ATOM      4  C   UNL     1      12.321   2.696  29.187  1.00  0.00     0.118 A 
ATOM      5  C   UNL     1      12.221   1.947  30.363  1.00  0.00     0.046 A 
ATOM      6  C   UNL     1      13.266   1.929  31.282  1.00  0.00     0.004 A 
ATOM      7  C   UNL     1      14.426   2.659  31.036  1.00  0.00     0.004 A 
ATOM      8  C   UNL     1      13.582   4.249  27.642  1.00  0.00     0.048 C 
ENDROOT
BRANCH   4   9
ATOM      9  O   UNL     1      11.237   2.671  28.305  1.00  0.00    -0.508 OA
ATOM     10  H   UNL     1      10.277   2.785  28.599  1.00  0.00     0.293 HD
ENDBRANCH   4   9
TORSDOF 1
ENDMDL
MODEL 3
REMARK VINA RESULT:     6.790      1.755      2.877
REMARK INTER + INTRA:           6.989
REMARK INTER:                   6.989
REMARK INTRA:                   0.000
REMARK UNBOUND:                 0.000
REMARK SMILES Cc1cccc(O)c1C
REMARK SMILES IDX 1 1 2 2 8 3 6 4 5 5 4 6 3 7 9 8 7 9
REMARK H PARENT 7 10
REMARK Flexibility Score: inf
ROOT
ATOM      1  C   UNL     1      14.791   2.080  31.834  1.00  0.00     0.045 C 
ATOM      2  C   UNL     1      13.869   2.369  30.678  1.00  0.00    -0.045 A 
ATOM      3  C   UNL     1      14.223   3.275  29.638  1.00  0.00    -0.006 A 
ATOM      4  C   UNL     1      13.305   3.499  28.580  1.00  0.00     0.118 A 
ATOM      5  C   UNL     1      12.075   2.836  28.567  1.00  0.00     0.046 A 
ATOM      6  C   UNL     1      11.736   1.952  29.587  1.00  0.00     0.004 A 
ATOM      7  C   UNL     1      12.624   1.719  30.634  1.00  0.00     0.004 A 
ATOM      8  C   UNL     1      15.547   4.002  29.633  1.00  0.00     0.048 C 
ENDROOT
BRANCH   4   9
ATOM      9  O   UNL     1      13.585   4.373  27.526  1.00  0.00    -0.508 OA
ATOM     10  H   UNL     1      13.797   5.353  27.655  1.00  0.00     0.293 HD
ENDBRANCH   4   9
TORSDOF 1
ENDMDL
MODEL 4
REMARK VINA RESULT:     7.048      1.183      2.742
REMARK INTER + INTRA:           7.254
REMARK INTER:                   7.254
REMARK INTRA:                   0.000
REMARK UNBOUND:                 0.000
REMARK SMILES Cc1cccc(O)c1C
REMARK SMILES IDX 1 1 2 2 8 3 6 4 5 5 4 6 3 7 9 8 7 9
REMARK H PARENT 7 10
REMARK Flexibility Score: inf
ROOT
ATOM      1  C   UNL     1      11.580   1.581  30.972  1.00  0.00     0.045 C 
ATOM      2  C   UNL     1      12.522   2.376  30.104  1.00  0.00    -0.045 A 
ATOM      3  C   UNL     1      13.885   2.580  30.460  1.00  0.00    -0.006 A 
ATOM      4  C   UNL     1      14.715   3.339  29.595  1.00  0.00     0.118 A 
ATOM      5  C   UNL     1      14.193   3.874  28.414  1.00  0.00     0.046 A 
ATOM      6  C   UNL     1      12.859   3.670  28.073  1.00  0.00     0.004 A 
ATOM      7  C   UNL     1      12.029   2.927  28.909  1.00  0.00     0.004 A 
ATOM      8  C   UNL     1      14.470   2.011  31.732  1.00  0.00     0.048 C 
ENDROOT
BRANCH   4   9
ATOM      9  O   UNL     1      16.062   3.579  29.879  1.00  0.00    -0.508 OA
ATOM     10  H   UNL     1      16.740   3.852  29.180  1.00  0.00     0.293 HD
ENDBRANCH   4   9
TORSDOF 1
ENDMDL
MODEL 5
REMARK VINA RESULT:     7.492      1.395      2.590
REMARK INTER + INTRA:           7.711
REMARK INTER:                   7.711
REMARK INTRA:                   0.000
REMARK UNBOUND:                 0.000
REMARK SMILES Cc1cccc(O)c1C
REMARK SMILES IDX 1 1 2 2 8 3 6 4 5 5 4 6 3 7 9 8 7 9
REMARK H PARENT 7 10
REMARK Flexibility Score: inf
ROOT
ATOM      1  C   UNL     1      16.047   3.628  29.881  1.00  0.00     0.045 C 
ATOM      2  C   UNL     1      14.598   3.364  29.564  1.00  0.00    -0.045 A 
ATOM      3  C   UNL     1      13.747   2.654  30.457  1.00  0.00    -0.006 A 
ATOM      4  C   UNL     1      12.392   2.442  30.094  1.00  0.00     0.118 A 
ATOM      5  C   UNL     1      11.909   2.926  28.875  1.00  0.00     0.046 A 
ATOM      6  C   UNL     1      12.748   3.620  28.007  1.00  0.00     0.004 A 
ATOM      7  C   UNL     1      14.080   3.838  28.347  1.00  0.00     0.004 A 
ATOM      8  C   UNL     1      14.248   2.121  31.780  1.00  0.00     0.048 C 
ENDROOT
BRANCH   4   9
ATOM      9  O   UNL     1      11.499   1.754  30.921  1.00  0.00    -0.508 OA
ATOM     10  H   UNL     1      10.649   2.163  31.285  1.00  0.00     0.293 HD
ENDBRANCH   4   9
TORSDOF 1
ENDMDL
MODEL 6
REMARK VINA RESULT:     8.152     18.751     20.163
REMARK INTER + INTRA:           8.390
REMARK INTER:                   8.390
REMARK INTRA:                   0.000
REMARK UNBOUND:                 0.000
REMARK SMILES Cc1cccc(O)c1C
REMARK SMILES IDX 1 1 2 2 8 3 6 4 5 5 4 6 3 7 9 8 7 9
REMARK H PARENT 7 10
REMARK Flexibility Score: inf
ROOT
ATOM      1  C   UNL     1      -1.925   0.580  39.038  1.00  0.00     0.045 C 
ATOM      2  C   UNL     1      -2.685  -0.703  39.255  1.00  0.00    -0.045 A 
ATOM      3  C   UNL     1      -2.827  -1.286  40.546  1.00  0.00    -0.006 A 
ATOM      4  C   UNL     1      -3.557  -2.496  40.677  1.00  0.00     0.118 A 
ATOM      5  C   UNL     1      -4.124  -3.098  39.550  1.00  0.00     0.046 A 
ATOM      6  C   UNL     1      -3.980  -2.521  38.291  1.00  0.00     0.004 A 
ATOM      7  C   UNL     1      -3.267  -1.334  38.143  1.00  0.00     0.004 A 
ATOM      8  C   UNL     1      -2.223  -0.652  41.778  1.00  0.00     0.048 C 
ENDROOT
BRANCH   4   9
ATOM      9  O   UNL     1      -3.738  -3.124  41.912  1.00  0.00    -0.508 OA
ATOM     10  H   UNL     1      -4.348  -2.768  42.635  1.00  0.00     0.293 HD
ENDBRANCH   4   9
TORSDOF 1
ENDMDL
MODEL 7
REMARK VINA RESULT:     8.350      1.924      3.657
REMARK INTER + INTRA:           8.594
REMARK INTER:                   8.594
REMARK INTRA:                   0.000
REMARK UNBOUND:                 0.000
REMARK SMILES Cc1cccc(O)c1C
REMARK SMILES IDX 1 1 2 2 8 3 6 4 5 5 4 6 3 7 9 8 7 9
REMARK H PARENT 7 10
REMARK Flexibility Score: inf
ROOT
ATOM      1  C   UNL     1      11.872   1.372  31.031  1.00  0.00     0.045 C 
ATOM      2  C   UNL     1      12.890   2.295  30.411  1.00  0.00    -0.045 A 
ATOM      3  C   UNL     1      12.687   2.896  29.137  1.00  0.00    -0.006 A 
ATOM      4  C   UNL     1      13.688   3.755  28.615  1.00  0.00     0.118 A 
ATOM      5  C   UNL     1      14.852   4.001  29.348  1.00  0.00     0.046 A 
ATOM      6  C   UNL     1      15.044   3.409  30.593  1.00  0.00     0.004 A 
ATOM      7  C   UNL     1      14.072   2.563  31.122  1.00  0.00     0.004 A 
ATOM      8  C   UNL     1      11.436   2.644  28.328  1.00  0.00     0.048 C 
ENDROOT
BRANCH   4   9
ATOM      9  O   UNL     1      13.557   4.380  27.372  1.00  0.00    -0.508 OA
ATOM     10  H   UNL     1      12.796   5.005  27.139  1.00  0.00     0.293 HD
ENDBRANCH   4   9
TORSDOF 1
ENDMDL
MODEL 8
REMARK VINA RESULT:     8.614      1.929      3.780
REMARK INTER + INTRA:           8.865
REMARK INTER:                   8.865
REMARK INTRA:                   0.000
REMARK UNBOUND:                 0.000
REMARK SMILES Cc1cccc(O)c1C
REMARK SMILES IDX 1 1 2 2 8 3 6 4 5 5 4 6 3 7 9 8 7 9
REMARK H PARENT 7 10
REMARK Flexibility Score: inf
ROOT
ATOM      1  C   UNL     1      14.256   1.848  32.117  1.00  0.00     0.045 C 
ATOM      2  C   UNL     1      13.948   2.509  30.798  1.00  0.00    -0.045 A 
ATOM      3  C   UNL     1      12.704   2.323  30.133  1.00  0.00    -0.006 A 
ATOM      4  C   UNL     1      12.483   2.977  28.893  1.00  0.00     0.118 A 
ATOM      5  C   UNL     1      13.477   3.791  28.343  1.00  0.00     0.046 A 
ATOM      6  C   UNL     1      14.692   3.968  29.000  1.00  0.00     0.004 A 
ATOM      7  C   UNL     1      14.927   3.334  30.217  1.00  0.00     0.004 A 
ATOM      8  C   UNL     1      11.615   1.448  30.710  1.00  0.00     0.048 C 
ENDROOT
BRANCH   4   9
ATOM      9  O   UNL     1      11.287   2.841  28.184  1.00  0.00    -0.508 OA
ATOM     10  H   UNL     1      10.753   1.983  28.149  1.00  0.00     0.293 HD
ENDBRANCH   4   9
TORSDOF 1
ENDMDL
MODEL 9
REMARK VINA RESULT:     8.684      1.246      2.284
REMARK INTER + INTRA:           8.938
REMARK INTER:                   8.938
REMARK INTRA:                   0.000
REMARK UNBOUND:                 0.000
REMARK SMILES Cc1cccc(O)c1C
REMARK SMILES IDX 1 1 2 2 8 3 6 4 5 5 4 6 3 7 9 8 7 9
REMARK H PARENT 7 10
REMARK Flexibility Score: inf
ROOT
ATOM      1  C   UNL     1      11.242   2.496  28.421  1.00  0.00     0.045 C 
ATOM      2  C   UNL     1      12.453   2.594  29.313  1.00  0.00    -0.045 A 
ATOM      3  C   UNL     1      13.566   3.419  28.985  1.00  0.00    -0.006 A 
ATOM      4  C   UNL     1      14.673   3.463  29.872  1.00  0.00     0.118 A 
ATOM      5  C   UNL     1      14.661   2.706  31.046  1.00  0.00     0.046 A 
ATOM      6  C   UNL     1      13.569   1.902  31.360  1.00  0.00     0.004 A 
ATOM      7  C   UNL     1      12.473   1.846  30.502  1.00  0.00     0.004 A 
ATOM      8  C   UNL     1      13.600   4.246  27.721  1.00  0.00     0.048 C 
ENDROOT
BRANCH   4   9
ATOM      9  O   UNL     1      15.799   4.250  29.616  1.00  0.00    -0.508 OA
ATOM     10  H   UNL     1      16.538   4.403  30.289  1.00  0.00     0.293 HD
ENDBRANCH   4   9
TORSDOF 1
ENDMDL
