MODEL 1
REMARK VINA RESULT:    -4.504      0.000      0.000
REMARK INTER + INTRA:         -14.061
REMARK INTER:                 -10.297
REMARK INTRA:                  -3.763
REMARK UNBOUND:                -3.763
REMARK SMILES CCCCCCCCCCCCCCCCCCCCCCCC(=O)[O-]
REMARK SMILES IDX 13 1 14 2 15 3 16 4 17 5 18 6 19 7 20 8 21 9 22 10 23 11
REMARK SMILES IDX 24 12 25 13 26 14 12 15 11 16 10 17 9 18 8 19 7 20 6 21 5 22
REMARK SMILES IDX 4 23 3 24 2 25 1 26
REMARK H PARENT
REMARK Flexibility Score: inf
ROOT
ATOM      1  C   UNL     1     -13.328   4.812   4.497  1.00  0.00     0.000 C 
ENDROOT
BRANCH   1   2
ATOM      2  C   UNL     1     -12.862   3.429   4.998  1.00  0.00     0.000 C 
BRANCH   2   3
ATOM      3  C   UNL     1     -13.029   3.207   6.520  1.00  0.00     0.000 C 
BRANCH   3   4
ATOM      4  C   UNL     1     -11.709   2.896   7.250  1.00  0.00     0.000 C 
BRANCH   4   5
ATOM      5  C   UNL     1     -11.234   3.997   8.218  1.00  0.00     0.000 C 
BRANCH   5   6
ATOM      6  C   UNL     1     -10.787   5.310   7.543  1.00  0.00     0.000 C 
BRANCH   6   7
ATOM      7  C   UNL     1      -9.872   5.138   6.314  1.00  0.00     0.000 C 
BRANCH   7   8
ATOM      8  C   UNL     1      -9.943   6.280   5.286  1.00  0.00     0.000 C 
BRANCH   8   9
ATOM      9  C   UNL     1      -9.291   7.578   5.790  1.00  0.00     0.000 C 
BRANCH   9  10
ATOM     10  C   UNL     1      -9.337   8.714   4.749  1.00  0.00     0.006 C 
BRANCH  10  11
ATOM     11  C   UNL     1      -8.964  10.092   5.320  1.00  0.00     0.053 C 
BRANCH  11  12
ATOM     12  C   UNL     1      -7.808  10.026   6.269  1.00  0.00     0.041 C 
ATOM     13  O   UNL     1      -6.658   9.730   5.846  1.00  0.00    -0.550 OA
ATOM     14  O   UNL     1      -7.999  10.280   7.620  1.00  0.00    -0.550 OA
ENDBRANCH  11  12
ENDBRANCH  10  11
ENDBRANCH   9  10
ENDBRANCH   8   9
ENDBRANCH   7   8
ENDBRANCH   6   7
ENDBRANCH   5   6
ENDBRANCH   4   5
ENDBRANCH   3   4
ENDBRANCH   2   3
ENDBRANCH   1   2
BRANCH   1  15
ATOM     15  C   UNL     1     -13.848   5.778   5.584  1.00  0.00     0.000 C 
BRANCH  15  16
ATOM     16  C   UNL     1     -14.858   6.836   5.105  1.00  0.00     0.000 C 
BRANCH  16  17
ATOM     17  C   UNL     1     -14.249   8.247   5.022  1.00  0.00     0.000 C 
BRANCH  17  18
ATOM     18  C   UNL     1     -12.943   8.382   5.825  1.00  0.00    -0.000 C 
BRANCH  18  19
ATOM     19  C   UNL     1     -12.613   9.811   6.300  1.00  0.00    -0.000 C 
BRANCH  19  20
ATOM     20  C   UNL     1     -13.652  10.882   5.915  1.00  0.00    -0.000 C 
BRANCH  20  21
ATOM     21  C   UNL     1     -13.133  11.985   4.969  1.00  0.00    -0.000 C 
BRANCH  21  22
ATOM     22  C   UNL     1     -12.162  11.508   3.873  1.00  0.00    -0.000 C 
BRANCH  22  23
ATOM     23  C   UNL     1     -12.775  11.560   2.464  1.00  0.00    -0.000 C 
BRANCH  23  24
ATOM     24  C   UNL     1     -12.955  10.165   1.841  1.00  0.00    -0.000 C 
BRANCH  24  25
ATOM     25  C   UNL     1     -14.418   9.829   1.480  1.00  0.00    -0.003 C 
ATOM     26  C   UNL     1     -15.415  10.461   2.451  1.00  0.00     0.004 C 
ENDBRANCH  24  25
ENDBRANCH  23  24
ENDBRANCH  22  23
ENDBRANCH  21  22
ENDBRANCH  20  21
ENDBRANCH  19  20
ENDBRANCH  18  19
ENDBRANCH  17  18
ENDBRANCH  16  17
ENDBRANCH  15  16
ENDBRANCH   1  15
TORSDOF 22
ENDMDL
MODEL 2
REMARK VINA RESULT:    -4.467      2.386      5.920
REMARK INTER + INTRA:         -13.976
REMARK INTER:                 -10.646
REMARK INTRA:                  -3.331
REMARK UNBOUND:                -3.763
REMARK SMILES CCCCCCCCCCCCCCCCCCCCCCCC(=O)[O-]
REMARK SMILES IDX 13 1 14 2 15 3 16 4 17 5 18 6 19 7 20 8 21 9 22 10 23 11
REMARK SMILES IDX 24 12 25 13 26 14 12 15 11 16 10 17 9 18 8 19 7 20 6 21 5 22
REMARK SMILES IDX 4 23 3 24 2 25 1 26
REMARK H PARENT
REMARK Flexibility Score: inf
ROOT
ATOM      1  C   UNL     1     -13.478   4.683   4.592  1.00  0.00     0.000 C 
ENDROOT
BRANCH   1   2
ATOM      2  C   UNL     1     -13.793   5.819   5.586  1.00  0.00     0.000 C 
BRANCH   2   3
ATOM      3  C   UNL     1     -14.830   6.850   5.079  1.00  0.00     0.000 C 
BRANCH   3   4
ATOM      4  C   UNL     1     -14.323   8.303   5.104  1.00  0.00     0.000 C 
BRANCH   4   5
ATOM      5  C   UNL     1     -13.409   8.646   6.297  1.00  0.00     0.000 C 
BRANCH   5   6
ATOM      6  C   UNL     1     -13.574  10.075   6.854  1.00  0.00     0.000 C 
BRANCH   6   7
ATOM      7  C   UNL     1     -12.303  10.947   6.812  1.00  0.00     0.000 C 
BRANCH   7   8
ATOM      8  C   UNL     1     -12.374  12.155   5.862  1.00  0.00     0.000 C 
BRANCH   8   9
ATOM      9  C   UNL     1     -11.475  11.996   4.624  1.00  0.00     0.000 C 
BRANCH   9  10
ATOM     10  C   UNL     1     -11.996  10.930   3.641  1.00  0.00     0.006 C 
BRANCH  10  11
ATOM     11  C   UNL     1     -12.851  11.506   2.499  1.00  0.00     0.053 C 
BRANCH  11  12
ATOM     12  C   UNL     1     -12.987  10.556   1.350  1.00  0.00     0.041 C 
ATOM     13  O   UNL     1     -12.130  10.553   0.426  1.00  0.00    -0.550 OA
ATOM     14  O   UNL     1     -14.063   9.680   1.291  1.00  0.00    -0.550 OA
ENDBRANCH  11  12
ENDBRANCH  10  11
ENDBRANCH   9  10
ENDBRANCH   8   9
ENDBRANCH   7   8
ENDBRANCH   6   7
ENDBRANCH   5   6
ENDBRANCH   4   5
ENDBRANCH   3   4
ENDBRANCH   2   3
ENDBRANCH   1   2
BRANCH   1  15
ATOM     15  C   UNL     1     -12.864   3.405   5.208  1.00  0.00     0.000 C 
BRANCH  15  16
ATOM     16  C   UNL     1     -12.975   3.287   6.738  1.00  0.00     0.000 C 
BRANCH  16  17
ATOM     17  C   UNL     1     -11.609   3.099   7.422  1.00  0.00     0.000 C 
BRANCH  17  18
ATOM     18  C   UNL     1     -11.213   4.298   8.303  1.00  0.00    -0.000 C 
BRANCH  18  19
ATOM     19  C   UNL     1     -10.729   5.543   7.534  1.00  0.00    -0.000 C 
BRANCH  19  20
ATOM     20  C   UNL     1      -9.695   5.264   6.427  1.00  0.00    -0.000 C 
BRANCH  20  21
ATOM     21  C   UNL     1     -10.025   5.882   5.052  1.00  0.00    -0.000 C 
BRANCH  21  22
ATOM     22  C   UNL     1      -9.264   7.177   4.715  1.00  0.00    -0.000 C 
BRANCH  22  23
ATOM     23  C   UNL     1      -9.920   8.431   5.315  1.00  0.00    -0.000 C 
BRANCH  23  24
ATOM     24  C   UNL     1      -8.936   9.606   5.463  1.00  0.00    -0.000 C 
BRANCH  24  25
ATOM     25  C   UNL     1      -7.557   9.195   6.021  1.00  0.00    -0.003 C 
ATOM     26  C   UNL     1      -6.575  10.366   6.061  1.00  0.00     0.004 C 
ENDBRANCH  24  25
ENDBRANCH  23  24
ENDBRANCH  22  23
ENDBRANCH  21  22
ENDBRANCH  20  21
ENDBRANCH  19  20
ENDBRANCH  18  19
ENDBRANCH  17  18
ENDBRANCH  16  17
ENDBRANCH  15  16
ENDBRANCH   1  15
TORSDOF 22
ENDMDL
MODEL 3
REMARK VINA RESULT:    -4.467      1.016      2.646
REMARK INTER + INTRA:         -13.975
REMARK INTER:                 -10.610
REMARK INTRA:                  -3.365
REMARK UNBOUND:                -3.763
REMARK SMILES CCCCCCCCCCCCCCCCCCCCCCCC(=O)[O-]
REMARK SMILES IDX 13 1 14 2 15 3 16 4 17 5 18 6 19 7 20 8 21 9 22 10 23 11
REMARK SMILES IDX 24 12 25 13 26 14 12 15 11 16 10 17 9 18 8 19 7 20 6 21 5 22
REMARK SMILES IDX 4 23 3 24 2 25 1 26
REMARK H PARENT
REMARK Flexibility Score: inf
ROOT
ATOM      1  C   UNL     1     -14.266   6.055   4.901  1.00  0.00     0.000 C 
ENDROOT
BRANCH   1   2
ATOM      2  C   UNL     1     -13.485   4.725   4.929  1.00  0.00     0.000 C 
BRANCH   2   3
ATOM      3  C   UNL     1     -13.373   4.074   6.327  1.00  0.00     0.000 C 
BRANCH   3   4
ATOM      4  C   UNL     1     -12.221   3.059   6.449  1.00  0.00     0.000 C 
BRANCH   4   5
ATOM      5  C   UNL     1     -11.061   3.507   7.359  1.00  0.00     0.000 C 
BRANCH   5   6
ATOM      6  C   UNL     1     -10.891   5.034   7.493  1.00  0.00     0.000 C 
BRANCH   6   7
ATOM      7  C   UNL     1      -9.725   5.637   6.683  1.00  0.00     0.000 C 
BRANCH   7   8
ATOM      8  C   UNL     1     -10.068   6.011   5.231  1.00  0.00     0.000 C 
BRANCH   8   9
ATOM      9  C   UNL     1      -9.702   7.466   4.887  1.00  0.00     0.000 C 
BRANCH   9  10
ATOM     10  C   UNL     1      -8.670   8.068   5.859  1.00  0.00     0.006 C 
BRANCH  10  11
ATOM     11  C   UNL     1      -7.946   9.307   5.305  1.00  0.00     0.053 C 
BRANCH  11  12
ATOM     12  C   UNL     1      -7.295  10.119   6.382  1.00  0.00     0.041 C 
ATOM     13  O   UNL     1      -7.867  10.272   7.494  1.00  0.00    -0.550 OA
ATOM     14  O   UNL     1      -6.061  10.715   6.155  1.00  0.00    -0.550 OA
ENDBRANCH  11  12
ENDBRANCH  10  11
ENDBRANCH   9  10
ENDBRANCH   8   9
ENDBRANCH   7   8
ENDBRANCH   6   7
ENDBRANCH   5   6
ENDBRANCH   4   5
ENDBRANCH   3   4
ENDBRANCH   2   3
ENDBRANCH   1   2
BRANCH   1  15
ATOM     15  C   UNL     1     -13.590   7.243   5.621  1.00  0.00     0.000 C 
BRANCH  15  16
ATOM     16  C   UNL     1     -14.018   8.641   5.140  1.00  0.00     0.000 C 
BRANCH  16  17
ATOM     17  C   UNL     1     -15.249   8.604   4.218  1.00  0.00     0.000 C 
BRANCH  17  18
ATOM     18  C   UNL     1     -15.289   9.781   3.227  1.00  0.00    -0.000 C 
BRANCH  18  19
ATOM     19  C   UNL     1     -14.650   9.500   1.852  1.00  0.00    -0.000 C 
BRANCH  19  20
ATOM     20  C   UNL     1     -13.575  10.513   1.414  1.00  0.00    -0.000 C 
BRANCH  20  21
ATOM     21  C   UNL     1     -12.505  10.833   2.479  1.00  0.00    -0.000 C 
BRANCH  21  22
ATOM     22  C   UNL     1     -12.498  12.286   2.988  1.00  0.00    -0.000 C 
BRANCH  22  23
ATOM     23  C   UNL     1     -11.783  12.445   4.340  1.00  0.00    -0.000 C 
BRANCH  23  24
ATOM     24  C   UNL     1     -11.042  11.168   4.776  1.00  0.00    -0.000 C 
BRANCH  24  25
ATOM     25  C   UNL     1     -11.201  10.839   6.276  1.00  0.00    -0.003 C 
ATOM     26  C   UNL     1     -12.458  11.469   6.878  1.00  0.00     0.004 C 
ENDBRANCH  24  25
ENDBRANCH  23  24
ENDBRANCH  22  23
ENDBRANCH  21  22
ENDBRANCH  20  21
ENDBRANCH  19  20
ENDBRANCH  18  19
ENDBRANCH  17  18
ENDBRANCH  16  17
ENDBRANCH  15  16
ENDBRANCH   1  15
TORSDOF 22
ENDMDL
MODEL 4
REMARK VINA RESULT:    -4.388      2.180      5.487
REMARK INTER + INTRA:         -13.794
REMARK INTER:                 -10.776
REMARK INTRA:                  -3.018
REMARK UNBOUND:                -3.763
REMARK SMILES CCCCCCCCCCCCCCCCCCCCCCCC(=O)[O-]
REMARK SMILES IDX 13 1 14 2 15 3 16 4 17 5 18 6 19 7 20 8 21 9 22 10 23 11
REMARK SMILES IDX 24 12 25 13 26 14 12 15 11 16 10 17 9 18 8 19 7 20 6 21 5 22
REMARK SMILES IDX 4 23 3 24 2 25 1 26
REMARK H PARENT
REMARK Flexibility Score: inf
ROOT
ATOM      1  C   UNL     1     -11.251   2.847   6.869  1.00  0.00     0.000 C 
ENDROOT
BRANCH   1   2
ATOM      2  C   UNL     1     -12.546   2.868   6.031  1.00  0.00     0.000 C 
BRANCH   2   3
ATOM      3  C   UNL     1     -12.377   3.432   4.600  1.00  0.00     0.000 C 
BRANCH   3   4
ATOM      4  C   UNL     1     -13.371   4.556   4.256  1.00  0.00     0.000 C 
BRANCH   4   5
ATOM      5  C   UNL     1     -13.888   5.353   5.469  1.00  0.00     0.000 C 
BRANCH   5   6
ATOM      6  C   UNL     1     -14.611   6.671   5.122  1.00  0.00     0.000 C 
BRANCH   6   7
ATOM      7  C   UNL     1     -13.872   7.956   5.546  1.00  0.00     0.000 C 
BRANCH   7   8
ATOM      8  C   UNL     1     -14.366   9.244   4.865  1.00  0.00     0.000 C 
BRANCH   8   9
ATOM      9  C   UNL     1     -15.148   8.972   3.569  1.00  0.00     0.000 C 
BRANCH   9  10
ATOM     10  C   UNL     1     -14.767   9.935   2.428  1.00  0.00     0.006 C 
BRANCH  10  11
ATOM     11  C   UNL     1     -13.977  11.168   2.896  1.00  0.00     0.053 C 
BRANCH  11  12
ATOM     12  C   UNL     1     -12.617  11.247   2.274  1.00  0.00     0.041 C 
ATOM     13  O   UNL     1     -12.365  10.609   1.217  1.00  0.00    -0.550 OA
ATOM     14  O   UNL     1     -11.623  12.017   2.866  1.00  0.00    -0.550 OA
ENDBRANCH  11  12
ENDBRANCH  10  11
ENDBRANCH   9  10
ENDBRANCH   8   9
ENDBRANCH   7   8
ENDBRANCH   6   7
ENDBRANCH   5   6
ENDBRANCH   4   5
ENDBRANCH   3   4
ENDBRANCH   2   3
ENDBRANCH   1   2
BRANCH   1  15
ATOM     15  C   UNL     1     -11.101   3.989   7.899  1.00  0.00     0.000 C 
BRANCH  15  16
ATOM     16  C   UNL     1     -10.967   5.403   7.307  1.00  0.00     0.000 C 
BRANCH  16  17
ATOM     17  C   UNL     1      -9.729   5.557   6.405  1.00  0.00     0.000 C 
BRANCH  17  18
ATOM     18  C   UNL     1      -9.982   6.476   5.196  1.00  0.00    -0.000 C 
BRANCH  18  19
ATOM     19  C   UNL     1      -9.472   7.922   5.357  1.00  0.00    -0.000 C 
BRANCH  19  20
ATOM     20  C   UNL     1     -10.417   9.010   4.814  1.00  0.00    -0.000 C 
BRANCH  20  21
ATOM     21  C   UNL     1     -10.651  10.206   5.761  1.00  0.00    -0.000 C 
BRANCH  21  22
ATOM     22  C   UNL     1      -9.581  11.311   5.699  1.00  0.00    -0.000 C 
BRANCH  22  23
ATOM     23  C   UNL     1      -8.925  11.588   7.061  1.00  0.00    -0.000 C 
BRANCH  23  24
ATOM     24  C   UNL     1      -7.590  10.844   7.242  1.00  0.00    -0.000 C 
BRANCH  24  25
ATOM     25  C   UNL     1      -6.905  10.464   5.911  1.00  0.00    -0.003 C 
ATOM     26  C   UNL     1      -5.404  10.756   5.927  1.00  0.00     0.004 C 
ENDBRANCH  24  25
ENDBRANCH  23  24
ENDBRANCH  22  23
ENDBRANCH  21  22
ENDBRANCH  20  21
ENDBRANCH  19  20
ENDBRANCH  18  19
ENDBRANCH  17  18
ENDBRANCH  16  17
ENDBRANCH  15  16
ENDBRANCH   1  15
TORSDOF 22
ENDMDL
MODEL 5
REMARK VINA RESULT:    -4.332      2.268      5.957
REMARK INTER + INTRA:         -13.668
REMARK INTER:                 -10.331
REMARK INTRA:                  -3.337
REMARK UNBOUND:                -3.763
REMARK SMILES CCCCCCCCCCCCCCCCCCCCCCCC(=O)[O-]
REMARK SMILES IDX 13 1 14 2 15 3 16 4 17 5 18 6 19 7 20 8 21 9 22 10 23 11
REMARK SMILES IDX 24 12 25 13 26 14 12 15 11 16 10 17 9 18 8 19 7 20 6 21 5 22
REMARK SMILES IDX 4 23 3 24 2 25 1 26
REMARK H PARENT
REMARK Flexibility Score: inf
ROOT
ATOM      1  C   UNL     1     -14.466   9.764   1.602  1.00  0.00     0.000 C 
ENDROOT
BRANCH   1   2
ATOM      2  C   UNL     1     -15.452  10.317   2.651  1.00  0.00     0.000 C 
BRANCH   2   3
ATOM      3  C   UNL     1     -15.847   9.311   3.757  1.00  0.00     0.000 C 
BRANCH   3   4
ATOM      4  C   UNL     1     -14.977   9.407   5.023  1.00  0.00     0.000 C 
BRANCH   4   5
ATOM      5  C   UNL     1     -14.015   8.222   5.236  1.00  0.00     0.000 C 
BRANCH   5   6
ATOM      6  C   UNL     1     -14.618   6.833   4.939  1.00  0.00     0.000 C 
BRANCH   6   7
ATOM      7  C   UNL     1     -13.823   5.639   5.504  1.00  0.00     0.000 C 
BRANCH   7   8
ATOM      8  C   UNL     1     -13.489   4.538   4.481  1.00  0.00     0.000 C 
BRANCH   8   9
ATOM      9  C   UNL     1     -12.623   3.414   5.076  1.00  0.00     0.000 C 
BRANCH   9  10
ATOM     10  C   UNL     1     -12.691   3.358   6.614  1.00  0.00     0.006 C 
BRANCH  10  11
ATOM     11  C   UNL     1     -11.325   3.522   7.301  1.00  0.00     0.053 C 
BRANCH  11  12
ATOM     12  C   UNL     1     -11.451   3.926   8.738  1.00  0.00     0.041 C 
ATOM     13  O   UNL     1     -10.938   5.004   9.140  1.00  0.00    -0.550 OA
ATOM     14  O   UNL     1     -12.126   3.109   9.635  1.00  0.00    -0.550 OA
ENDBRANCH  11  12
ENDBRANCH  10  11
ENDBRANCH   9  10
ENDBRANCH   8   9
ENDBRANCH   7   8
ENDBRANCH   6   7
ENDBRANCH   5   6
ENDBRANCH   4   5
ENDBRANCH   3   4
ENDBRANCH   2   3
ENDBRANCH   1   2
BRANCH   1  15
ATOM     15  C   UNL     1     -13.092  10.470   1.537  1.00  0.00     0.000 C 
BRANCH  15  16
ATOM     16  C   UNL     1     -12.881  11.606   2.553  1.00  0.00     0.000 C 
BRANCH  16  17
ATOM     17  C   UNL     1     -11.937  11.210   3.702  1.00  0.00     0.000 C 
BRANCH  17  18
ATOM     18  C   UNL     1     -12.331  11.851   5.045  1.00  0.00    -0.000 C 
BRANCH  18  19
ATOM     19  C   UNL     1     -11.549  11.334   6.270  1.00  0.00    -0.000 C 
BRANCH  19  20
ATOM     20  C   UNL     1     -10.108  11.865   6.394  1.00  0.00    -0.000 C 
BRANCH  20  21
ATOM     21  C   UNL     1      -9.038  10.792   6.684  1.00  0.00    -0.000 C 
BRANCH  21  22
ATOM     22  C   UNL     1      -8.360  10.188   5.441  1.00  0.00    -0.000 C 
BRANCH  22  23
ATOM     23  C   UNL     1      -8.487   8.658   5.371  1.00  0.00    -0.000 C 
BRANCH  23  24
ATOM     24  C   UNL     1      -9.928   8.191   5.094  1.00  0.00    -0.000 C 
BRANCH  24  25
ATOM     25  C   UNL     1     -10.249   6.793   5.664  1.00  0.00    -0.003 C 
ATOM     26  C   UNL     1      -9.766   5.668   4.747  1.00  0.00     0.004 C 
ENDBRANCH  24  25
ENDBRANCH  23  24
ENDBRANCH  22  23
ENDBRANCH  21  22
ENDBRANCH  20  21
ENDBRANCH  19  20
ENDBRANCH  18  19
ENDBRANCH  17  18
ENDBRANCH  16  17
ENDBRANCH  15  16
ENDBRANCH   1  15
TORSDOF 22
ENDMDL
MODEL 6
REMARK VINA RESULT:    -4.322      2.601      6.914
REMARK INTER + INTRA:         -13.643
REMARK INTER:                 -10.324
REMARK INTRA:                  -3.319
REMARK UNBOUND:                -3.763
REMARK SMILES CCCCCCCCCCCCCCCCCCCCCCCC(=O)[O-]
REMARK SMILES IDX 13 1 14 2 15 3 16 4 17 5 18 6 19 7 20 8 21 9 22 10 23 11
REMARK SMILES IDX 24 12 25 13 26 14 12 15 11 16 10 17 9 18 8 19 7 20 6 21 5 22
REMARK SMILES IDX 4 23 3 24 2 25 1 26
REMARK H PARENT
REMARK Flexibility Score: inf
ROOT
ATOM      1  C   UNL     1      -8.287   9.646   4.965  1.00  0.00     0.000 C 
ENDROOT
BRANCH   1   2
ATOM      2  C   UNL     1      -7.515   9.481   6.290  1.00  0.00     0.000 C 
BRANCH   2   3
ATOM      3  C   UNL     1      -8.151  10.205   7.500  1.00  0.00     0.000 C 
BRANCH   3   4
ATOM      4  C   UNL     1      -7.570  11.607   7.760  1.00  0.00     0.000 C 
BRANCH   4   5
ATOM      5  C   UNL     1      -8.592  12.756   7.661  1.00  0.00     0.000 C 
BRANCH   5   6
ATOM      6  C   UNL     1      -9.936  12.496   8.372  1.00  0.00     0.000 C 
BRANCH   6   7
ATOM      7  C   UNL     1     -11.189  12.682   7.494  1.00  0.00     0.000 C 
BRANCH   7   8
ATOM      8  C   UNL     1     -11.117  12.015   6.109  1.00  0.00     0.000 C 
BRANCH   8   9
ATOM      9  C   UNL     1     -11.930  10.711   6.031  1.00  0.00     0.000 C 
BRANCH   9  10
ATOM     10  C   UNL     1     -12.683  10.555   4.696  1.00  0.00     0.006 C 
BRANCH  10  11
ATOM     11  C   UNL     1     -11.861  10.980   3.468  1.00  0.00     0.053 C 
BRANCH  11  12
ATOM     12  C   UNL     1     -12.721  11.288   2.281  1.00  0.00     0.041 C 
ATOM     13  O   UNL     1     -13.665  12.116   2.381  1.00  0.00    -0.550 OA
ATOM     14  O   UNL     1     -12.489  10.653   1.068  1.00  0.00    -0.550 OA
ENDBRANCH  11  12
ENDBRANCH  10  11
ENDBRANCH   9  10
ENDBRANCH   8   9
ENDBRANCH   7   8
ENDBRANCH   6   7
ENDBRANCH   5   6
ENDBRANCH   4   5
ENDBRANCH   3   4
ENDBRANCH   2   3
ENDBRANCH   1   2
BRANCH   1  15
ATOM     15  C   UNL     1      -9.338   8.554   4.662  1.00  0.00     0.000 C 
BRANCH  15  16
ATOM     16  C   UNL     1      -9.401   7.394   5.672  1.00  0.00     0.000 C 
BRANCH  16  17
ATOM     17  C   UNL     1      -9.782   6.054   5.019  1.00  0.00     0.000 C 
BRANCH  17  18
ATOM     18  C   UNL     1      -9.905   4.907   6.037  1.00  0.00    -0.000 C 
BRANCH  18  19
ATOM     19  C   UNL     1     -10.552   5.294   7.383  1.00  0.00    -0.000 C 
BRANCH  19  20
ATOM     20  C   UNL     1     -11.216   4.131   8.145  1.00  0.00    -0.000 C 
BRANCH  20  21
ATOM     21  C   UNL     1     -11.868   3.053   7.254  1.00  0.00    -0.000 C 
BRANCH  21  22
ATOM     22  C   UNL     1     -13.168   3.481   6.551  1.00  0.00    -0.000 C 
BRANCH  22  23
ATOM     23  C   UNL     1     -13.025   3.564   5.022  1.00  0.00    -0.000 C 
BRANCH  23  24
ATOM     24  C   UNL     1     -13.575   4.880   4.443  1.00  0.00    -0.000 C 
BRANCH  24  25
ATOM     25  C   UNL     1     -14.173   5.825   5.507  1.00  0.00    -0.003 C 
ATOM     26  C   UNL     1     -13.275   7.033   5.781  1.00  0.00     0.004 C 
ENDBRANCH  24  25
ENDBRANCH  23  24
ENDBRANCH  22  23
ENDBRANCH  21  22
ENDBRANCH  20  21
ENDBRANCH  19  20
ENDBRANCH  18  19
ENDBRANCH  17  18
ENDBRANCH  16  17
ENDBRANCH  15  16
ENDBRANCH   1  15
TORSDOF 22
ENDMDL
MODEL 7
REMARK VINA RESULT:    -4.248      0.981      2.136
REMARK INTER + INTRA:         -13.474
REMARK INTER:                  -9.824
REMARK INTRA:                  -3.650
REMARK UNBOUND:                -3.763
REMARK SMILES CCCCCCCCCCCCCCCCCCCCCCCC(=O)[O-]
REMARK SMILES IDX 13 1 14 2 15 3 16 4 17 5 18 6 19 7 20 8 21 9 22 10 23 11
REMARK SMILES IDX 24 12 25 13 26 14 12 15 11 16 10 17 9 18 8 19 7 20 6 21 5 22
REMARK SMILES IDX 4 23 3 24 2 25 1 26
REMARK H PARENT
REMARK Flexibility Score: inf
ROOT
ATOM      1  C   UNL     1     -14.094   7.087   5.181  1.00  0.00     0.000 C 
ENDROOT
BRANCH   1   2
ATOM      2  C   UNL     1     -14.003   5.607   5.605  1.00  0.00     0.000 C 
BRANCH   2   3
ATOM      3  C   UNL     1     -13.365   4.673   4.550  1.00  0.00     0.000 C 
BRANCH   3   4
ATOM      4  C   UNL     1     -12.628   3.465   5.155  1.00  0.00     0.000 C 
BRANCH   4   5
ATOM      5  C   UNL     1     -12.602   3.432   6.696  1.00  0.00     0.000 C 
BRANCH   5   6
ATOM      6  C   UNL     1     -11.221   3.700   7.330  1.00  0.00     0.000 C 
BRANCH   6   7
ATOM      7  C   UNL     1     -10.720   5.154   7.220  1.00  0.00     0.000 C 
BRANCH   7   8
ATOM      8  C   UNL     1      -9.628   5.387   6.162  1.00  0.00     0.000 C 
BRANCH   8   9
ATOM      9  C   UNL     1      -9.988   6.505   5.168  1.00  0.00     0.000 C 
BRANCH   9  10
ATOM     10  C   UNL     1      -9.083   7.744   5.309  1.00  0.00     0.006 C 
BRANCH  10  11
ATOM     11  C   UNL     1      -9.840   9.079   5.202  1.00  0.00     0.053 C 
BRANCH  11  12
ATOM     12  C   UNL     1      -8.931  10.264   5.315  1.00  0.00     0.041 C 
ATOM     13  O   UNL     1      -9.351  11.338   5.821  1.00  0.00    -0.550 OA
ATOM     14  O   UNL     1      -7.624  10.186   4.851  1.00  0.00    -0.550 OA
ENDBRANCH  11  12
ENDBRANCH  10  11
ENDBRANCH   9  10
ENDBRANCH   8   9
ENDBRANCH   7   8
ENDBRANCH   6   7
ENDBRANCH   5   6
ENDBRANCH   4   5
ENDBRANCH   3   4
ENDBRANCH   2   3
ENDBRANCH   1   2
BRANCH   1  15
ATOM     15  C   UNL     1     -13.225   8.071   5.996  1.00  0.00     0.000 C 
BRANCH  15  16
ATOM     16  C   UNL     1     -13.890   9.414   6.344  1.00  0.00     0.000 C 
BRANCH  16  17
ATOM     17  C   UNL     1     -12.903  10.432   6.942  1.00  0.00     0.000 C 
BRANCH  17  18
ATOM     18  C   UNL     1     -13.287  11.889   6.631  1.00  0.00    -0.000 C 
BRANCH  18  19
ATOM     19  C   UNL     1     -14.393  12.062   5.570  1.00  0.00    -0.000 C 
BRANCH  19  20
ATOM     20  C   UNL     1     -13.971  12.845   4.312  1.00  0.00    -0.000 C 
BRANCH  20  21
ATOM     21  C   UNL     1     -12.450  13.033   4.137  1.00  0.00    -0.000 C 
BRANCH  21  22
ATOM     22  C   UNL     1     -11.751  11.966   3.275  1.00  0.00    -0.000 C 
BRANCH  22  23
ATOM     23  C   UNL     1     -12.609  10.707   3.067  1.00  0.00    -0.000 C 
BRANCH  23  24
ATOM     24  C   UNL     1     -13.180  10.605   1.641  1.00  0.00    -0.000 C 
BRANCH  24  25
ATOM     25  C   UNL     1     -14.380   9.641   1.520  1.00  0.00    -0.003 C 
ATOM     26  C   UNL     1     -15.286   9.685   2.752  1.00  0.00     0.004 C 
ENDBRANCH  24  25
ENDBRANCH  23  24
ENDBRANCH  22  23
ENDBRANCH  21  22
ENDBRANCH  20  21
ENDBRANCH  19  20
ENDBRANCH  18  19
ENDBRANCH  17  18
ENDBRANCH  16  17
ENDBRANCH  15  16
ENDBRANCH   1  15
TORSDOF 22
ENDMDL
MODEL 8
REMARK VINA RESULT:    -4.220      1.336      3.240
REMARK INTER + INTRA:         -13.410
REMARK INTER:                 -10.012
REMARK INTRA:                  -3.398
REMARK UNBOUND:                -3.763
REMARK SMILES CCCCCCCCCCCCCCCCCCCCCCCC(=O)[O-]
REMARK SMILES IDX 13 1 14 2 15 3 16 4 17 5 18 6 19 7 20 8 21 9 22 10 23 11
REMARK SMILES IDX 24 12 25 13 26 14 12 15 11 16 10 17 9 18 8 19 7 20 6 21 5 22
REMARK SMILES IDX 4 23 3 24 2 25 1 26
REMARK H PARENT
REMARK Flexibility Score: inf
ROOT
ATOM      1  C   UNL     1     -11.607   3.263   7.273  1.00  0.00     0.000 C 
ENDROOT
BRANCH   1   2
ATOM      2  C   UNL     1     -11.124   4.422   8.168  1.00  0.00     0.000 C 
BRANCH   2   3
ATOM      3  C   UNL     1     -10.385   5.553   7.414  1.00  0.00     0.000 C 
BRANCH   3   4
ATOM      4  C   UNL     1      -9.722   5.094   6.102  1.00  0.00     0.000 C 
BRANCH   4   5
ATOM      5  C   UNL     1      -9.859   6.084   4.930  1.00  0.00     0.000 C 
BRANCH   5   6
ATOM      6  C   UNL     1     -10.507   7.436   5.292  1.00  0.00     0.000 C 
BRANCH   6   7
ATOM      7  C   UNL     1      -9.624   8.675   5.044  1.00  0.00     0.000 C 
BRANCH   7   8
ATOM      8  C   UNL     1      -8.301   8.697   5.829  1.00  0.00     0.000 C 
BRANCH   8   9
ATOM      9  C   UNL     1      -7.686  10.104   5.922  1.00  0.00     0.000 C 
BRANCH   9  10
ATOM     10  C   UNL     1      -7.727  10.681   7.351  1.00  0.00     0.006 C 
BRANCH  10  11
ATOM     11  C   UNL     1      -8.499  12.007   7.461  1.00  0.00     0.053 C 
BRANCH  11  12
ATOM     12  C   UNL     1      -9.803  11.974   6.727  1.00  0.00     0.041 C 
ATOM     13  O   UNL     1      -9.947  12.629   5.660  1.00  0.00    -0.550 OA
ATOM     14  O   UNL     1     -10.865  11.228   7.224  1.00  0.00    -0.550 OA
ENDBRANCH  11  12
ENDBRANCH  10  11
ENDBRANCH   9  10
ENDBRANCH   8   9
ENDBRANCH   7   8
ENDBRANCH   6   7
ENDBRANCH   5   6
ENDBRANCH   4   5
ENDBRANCH   3   4
ENDBRANCH   2   3
ENDBRANCH   1   2
BRANCH   1  15
ATOM     15  C   UNL     1     -13.001   3.448   6.632  1.00  0.00     0.000 C 
BRANCH  15  16
ATOM     16  C   UNL     1     -13.031   3.448   5.094  1.00  0.00     0.000 C 
BRANCH  16  17
ATOM     17  C   UNL     1     -13.421   4.815   4.505  1.00  0.00     0.000 C 
BRANCH  17  18
ATOM     18  C   UNL     1     -13.825   5.836   5.583  1.00  0.00    -0.000 C 
BRANCH  18  19
ATOM     19  C   UNL     1     -15.011   6.747   5.209  1.00  0.00    -0.000 C 
BRANCH  19  20
ATOM     20  C   UNL     1     -14.629   8.045   4.472  1.00  0.00    -0.000 C 
BRANCH  20  21
ATOM     21  C   UNL     1     -13.736   9.014   5.275  1.00  0.00    -0.000 C 
BRANCH  21  22
ATOM     22  C   UNL     1     -14.221  10.475   5.312  1.00  0.00    -0.000 C 
BRANCH  22  23
ATOM     23  C   UNL     1     -13.196  11.463   4.732  1.00  0.00    -0.000 C 
BRANCH  23  24
ATOM     24  C   UNL     1     -12.365  10.855   3.587  1.00  0.00    -0.000 C 
BRANCH  24  25
ATOM     25  C   UNL     1     -12.804  11.325   2.184  1.00  0.00    -0.003 C 
ATOM     26  C   UNL     1     -13.532  10.227   1.406  1.00  0.00     0.004 C 
ENDBRANCH  24  25
ENDBRANCH  23  24
ENDBRANCH  22  23
ENDBRANCH  21  22
ENDBRANCH  20  21
ENDBRANCH  19  20
ENDBRANCH  18  19
ENDBRANCH  17  18
ENDBRANCH  16  17
ENDBRANCH  15  16
ENDBRANCH   1  15
TORSDOF 22
ENDMDL
MODEL 9
REMARK VINA RESULT:    -4.133      2.412      5.771
REMARK INTER + INTRA:         -13.211
REMARK INTER:                  -8.997
REMARK INTRA:                  -4.214
REMARK UNBOUND:                -3.763
REMARK SMILES CCCCCCCCCCCCCCCCCCCCCCCC(=O)[O-]
REMARK SMILES IDX 13 1 14 2 15 3 16 4 17 5 18 6 19 7 20 8 21 9 22 10 23 11
REMARK SMILES IDX 24 12 25 13 26 14 12 15 11 16 10 17 9 18 8 19 7 20 6 21 5 22
REMARK SMILES IDX 4 23 3 24 2 25 1 26
REMARK H PARENT
REMARK Flexibility Score: inf
ROOT
ATOM      1  C   UNL     1     -11.277  11.734   3.756  1.00  0.00     0.000 C 
ENDROOT
BRANCH   1   2
ATOM      2  C   UNL     1     -11.149  12.908   4.748  1.00  0.00     0.000 C 
BRANCH   2   3
ATOM      3  C   UNL     1     -10.255  12.617   5.977  1.00  0.00     0.000 C 
BRANCH   3   4
ATOM      4  C   UNL     1     -10.056  11.117   6.258  1.00  0.00     0.000 C 
BRANCH   4   5
ATOM      5  C   UNL     1      -8.588  10.649   6.252  1.00  0.00     0.000 C 
BRANCH   5   6
ATOM      6  C   UNL     1      -8.250   9.575   5.198  1.00  0.00     0.000 C 
BRANCH   6   7
ATOM      7  C   UNL     1      -9.395   8.595   4.871  1.00  0.00     0.000 C 
BRANCH   7   8
ATOM      8  C   UNL     1      -9.399   7.300   5.702  1.00  0.00     0.000 C 
BRANCH   8   9
ATOM      9  C   UNL     1      -9.808   6.065   4.881  1.00  0.00     0.000 C 
BRANCH   9  10
ATOM     10  C   UNL     1     -10.309   4.903   5.760  1.00  0.00     0.006 C 
BRANCH  10  11
ATOM     11  C   UNL     1     -10.396   5.250   7.256  1.00  0.00     0.053 C 
BRANCH  11  12
ATOM     12  C   UNL     1     -11.470   4.480   7.961  1.00  0.00     0.041 C 
ATOM     13  O   UNL     1     -11.345   4.191   9.181  1.00  0.00    -0.550 OA
ATOM     14  O   UNL     1     -12.604   4.072   7.270  1.00  0.00    -0.550 OA
ENDBRANCH  11  12
ENDBRANCH  10  11
ENDBRANCH   9  10
ENDBRANCH   8   9
ENDBRANCH   7   8
ENDBRANCH   6   7
ENDBRANCH   5   6
ENDBRANCH   4   5
ENDBRANCH   3   4
ENDBRANCH   2   3
ENDBRANCH   1   2
BRANCH   1  15
ATOM     15  C   UNL     1     -12.458  11.823   2.763  1.00  0.00     0.000 C 
BRANCH  15  16
ATOM     16  C   UNL     1     -12.747  10.544   1.957  1.00  0.00     0.000 C 
BRANCH  16  17
ATOM     17  C   UNL     1     -14.226  10.416   1.552  1.00  0.00     0.000 C 
BRANCH  17  18
ATOM     18  C   UNL     1     -15.087   9.751   2.641  1.00  0.00    -0.000 C 
BRANCH  18  19
ATOM     19  C   UNL     1     -15.873  10.727   3.539  1.00  0.00    -0.000 C 
BRANCH  19  20
ATOM     20  C   UNL     1     -15.737  10.472   5.053  1.00  0.00    -0.000 C 
BRANCH  20  21
ATOM     21  C   UNL     1     -14.455  11.038   5.698  1.00  0.00    -0.000 C 
BRANCH  21  22
ATOM     22  C   UNL     1     -13.578  10.005   6.429  1.00  0.00    -0.000 C 
BRANCH  22  23
ATOM     23  C   UNL     1     -12.992   8.941   5.487  1.00  0.00    -0.000 C 
BRANCH  23  24
ATOM     24  C   UNL     1     -13.116   7.514   6.050  1.00  0.00    -0.000 C 
BRANCH  24  25
ATOM     25  C   UNL     1     -13.970   6.572   5.175  1.00  0.00    -0.003 C 
ATOM     26  C   UNL     1     -15.456   6.927   5.220  1.00  0.00     0.004 C 
ENDBRANCH  24  25
ENDBRANCH  23  24
ENDBRANCH  22  23
ENDBRANCH  21  22
ENDBRANCH  20  21
ENDBRANCH  19  20
ENDBRANCH  18  19
ENDBRANCH  17  18
ENDBRANCH  16  17
ENDBRANCH  15  16
ENDBRANCH   1  15
TORSDOF 22
ENDMDL
