MODEL 1
REMARK VINA RESULT:    18.739      0.000      0.000
REMARK INTER + INTRA:          41.402
REMARK INTER:                  42.841
REMARK INTRA:                  -1.439
REMARK UNBOUND:                -1.439
REMARK SMILES CCCCCCCCCCCCCCCCCCCCCCCC(=O)[O-]
REMARK SMILES IDX 13 1 14 2 15 3 16 4 17 5 18 6 19 7 20 8 21 9 22 10 23 11
REMARK SMILES IDX 24 12 25 13 26 14 12 15 11 16 10 17 9 18 8 19 7 20 6 21 5 22
REMARK SMILES IDX 4 23 3 24 2 25 1 26
REMARK H PARENT
REMARK Flexibility Score: inf
ROOT
ATOM      1  C   UNL     1      17.353  17.410  19.155  1.00  0.00     0.000 C 
ENDROOT
BRANCH   1   2
ATOM      2  C   UNL     1      15.994  16.743  19.425  1.00  0.00     0.000 C 
BRANCH   2   3
ATOM      3  C   UNL     1      16.117  15.445  20.243  1.00  0.00     0.000 C 
BRANCH   3   4
ATOM      4  C   UNL     1      14.739  14.819  20.546  1.00  0.00     0.000 C 
BRANCH   4   5
ATOM      5  C   UNL     1      14.780  13.293  20.732  1.00  0.00     0.000 C 
BRANCH   5   6
ATOM      6  C   UNL     1      13.956  12.541  19.675  1.00  0.00     0.000 C 
BRANCH   6   7
ATOM      7  C   UNL     1      14.634  11.246  19.195  1.00  0.00     0.000 C 
BRANCH   7   8
ATOM      8  C   UNL     1      15.655  10.635  20.177  1.00  0.00     0.000 C 
BRANCH   8   9
ATOM      9  C   UNL     1      16.161   9.227  19.808  1.00  0.00     0.000 C 
BRANCH   9  10
ATOM     10  C   UNL     1      17.668   9.140  19.504  1.00  0.00     0.006 C 
BRANCH  10  11
ATOM     11  C   UNL     1      18.538   9.569  20.692  1.00  0.00     0.053 C 
BRANCH  11  12
ATOM     12  C   UNL     1      19.737  10.326  20.215  1.00  0.00     0.041 C 
ATOM     13  O   UNL     1      20.317   9.986  19.149  1.00  0.00    -0.550 OA
ATOM     14  O   UNL     1      20.187  11.433  20.920  1.00  0.00    -0.550 OA
ENDBRANCH  11  12
ENDBRANCH  10  11
ENDBRANCH   9  10
ENDBRANCH   8   9
ENDBRANCH   7   8
ENDBRANCH   6   7
ENDBRANCH   5   6
ENDBRANCH   4   5
ENDBRANCH   3   4
ENDBRANCH   2   3
ENDBRANCH   1   2
BRANCH   1  15
ATOM     15  C   UNL     1      18.350  17.206  20.309  1.00  0.00     0.000 C 
BRANCH  15  16
ATOM     16  C   UNL     1      19.542  18.173  20.242  1.00  0.00     0.000 C 
BRANCH  16  17
ATOM     17  C   UNL     1      19.671  19.042  21.506  1.00  0.00     0.000 C 
BRANCH  17  18
ATOM     18  C   UNL     1      19.806  18.202  22.786  1.00  0.00    -0.000 C 
BRANCH  18  19
ATOM     19  C   UNL     1      20.399  19.003  23.959  1.00  0.00    -0.000 C 
BRANCH  19  20
ATOM     20  C   UNL     1      21.397  20.078  23.497  1.00  0.00    -0.000 C 
BRANCH  20  21
ATOM     21  C   UNL     1      22.065  20.807  24.675  1.00  0.00    -0.000 C 
BRANCH  21  22
ATOM     22  C   UNL     1      23.578  20.552  24.750  1.00  0.00    -0.000 C 
BRANCH  22  23
ATOM     23  C   UNL     1      24.147  19.946  23.454  1.00  0.00    -0.000 C 
BRANCH  23  24
ATOM     24  C   UNL     1      25.125  18.786  23.735  1.00  0.00    -0.000 C 
BRANCH  24  25
ATOM     25  C   UNL     1      24.963  17.599  22.771  1.00  0.00    -0.003 C 
ATOM     26  C   UNL     1      24.279  17.981  21.461  1.00  0.00     0.004 C 
ENDBRANCH  24  25
ENDBRANCH  23  24
ENDBRANCH  22  23
ENDBRANCH  21  22
ENDBRANCH  20  21
ENDBRANCH  19  20
ENDBRANCH  18  19
ENDBRANCH  17  18
ENDBRANCH  16  17
ENDBRANCH  15  16
ENDBRANCH   1  15
TORSDOF 22
ENDMDL
MODEL 2
REMARK VINA RESULT:    18.946      0.886      2.270
REMARK INTER + INTRA:          41.873
REMARK INTER:                  43.183
REMARK INTRA:                  -1.310
REMARK UNBOUND:                -1.439
REMARK SMILES CCCCCCCCCCCCCCCCCCCCCCCC(=O)[O-]
REMARK SMILES IDX 13 1 14 2 15 3 16 4 17 5 18 6 19 7 20 8 21 9 22 10 23 11
REMARK SMILES IDX 24 12 25 13 26 14 12 15 11 16 10 17 9 18 8 19 7 20 6 21 5 22
REMARK SMILES IDX 4 23 3 24 2 25 1 26
REMARK H PARENT
REMARK Flexibility Score: inf
ROOT
ATOM      1  C   UNL     1      17.050  17.602  19.099  1.00  0.00     0.000 C 
ENDROOT
BRANCH   1   2
ATOM      2  C   UNL     1      15.849  16.650  19.212  1.00  0.00     0.000 C 
BRANCH   2   3
ATOM      3  C   UNL     1      16.089  15.500  20.208  1.00  0.00     0.000 C 
BRANCH   3   4
ATOM      4  C   UNL     1      14.779  14.775  20.582  1.00  0.00     0.000 C 
BRANCH   4   5
ATOM      5  C   UNL     1      14.947  13.259  20.784  1.00  0.00     0.000 C 
BRANCH   5   6
ATOM      6  C   UNL     1      14.056  12.430  19.845  1.00  0.00     0.000 C 
BRANCH   6   7
ATOM      7  C   UNL     1      14.826  11.313  19.119  1.00  0.00     0.000 C 
BRANCH   7   8
ATOM      8  C   UNL     1      15.315  10.159  20.020  1.00  0.00     0.000 C 
BRANCH   8   9
ATOM      9  C   UNL     1      16.481   9.329  19.450  1.00  0.00     0.000 C 
BRANCH   9  10
ATOM     10  C   UNL     1      17.755   9.323  20.314  1.00  0.00     0.006 C 
BRANCH  10  11
ATOM     11  C   UNL     1      19.040   9.267  19.477  1.00  0.00     0.053 C 
BRANCH  11  12
ATOM     12  C   UNL     1      19.989  10.341  19.904  1.00  0.00     0.041 C 
ATOM     13  O   UNL     1      20.857  10.775  19.100  1.00  0.00    -0.550 OA
ATOM     14  O   UNL     1      19.886  10.896  21.172  1.00  0.00    -0.550 OA
ENDBRANCH  11  12
ENDBRANCH  10  11
ENDBRANCH   9  10
ENDBRANCH   8   9
ENDBRANCH   7   8
ENDBRANCH   6   7
ENDBRANCH   5   6
ENDBRANCH   4   5
ENDBRANCH   3   4
ENDBRANCH   2   3
ENDBRANCH   1   2
BRANCH   1  15
ATOM     15  C   UNL     1      18.193  17.228  20.059  1.00  0.00     0.000 C 
BRANCH  15  16
ATOM     16  C   UNL     1      18.667  18.418  20.909  1.00  0.00     0.000 C 
BRANCH  16  17
ATOM     17  C   UNL     1      20.186  18.399  21.156  1.00  0.00     0.000 C 
BRANCH  17  18
ATOM     18  C   UNL     1      20.974  17.880  19.943  1.00  0.00    -0.000 C 
BRANCH  18  19
ATOM     19  C   UNL     1      22.463  18.268  19.995  1.00  0.00    -0.000 C 
BRANCH  19  20
ATOM     20  C   UNL     1      23.249  17.457  21.038  1.00  0.00    -0.000 C 
BRANCH  20  21
ATOM     21  C   UNL     1      24.604  18.099  21.384  1.00  0.00    -0.000 C 
BRANCH  21  22
ATOM     22  C   UNL     1      24.645  18.663  22.813  1.00  0.00    -0.000 C 
BRANCH  22  23
ATOM     23  C   UNL     1      25.096  20.134  22.862  1.00  0.00    -0.000 C 
BRANCH  23  24
ATOM     24  C   UNL     1      23.966  21.073  23.333  1.00  0.00    -0.000 C 
BRANCH  24  25
ATOM     25  C   UNL     1      23.324  20.645  24.662  1.00  0.00    -0.003 C 
ATOM     26  C   UNL     1      21.799  20.731  24.645  1.00  0.00     0.004 C 
ENDBRANCH  24  25
ENDBRANCH  23  24
ENDBRANCH  22  23
ENDBRANCH  21  22
ENDBRANCH  20  21
ENDBRANCH  19  20
ENDBRANCH  18  19
ENDBRANCH  17  18
ENDBRANCH  16  17
ENDBRANCH  15  16
ENDBRANCH   1  15
TORSDOF 22
ENDMDL
MODEL 3
REMARK VINA RESULT:    18.950      2.427      9.831
REMARK INTER + INTRA:          41.883
REMARK INTER:                  43.253
REMARK INTRA:                  -1.369
REMARK UNBOUND:                -1.439
REMARK SMILES CCCCCCCCCCCCCCCCCCCCCCCC(=O)[O-]
REMARK SMILES IDX 13 1 14 2 15 3 16 4 17 5 18 6 19 7 20 8 21 9 22 10 23 11
REMARK SMILES IDX 24 12 25 13 26 14 12 15 11 16 10 17 9 18 8 19 7 20 6 21 5 22
REMARK SMILES IDX 4 23 3 24 2 25 1 26
REMARK H PARENT
REMARK Flexibility Score: inf
ROOT
ATOM      1  C   UNL     1      17.194  17.626  19.362  1.00  0.00     0.000 C 
ENDROOT
BRANCH   1   2
ATOM      2  C   UNL     1      18.168  17.302  20.507  1.00  0.00     0.000 C 
BRANCH   2   3
ATOM      3  C   UNL     1      19.542  17.975  20.330  1.00  0.00     0.000 C 
BRANCH   3   4
ATOM      4  C   UNL     1      19.845  18.979  21.463  1.00  0.00     0.000 C 
BRANCH   4   5
ATOM      5  C   UNL     1      19.742  18.371  22.872  1.00  0.00     0.000 C 
BRANCH   5   6
ATOM      6  C   UNL     1      20.868  18.839  23.807  1.00  0.00     0.000 C 
BRANCH   6   7
ATOM      7  C   UNL     1      20.948  20.371  23.928  1.00  0.00     0.000 C 
BRANCH   7   8
ATOM      8  C   UNL     1      22.188  20.908  24.674  1.00  0.00     0.000 C 
BRANCH   8   9
ATOM      9  C   UNL     1      23.493  20.124  24.429  1.00  0.00     0.000 C 
BRANCH   9  10
ATOM     10  C   UNL     1      24.264  20.530  23.160  1.00  0.00     0.006 C 
BRANCH  10  11
ATOM     11  C   UNL     1      25.418  19.572  22.836  1.00  0.00     0.053 C 
BRANCH  11  12
ATOM     12  C   UNL     1      24.887  18.250  22.380  1.00  0.00     0.041 C 
ATOM     13  O   UNL     1      25.236  17.191  22.967  1.00  0.00    -0.550 OA
ATOM     14  O   UNL     1      23.971  18.190  21.338  1.00  0.00    -0.550 OA
ENDBRANCH  11  12
ENDBRANCH  10  11
ENDBRANCH   9  10
ENDBRANCH   8   9
ENDBRANCH   7   8
ENDBRANCH   6   7
ENDBRANCH   5   6
ENDBRANCH   4   5
ENDBRANCH   3   4
ENDBRANCH   2   3
ENDBRANCH   1   2
BRANCH   1  15
ATOM     15  C   UNL     1      16.047  16.605  19.257  1.00  0.00     0.000 C 
BRANCH  15  16
ATOM     16  C   UNL     1      16.213  15.424  20.227  1.00  0.00     0.000 C 
BRANCH  16  17
ATOM     17  C   UNL     1      14.866  14.821  20.661  1.00  0.00     0.000 C 
BRANCH  17  18
ATOM     18  C   UNL     1      14.910  13.287  20.751  1.00  0.00    -0.000 C 
BRANCH  18  19
ATOM     19  C   UNL     1      14.048  12.607  19.671  1.00  0.00    -0.000 C 
BRANCH  19  20
ATOM     20  C   UNL     1      14.589  11.226  19.266  1.00  0.00    -0.000 C 
BRANCH  20  21
ATOM     21  C   UNL     1      15.700  10.729  20.206  1.00  0.00    -0.000 C 
BRANCH  21  22
ATOM     22  C   UNL     1      16.446   9.507  19.649  1.00  0.00    -0.000 C 
BRANCH  22  23
ATOM     23  C   UNL     1      17.819   9.290  20.310  1.00  0.00    -0.000 C 
BRANCH  23  24
ATOM     24  C   UNL     1      18.955   9.190  19.271  1.00  0.00    -0.000 C 
BRANCH  24  25
ATOM     25  C   UNL     1      20.143  10.120  19.566  1.00  0.00    -0.003 C 
ATOM     26  C   UNL     1      19.901  11.035  20.765  1.00  0.00     0.004 C 
ENDBRANCH  24  25
ENDBRANCH  23  24
ENDBRANCH  22  23
ENDBRANCH  21  22
ENDBRANCH  20  21
ENDBRANCH  19  20
ENDBRANCH  18  19
ENDBRANCH  17  18
ENDBRANCH  16  17
ENDBRANCH  15  16
ENDBRANCH   1  15
TORSDOF 22
ENDMDL
MODEL 4
REMARK VINA RESULT:    19.204      0.984      2.462
REMARK INTER + INTRA:          42.465
REMARK INTER:                  43.473
REMARK INTRA:                  -1.009
REMARK UNBOUND:                -1.439
REMARK SMILES CCCCCCCCCCCCCCCCCCCCCCCC(=O)[O-]
REMARK SMILES IDX 13 1 14 2 15 3 16 4 17 5 18 6 19 7 20 8 21 9 22 10 23 11
REMARK SMILES IDX 24 12 25 13 26 14 12 15 11 16 10 17 9 18 8 19 7 20 6 21 5 22
REMARK SMILES IDX 4 23 3 24 2 25 1 26
REMARK H PARENT
REMARK Flexibility Score: inf
ROOT
ATOM      1  C   UNL     1      15.764  16.668  19.214  1.00  0.00     0.000 C 
ENDROOT
BRANCH   1   2
ATOM      2  C   UNL     1      15.982  15.540  20.236  1.00  0.00     0.000 C 
BRANCH   2   3
ATOM      3  C   UNL     1      14.668  14.861  20.664  1.00  0.00     0.000 C 
BRANCH   3   4
ATOM      4  C   UNL     1      14.813  13.327  20.753  1.00  0.00     0.000 C 
BRANCH   4   5
ATOM      5  C   UNL     1      13.978  12.565  19.709  1.00  0.00     0.000 C 
BRANCH   5   6
ATOM      6  C   UNL     1      14.708  11.337  19.144  1.00  0.00     0.000 C 
BRANCH   6   7
ATOM      7  C   UNL     1      15.621  10.653  20.177  1.00  0.00     0.000 C 
BRANCH   7   8
ATOM      8  C   UNL     1      16.220   9.302  19.734  1.00  0.00     0.000 C 
BRANCH   8   9
ATOM      9  C   UNL     1      17.710   9.102  20.070  1.00  0.00     0.000 C 
BRANCH   9  10
ATOM     10  C   UNL     1      18.680   9.391  18.910  1.00  0.00     0.006 C 
BRANCH  10  11
ATOM     11  C   UNL     1      20.069   9.829  19.394  1.00  0.00     0.053 C 
BRANCH  11  12
ATOM     12  C   UNL     1      19.949  10.713  20.594  1.00  0.00     0.041 C 
ATOM     13  O   UNL     1      19.809  10.209  21.740  1.00  0.00    -0.550 OA
ATOM     14  O   UNL     1      20.038  12.092  20.455  1.00  0.00    -0.550 OA
ENDBRANCH  11  12
ENDBRANCH  10  11
ENDBRANCH   9  10
ENDBRANCH   8   9
ENDBRANCH   7   8
ENDBRANCH   6   7
ENDBRANCH   5   6
ENDBRANCH   4   5
ENDBRANCH   3   4
ENDBRANCH   2   3
ENDBRANCH   1   2
BRANCH   1  15
ATOM     15  C   UNL     1      16.970  17.619  19.118  1.00  0.00     0.000 C 
BRANCH  15  16
ATOM     16  C   UNL     1      18.201  17.093  19.875  1.00  0.00     0.000 C 
BRANCH  16  17
ATOM     17  C   UNL     1      18.637  18.027  21.018  1.00  0.00     0.000 C 
BRANCH  17  18
ATOM     18  C   UNL     1      20.058  18.578  20.819  1.00  0.00    -0.000 C 
BRANCH  18  19
ATOM     19  C   UNL     1      20.899  17.711  19.864  1.00  0.00    -0.000 C 
BRANCH  19  20
ATOM     20  C   UNL     1      22.402  18.026  19.947  1.00  0.00    -0.000 C 
BRANCH  20  21
ATOM     21  C   UNL     1      22.948  17.915  21.381  1.00  0.00    -0.000 C 
BRANCH  21  22
ATOM     22  C   UNL     1      24.388  18.435  21.508  1.00  0.00    -0.000 C 
BRANCH  22  23
ATOM     23  C   UNL     1      24.780  18.763  22.960  1.00  0.00    -0.000 C 
BRANCH  23  24
ATOM     24  C   UNL     1      24.471  20.228  23.330  1.00  0.00    -0.000 C 
BRANCH  24  25
ATOM     25  C   UNL     1      23.640  20.375  24.616  1.00  0.00    -0.003 C 
ATOM     26  C   UNL     1      22.153  20.590  24.345  1.00  0.00     0.004 C 
ENDBRANCH  24  25
ENDBRANCH  23  24
ENDBRANCH  22  23
ENDBRANCH  21  22
ENDBRANCH  20  21
ENDBRANCH  19  20
ENDBRANCH  18  19
ENDBRANCH  17  18
ENDBRANCH  16  17
ENDBRANCH  15  16
ENDBRANCH   1  15
TORSDOF 22
ENDMDL
MODEL 5
REMARK VINA RESULT:    19.650      3.329      9.987
REMARK INTER + INTRA:          43.482
REMARK INTER:                  44.695
REMARK INTRA:                  -1.213
REMARK UNBOUND:                -1.439
REMARK SMILES CCCCCCCCCCCCCCCCCCCCCCCC(=O)[O-]
REMARK SMILES IDX 13 1 14 2 15 3 16 4 17 5 18 6 19 7 20 8 21 9 22 10 23 11
REMARK SMILES IDX 24 12 25 13 26 14 12 15 11 16 10 17 9 18 8 19 7 20 6 21 5 22
REMARK SMILES IDX 4 23 3 24 2 25 1 26
REMARK H PARENT
REMARK Flexibility Score: inf
ROOT
ATOM      1  C   UNL     1      15.990  16.746  19.464  1.00  0.00     0.000 C 
ENDROOT
BRANCH   1   2
ATOM      2  C   UNL     1      17.295  17.550  19.353  1.00  0.00     0.000 C 
BRANCH   2   3
ATOM      3  C   UNL     1      18.254  17.299  20.532  1.00  0.00     0.000 C 
BRANCH   3   4
ATOM      4  C   UNL     1      19.394  18.338  20.582  1.00  0.00     0.000 C 
BRANCH   4   5
ATOM      5  C   UNL     1      20.736  17.810  20.048  1.00  0.00     0.000 C 
BRANCH   5   6
ATOM      6  C   UNL     1      21.931  18.232  20.916  1.00  0.00     0.000 C 
BRANCH   6   7
ATOM      7  C   UNL     1      23.281  17.750  20.355  1.00  0.00     0.000 C 
BRANCH   7   8
ATOM      8  C   UNL     1      24.460  17.795  21.349  1.00  0.00     0.000 C 
BRANCH   8   9
ATOM      9  C   UNL     1      24.873  19.204  21.816  1.00  0.00     0.000 C 
BRANCH   9  10
ATOM     10  C   UNL     1      24.693  19.467  23.321  1.00  0.00     0.006 C 
BRANCH  10  11
ATOM     11  C   UNL     1      23.987  20.798  23.611  1.00  0.00     0.053 C 
BRANCH  11  12
ATOM     12  C   UNL     1      23.061  20.655  24.777  1.00  0.00     0.041 C 
ATOM     13  O   UNL     1      21.835  20.913  24.647  1.00  0.00    -0.550 OA
ATOM     14  O   UNL     1      23.542  20.192  25.995  1.00  0.00    -0.550 OA
ENDBRANCH  11  12
ENDBRANCH  10  11
ENDBRANCH   9  10
ENDBRANCH   8   9
ENDBRANCH   7   8
ENDBRANCH   6   7
ENDBRANCH   5   6
ENDBRANCH   4   5
ENDBRANCH   3   4
ENDBRANCH   2   3
ENDBRANCH   1   2
BRANCH   1  15
ATOM     15  C   UNL     1      16.169  15.434  20.249  1.00  0.00     0.000 C 
BRANCH  15  16
ATOM     16  C   UNL     1      14.831  14.754  20.580  1.00  0.00     0.000 C 
BRANCH  16  17
ATOM     17  C   UNL     1      14.963  13.227  20.723  1.00  0.00     0.000 C 
BRANCH  17  18
ATOM     18  C   UNL     1      13.999  12.464  19.800  1.00  0.00    -0.000 C 
BRANCH  18  19
ATOM     19  C   UNL     1      14.640  11.207  19.186  1.00  0.00    -0.000 C 
BRANCH  19  20
ATOM     20  C   UNL     1      15.688  10.565  20.110  1.00  0.00    -0.000 C 
BRANCH  20  21
ATOM     21  C   UNL     1      16.218   9.229  19.561  1.00  0.00    -0.000 C 
BRANCH  21  22
ATOM     22  C   UNL     1      17.664   8.943  19.994  1.00  0.00    -0.000 C 
BRANCH  22  23
ATOM     23  C   UNL     1      18.700   9.365  18.937  1.00  0.00    -0.000 C 
BRANCH  23  24
ATOM     24  C   UNL     1      20.005   9.885  19.576  1.00  0.00    -0.000 C 
BRANCH  24  25
ATOM     25  C   UNL     1      19.776  10.730  20.840  1.00  0.00    -0.003 C 
ATOM     26  C   UNL     1      20.187  12.190  20.664  1.00  0.00     0.004 C 
ENDBRANCH  24  25
ENDBRANCH  23  24
ENDBRANCH  22  23
ENDBRANCH  21  22
ENDBRANCH  20  21
ENDBRANCH  19  20
ENDBRANCH  18  19
ENDBRANCH  17  18
ENDBRANCH  16  17
ENDBRANCH  15  16
ENDBRANCH   1  15
TORSDOF 22
ENDMDL
MODEL 6
REMARK VINA RESULT:    20.025      2.883     10.029
REMARK INTER + INTRA:          44.341
REMARK INTER:                  45.625
REMARK INTRA:                  -1.284
REMARK UNBOUND:                -1.439
REMARK SMILES CCCCCCCCCCCCCCCCCCCCCCCC(=O)[O-]
REMARK SMILES IDX 13 1 14 2 15 3 16 4 17 5 18 6 19 7 20 8 21 9 22 10 23 11
REMARK SMILES IDX 24 12 25 13 26 14 12 15 11 16 10 17 9 18 8 19 7 20 6 21 5 22
REMARK SMILES IDX 4 23 3 24 2 25 1 26
REMARK H PARENT
REMARK Flexibility Score: inf
ROOT
ATOM      1  C   UNL     1      16.942  17.500  19.165  1.00  0.00     0.000 C 
ENDROOT
BRANCH   1   2
ATOM      2  C   UNL     1      17.996  17.040  20.185  1.00  0.00     0.000 C 
BRANCH   2   3
ATOM      3  C   UNL     1      19.170  18.027  20.317  1.00  0.00     0.000 C 
BRANCH   3   4
ATOM      4  C   UNL     1      20.448  17.503  19.627  1.00  0.00     0.000 C 
BRANCH   4   5
ATOM      5  C   UNL     1      21.713  18.306  19.977  1.00  0.00     0.000 C 
BRANCH   5   6
ATOM      6  C   UNL     1      22.642  17.561  20.948  1.00  0.00     0.000 C 
BRANCH   6   7
ATOM      7  C   UNL     1      24.016  18.237  21.101  1.00  0.00     0.000 C 
BRANCH   7   8
ATOM      8  C   UNL     1      24.744  17.955  22.432  1.00  0.00     0.000 C 
BRANCH   8   9
ATOM      9  C   UNL     1      25.171  19.205  23.225  1.00  0.00     0.000 C 
BRANCH   9  10
ATOM     10  C   UNL     1      24.203  19.623  24.347  1.00  0.00     0.006 C 
BRANCH  10  11
ATOM     11  C   UNL     1      23.347  20.839  23.970  1.00  0.00     0.053 C 
BRANCH  11  12
ATOM     12  C   UNL     1      21.918  20.610  24.351  1.00  0.00     0.041 C 
ATOM     13  O   UNL     1      21.354  21.374  25.179  1.00  0.00    -0.550 OA
ATOM     14  O   UNL     1      21.196  19.584  23.758  1.00  0.00    -0.550 OA
ENDBRANCH  11  12
ENDBRANCH  10  11
ENDBRANCH   9  10
ENDBRANCH   8   9
ENDBRANCH   7   8
ENDBRANCH   6   7
ENDBRANCH   5   6
ENDBRANCH   4   5
ENDBRANCH   3   4
ENDBRANCH   2   3
ENDBRANCH   1   2
BRANCH   1  15
ATOM     15  C   UNL     1      15.641  16.684  19.252  1.00  0.00     0.000 C 
BRANCH  15  16
ATOM     16  C   UNL     1      15.565  15.822  20.523  1.00  0.00     0.000 C 
BRANCH  16  17
ATOM     17  C   UNL     1      15.699  14.318  20.226  1.00  0.00     0.000 C 
BRANCH  17  18
ATOM     18  C   UNL     1      14.393  13.549  20.484  1.00  0.00    -0.000 C 
BRANCH  18  19
ATOM     19  C   UNL     1      14.431  12.116  19.922  1.00  0.00    -0.000 C 
BRANCH  19  20
ATOM     20  C   UNL     1      15.732  11.376  20.276  1.00  0.00    -0.000 C 
BRANCH  20  21
ATOM     21  C   UNL     1      15.640   9.863  20.011  1.00  0.00    -0.000 C 
BRANCH  21  22
ATOM     22  C   UNL     1      16.814   9.336  19.171  1.00  0.00    -0.000 C 
BRANCH  22  23
ATOM     23  C   UNL     1      18.077   9.069  20.010  1.00  0.00    -0.000 C 
BRANCH  23  24
ATOM     24  C   UNL     1      19.365   9.160  19.166  1.00  0.00    -0.000 C 
BRANCH  24  25
ATOM     25  C   UNL     1      20.278  10.332  19.562  1.00  0.00    -0.003 C 
ATOM     26  C   UNL     1      19.781  11.087  20.793  1.00  0.00     0.004 C 
ENDBRANCH  24  25
ENDBRANCH  23  24
ENDBRANCH  22  23
ENDBRANCH  21  22
ENDBRANCH  20  21
ENDBRANCH  19  20
ENDBRANCH  18  19
ENDBRANCH  17  18
ENDBRANCH  16  17
ENDBRANCH  15  16
ENDBRANCH   1  15
TORSDOF 22
ENDMDL
MODEL 7
REMARK VINA RESULT:    20.092      2.746      9.324
REMARK INTER + INTRA:          44.494
REMARK INTER:                  45.647
REMARK INTRA:                  -1.153
REMARK UNBOUND:                -1.439
REMARK SMILES CCCCCCCCCCCCCCCCCCCCCCCC(=O)[O-]
REMARK SMILES IDX 13 1 14 2 15 3 16 4 17 5 18 6 19 7 20 8 21 9 22 10 23 11
REMARK SMILES IDX 24 12 25 13 26 14 12 15 11 16 10 17 9 18 8 19 7 20 6 21 5 22
REMARK SMILES IDX 4 23 3 24 2 25 1 26
REMARK H PARENT
REMARK Flexibility Score: inf
ROOT
ATOM      1  C   UNL     1      16.136  15.633  19.721  1.00  0.00     0.000 C 
ENDROOT
BRANCH   1   2
ATOM      2  C   UNL     1      15.948  17.008  19.060  1.00  0.00     0.000 C 
BRANCH   2   3
ATOM      3  C   UNL     1      17.075  17.997  19.410  1.00  0.00     0.000 C 
BRANCH   3   4
ATOM      4  C   UNL     1      18.169  17.344  20.280  1.00  0.00     0.000 C 
BRANCH   4   5
ATOM      5  C   UNL     1      18.705  18.262  21.393  1.00  0.00     0.000 C 
BRANCH   5   6
ATOM      6  C   UNL     1      20.134  18.758  21.119  1.00  0.00     0.000 C 
BRANCH   6   7
ATOM      7  C   UNL     1      20.943  17.795  20.232  1.00  0.00     0.000 C 
BRANCH   7   8
ATOM      8  C   UNL     1      22.379  18.255  19.902  1.00  0.00     0.000 C 
BRANCH   8   9
ATOM      9  C   UNL     1      23.495  17.547  20.694  1.00  0.00     0.000 C 
BRANCH   9  10
ATOM     10  C   UNL     1      24.683  18.444  21.083  1.00  0.00     0.006 C 
BRANCH  10  11
ATOM     11  C   UNL     1      24.727  18.752  22.585  1.00  0.00     0.053 C 
BRANCH  11  12
ATOM     12  C   UNL     1      25.415  17.648  23.325  1.00  0.00     0.041 C 
ATOM     13  O   UNL     1      25.781  17.818  24.518  1.00  0.00    -0.550 OA
ATOM     14  O   UNL     1      25.611  16.418  22.713  1.00  0.00    -0.550 OA
ENDBRANCH  11  12
ENDBRANCH  10  11
ENDBRANCH   9  10
ENDBRANCH   8   9
ENDBRANCH   7   8
ENDBRANCH   6   7
ENDBRANCH   5   6
ENDBRANCH   4   5
ENDBRANCH   3   4
ENDBRANCH   2   3
ENDBRANCH   1   2
BRANCH   1  15
ATOM     15  C   UNL     1      14.857  15.132  20.416  1.00  0.00     0.000 C 
BRANCH  15  16
ATOM     16  C   UNL     1      14.936  13.647  20.805  1.00  0.00     0.000 C 
BRANCH  16  17
ATOM     17  C   UNL     1      13.891  12.788  20.072  1.00  0.00     0.000 C 
BRANCH  17  18
ATOM     18  C   UNL     1      14.519  11.581  19.356  1.00  0.00    -0.000 C 
BRANCH  18  19
ATOM     19  C   UNL     1      15.558  10.852  20.227  1.00  0.00    -0.000 C 
BRANCH  19  20
ATOM     20  C   UNL     1      15.590   9.337  19.968  1.00  0.00    -0.000 C 
BRANCH  20  21
ATOM     21  C   UNL     1      16.822   8.904  19.155  1.00  0.00    -0.000 C 
BRANCH  21  22
ATOM     22  C   UNL     1      18.143   9.178  19.890  1.00  0.00    -0.000 C 
BRANCH  22  23
ATOM     23  C   UNL     1      19.347   9.285  18.937  1.00  0.00    -0.000 C 
BRANCH  23  24
ATOM     24  C   UNL     1      20.516  10.074  19.562  1.00  0.00    -0.000 C 
BRANCH  24  25
ATOM     25  C   UNL     1      20.148  10.776  20.880  1.00  0.00    -0.003 C 
ATOM     26  C   UNL     1      19.942  12.280  20.718  1.00  0.00     0.004 C 
ENDBRANCH  24  25
ENDBRANCH  23  24
ENDBRANCH  22  23
ENDBRANCH  21  22
ENDBRANCH  20  21
ENDBRANCH  19  20
ENDBRANCH  18  19
ENDBRANCH  17  18
ENDBRANCH  16  17
ENDBRANCH  15  16
ENDBRANCH   1  15
TORSDOF 22
ENDMDL
