MODEL 1
REMARK VINA RESULT:    57.436      0.000      0.000
REMARK INTER + INTRA:          83.311
REMARK INTER:                  84.298
REMARK INTRA:                  -0.988
REMARK UNBOUND:                -0.988
REMARK SMILES O=c1c(O[C@@H]2O[C@H](CO)[C@@H](O)[C@@H](O)[C@@H]2O)c(-c2ccc(O)c(O)c2)oc2cc(O)cc(O)c12
REMARK SMILES IDX 4 1 3 2 16 3 25 4 2 5 26 6 1 7 33 8 27 9 31 10 28 11 30 12
REMARK SMILES IDX 17 13 18 14 19 15 20 16 24 17 22 18 21 19 23 21 32 23 29 25
REMARK SMILES IDX 5 27 14 28 6 29 12 30 7 31 10 32 15 33 13 35 8 37 9 38 11 40
REMARK H PARENT 21 20 23 22 32 24 29 26 15 34 13 36 9 39 11 41
REMARK Flexibility Score: inf
ROOT
ATOM      1  O   UNL     1       0.232   0.990   2.336  1.00  0.00    -0.454 OA
ENDROOT
BRANCH   1   2
ATOM      2  C   UNL     1       0.352  -0.317   1.814  1.00  0.00     0.214 A 
ATOM      3  C   UNL     1       1.525  -0.712   1.129  1.00  0.00     0.180 A 
ATOM      4  O   UNL     1       1.395  -1.438   0.038  1.00  0.00    -0.452 OA
ATOM      5  C   UNL     1      -0.817  -1.055   1.610  1.00  0.00     0.239 A 
ATOM      6  C   UNL     1       0.245  -1.954  -0.368  1.00  0.00     0.146 A 
ATOM      7  O   UNL     1      -1.763  -0.961   2.434  1.00  0.00    -0.285 OA
ATOM      8  C   UNL     1      -0.916  -1.838   0.433  1.00  0.00     0.111 A 
ATOM      9  C   UNL     1       0.222  -2.652  -1.576  1.00  0.00     0.094 A 
ATOM     10  C   UNL     1      -2.125  -2.399  -0.058  1.00  0.00     0.134 A 
ATOM     11  C   UNL     1      -0.942  -3.327  -1.978  1.00  0.00     0.123 A 
ATOM     12  C   UNL     1      -2.106  -3.197  -1.214  1.00  0.00     0.093 A 
BRANCH   3  13
ATOM     13  C   UNL     1       2.902  -0.231   1.405  1.00  0.00     0.025 A 
ATOM     14  C   UNL     1       3.359  -0.389   2.739  1.00  0.00     0.016 A 
ATOM     15  C   UNL     1       4.596  -0.973   2.996  1.00  0.00     0.051 A 
ATOM     16  C   UNL     1       5.394  -1.370   1.911  1.00  0.00     0.157 A 
ATOM     17  C   UNL     1       3.853  -0.301   0.373  1.00  0.00     0.062 A 
ATOM     18  C   UNL     1       5.071  -0.946   0.611  1.00  0.00     0.158 A 
BRANCH  16  19
ATOM     19  O   UNL     1       6.377  -2.334   2.066  1.00  0.00    -0.504 OA
ATOM     20  H   UNL     1       6.194  -3.315   1.908  1.00  0.00     0.293 HD
ENDBRANCH  16  19
BRANCH  18  21
ATOM     21  O   UNL     1       5.881  -1.297  -0.472  1.00  0.00    -0.504 OA
ATOM     22  H   UNL     1       6.602  -0.645  -0.782  1.00  0.00     0.293 HD
ENDBRANCH  18  21
ENDBRANCH   3  13
BRANCH  10  23
ATOM     23  O   UNL     1      -3.359  -2.147   0.535  1.00  0.00    -0.507 OA
ATOM     24  H   UNL     1      -3.387  -1.546   1.364  1.00  0.00     0.293 HD
ENDBRANCH  10  23
BRANCH  11  25
ATOM     25  O   UNL     1      -0.910  -4.125  -3.124  1.00  0.00    -0.508 OA
ATOM     26  H   UNL     1      -0.113  -4.106  -3.752  1.00  0.00     0.293 HD
ENDBRANCH  11  25
ENDBRANCH   1   2
BRANCH   1  27
ATOM     27  C   UNL     1      -0.879   1.790   1.858  1.00  0.00     0.339 C 
ATOM     28  C   UNL     1      -1.269   2.922   2.825  1.00  0.00     0.214 C 
ATOM     29  O   UNL     1      -0.599   2.321   0.570  1.00  0.00    -0.332 OA
ATOM     30  C   UNL     1      -1.972   4.099   2.050  1.00  0.00     0.180 C 
ATOM     31  C   UNL     1      -1.823   2.640  -0.091  1.00  0.00     0.179 C 
ATOM     32  C   UNL     1      -2.689   3.637   0.769  1.00  0.00     0.177 C 
BRANCH  28  33
ATOM     33  O   UNL     1      -0.152   3.338   3.566  1.00  0.00    -0.384 OA
ATOM     34  H   UNL     1       0.491   2.573   3.611  1.00  0.00     0.211 HD
ENDBRANCH  28  33
BRANCH  30  35
ATOM     35  O   UNL     1      -2.894   4.695   2.914  1.00  0.00    -0.387 OA
ATOM     36  H   UNL     1      -3.159   5.576   2.517  1.00  0.00     0.211 HD
ENDBRANCH  30  35
BRANCH  31  37
ATOM     37  C   UNL     1      -1.552   3.120  -1.546  1.00  0.00     0.191 C 
BRANCH  37  38
ATOM     38  O   UNL     1      -0.777   4.291  -1.602  1.00  0.00    -0.394 OA
ATOM     39  H   UNL     1       0.146   4.068  -1.270  1.00  0.00     0.210 HD
ENDBRANCH  37  38
ENDBRANCH  31  37
BRANCH  32  40
ATOM     40  O   UNL     1      -3.872   2.958   1.123  1.00  0.00    -0.387 OA
ATOM     41  H   UNL     1      -3.871   2.753   2.100  1.00  0.00     0.211 HD
ENDBRANCH  32  40
ENDBRANCH   1  27
TORSDOF 12
ENDMDL
MODEL 2
REMARK VINA RESULT:    58.668      1.504      6.262
REMARK INTER + INTRA:          85.118
REMARK INTER:                  82.252
REMARK INTRA:                   2.866
REMARK UNBOUND:                -0.988
REMARK SMILES O=c1c(O[C@@H]2O[C@H](CO)[C@@H](O)[C@@H](O)[C@@H]2O)c(-c2ccc(O)c(O)c2)oc2cc(O)cc(O)c12
REMARK SMILES IDX 4 1 3 2 16 3 25 4 2 5 26 6 1 7 33 8 27 9 31 10 28 11 30 12
REMARK SMILES IDX 17 13 18 14 19 15 20 16 24 17 22 18 21 19 23 21 32 23 29 25
REMARK SMILES IDX 5 27 14 28 6 29 12 30 7 31 10 32 15 33 13 35 8 37 9 38 11 40
REMARK H PARENT 21 20 23 22 32 24 29 26 15 34 13 36 9 39 11 41
REMARK Flexibility Score: inf
ROOT
ATOM      1  O   UNL     1       1.400  -0.810   3.053  1.00  0.00    -0.454 OA
ENDROOT
BRANCH   1   2
ATOM      2  C   UNL     1       0.211  -0.375   2.427  1.00  0.00     0.214 A 
ATOM      3  C   UNL     1      -0.096  -0.781   1.106  1.00  0.00     0.180 A 
ATOM      4  O   UNL     1      -0.597   0.113   0.280  1.00  0.00    -0.452 OA
ATOM      5  C   UNL     1      -0.427   0.758   2.939  1.00  0.00     0.239 A 
ATOM      6  C   UNL     1      -0.980   1.325   0.653  1.00  0.00     0.146 A 
ATOM      7  O   UNL     1      -0.452   0.948   4.182  1.00  0.00    -0.285 OA
ATOM      8  C   UNL     1      -0.970   1.692   2.020  1.00  0.00     0.111 A 
ATOM      9  C   UNL     1      -1.436   2.207  -0.327  1.00  0.00     0.094 A 
ATOM     10  C   UNL     1      -1.379   3.008   2.362  1.00  0.00     0.134 A 
ATOM     11  C   UNL     1      -1.975   3.451   0.039  1.00  0.00     0.123 A 
ATOM     12  C   UNL     1      -1.944   3.840   1.382  1.00  0.00     0.093 A 
BRANCH   3  13
ATOM     13  C   UNL     1       0.269  -2.079   0.485  1.00  0.00     0.025 A 
ATOM     14  C   UNL     1      -0.586  -3.171   0.782  1.00  0.00     0.016 A 
ATOM     15  C   UNL     1      -1.087  -3.973  -0.240  1.00  0.00     0.051 A 
ATOM     16  C   UNL     1      -0.703  -3.700  -1.562  1.00  0.00     0.157 A 
ATOM     17  C   UNL     1       0.903  -2.063  -0.770  1.00  0.00     0.062 A 
ATOM     18  C   UNL     1       0.361  -2.817  -1.816  1.00  0.00     0.158 A 
BRANCH  16  19
ATOM     19  O   UNL     1      -1.478  -4.124  -2.631  1.00  0.00    -0.504 OA
ATOM     20  H   UNL     1      -1.094  -4.236  -3.559  1.00  0.00     0.293 HD
ENDBRANCH  16  19
BRANCH  18  21
ATOM     21  O   UNL     1       0.783  -2.571  -3.125  1.00  0.00    -0.504 OA
ATOM     22  H   UNL     1       0.324  -3.062  -3.893  1.00  0.00     0.293 HD
ENDBRANCH  18  21
ENDBRANCH   3  13
BRANCH  10  23
ATOM     23  O   UNL     1      -1.192   3.540   3.635  1.00  0.00    -0.507 OA
ATOM     24  H   UNL     1      -1.999   3.953   4.113  1.00  0.00     0.293 HD
ENDBRANCH  10  23
BRANCH  11  25
ATOM     25  O   UNL     1      -2.543   4.267  -0.942  1.00  0.00    -0.508 OA
ATOM     26  H   UNL     1      -3.366   4.826  -0.745  1.00  0.00     0.293 HD
ENDBRANCH  11  25
ENDBRANCH   1   2
BRANCH   1  27
ATOM     27  C   UNL     1       2.626  -0.699   2.286  1.00  0.00     0.339 C 
ATOM     28  C   UNL     1       3.739  -1.637   2.785  1.00  0.00     0.214 C 
ATOM     29  O   UNL     1       2.377  -0.925   0.905  1.00  0.00    -0.332 OA
ATOM     30  C   UNL     1       4.750  -1.969   1.625  1.00  0.00     0.180 C 
ATOM     31  C   UNL     1       3.412  -0.324   0.129  1.00  0.00     0.179 C 
ATOM     32  C   UNL     1       4.829  -0.864   0.556  1.00  0.00     0.177 C 
BRANCH  28  33
ATOM     33  O   UNL     1       3.183  -2.782   3.379  1.00  0.00    -0.384 OA
ATOM     34  H   UNL     1       3.928  -3.309   3.789  1.00  0.00     0.211 HD
ENDBRANCH  28  33
BRANCH  30  35
ATOM     35  O   UNL     1       6.011  -2.163   2.193  1.00  0.00    -0.387 OA
ATOM     36  H   UNL     1       5.909  -2.811   2.951  1.00  0.00     0.211 HD
ENDBRANCH  30  35
BRANCH  31  37
ATOM     37  C   UNL     1       3.108  -0.460  -1.391  1.00  0.00     0.191 C 
BRANCH  37  38
ATOM     38  O   UNL     1       4.231  -0.209  -2.199  1.00  0.00    -0.394 OA
ATOM     39  H   UNL     1       4.524   0.739  -2.037  1.00  0.00     0.210 HD
ENDBRANCH  37  38
ENDBRANCH  31  37
BRANCH  32  40
ATOM     40  O   UNL     1       5.548   0.230   1.079  1.00  0.00    -0.387 OA
ATOM     41  H   UNL     1       6.124   0.633   0.370  1.00  0.00     0.211 HD
ENDBRANCH  32  40
ENDBRANCH   1  27
TORSDOF 12
ENDMDL
