MODEL 1
REMARK VINA RESULT:    -5.073      0.000      0.000
REMARK INTER + INTRA:          -5.836
REMARK INTER:                  -5.666
REMARK INTRA:                  -0.170
REMARK UNBOUND:                -0.170
REMARK SMILES C=CCc1ccc2c(c1)OCO2
REMARK SMILES IDX 3 1 2 2 1 3 4 4 9 5 5 6 8 7 6 8 7 9 10 10 12 11 11 12
REMARK H PARENT
REMARK Flexibility Score: inf
ROOT
ATOM      1  C   UNL     1      23.548  29.214  14.623  1.00  0.00     0.062 C 
ENDROOT
BRANCH   1   2
ATOM      2  C   UNL     1      23.372  30.232  13.533  1.00  0.00    -0.030 C 
ATOM      3  C   UNL     1      24.077  30.177  12.398  1.00  0.00     0.004 C 
ENDBRANCH   1   2
BRANCH   1   4
ATOM      4  C   UNL     1      22.877  29.670  15.891  1.00  0.00    -0.040 A 
ATOM      5  C   UNL     1      23.296  29.161  17.141  1.00  0.00     0.054 A 
ATOM      6  C   UNL     1      21.790  30.581  15.832  1.00  0.00     0.008 A 
ATOM      7  C   UNL     1      22.623  29.592  18.281  1.00  0.00     0.166 A 
ATOM      8  C   UNL     1      21.138  30.990  17.009  1.00  0.00     0.051 A 
ATOM      9  C   UNL     1      21.589  30.470  18.218  1.00  0.00     0.165 A 
ATOM     10  O   UNL     1      22.849  29.243  19.597  1.00  0.00    -0.454 OA
ATOM     11  O   UNL     1      21.115  30.715  19.491  1.00  0.00    -0.454 OA
ATOM     12  C   UNL     1      21.900  29.944  20.412  1.00  0.00     0.468 C 
ENDBRANCH   1   4
TORSDOF 2
ENDMDL
MODEL 2
REMARK VINA RESULT:    -4.842      2.071      4.789
REMARK INTER + INTRA:          -5.578
REMARK INTER:                  -5.403
REMARK INTRA:                  -0.175
REMARK UNBOUND:                -0.170
REMARK SMILES C=CCc1ccc2c(c1)OCO2
REMARK SMILES IDX 3 1 2 2 1 3 4 4 9 5 5 6 8 7 6 8 7 9 10 10 12 11 11 12
REMARK H PARENT
REMARK Flexibility Score: inf
ROOT
ATOM      1  C   UNL     1      21.164  30.208  19.828  1.00  0.00     0.062 C 
ENDROOT
BRANCH   1   2
ATOM      2  C   UNL     1      22.298  29.834  20.739  1.00  0.00    -0.030 C 
ATOM      3  C   UNL     1      23.008  30.759  21.393  1.00  0.00     0.004 C 
ENDBRANCH   1   2
BRANCH   1   4
ATOM      4  C   UNL     1      21.598  30.160  18.388  1.00  0.00    -0.040 A 
ATOM      5  C   UNL     1      22.672  29.329  17.995  1.00  0.00     0.054 A 
ATOM      6  C   UNL     1      20.959  30.983  17.425  1.00  0.00     0.008 A 
ATOM      7  C   UNL     1      23.053  29.344  16.656  1.00  0.00     0.166 A 
ATOM      8  C   UNL     1      21.377  30.967  16.082  1.00  0.00     0.051 A 
ATOM      9  C   UNL     1      22.432  30.128  15.739  1.00  0.00     0.165 A 
ATOM     10  O   UNL     1      24.059  28.625  16.040  1.00  0.00    -0.454 OA
ATOM     11  O   UNL     1      23.016  29.942  14.502  1.00  0.00    -0.454 OA
ATOM     12  C   UNL     1      24.070  28.980  14.651  1.00  0.00     0.468 C 
ENDBRANCH   1   4
TORSDOF 2
ENDMDL
MODEL 3
REMARK VINA RESULT:    -4.790      1.172      1.897
REMARK INTER + INTRA:          -5.520
REMARK INTER:                  -5.365
REMARK INTRA:                  -0.156
REMARK UNBOUND:                -0.170
REMARK SMILES C=CCc1ccc2c(c1)OCO2
REMARK SMILES IDX 3 1 2 2 1 3 4 4 9 5 5 6 8 7 6 8 7 9 10 10 12 11 11 12
REMARK H PARENT
REMARK Flexibility Score: inf
ROOT
ATOM      1  C   UNL     1      21.923  30.291  15.725  1.00  0.00     0.062 C 
ENDROOT
BRANCH   1   2
ATOM      2  C   UNL     1      23.119  29.636  15.097  1.00  0.00    -0.030 C 
ATOM      3  C   UNL     1      23.408  29.794  13.801  1.00  0.00     0.004 C 
ENDBRANCH   1   2
BRANCH   1   4
ATOM      4  C   UNL     1      21.955  30.137  17.222  1.00  0.00    -0.040 A 
ATOM      5  C   UNL     1      23.109  29.631  17.861  1.00  0.00     0.054 A 
ATOM      6  C   UNL     1      20.808  30.457  17.995  1.00  0.00     0.008 A 
ATOM      7  C   UNL     1      23.077  29.481  19.245  1.00  0.00     0.166 A 
ATOM      8  C   UNL     1      20.819  30.290  19.391  1.00  0.00     0.051 A 
ATOM      9  C   UNL     1      21.980  29.797  19.978  1.00  0.00     0.165 A 
ATOM     10  O   UNL     1      24.072  29.015  20.083  1.00  0.00    -0.454 OA
ATOM     11  O   UNL     1      22.230  29.546  21.313  1.00  0.00    -0.454 OA
ATOM     12  C   UNL     1      23.568  29.041  21.426  1.00  0.00     0.468 C 
ENDBRANCH   1   4
TORSDOF 2
ENDMDL
MODEL 4
REMARK VINA RESULT:    -4.641      2.048      5.127
REMARK INTER + INTRA:          -5.354
REMARK INTER:                  -5.195
REMARK INTRA:                  -0.159
REMARK UNBOUND:                -0.170
REMARK SMILES C=CCc1ccc2c(c1)OCO2
REMARK SMILES IDX 3 1 2 2 1 3 4 4 9 5 5 6 8 7 6 8 7 9 10 10 12 11 11 12
REMARK H PARENT
REMARK Flexibility Score: inf
ROOT
ATOM      1  C   UNL     1      22.574  30.013  21.355  1.00  0.00     0.062 C 
ENDROOT
BRANCH   1   2
ATOM      2  C   UNL     1      23.592  31.056  21.719  1.00  0.00    -0.030 C 
ATOM      3  C   UNL     1      23.448  31.833  22.798  1.00  0.00     0.004 C 
ENDBRANCH   1   2
BRANCH   1   4
ATOM      4  C   UNL     1      22.309  30.023  19.873  1.00  0.00    -0.040 A 
ATOM      5  C   UNL     1      23.344  29.715  18.962  1.00  0.00     0.054 A 
ATOM      6  C   UNL     1      21.027  30.385  19.383  1.00  0.00     0.008 A 
ATOM      7  C   UNL     1      23.053  29.767  17.601  1.00  0.00     0.166 A 
ATOM      8  C   UNL     1      20.776  30.425  18.000  1.00  0.00     0.051 A 
ATOM      9  C   UNL     1      21.822  30.106  17.140  1.00  0.00     0.165 A 
ATOM     10  O   UNL     1      23.889  29.507  16.533  1.00  0.00    -0.454 OA
ATOM     11  O   UNL     1      21.823  30.077  15.760  1.00  0.00    -0.454 OA
ATOM     12  C   UNL     1      23.137  29.695  15.326  1.00  0.00     0.468 C 
ENDBRANCH   1   4
TORSDOF 2
ENDMDL
MODEL 5
REMARK VINA RESULT:    -4.213      6.484     10.165
REMARK INTER + INTRA:          -4.876
REMARK INTER:                  -4.718
REMARK INTRA:                  -0.158
REMARK UNBOUND:                -0.170
REMARK SMILES C=CCc1ccc2c(c1)OCO2
REMARK SMILES IDX 3 1 2 2 1 3 4 4 9 5 5 6 8 7 6 8 7 9 10 10 12 11 11 12
REMARK H PARENT
REMARK Flexibility Score: inf
ROOT
ATOM      1  C   UNL     1      19.966  30.277  28.121  1.00  0.00     0.062 C 
ENDROOT
BRANCH   1   2
ATOM      2  C   UNL     1      20.067  31.766  28.283  1.00  0.00    -0.030 C 
ATOM      3  C   UNL     1      19.186  32.456  29.014  1.00  0.00     0.004 C 
ENDBRANCH   1   2
BRANCH   1   4
ATOM      4  C   UNL     1      20.337  29.867  26.721  1.00  0.00    -0.040 A 
ATOM      5  C   UNL     1      21.516  30.364  26.122  1.00  0.00     0.054 A 
ATOM      6  C   UNL     1      19.481  29.011  25.980  1.00  0.00     0.008 A 
ATOM      7  C   UNL     1      21.799  29.977  24.815  1.00  0.00     0.166 A 
ATOM      8  C   UNL     1      19.805  28.645  24.661  1.00  0.00     0.051 A 
ATOM      9  C   UNL     1      20.979  29.152  24.115  1.00  0.00     0.165 A 
ATOM     10  O   UNL     1      22.880  30.326  24.029  1.00  0.00    -0.454 OA
ATOM     11  O   UNL     1      21.504  28.942  22.855  1.00  0.00    -0.454 OA
ATOM     12  C   UNL     1      22.730  29.680  22.757  1.00  0.00     0.468 C 
ENDBRANCH   1   4
TORSDOF 2
ENDMDL
MODEL 6
REMARK VINA RESULT:    -4.173      9.136     11.489
REMARK INTER + INTRA:          -4.831
REMARK INTER:                  -4.652
REMARK INTRA:                  -0.179
REMARK UNBOUND:                -0.170
REMARK SMILES C=CCc1ccc2c(c1)OCO2
REMARK SMILES IDX 3 1 2 2 1 3 4 4 9 5 5 6 8 7 6 8 7 9 10 10 12 11 11 12
REMARK H PARENT
REMARK Flexibility Score: inf
ROOT
ATOM      1  C   UNL     1      20.370  30.409  29.293  1.00  0.00     0.062 C 
ENDROOT
BRANCH   1   2
ATOM      2  C   UNL     1      19.032  31.087  29.222  1.00  0.00    -0.030 C 
ATOM      3  C   UNL     1      18.201  31.115  30.269  1.00  0.00     0.004 C 
ENDBRANCH   1   2
BRANCH   1   4
ATOM      4  C   UNL     1      20.656  29.660  28.020  1.00  0.00    -0.040 A 
ATOM      5  C   UNL     1      21.538  28.556  28.026  1.00  0.00     0.054 A 
ATOM      6  C   UNL     1      20.074  30.087  26.798  1.00  0.00     0.008 A 
ATOM      7  C   UNL     1      21.792  27.916  26.815  1.00  0.00     0.166 A 
ATOM      8  C   UNL     1      20.358  29.412  25.598  1.00  0.00     0.051 A 
ATOM      9  C   UNL     1      21.225  28.325  25.652  1.00  0.00     0.165 A 
ATOM     10  O   UNL     1      22.605  26.827  26.572  1.00  0.00    -0.454 OA
ATOM     11  O   UNL     1      21.654  27.514  24.620  1.00  0.00    -0.454 OA
ATOM     12  C   UNL     1      22.546  26.533  25.170  1.00  0.00     0.468 C 
ENDBRANCH   1   4
TORSDOF 2
ENDMDL
MODEL 7
REMARK VINA RESULT:    -4.168      1.432      2.516
REMARK INTER + INTRA:          -4.825
REMARK INTER:                  -4.677
REMARK INTRA:                  -0.148
REMARK UNBOUND:                -0.170
REMARK SMILES C=CCc1ccc2c(c1)OCO2
REMARK SMILES IDX 3 1 2 2 1 3 4 4 9 5 5 6 8 7 6 8 7 9 10 10 12 11 11 12
REMARK H PARENT
REMARK Flexibility Score: inf
ROOT
ATOM      1  C   UNL     1      22.204  28.910  15.711  1.00  0.00     0.062 C 
ENDROOT
BRANCH   1   2
ATOM      2  C   UNL     1      23.109  29.898  15.033  1.00  0.00    -0.030 C 
ATOM      3  C   UNL     1      23.406  29.802  13.733  1.00  0.00     0.004 C 
ENDBRANCH   1   2
BRANCH   1   4
ATOM      4  C   UNL     1      22.533  28.804  17.176  1.00  0.00    -0.040 A 
ATOM      5  C   UNL     1      22.246  29.876  18.050  1.00  0.00     0.054 A 
ATOM      6  C   UNL     1      23.174  27.641  17.678  1.00  0.00     0.008 A 
ATOM      7  C   UNL     1      22.598  29.739  19.390  1.00  0.00     0.166 A 
ATOM      8  C   UNL     1      23.511  27.544  19.040  1.00  0.00     0.051 A 
ATOM      9  C   UNL     1      23.203  28.620  19.865  1.00  0.00     0.165 A 
ATOM     10  O   UNL     1      22.418  30.638  20.423  1.00  0.00    -0.454 OA
ATOM     11  O   UNL     1      23.434  28.761  21.219  1.00  0.00    -0.454 OA
ATOM     12  C   UNL     1      22.943  30.048  21.620  1.00  0.00     0.468 C 
ENDBRANCH   1   4
TORSDOF 2
ENDMDL
MODEL 8
REMARK VINA RESULT:    -4.164      8.252     11.832
REMARK INTER + INTRA:          -4.821
REMARK INTER:                  -4.640
REMARK INTRA:                  -0.182
REMARK UNBOUND:                -0.170
REMARK SMILES C=CCc1ccc2c(c1)OCO2
REMARK SMILES IDX 3 1 2 2 1 3 4 4 9 5 5 6 8 7 6 8 7 9 10 10 12 11 11 12
REMARK H PARENT
REMARK Flexibility Score: inf
ROOT
ATOM      1  C   UNL     1      20.385  30.824  29.734  1.00  0.00     0.062 C 
ENDROOT
BRANCH   1   2
ATOM      2  C   UNL     1      19.046  31.501  29.657  1.00  0.00    -0.030 C 
ATOM      3  C   UNL     1      18.017  31.113  30.418  1.00  0.00     0.004 C 
ENDBRANCH   1   2
BRANCH   1   4
ATOM      4  C   UNL     1      20.633  29.991  28.506  1.00  0.00    -0.040 A 
ATOM      5  C   UNL     1      19.984  30.304  27.290  1.00  0.00     0.054 A 
ATOM      6  C   UNL     1      21.487  28.860  28.574  1.00  0.00     0.008 A 
ATOM      7  C   UNL     1      20.225  29.484  26.191  1.00  0.00     0.166 A 
ATOM      8  C   UNL     1      21.703  28.059  27.439  1.00  0.00     0.051 A 
ATOM      9  C   UNL     1      21.050  28.409  26.262  1.00  0.00     0.165 A 
ATOM     10  O   UNL     1      19.715  29.589  24.912  1.00  0.00    -0.454 OA
ATOM     11  O   UNL     1      21.099  27.784  25.032  1.00  0.00    -0.454 OA
ATOM     12  C   UNL     1      20.253  28.513  24.131  1.00  0.00     0.468 C 
ENDBRANCH   1   4
TORSDOF 2
ENDMDL
MODEL 9
REMARK VINA RESULT:    -3.920      2.479      5.073
REMARK INTER + INTRA:          -4.549
REMARK INTER:                  -4.359
REMARK INTRA:                  -0.189
REMARK UNBOUND:                -0.170
REMARK SMILES C=CCc1ccc2c(c1)OCO2
REMARK SMILES IDX 3 1 2 2 1 3 4 4 9 5 5 6 8 7 6 8 7 9 10 10 12 11 11 12
REMARK H PARENT
REMARK Flexibility Score: inf
ROOT
ATOM      1  C   UNL     1      20.729  30.375  18.483  1.00  0.00     0.062 C 
ENDROOT
BRANCH   1   2
ATOM      2  C   UNL     1      21.250  30.005  19.842  1.00  0.00    -0.030 C 
ATOM      3  C   UNL     1      22.404  30.492  20.309  1.00  0.00     0.004 C 
ENDBRANCH   1   2
BRANCH   1   4
ATOM      4  C   UNL     1      21.622  29.828  17.402  1.00  0.00    -0.040 A 
ATOM      5  C   UNL     1      22.038  30.655  16.335  1.00  0.00     0.054 A 
ATOM      6  C   UNL     1      22.015  28.464  17.427  1.00  0.00     0.008 A 
ATOM      7  C   UNL     1      22.840  30.092  15.346  1.00  0.00     0.166 A 
ATOM      8  C   UNL     1      22.826  27.936  16.407  1.00  0.00     0.051 A 
ATOM      9  C   UNL     1      23.218  28.789  15.381  1.00  0.00     0.165 A 
ATOM     10  O   UNL     1      23.368  30.694  14.220  1.00  0.00    -0.454 OA
ATOM     11  O   UNL     1      24.002  28.507  14.280  1.00  0.00    -0.454 OA
ATOM     12  C   UNL     1      24.125  29.708  13.504  1.00  0.00     0.468 C 
ENDBRANCH   1   4
TORSDOF 2
ENDMDL
