MODEL 1
REMARK VINA RESULT:    -4.556      0.000      0.000
REMARK INTER + INTRA:          -5.570
REMARK INTER:                  -5.488
REMARK INTRA:                  -0.082
REMARK UNBOUND:                -0.082
REMARK SMILES CC[C@H](C)[C@@H]([NH3+])C(=O)[O-]
REMARK SMILES IDX 3 1 4 2 5 3 6 4 7 8 8 9 9 10 2 11 1 12
REMARK H PARENT 6 5 6 6 6 7
REMARK Flexibility Score: inf
ROOT
ATOM      1  C   UNL     1      13.160  -4.444  22.634  1.00  0.00     0.050 C 
ATOM      2  C   UNL     1      14.687  -4.538  22.821  1.00  0.00     0.014 C 
ENDROOT
BRANCH   1   3
ATOM      3  C   UNL     1      12.786  -3.415  21.517  1.00  0.00     0.230 C 
BRANCH   3   4
ATOM      4  N   UNL     1      13.897  -3.186  20.580  1.00  0.00    -0.350 N 
ATOM      5  H   UNL     1      14.812  -3.233  21.086  1.00  0.00     0.345 HD
ATOM      6  H   UNL     1      13.810  -2.248  20.125  1.00  0.00     0.345 HD
ATOM      7  H   UNL     1      13.915  -3.933  19.850  1.00  0.00     0.345 HD
ENDBRANCH   3   4
BRANCH   3   8
ATOM      8  C   UNL     1      11.578  -3.881  20.742  1.00  0.00     0.099 C 
ATOM      9  O   UNL     1      11.320  -5.111  20.649  1.00  0.00    -0.544 OA
ATOM     10  O   UNL     1      10.737  -2.957  20.134  1.00  0.00    -0.544 OA
ENDBRANCH   3   8
ENDBRANCH   1   3
BRANCH   1  11
ATOM     11  C   UNL     1      12.477  -4.067  23.977  1.00  0.00     0.006 C 
ATOM     12  C   UNL     1      13.325  -3.131  24.843  1.00  0.00     0.004 C 
ENDBRANCH   1  11
TORSDOF 4
ENDMDL
MODEL 2
REMARK VINA RESULT:    -4.436     18.791     19.731
REMARK INTER + INTRA:          -5.426
REMARK INTER:                  -5.343
REMARK INTRA:                  -0.083
REMARK UNBOUND:                -0.082
REMARK SMILES CC[C@H](C)[C@@H]([NH3+])C(=O)[O-]
REMARK SMILES IDX 3 1 4 2 5 3 6 4 7 8 8 9 9 10 2 11 1 12
REMARK H PARENT 6 5 6 6 6 7
REMARK Flexibility Score: inf
ROOT
ATOM      1  C   UNL     1      19.063  12.910  12.778  1.00  0.00     0.050 C 
ATOM      2  C   UNL     1      20.392  12.547  13.470  1.00  0.00     0.014 C 
ENDROOT
BRANCH   1   3
ATOM      3  C   UNL     1      17.873  12.081  13.363  1.00  0.00     0.230 C 
BRANCH   3   4
ATOM      4  N   UNL     1      18.125  11.650  14.747  1.00  0.00    -0.350 N 
ATOM      5  H   UNL     1      18.970  11.034  14.786  1.00  0.00     0.345 HD
ATOM      6  H   UNL     1      17.305  11.123  15.126  1.00  0.00     0.345 HD
ATOM      7  H   UNL     1      18.325  12.477  15.354  1.00  0.00     0.345 HD
ENDBRANCH   3   4
BRANCH   3   8
ATOM      8  C   UNL     1      16.592  12.878  13.323  1.00  0.00     0.099 C 
ATOM      9  O   UNL     1      16.616  14.125  13.505  1.00  0.00    -0.544 OA
ATOM     10  O   UNL     1      15.380  12.245  13.075  1.00  0.00    -0.544 OA
ENDBRANCH   3   8
ENDBRANCH   1   3
BRANCH   1  11
ATOM     11  C   UNL     1      19.179  12.694  11.245  1.00  0.00     0.006 C 
ATOM     12  C   UNL     1      20.038  11.484  10.870  1.00  0.00     0.004 C 
ENDBRANCH   1  11
TORSDOF 4
ENDMDL
MODEL 3
REMARK VINA RESULT:    -4.364      1.862      2.720
REMARK INTER + INTRA:          -5.338
REMARK INTER:                  -5.201
REMARK INTRA:                  -0.137
REMARK UNBOUND:                -0.082
REMARK SMILES CC[C@H](C)[C@@H]([NH3+])C(=O)[O-]
REMARK SMILES IDX 3 1 4 2 5 3 6 4 7 8 8 9 9 10 2 11 1 12
REMARK H PARENT 6 5 6 6 6 7
REMARK Flexibility Score: inf
ROOT
ATOM      1  C   UNL     1      14.264  -3.790  23.489  1.00  0.00     0.050 C 
ATOM      2  C   UNL     1      13.685  -3.235  24.805  1.00  0.00     0.014 C 
ENDROOT
BRANCH   1   3
ATOM      3  C   UNL     1      13.205  -4.646  22.719  1.00  0.00     0.230 C 
BRANCH   3   4
ATOM      4  N   UNL     1      12.082  -5.046  23.581  1.00  0.00    -0.350 N 
ATOM      5  H   UNL     1      11.713  -4.216  24.100  1.00  0.00     0.345 HD
ATOM      6  H   UNL     1      12.386  -5.770  24.272  1.00  0.00     0.345 HD
ATOM      7  H   UNL     1      11.295  -5.417  23.002  1.00  0.00     0.345 HD
ENDBRANCH   3   4
BRANCH   3   8
ATOM      8  C   UNL     1      12.666  -3.889  21.530  1.00  0.00     0.099 C 
ATOM      9  O   UNL     1      13.433  -3.168  20.836  1.00  0.00    -0.544 OA
ATOM     10  O   UNL     1      11.323  -3.989  21.185  1.00  0.00    -0.544 OA
ENDBRANCH   3   8
ENDBRANCH   1   3
BRANCH   1  11
ATOM     11  C   UNL     1      15.541  -4.626  23.774  1.00  0.00     0.006 C 
ATOM     12  C   UNL     1      15.565  -5.964  23.030  1.00  0.00     0.004 C 
ENDBRANCH   1  11
TORSDOF 4
ENDMDL
MODEL 4
REMARK VINA RESULT:    -4.312     19.606     20.228
REMARK INTER + INTRA:          -5.276
REMARK INTER:                  -5.133
REMARK INTRA:                  -0.143
REMARK UNBOUND:                -0.082
REMARK SMILES CC[C@H](C)[C@@H]([NH3+])C(=O)[O-]
REMARK SMILES IDX 3 1 4 2 5 3 6 4 7 8 8 9 9 10 2 11 1 12
REMARK H PARENT 6 5 6 6 6 7
REMARK Flexibility Score: inf
ROOT
ATOM      1  C   UNL     1      20.197  11.865  12.364  1.00  0.00     0.050 C 
ATOM      2  C   UNL     1      20.245  11.395  10.897  1.00  0.00     0.014 C 
ENDROOT
BRANCH   1   3
ATOM      3  C   UNL     1      19.259  13.105  12.533  1.00  0.00     0.230 C 
BRANCH   3   4
ATOM      4  N   UNL     1      19.008  13.789  11.254  1.00  0.00    -0.350 N 
ATOM      5  H   UNL     1      17.989  13.999  11.152  1.00  0.00     0.345 HD
ATOM      6  H   UNL     1      19.314  13.193  10.450  1.00  0.00     0.345 HD
ATOM      7  H   UNL     1      19.512  14.704  11.228  1.00  0.00     0.345 HD
ENDBRANCH   3   4
BRANCH   3   8
ATOM      8  C   UNL     1      17.939  12.700  13.141  1.00  0.00     0.099 C 
ATOM      9  O   UNL     1      17.907  11.887  14.103  1.00  0.00    -0.544 OA
ATOM     10  O   UNL     1      16.750  13.227  12.650  1.00  0.00    -0.544 OA
ENDBRANCH   3   8
ENDBRANCH   1   3
BRANCH   1  11
ATOM     11  C   UNL     1      21.630  12.189  12.871  1.00  0.00     0.006 C 
ATOM     12  C   UNL     1      21.676  13.391  13.819  1.00  0.00     0.004 C 
ENDBRANCH   1  11
TORSDOF 4
ENDMDL
MODEL 5
REMARK VINA RESULT:    -4.104      1.622      2.197
REMARK INTER + INTRA:          -5.026
REMARK INTER:                  -4.965
REMARK INTRA:                  -0.061
REMARK UNBOUND:                -0.082
REMARK SMILES CC[C@H](C)[C@@H]([NH3+])C(=O)[O-]
REMARK SMILES IDX 3 1 4 2 5 3 6 4 7 8 8 9 9 10 2 11 1 12
REMARK H PARENT 6 5 6 6 6 7
REMARK Flexibility Score: inf
ROOT
ATOM      1  C   UNL     1      13.185  -3.746  22.445  1.00  0.00     0.050 C 
ATOM      2  C   UNL     1      12.250  -3.917  23.659  1.00  0.00     0.014 C 
ENDROOT
BRANCH   1   3
ATOM      3  C   UNL     1      12.600  -4.446  21.175  1.00  0.00     0.230 C 
BRANCH   3   4
ATOM      4  N   UNL     1      11.410  -5.254  21.485  1.00  0.00    -0.350 N 
ATOM      5  H   UNL     1      10.547  -4.772  21.141  1.00  0.00     0.345 HD
ATOM      6  H   UNL     1      11.324  -5.406  22.517  1.00  0.00     0.345 HD
ATOM      7  H   UNL     1      11.459  -6.175  20.994  1.00  0.00     0.345 HD
ENDBRANCH   3   4
BRANCH   3   8
ATOM      8  C   UNL     1      12.241  -3.428  20.119  1.00  0.00     0.099 C 
ATOM      9  O   UNL     1      11.116  -2.862  20.142  1.00  0.00    -0.544 OA
ATOM     10  O   UNL     1      13.152  -3.102  19.122  1.00  0.00    -0.544 OA
ENDBRANCH   3   8
ENDBRANCH   1   3
BRANCH   1  11
ATOM     11  C   UNL     1      14.598  -4.301  22.773  1.00  0.00     0.006 C 
ATOM     12  C   UNL     1      15.065  -3.960  24.192  1.00  0.00     0.004 C 
ENDBRANCH   1  11
TORSDOF 4
ENDMDL
MODEL 6
REMARK VINA RESULT:    -3.850     19.689     20.470
REMARK INTER + INTRA:          -4.719
REMARK INTER:                  -4.647
REMARK INTRA:                  -0.072
REMARK UNBOUND:                -0.082
REMARK SMILES CC[C@H](C)[C@@H]([NH3+])C(=O)[O-]
REMARK SMILES IDX 3 1 4 2 5 3 6 4 7 8 8 9 9 10 2 11 1 12
REMARK H PARENT 6 5 6 6 6 7
REMARK Flexibility Score: inf
ROOT
ATOM      1  C   UNL     1      19.182  12.907  12.894  1.00  0.00     0.050 C 
ATOM      2  C   UNL     1      18.920  13.705  11.602  1.00  0.00     0.014 C 
ENDROOT
BRANCH   1   3
ATOM      3  C   UNL     1      20.317  11.850  12.689  1.00  0.00     0.230 C 
BRANCH   3   4
ATOM      4  N   UNL     1      20.415  11.406  11.290  1.00  0.00    -0.350 N 
ATOM      5  H   UNL     1      19.859  10.530  11.150  1.00  0.00     0.345 HD
ATOM      6  H   UNL     1      21.411  11.220  11.029  1.00  0.00     0.345 HD
ATOM      7  H   UNL     1      20.010  12.127  10.651  1.00  0.00     0.345 HD
ENDBRANCH   3   4
BRANCH   3   8
ATOM      8  C   UNL     1      21.652  12.406  13.122  1.00  0.00     0.099 C 
ATOM      9  O   UNL     1      22.720  11.850  12.752  1.00  0.00    -0.544 OA
ATOM     10  O   UNL     1      21.712  13.541  13.922  1.00  0.00    -0.544 OA
ENDBRANCH   3   8
ENDBRANCH   1   3
BRANCH   1  11
ATOM     11  C   UNL     1      17.875  12.219  13.375  1.00  0.00     0.006 C 
ATOM     12  C   UNL     1      16.625  13.072  13.145  1.00  0.00     0.004 C 
ENDBRANCH   1  11
TORSDOF 4
ENDMDL
MODEL 7
REMARK VINA RESULT:    -3.771      3.114      4.245
REMARK INTER + INTRA:          -4.624
REMARK INTER:                  -4.552
REMARK INTRA:                  -0.072
REMARK UNBOUND:                -0.082
REMARK SMILES CC[C@H](C)[C@@H]([NH3+])C(=O)[O-]
REMARK SMILES IDX 3 1 4 2 5 3 6 4 7 8 8 9 9 10 2 11 1 12
REMARK H PARENT 6 5 6 6 6 7
REMARK Flexibility Score: inf
ROOT
ATOM      1  C   UNL     1      13.303  -4.437  22.369  1.00  0.00     0.050 C 
ATOM      2  C   UNL     1      12.148  -5.021  23.206  1.00  0.00     0.014 C 
ENDROOT
BRANCH   1   3
ATOM      3  C   UNL     1      14.350  -3.709  23.275  1.00  0.00     0.230 C 
BRANCH   3   4
ATOM      4  N   UNL     1      13.750  -3.204  24.519  1.00  0.00    -0.350 N 
ATOM      5  H   UNL     1      13.146  -3.939  24.954  1.00  0.00     0.345 HD
ATOM      6  H   UNL     1      13.167  -2.355  24.331  1.00  0.00     0.345 HD
ATOM      7  H   UNL     1      14.496  -2.974  25.214  1.00  0.00     0.345 HD
ENDBRANCH   3   4
BRANCH   3   8
ATOM      8  C   UNL     1      15.493  -4.632  23.620  1.00  0.00     0.099 C 
ATOM      9  O   UNL     1      16.225  -4.388  24.617  1.00  0.00    -0.544 OA
ATOM     10  O   UNL     1      15.741  -5.760  22.848  1.00  0.00    -0.544 OA
ENDBRANCH   3   8
ENDBRANCH   1   3
BRANCH   1  11
ATOM     11  C   UNL     1      12.747  -3.469  21.289  1.00  0.00     0.006 C 
ATOM     12  C   UNL     1      11.435  -3.951  20.664  1.00  0.00     0.004 C 
ENDBRANCH   1  11
TORSDOF 4
ENDMDL
MODEL 8
REMARK VINA RESULT:    -3.705     19.390     20.234
REMARK INTER + INTRA:          -4.545
REMARK INTER:                  -4.447
REMARK INTRA:                  -0.099
REMARK UNBOUND:                -0.082
REMARK SMILES CC[C@H](C)[C@@H]([NH3+])C(=O)[O-]
REMARK SMILES IDX 3 1 4 2 5 3 6 4 7 8 8 9 9 10 2 11 1 12
REMARK H PARENT 6 5 6 6 6 7
REMARK Flexibility Score: inf
ROOT
ATOM      1  C   UNL     1      18.260  12.563  12.531  1.00  0.00     0.050 C 
ATOM      2  C   UNL     1      18.280  11.676  13.792  1.00  0.00     0.014 C 
ENDROOT
BRANCH   1   3
ATOM      3  C   UNL     1      19.701  13.028  12.141  1.00  0.00     0.230 C 
BRANCH   3   4
ATOM      4  N   UNL     1      20.410  13.645  13.274  1.00  0.00    -0.350 N 
ATOM      5  H   UNL     1      21.444  13.598  13.121  1.00  0.00     0.345 HD
ATOM      6  H   UNL     1      20.177  13.154  14.168  1.00  0.00     0.345 HD
ATOM      7  H   UNL     1      20.160  14.657  13.350  1.00  0.00     0.345 HD
ENDBRANCH   3   4
BRANCH   3   8
ATOM      8  C   UNL     1      20.517  11.869  11.624  1.00  0.00     0.099 C 
ATOM      9  O   UNL     1      20.137  11.232  10.605  1.00  0.00    -0.544 OA
ATOM     10  O   UNL     1      21.697  11.503  12.260  1.00  0.00    -0.544 OA
ENDBRANCH   3   8
ENDBRANCH   1   3
BRANCH   1  11
ATOM     11  C   UNL     1      17.330  13.788  12.751  1.00  0.00     0.006 C 
ATOM     12  C   UNL     1      16.199  13.516  13.747  1.00  0.00     0.004 C 
ENDBRANCH   1  11
TORSDOF 4
ENDMDL
MODEL 9
REMARK VINA RESULT:    -3.600      2.963      4.024
REMARK INTER + INTRA:          -4.418
REMARK INTER:                  -4.348
REMARK INTRA:                  -0.070
REMARK UNBOUND:                -0.082
REMARK SMILES CC[C@H](C)[C@@H]([NH3+])C(=O)[O-]
REMARK SMILES IDX 3 1 4 2 5 3 6 4 7 8 8 9 9 10 2 11 1 12
REMARK H PARENT 6 5 6 6 6 7
REMARK Flexibility Score: inf
ROOT
ATOM      1  C   UNL     1      12.909  -3.626  22.220  1.00  0.00     0.050 C 
ATOM      2  C   UNL     1      13.737  -3.149  21.011  1.00  0.00     0.014 C 
ENDROOT
BRANCH   1   3
ATOM      3  C   UNL     1      13.785  -4.451  23.219  1.00  0.00     0.230 C 
BRANCH   3   4
ATOM      4  N   UNL     1      15.011  -4.965  22.587  1.00  0.00    -0.350 N 
ATOM      5  H   UNL     1      14.857  -5.106  21.562  1.00  0.00     0.345 HD
ATOM      6  H   UNL     1      15.295  -5.876  23.016  1.00  0.00     0.345 HD
ATOM      7  H   UNL     1      15.787  -4.271  22.685  1.00  0.00     0.345 HD
ENDBRANCH   3   4
BRANCH   3   8
ATOM      8  C   UNL     1      14.164  -3.615  24.417  1.00  0.00     0.099 C 
ATOM      9  O   UNL     1      13.291  -2.929  25.012  1.00  0.00    -0.544 OA
ATOM     10  O   UNL     1      15.475  -3.603  24.878  1.00  0.00    -0.544 OA
ENDBRANCH   3   8
ENDBRANCH   1   3
BRANCH   1  11
ATOM     11  C   UNL     1      11.691  -4.463  21.741  1.00  0.00     0.006 C 
ATOM     12  C   UNL     1      11.424  -4.334  20.239  1.00  0.00     0.004 C 
ENDBRANCH   1  11
TORSDOF 4
ENDMDL
