MODEL 1
REMARK VINA RESULT:    -0.156      0.000      0.000
REMARK INTER + INTRA:          -1.002
REMARK INTER:                  -0.394
REMARK INTRA:                  -0.608
REMARK UNBOUND:                -0.608
REMARK SMILES CCCCCCCCCCCCCCCCCCCCCCCCCCCC(=O)[O-]
REMARK SMILES IDX 15 1 16 2 17 3 18 4 19 5 20 6 21 7 22 8 23 9 24 10 25 11
REMARK SMILES IDX 26 12 27 13 28 14 29 15 30 16 14 17 13 18 12 19 11 20 10 21
REMARK SMILES IDX 9 22 8 23 7 24 6 25 5 26 4 27 3 28 2 29 1 30
REMARK H PARENT
REMARK Flexibility Score: inf
ROOT
ATOM      1  C   UNL     1      16.198  18.361   9.780  1.00  0.00     0.000 C 
ENDROOT
BRANCH   1   2
ATOM      2  C   UNL     1      17.089  19.609   9.940  1.00  0.00     0.000 C 
BRANCH   2   3
ATOM      3  C   UNL     1      16.665  20.589  11.052  1.00  0.00     0.000 C 
BRANCH   3   4
ATOM      4  C   UNL     1      15.239  20.386  11.597  1.00  0.00     0.000 C 
BRANCH   4   5
ATOM      5  C   UNL     1      14.990  19.034  12.295  1.00  0.00     0.000 C 
BRANCH   5   6
ATOM      6  C   UNL     1      16.279  18.326  12.771  1.00  0.00     0.000 C 
BRANCH   6   7
ATOM      7  C   UNL     1      16.111  16.834  13.124  1.00  0.00     0.000 C 
BRANCH   7   8
ATOM      8  C   UNL     1      16.753  15.842  12.137  1.00  0.00     0.000 C 
BRANCH   8   9
ATOM      9  C   UNL     1      16.857  14.413  12.689  1.00  0.00     0.000 C 
BRANCH   9  10
ATOM     10  C   UNL     1      15.774  13.511  12.076  1.00  0.00     0.000 C 
BRANCH  10  11
ATOM     11  C   UNL     1      16.311  12.638  10.931  1.00  0.00     0.000 C 
BRANCH  11  12
ATOM     12  C   UNL     1      16.120  13.289   9.554  1.00  0.00     0.006 C 
BRANCH  12  13
ATOM     13  C   UNL     1      14.656  13.691   9.335  1.00  0.00     0.053 C 
BRANCH  13  14
ATOM     14  C   UNL     1      13.816  12.506   8.968  1.00  0.00     0.041 C 
ATOM     15  O   UNL     1      13.550  11.622   9.825  1.00  0.00    -0.550 OA
ATOM     16  O   UNL     1      13.369  12.348   7.659  1.00  0.00    -0.550 OA
ENDBRANCH  13  14
ENDBRANCH  12  13
ENDBRANCH  11  12
ENDBRANCH  10  11
ENDBRANCH   9  10
ENDBRANCH   8   9
ENDBRANCH   7   8
ENDBRANCH   6   7
ENDBRANCH   5   6
ENDBRANCH   4   5
ENDBRANCH   3   4
ENDBRANCH   2   3
ENDBRANCH   1   2
BRANCH   1  17
ATOM     17  C   UNL     1      16.080  17.846   8.329  1.00  0.00     0.000 C 
BRANCH  17  18
ATOM     18  C   UNL     1      16.808  16.508   8.104  1.00  0.00     0.000 C 
BRANCH  18  19
ATOM     19  C   UNL     1      16.281  15.735   6.885  1.00  0.00     0.000 C 
BRANCH  19  20
ATOM     20  C   UNL     1      17.123  15.966   5.618  1.00  0.00     0.000 C 
BRANCH  20  21
ATOM     21  C   UNL     1      16.783  17.286   4.903  1.00  0.00     0.000 C 
BRANCH  21  22
ATOM     22  C   UNL     1      17.101  17.340   3.394  1.00  0.00    -0.000 C 
BRANCH  22  23
ATOM     23  C   UNL     1      17.034  18.736   2.735  1.00  0.00    -0.000 C 
BRANCH  23  24
ATOM     24  C   UNL     1      16.463  18.743   1.303  1.00  0.00    -0.000 C 
BRANCH  24  25
ATOM     25  C   UNL     1      17.063  19.845   0.411  1.00  0.00    -0.000 C 
BRANCH  25  26
ATOM     26  C   UNL     1      16.053  20.387  -0.624  1.00  0.00    -0.000 C 
BRANCH  26  27
ATOM     27  C   UNL     1      14.647  20.656  -0.052  1.00  0.00    -0.000 C 
BRANCH  27  28
ATOM     28  C   UNL     1      13.480  20.031  -0.842  1.00  0.00    -0.000 C 
BRANCH  28  29
ATOM     29  C   UNL     1      12.558  19.114  -0.016  1.00  0.00    -0.003 C 
ATOM     30  C   UNL     1      13.111  17.697   0.139  1.00  0.00     0.004 C 
ENDBRANCH  28  29
ENDBRANCH  27  28
ENDBRANCH  26  27
ENDBRANCH  25  26
ENDBRANCH  24  25
ENDBRANCH  23  24
ENDBRANCH  22  23
ENDBRANCH  21  22
ENDBRANCH  20  21
ENDBRANCH  19  20
ENDBRANCH  18  19
ENDBRANCH  17  18
ENDBRANCH   1  17
TORSDOF 26
ENDMDL
MODEL 2
REMARK VINA RESULT:    -0.093      3.027      5.537
REMARK INTER + INTRA:          -0.842
REMARK INTER:                   1.263
REMARK INTRA:                  -2.104
REMARK UNBOUND:                -0.608
REMARK SMILES CCCCCCCCCCCCCCCCCCCCCCCCCCCC(=O)[O-]
REMARK SMILES IDX 15 1 16 2 17 3 18 4 19 5 20 6 21 7 22 8 23 9 24 10 25 11
REMARK SMILES IDX 26 12 27 13 28 14 29 15 30 16 14 17 13 18 12 19 11 20 10 21
REMARK SMILES IDX 9 22 8 23 7 24 6 25 5 26 4 27 3 28 2 29 1 30
REMARK H PARENT
REMARK Flexibility Score: inf
ROOT
ATOM      1  C   UNL     1      17.016  16.339   6.345  1.00  0.00     0.000 C 
ENDROOT
BRANCH   1   2
ATOM      2  C   UNL     1      16.091  15.678   7.387  1.00  0.00     0.000 C 
BRANCH   2   3
ATOM      3  C   UNL     1      16.555  14.304   7.909  1.00  0.00     0.000 C 
BRANCH   3   4
ATOM      4  C   UNL     1      15.443  13.249   8.058  1.00  0.00     0.000 C 
BRANCH   4   5
ATOM      5  C   UNL     1      14.489  13.465   9.249  1.00  0.00     0.000 C 
BRANCH   5   6
ATOM      6  C   UNL     1      14.938  12.757  10.548  1.00  0.00     0.000 C 
BRANCH   6   7
ATOM      7  C   UNL     1      15.812  13.613  11.488  1.00  0.00     0.000 C 
BRANCH   7   8
ATOM      8  C   UNL     1      15.586  15.134  11.403  1.00  0.00     0.000 C 
BRANCH   8   9
ATOM      9  C   UNL     1      16.849  15.916  11.012  1.00  0.00     0.000 C 
BRANCH   9  10
ATOM     10  C   UNL     1      16.739  17.384  11.453  1.00  0.00     0.000 C 
BRANCH  10  11
ATOM     11  C   UNL     1      16.995  18.368  10.300  1.00  0.00     0.000 C 
BRANCH  11  12
ATOM     12  C   UNL     1      16.803  19.832  10.723  1.00  0.00     0.006 C 
BRANCH  12  13
ATOM     13  C   UNL     1      15.447  20.031  11.411  1.00  0.00     0.053 C 
BRANCH  13  14
ATOM     14  C   UNL     1      15.245  21.460  11.813  1.00  0.00     0.041 C 
ATOM     15  O   UNL     1      16.193  22.121  12.316  1.00  0.00    -0.550 OA
ATOM     16  O   UNL     1      13.991  22.050  11.685  1.00  0.00    -0.550 OA
ENDBRANCH  13  14
ENDBRANCH  12  13
ENDBRANCH  11  12
ENDBRANCH  10  11
ENDBRANCH   9  10
ENDBRANCH   8   9
ENDBRANCH   7   8
ENDBRANCH   6   7
ENDBRANCH   5   6
ENDBRANCH   4   5
ENDBRANCH   3   4
ENDBRANCH   2   3
ENDBRANCH   1   2
BRANCH   1  17
ATOM     17  C   UNL     1      16.293  16.822   5.069  1.00  0.00     0.000 C 
BRANCH  17  18
ATOM     18  C   UNL     1      17.108  17.855   4.269  1.00  0.00     0.000 C 
BRANCH  18  19
ATOM     19  C   UNL     1      17.125  17.568   2.759  1.00  0.00     0.000 C 
BRANCH  19  20
ATOM     20  C   UNL     1      16.253  18.546   1.952  1.00  0.00     0.000 C 
BRANCH  20  21
ATOM     21  C   UNL     1      17.066  19.683   1.306  1.00  0.00     0.000 C 
BRANCH  21  22
ATOM     22  C   UNL     1      16.964  19.800  -0.229  1.00  0.00    -0.000 C 
BRANCH  22  23
ATOM     23  C   UNL     1      15.903  20.787  -0.766  1.00  0.00    -0.000 C 
BRANCH  23  24
ATOM     24  C   UNL     1      14.559  20.755  -0.015  1.00  0.00    -0.000 C 
BRANCH  24  25
ATOM     25  C   UNL     1      13.335  20.736  -0.950  1.00  0.00    -0.000 C 
BRANCH  25  26
ATOM     26  C   UNL     1      12.515  19.434  -0.828  1.00  0.00    -0.000 C 
BRANCH  26  27
ATOM     27  C   UNL     1      13.211  18.323  -0.016  1.00  0.00    -0.000 C 
BRANCH  27  28
ATOM     28  C   UNL     1      12.274  17.422   0.810  1.00  0.00    -0.000 C 
BRANCH  28  29
ATOM     29  C   UNL     1      12.866  16.923   2.142  1.00  0.00    -0.003 C 
ATOM     30  C   UNL     1      12.494  15.474   2.454  1.00  0.00     0.004 C 
ENDBRANCH  28  29
ENDBRANCH  27  28
ENDBRANCH  26  27
ENDBRANCH  25  26
ENDBRANCH  24  25
ENDBRANCH  23  24
ENDBRANCH  22  23
ENDBRANCH  21  22
ENDBRANCH  20  21
ENDBRANCH  19  20
ENDBRANCH  18  19
ENDBRANCH  17  18
ENDBRANCH   1  17
TORSDOF 26
ENDMDL
MODEL 3
REMARK VINA RESULT:     0.146      1.779      3.454
REMARK INTER + INTRA:          -0.240
REMARK INTER:                   0.242
REMARK INTRA:                  -0.483
REMARK UNBOUND:                -0.608
REMARK SMILES CCCCCCCCCCCCCCCCCCCCCCCCCCCC(=O)[O-]
REMARK SMILES IDX 15 1 16 2 17 3 18 4 19 5 20 6 21 7 22 8 23 9 24 10 25 11
REMARK SMILES IDX 26 12 27 13 28 14 29 15 30 16 14 17 13 18 12 19 11 20 10 21
REMARK SMILES IDX 9 22 8 23 7 24 6 25 5 26 4 27 3 28 2 29 1 30
REMARK H PARENT
REMARK Flexibility Score: inf
ROOT
ATOM      1  C   UNL     1      15.600  17.161  10.448  1.00  0.00     0.000 C 
ENDROOT
BRANCH   1   2
ATOM      2  C   UNL     1      16.926  17.276  11.226  1.00  0.00     0.000 C 
BRANCH   2   3
ATOM      3  C   UNL     1      17.068  16.333  12.437  1.00  0.00     0.000 C 
BRANCH   3   4
ATOM      4  C   UNL     1      15.746  15.750  12.973  1.00  0.00     0.000 C 
BRANCH   4   5
ATOM      5  C   UNL     1      15.719  14.217  13.125  1.00  0.00     0.000 C 
BRANCH   5   6
ATOM      6  C   UNL     1      17.099  13.544  12.953  1.00  0.00     0.000 C 
BRANCH   6   7
ATOM      7  C   UNL     1      17.054  12.056  12.549  1.00  0.00     0.000 C 
BRANCH   7   8
ATOM      8  C   UNL     1      17.125  11.776  11.037  1.00  0.00     0.000 C 
BRANCH   8   9
ATOM      9  C   UNL     1      17.112  13.051  10.180  1.00  0.00     0.000 C 
BRANCH   9  10
ATOM     10  C   UNL     1      17.065  12.701   8.684  1.00  0.00     0.000 C 
BRANCH  10  11
ATOM     11  C   UNL     1      15.882  13.364   7.959  1.00  0.00     0.000 C 
BRANCH  11  12
ATOM     12  C   UNL     1      14.526  12.961   8.556  1.00  0.00     0.006 C 
BRANCH  12  13
ATOM     13  C   UNL     1      14.459  13.308  10.049  1.00  0.00     0.053 C 
BRANCH  13  14
ATOM     14  C   UNL     1      13.705  12.266  10.817  1.00  0.00     0.041 C 
ATOM     15  O   UNL     1      13.368  12.475  12.013  1.00  0.00    -0.550 OA
ATOM     16  O   UNL     1      13.422  11.037  10.230  1.00  0.00    -0.550 OA
ENDBRANCH  13  14
ENDBRANCH  12  13
ENDBRANCH  11  12
ENDBRANCH  10  11
ENDBRANCH   9  10
ENDBRANCH   8   9
ENDBRANCH   7   8
ENDBRANCH   6   7
ENDBRANCH   5   6
ENDBRANCH   4   5
ENDBRANCH   3   4
ENDBRANCH   2   3
ENDBRANCH   1   2
BRANCH   1  17
ATOM     17  C   UNL     1      15.674  17.660   8.989  1.00  0.00     0.000 C 
BRANCH  17  18
ATOM     18  C   UNL     1      16.828  17.024   8.192  1.00  0.00     0.000 C 
BRANCH  18  19
ATOM     19  C   UNL     1      16.360  15.911   7.242  1.00  0.00     0.000 C 
BRANCH  19  20
ATOM     20  C   UNL     1      15.795  16.452   5.916  1.00  0.00     0.000 C 
BRANCH  20  21
ATOM     21  C   UNL     1      14.261  16.351   5.831  1.00  0.00     0.000 C 
BRANCH  21  22
ATOM     22  C   UNL     1      13.616  16.915   4.547  1.00  0.00    -0.000 C 
BRANCH  22  23
ATOM     23  C   UNL     1      12.721  15.937   3.752  1.00  0.00    -0.000 C 
BRANCH  23  24
ATOM     24  C   UNL     1      12.866  16.035   2.221  1.00  0.00    -0.000 C 
BRANCH  24  25
ATOM     25  C   UNL     1      12.188  17.281   1.621  1.00  0.00    -0.000 C 
BRANCH  25  26
ATOM     26  C   UNL     1      12.606  17.537   0.157  1.00  0.00    -0.000 C 
BRANCH  26  27
ATOM     27  C   UNL     1      13.327  18.881  -0.068  1.00  0.00    -0.000 C 
BRANCH  27  28
ATOM     28  C   UNL     1      14.759  18.966   0.496  1.00  0.00    -0.000 C 
BRANCH  28  29
ATOM     29  C   UNL     1      15.604  20.130  -0.057  1.00  0.00    -0.003 C 
ATOM     30  C   UNL     1      14.761  21.204  -0.743  1.00  0.00     0.004 C 
ENDBRANCH  28  29
ENDBRANCH  27  28
ENDBRANCH  26  27
ENDBRANCH  25  26
ENDBRANCH  24  25
ENDBRANCH  23  24
ENDBRANCH  22  23
ENDBRANCH  21  22
ENDBRANCH  20  21
ENDBRANCH  19  20
ENDBRANCH  18  19
ENDBRANCH  17  18
ENDBRANCH   1  17
TORSDOF 26
ENDMDL
MODEL 4
REMARK VINA RESULT:     0.223      1.406      2.377
REMARK INTER + INTRA:          -0.046
REMARK INTER:                   0.176
REMARK INTRA:                  -0.221
REMARK UNBOUND:                -0.608
REMARK SMILES CCCCCCCCCCCCCCCCCCCCCCCCCCCC(=O)[O-]
REMARK SMILES IDX 15 1 16 2 17 3 18 4 19 5 20 6 21 7 22 8 23 9 24 10 25 11
REMARK SMILES IDX 26 12 27 13 28 14 29 15 30 16 14 17 13 18 12 19 11 20 10 21
REMARK SMILES IDX 9 22 8 23 7 24 6 25 5 26 4 27 3 28 2 29 1 30
REMARK H PARENT
REMARK Flexibility Score: inf
ROOT
ATOM      1  C   UNL     1      16.091  18.397   9.939  1.00  0.00     0.000 C 
ENDROOT
BRANCH   1   2
ATOM      2  C   UNL     1      16.828  19.750   9.986  1.00  0.00     0.000 C 
BRANCH   2   3
ATOM      3  C   UNL     1      16.336  20.737  11.063  1.00  0.00     0.000 C 
BRANCH   3   4
ATOM      4  C   UNL     1      14.886  20.522  11.536  1.00  0.00     0.000 C 
BRANCH   4   5
ATOM      5  C   UNL     1      14.577  19.114  12.084  1.00  0.00     0.000 C 
BRANCH   5   6
ATOM      6  C   UNL     1      15.771  18.444  12.801  1.00  0.00     0.000 C 
BRANCH   6   7
ATOM      7  C   UNL     1      15.580  16.947  13.125  1.00  0.00     0.000 C 
BRANCH   7   8
ATOM      8  C   UNL     1      16.456  15.976  12.312  1.00  0.00     0.000 C 
BRANCH   8   9
ATOM      9  C   UNL     1      16.452  14.543  12.866  1.00  0.00     0.000 C 
BRANCH   9  10
ATOM     10  C   UNL     1      15.544  13.635  12.022  1.00  0.00     0.000 C 
BRANCH  10  11
ATOM     11  C   UNL     1      16.311  12.901  10.910  1.00  0.00     0.000 C 
BRANCH  11  12
ATOM     12  C   UNL     1      16.308  13.674   9.584  1.00  0.00     0.006 C 
BRANCH  12  13
ATOM     13  C   UNL     1      14.876  14.006   9.146  1.00  0.00     0.053 C 
BRANCH  13  14
ATOM     14  C   UNL     1      14.389  13.048   8.102  1.00  0.00     0.041 C 
ATOM     15  O   UNL     1      14.846  13.096   6.930  1.00  0.00    -0.550 OA
ATOM     16  O   UNL     1      13.386  12.133   8.411  1.00  0.00    -0.550 OA
ENDBRANCH  13  14
ENDBRANCH  12  13
ENDBRANCH  11  12
ENDBRANCH  10  11
ENDBRANCH   9  10
ENDBRANCH   8   9
ENDBRANCH   7   8
ENDBRANCH   6   7
ENDBRANCH   5   6
ENDBRANCH   4   5
ENDBRANCH   3   4
ENDBRANCH   2   3
ENDBRANCH   1   2
BRANCH   1  17
ATOM     17  C   UNL     1      15.812  17.873   8.514  1.00  0.00     0.000 C 
BRANCH  17  18
ATOM     18  C   UNL     1      16.965  17.025   7.947  1.00  0.00     0.000 C 
BRANCH  18  19
ATOM     19  C   UNL     1      16.495  15.982   6.920  1.00  0.00     0.000 C 
BRANCH  19  20
ATOM     20  C   UNL     1      16.015  16.614   5.601  1.00  0.00     0.000 C 
BRANCH  20  21
ATOM     21  C   UNL     1      14.501  16.450   5.373  1.00  0.00     0.000 C 
BRANCH  21  22
ATOM     22  C   UNL     1      13.974  16.890   3.991  1.00  0.00    -0.000 C 
BRANCH  22  23
ATOM     23  C   UNL     1      12.561  16.388   3.612  1.00  0.00    -0.000 C 
BRANCH  23  24
ATOM     24  C   UNL     1      12.385  16.033   2.123  1.00  0.00    -0.000 C 
BRANCH  24  25
ATOM     25  C   UNL     1      13.092  17.017   1.172  1.00  0.00    -0.000 C 
BRANCH  25  26
ATOM     26  C   UNL     1      12.126  17.650   0.148  1.00  0.00    -0.000 C 
BRANCH  26  27
ATOM     27  C   UNL     1      12.337  19.163  -0.067  1.00  0.00    -0.000 C 
BRANCH  27  28
ATOM     28  C   UNL     1      13.633  19.552  -0.804  1.00  0.00    -0.000 C 
BRANCH  28  29
ATOM     29  C   UNL     1      14.185  20.945  -0.449  1.00  0.00    -0.003 C 
ATOM     30  C   UNL     1      14.793  21.669  -1.649  1.00  0.00     0.004 C 
ENDBRANCH  28  29
ENDBRANCH  27  28
ENDBRANCH  26  27
ENDBRANCH  25  26
ENDBRANCH  24  25
ENDBRANCH  23  24
ENDBRANCH  22  23
ENDBRANCH  21  22
ENDBRANCH  20  21
ENDBRANCH  19  20
ENDBRANCH  18  19
ENDBRANCH  17  18
ENDBRANCH   1  17
TORSDOF 26
ENDMDL
MODEL 5
REMARK VINA RESULT:     0.330      3.469     10.556
REMARK INTER + INTRA:           0.223
REMARK INTER:                   2.368
REMARK INTRA:                  -2.145
REMARK UNBOUND:                -0.608
REMARK SMILES CCCCCCCCCCCCCCCCCCCCCCCCCCCC(=O)[O-]
REMARK SMILES IDX 15 1 16 2 17 3 18 4 19 5 20 6 21 7 22 8 23 9 24 10 25 11
REMARK SMILES IDX 26 12 27 13 28 14 29 15 30 16 14 17 13 18 12 19 11 20 10 21
REMARK SMILES IDX 9 22 8 23 7 24 6 25 5 26 4 27 3 28 2 29 1 30
REMARK H PARENT
REMARK Flexibility Score: inf
ROOT
ATOM      1  C   UNL     1      16.270  16.128   7.110  1.00  0.00     0.000 C 
ENDROOT
BRANCH   1   2
ATOM      2  C   UNL     1      14.872  16.669   6.750  1.00  0.00     0.000 C 
BRANCH   2   3
ATOM      3  C   UNL     1      14.489  16.577   5.260  1.00  0.00     0.000 C 
BRANCH   3   4
ATOM      4  C   UNL     1      13.424  15.517   4.921  1.00  0.00     0.000 C 
BRANCH   4   5
ATOM      5  C   UNL     1      12.444  15.908   3.797  1.00  0.00     0.000 C 
BRANCH   5   6
ATOM      6  C   UNL     1      13.105  16.663   2.622  1.00  0.00     0.000 C 
BRANCH   6   7
ATOM      7  C   UNL     1      12.121  17.333   1.641  1.00  0.00     0.000 C 
BRANCH   7   8
ATOM      8  C   UNL     1      12.658  17.563   0.216  1.00  0.00     0.000 C 
BRANCH   8   9
ATOM      9  C   UNL     1      12.282  18.935  -0.363  1.00  0.00     0.000 C 
BRANCH   9  10
ATOM     10  C   UNL     1      13.472  19.556  -1.110  1.00  0.00     0.000 C 
BRANCH  10  11
ATOM     11  C   UNL     1      13.819  20.965  -0.601  1.00  0.00     0.000 C 
BRANCH  11  12
ATOM     12  C   UNL     1      14.654  21.767  -1.609  1.00  0.00     0.006 C 
BRANCH  12  13
ATOM     13  C   UNL     1      16.130  21.352  -1.552  1.00  0.00     0.053 C 
BRANCH  13  14
ATOM     14  C   UNL     1      16.554  21.039  -0.150  1.00  0.00     0.041 C 
ATOM     15  O   UNL     1      16.884  21.965   0.639  1.00  0.00    -0.550 OA
ATOM     16  O   UNL     1      16.639  19.716   0.273  1.00  0.00    -0.550 OA
ENDBRANCH  13  14
ENDBRANCH  12  13
ENDBRANCH  11  12
ENDBRANCH  10  11
ENDBRANCH   9  10
ENDBRANCH   8   9
ENDBRANCH   7   8
ENDBRANCH   6   7
ENDBRANCH   5   6
ENDBRANCH   4   5
ENDBRANCH   3   4
ENDBRANCH   2   3
ENDBRANCH   1   2
BRANCH   1  17
ATOM     17  C   UNL     1      16.920  16.810   8.334  1.00  0.00     0.000 C 
BRANCH  17  18
ATOM     18  C   UNL     1      16.311  18.189   8.649  1.00  0.00     0.000 C 
BRANCH  18  19
ATOM     19  C   UNL     1      16.733  18.732  10.023  1.00  0.00     0.000 C 
BRANCH  19  20
ATOM     20  C   UNL     1      17.125  17.621  11.013  1.00  0.00     0.000 C 
BRANCH  20  21
ATOM     21  C   UNL     1      15.996  17.269  11.998  1.00  0.00     0.000 C 
BRANCH  21  22
ATOM     22  C   UNL     1      16.353  16.251  13.102  1.00  0.00    -0.000 C 
BRANCH  22  23
ATOM     23  C   UNL     1      16.792  14.850  12.617  1.00  0.00    -0.000 C 
BRANCH  23  24
ATOM     24  C   UNL     1      15.674  14.021  11.957  1.00  0.00    -0.000 C 
BRANCH  24  25
ATOM     25  C   UNL     1      15.770  13.978  10.420  1.00  0.00    -0.000 C 
BRANCH  25  26
ATOM     26  C   UNL     1      14.716  13.046   9.785  1.00  0.00    -0.000 C 
BRANCH  26  27
ATOM     27  C   UNL     1      14.218  13.508   8.400  1.00  0.00    -0.000 C 
BRANCH  27  28
ATOM     28  C   UNL     1      14.846  12.781   7.196  1.00  0.00    -0.000 C 
BRANCH  28  29
ATOM     29  C   UNL     1      16.377  12.913   7.088  1.00  0.00    -0.003 C 
ATOM     30  C   UNL     1      16.894  12.716   5.664  1.00  0.00     0.004 C 
ENDBRANCH  28  29
ENDBRANCH  27  28
ENDBRANCH  26  27
ENDBRANCH  25  26
ENDBRANCH  24  25
ENDBRANCH  23  24
ENDBRANCH  22  23
ENDBRANCH  21  22
ENDBRANCH  20  21
ENDBRANCH  19  20
ENDBRANCH  18  19
ENDBRANCH  17  18
ENDBRANCH   1  17
TORSDOF 26
ENDMDL
MODEL 6
REMARK VINA RESULT:     0.472      3.118     11.439
REMARK INTER + INTRA:           0.581
REMARK INTER:                   0.708
REMARK INTRA:                  -0.127
REMARK UNBOUND:                -0.608
REMARK SMILES CCCCCCCCCCCCCCCCCCCCCCCCCCCC(=O)[O-]
REMARK SMILES IDX 15 1 16 2 17 3 18 4 19 5 20 6 21 7 22 8 23 9 24 10 25 11
REMARK SMILES IDX 26 12 27 13 28 14 29 15 30 16 14 17 13 18 12 19 11 20 10 21
REMARK SMILES IDX 9 22 8 23 7 24 6 25 5 26 4 27 3 28 2 29 1 30
REMARK H PARENT
REMARK Flexibility Score: inf
ROOT
ATOM      1  C   UNL     1      14.136  15.881   5.282  1.00  0.00     0.000 C 
ENDROOT
BRANCH   1   2
ATOM      2  C   UNL     1      13.821  16.873   4.145  1.00  0.00     0.000 C 
BRANCH   2   3
ATOM      3  C   UNL     1      12.679  16.456   3.197  1.00  0.00     0.000 C 
BRANCH   3   4
ATOM      4  C   UNL     1      12.978  16.624   1.696  1.00  0.00     0.000 C 
BRANCH   4   5
ATOM      5  C   UNL     1      11.970  17.494   0.920  1.00  0.00     0.000 C 
BRANCH   5   6
ATOM      6  C   UNL     1      12.313  17.668  -0.577  1.00  0.00     0.000 C 
BRANCH   6   7
ATOM      7  C   UNL     1      12.464  19.130  -1.047  1.00  0.00     0.000 C 
BRANCH   7   8
ATOM      8  C   UNL     1      12.918  20.129   0.033  1.00  0.00     0.000 C 
BRANCH   8   9
ATOM      9  C   UNL     1      14.373  20.591  -0.137  1.00  0.00     0.000 C 
BRANCH   9  10
ATOM     10  C   UNL     1      14.594  21.191  -1.534  1.00  0.00     0.000 C 
BRANCH  10  11
ATOM     11  C   UNL     1      15.883  22.025  -1.622  1.00  0.00     0.000 C 
BRANCH  11  12
ATOM     12  C   UNL     1      17.109  21.272  -1.085  1.00  0.00     0.006 C 
BRANCH  12  13
ATOM     13  C   UNL     1      16.934  20.927   0.399  1.00  0.00     0.053 C 
BRANCH  13  14
ATOM     14  C   UNL     1      17.082  19.455   0.637  1.00  0.00     0.041 C 
ATOM     15  O   UNL     1      17.124  18.654  -0.334  1.00  0.00    -0.550 OA
ATOM     16  O   UNL     1      17.118  18.960   1.937  1.00  0.00    -0.550 OA
ENDBRANCH  13  14
ENDBRANCH  12  13
ENDBRANCH  11  12
ENDBRANCH  10  11
ENDBRANCH   9  10
ENDBRANCH   8   9
ENDBRANCH   7   8
ENDBRANCH   6   7
ENDBRANCH   5   6
ENDBRANCH   4   5
ENDBRANCH   3   4
ENDBRANCH   2   3
ENDBRANCH   1   2
BRANCH   1  17
ATOM     17  C   UNL     1      14.812  16.521   6.514  1.00  0.00     0.000 C 
BRANCH  17  18
ATOM     18  C   UNL     1      16.048  15.740   6.997  1.00  0.00     0.000 C 
BRANCH  18  19
ATOM     19  C   UNL     1      16.788  16.439   8.148  1.00  0.00     0.000 C 
BRANCH  19  20
ATOM     20  C   UNL     1      16.276  17.866   8.411  1.00  0.00     0.000 C 
BRANCH  20  21
ATOM     21  C   UNL     1      16.425  18.296   9.882  1.00  0.00     0.000 C 
BRANCH  21  22
ATOM     22  C   UNL     1      16.902  17.204  10.862  1.00  0.00    -0.000 C 
BRANCH  22  23
ATOM     23  C   UNL     1      16.185  17.158  12.230  1.00  0.00    -0.000 C 
BRANCH  23  24
ATOM     24  C   UNL     1      16.493  15.907  13.074  1.00  0.00    -0.000 C 
BRANCH  24  25
ATOM     25  C   UNL     1      16.836  14.667  12.228  1.00  0.00    -0.000 C 
BRANCH  25  26
ATOM     26  C   UNL     1      16.182  13.378  12.771  1.00  0.00    -0.000 C 
BRANCH  26  27
ATOM     27  C   UNL     1      16.775  12.077  12.192  1.00  0.00    -0.000 C 
BRANCH  27  28
ATOM     28  C   UNL     1      15.947  11.413  11.074  1.00  0.00    -0.000 C 
BRANCH  28  29
ATOM     29  C   UNL     1      14.438  11.718  11.120  1.00  0.00    -0.003 C 
ATOM     30  C   UNL     1      13.880  12.168   9.771  1.00  0.00     0.004 C 
ENDBRANCH  28  29
ENDBRANCH  27  28
ENDBRANCH  26  27
ENDBRANCH  25  26
ENDBRANCH  24  25
ENDBRANCH  23  24
ENDBRANCH  22  23
ENDBRANCH  21  22
ENDBRANCH  20  21
ENDBRANCH  19  20
ENDBRANCH  18  19
ENDBRANCH  17  18
ENDBRANCH   1  17
TORSDOF 26
ENDMDL
MODEL 7
REMARK VINA RESULT:     0.516      3.304      9.669
REMARK INTER + INTRA:           0.693
REMARK INTER:                   2.890
REMARK INTRA:                  -2.197
REMARK UNBOUND:                -0.608
REMARK SMILES CCCCCCCCCCCCCCCCCCCCCCCCCCCC(=O)[O-]
REMARK SMILES IDX 15 1 16 2 17 3 18 4 19 5 20 6 21 7 22 8 23 9 24 10 25 11
REMARK SMILES IDX 26 12 27 13 28 14 29 15 30 16 14 17 13 18 12 19 11 20 10 21
REMARK SMILES IDX 9 22 8 23 7 24 6 25 5 26 4 27 3 28 2 29 1 30
REMARK H PARENT
REMARK Flexibility Score: inf
ROOT
ATOM      1  C   UNL     1      14.455  13.098   7.418  1.00  0.00     0.000 C 
ENDROOT
BRANCH   1   2
ATOM      2  C   UNL     1      14.943  14.322   8.219  1.00  0.00     0.000 C 
BRANCH   2   3
ATOM      3  C   UNL     1      16.467  14.410   8.433  1.00  0.00     0.000 C 
BRANCH   3   4
ATOM      4  C   UNL     1      17.124  15.715   7.946  1.00  0.00     0.000 C 
BRANCH   4   5
ATOM      5  C   UNL     1      16.178  16.927   7.843  1.00  0.00     0.000 C 
BRANCH   5   6
ATOM      6  C   UNL     1      15.756  17.273   6.396  1.00  0.00     0.000 C 
BRANCH   6   7
ATOM      7  C   UNL     1      15.043  16.136   5.636  1.00  0.00     0.000 C 
BRANCH   7   8
ATOM      8  C   UNL     1      13.673  16.498   5.033  1.00  0.00     0.000 C 
BRANCH   8   9
ATOM      9  C   UNL     1      13.723  16.766   3.522  1.00  0.00     0.000 C 
BRANCH   9  10
ATOM     10  C   UNL     1      12.389  16.393   2.858  1.00  0.00     0.000 C 
BRANCH  10  11
ATOM     11  C   UNL     1      11.981  17.383   1.755  1.00  0.00     0.000 C 
BRANCH  11  12
ATOM     12  C   UNL     1      12.951  17.372   0.564  1.00  0.00     0.006 C 
BRANCH  12  13
ATOM     13  C   UNL     1      12.827  18.663  -0.256  1.00  0.00     0.053 C 
BRANCH  13  14
ATOM     14  C   UNL     1      13.971  19.591   0.015  1.00  0.00     0.041 C 
ATOM     15  O   UNL     1      13.901  20.804  -0.318  1.00  0.00    -0.550 OA
ATOM     16  O   UNL     1      15.143  19.105   0.588  1.00  0.00    -0.550 OA
ENDBRANCH  13  14
ENDBRANCH  12  13
ENDBRANCH  11  12
ENDBRANCH  10  11
ENDBRANCH   9  10
ENDBRANCH   8   9
ENDBRANCH   7   8
ENDBRANCH   6   7
ENDBRANCH   5   6
ENDBRANCH   4   5
ENDBRANCH   3   4
ENDBRANCH   2   3
ENDBRANCH   1   2
BRANCH   1  17
ATOM     17  C   UNL     1      13.526  12.151   8.208  1.00  0.00     0.000 C 
BRANCH  17  18
ATOM     18  C   UNL     1      13.479  12.470   9.713  1.00  0.00     0.000 C 
BRANCH  18  19
ATOM     19  C   UNL     1      14.459  11.622  10.538  1.00  0.00     0.000 C 
BRANCH  19  20
ATOM     20  C   UNL     1      14.355  11.886  12.051  1.00  0.00     0.000 C 
BRANCH  20  21
ATOM     21  C   UNL     1      14.920  13.258  12.462  1.00  0.00     0.000 C 
BRANCH  21  22
ATOM     22  C   UNL     1      16.452  13.416  12.363  1.00  0.00    -0.000 C 
BRANCH  22  23
ATOM     23  C   UNL     1      16.981  14.865  12.267  1.00  0.00    -0.000 C 
BRANCH  23  24
ATOM     24  C   UNL     1      16.117  15.912  12.997  1.00  0.00    -0.000 C 
BRANCH  24  25
ATOM     25  C   UNL     1      16.548  17.364  12.717  1.00  0.00    -0.000 C 
BRANCH  25  26
ATOM     26  C   UNL     1      16.348  17.767  11.240  1.00  0.00    -0.000 C 
BRANCH  26  27
ATOM     27  C   UNL     1      15.246  18.823  11.018  1.00  0.00    -0.000 C 
BRANCH  27  28
ATOM     28  C   UNL     1      15.741  20.274  10.865  1.00  0.00    -0.000 C 
BRANCH  28  29
ATOM     29  C   UNL     1      15.254  21.242  11.960  1.00  0.00    -0.003 C 
ATOM     30  C   UNL     1      14.025  20.727  12.708  1.00  0.00     0.004 C 
ENDBRANCH  28  29
ENDBRANCH  27  28
ENDBRANCH  26  27
ENDBRANCH  25  26
ENDBRANCH  24  25
ENDBRANCH  23  24
ENDBRANCH  22  23
ENDBRANCH  21  22
ENDBRANCH  20  21
ENDBRANCH  19  20
ENDBRANCH  18  19
ENDBRANCH  17  18
ENDBRANCH   1  17
TORSDOF 26
ENDMDL
