MODEL 1
REMARK VINA RESULT:    -4.302      0.000      0.000
REMARK INTER + INTRA:          -8.873
REMARK INTER:                  -7.571
REMARK INTRA:                  -1.302
REMARK UNBOUND:                -1.302
REMARK SMILES CCCCCCC=CCCCCCCCC(=O)[O-]
REMARK SMILES IDX 10 1 11 2 12 3 13 4 14 5 15 6 16 7 17 8 18 9 9 10 8 11 7 12
REMARK SMILES IDX 6 13 5 14 4 15 3 16 2 17 1 18
REMARK H PARENT
REMARK Flexibility Score: inf
ROOT
ATOM      1  C   UNL     1     -10.626  -7.435  16.386  1.00  0.00     0.004 C 
ENDROOT
BRANCH   1   2
ATOM      2  C   UNL     1     -11.510  -8.172  17.407  1.00  0.00     0.000 C 
BRANCH   2   3
ATOM      3  C   UNL     1     -10.760  -9.125  18.357  1.00  0.00     0.000 C 
BRANCH   3   4
ATOM      4  C   UNL     1     -11.205  -8.980  19.823  1.00  0.00     0.000 C 
BRANCH   4   5
ATOM      5  C   UNL     1     -10.139  -8.298  20.696  1.00  0.00     0.006 C 
BRANCH   5   6
ATOM      6  C   UNL     1      -9.868  -6.849  20.273  1.00  0.00     0.053 C 
BRANCH   6   7
ATOM      7  C   UNL     1      -9.560  -6.005  21.471  1.00  0.00     0.041 C 
ATOM      8  O   UNL     1      -9.948  -6.363  22.614  1.00  0.00    -0.550 OA
ATOM      9  O   UNL     1      -8.887  -4.800  21.317  1.00  0.00    -0.550 OA
ENDBRANCH   6   7
ENDBRANCH   5   6
ENDBRANCH   4   5
ENDBRANCH   3   4
ENDBRANCH   2   3
ENDBRANCH   1   2
BRANCH   1  10
ATOM     10  C   UNL     1     -10.851  -7.910  14.943  1.00  0.00     0.027 C 
BRANCH  10  11
ATOM     11  C   UNL     1     -12.275  -8.367  14.737  1.00  0.00    -0.031 C 
ATOM     12  C   UNL     1     -12.774  -8.733  13.542  1.00  0.00    -0.031 C 
BRANCH  12  13
ATOM     13  C   UNL     1     -11.997  -8.698  12.249  1.00  0.00     0.027 C 
BRANCH  13  14
ATOM     14  C   UNL     1     -12.760  -7.971  11.124  1.00  0.00     0.004 C 
BRANCH  14  15
ATOM     15  C   UNL     1     -11.935  -6.881  10.418  1.00  0.00     0.000 C 
BRANCH  15  16
ATOM     16  C   UNL     1     -11.722  -5.633  11.292  1.00  0.00    -0.000 C 
BRANCH  16  17
ATOM     17  C   UNL     1     -12.991  -5.226  12.056  1.00  0.00    -0.003 C 
ATOM     18  C   UNL     1     -12.697  -4.753  13.479  1.00  0.00     0.004 C 
ENDBRANCH  16  17
ENDBRANCH  15  16
ENDBRANCH  14  15
ENDBRANCH  13  14
ENDBRANCH  12  13
ENDBRANCH  10  11
ENDBRANCH   1  10
TORSDOF 13
ENDMDL
MODEL 2
REMARK VINA RESULT:    -4.231      3.830      6.997
REMARK INTER + INTRA:          -8.749
REMARK INTER:                  -6.714
REMARK INTRA:                  -2.035
REMARK UNBOUND:                -1.302
REMARK SMILES CCCCCCC=CCCCCCCCC(=O)[O-]
REMARK SMILES IDX 10 1 11 2 12 3 13 4 14 5 15 6 16 7 17 8 18 9 9 10 8 11 7 12
REMARK SMILES IDX 6 13 5 14 4 15 3 16 2 17 1 18
REMARK H PARENT
REMARK Flexibility Score: inf
ROOT
ATOM      1  C   UNL     1     -10.400  -8.138  14.898  1.00  0.00     0.004 C 
ENDROOT
BRANCH   1   2
ATOM      2  C   UNL     1     -11.881  -7.895  14.559  1.00  0.00     0.000 C 
BRANCH   2   3
ATOM      3  C   UNL     1     -12.413  -8.679  13.345  1.00  0.00     0.000 C 
BRANCH   3   4
ATOM      4  C   UNL     1     -12.965  -7.764  12.237  1.00  0.00     0.000 C 
BRANCH   4   5
ATOM      5  C   UNL     1     -12.918  -6.278  12.625  1.00  0.00     0.006 C 
BRANCH   5   6
ATOM      6  C   UNL     1     -12.252  -5.408  11.551  1.00  0.00     0.053 C 
BRANCH   6   7
ATOM      7  C   UNL     1     -10.870  -5.904  11.261  1.00  0.00     0.041 C 
ATOM      8  O   UNL     1      -9.959  -5.778  12.121  1.00  0.00    -0.550 OA
ATOM      9  O   UNL     1     -10.578  -6.462  10.023  1.00  0.00    -0.550 OA
ENDBRANCH   6   7
ENDBRANCH   5   6
ENDBRANCH   4   5
ENDBRANCH   3   4
ENDBRANCH   2   3
ENDBRANCH   1   2
BRANCH   1  10
ATOM     10  C   UNL     1     -10.173  -8.508  16.371  1.00  0.00     0.027 C 
BRANCH  10  11
ATOM     11  C   UNL     1     -11.461  -8.429  17.155  1.00  0.00    -0.031 C 
ATOM     12  C   UNL     1     -11.576  -7.794  18.336  1.00  0.00    -0.031 C 
BRANCH  12  13
ATOM     13  C   UNL     1     -10.435  -7.114  19.051  1.00  0.00     0.027 C 
BRANCH  13  14
ATOM     14  C   UNL     1     -10.363  -5.605  18.741  1.00  0.00     0.004 C 
BRANCH  14  15
ATOM     15  C   UNL     1      -9.505  -5.264  17.510  1.00  0.00     0.000 C 
BRANCH  15  16
ATOM     16  C   UNL     1     -10.056  -4.073  16.708  1.00  0.00    -0.000 C 
BRANCH  16  17
ATOM     17  C   UNL     1     -10.690  -4.504  15.376  1.00  0.00    -0.003 C 
ATOM     18  C   UNL     1     -11.851  -3.603  14.956  1.00  0.00     0.004 C 
ENDBRANCH  16  17
ENDBRANCH  15  16
ENDBRANCH  14  15
ENDBRANCH  13  14
ENDBRANCH  12  13
ENDBRANCH  10  11
ENDBRANCH   1  10
TORSDOF 13
ENDMDL
MODEL 3
REMARK VINA RESULT:    -4.209      1.787      3.943
REMARK INTER + INTRA:          -8.710
REMARK INTER:                  -7.219
REMARK INTRA:                  -1.491
REMARK UNBOUND:                -1.302
REMARK SMILES CCCCCCC=CCCCCCCCC(=O)[O-]
REMARK SMILES IDX 10 1 11 2 12 3 13 4 14 5 15 6 16 7 17 8 18 9 9 10 8 11 7 12
REMARK SMILES IDX 6 13 5 14 4 15 3 16 2 17 1 18
REMARK H PARENT
REMARK Flexibility Score: inf
ROOT
ATOM      1  C   UNL     1     -13.009  -8.335  12.658  1.00  0.00     0.004 C 
ENDROOT
BRANCH   1   2
ATOM      2  C   UNL     1     -11.753  -8.445  13.540  1.00  0.00     0.000 C 
BRANCH   2   3
ATOM      3  C   UNL     1     -12.007  -8.355  15.057  1.00  0.00     0.000 C 
BRANCH   3   4
ATOM      4  C   UNL     1     -10.732  -8.044  15.860  1.00  0.00     0.000 C 
BRANCH   4   5
ATOM      5  C   UNL     1     -10.725  -8.722  17.238  1.00  0.00     0.006 C 
BRANCH   5   6
ATOM      6  C   UNL     1     -11.633  -8.013  18.250  1.00  0.00     0.053 C 
BRANCH   6   7
ATOM      7  C   UNL     1     -10.840  -7.562  19.437  1.00  0.00     0.041 C 
ATOM      8  O   UNL     1     -10.161  -6.503  19.380  1.00  0.00    -0.550 OA
ATOM      9  O   UNL     1     -10.815  -8.335  20.590  1.00  0.00    -0.550 OA
ENDBRANCH   6   7
ENDBRANCH   5   6
ENDBRANCH   4   5
ENDBRANCH   3   4
ENDBRANCH   2   3
ENDBRANCH   1   2
BRANCH   1  10
ATOM     10  C   UNL     1     -12.688  -7.974  11.200  1.00  0.00     0.027 C 
BRANCH  10  11
ATOM     11  C   UNL     1     -11.497  -7.051  11.118  1.00  0.00    -0.031 C 
ATOM     12  C   UNL     1     -11.566  -5.725  11.332  1.00  0.00    -0.031 C 
BRANCH  12  13
ATOM     13  C   UNL     1     -12.840  -4.978  11.641  1.00  0.00     0.027 C 
BRANCH  13  14
ATOM     14  C   UNL     1     -12.959  -4.611  13.134  1.00  0.00     0.004 C 
BRANCH  14  15
ATOM     15  C   UNL     1     -11.668  -4.850  13.936  1.00  0.00     0.000 C 
BRANCH  15  16
ATOM     16  C   UNL     1     -11.458  -3.814  15.054  1.00  0.00    -0.000 C 
BRANCH  16  17
ATOM     17  C   UNL     1     -10.647  -4.376  16.232  1.00  0.00    -0.003 C 
ATOM     18  C   UNL     1      -9.444  -3.506  16.589  1.00  0.00     0.004 C 
ENDBRANCH  16  17
ENDBRANCH  15  16
ENDBRANCH  14  15
ENDBRANCH  13  14
ENDBRANCH  12  13
ENDBRANCH  10  11
ENDBRANCH   1  10
TORSDOF 13
ENDMDL
MODEL 4
REMARK VINA RESULT:    -4.095     13.660     16.004
REMARK INTER + INTRA:          -8.509
REMARK INTER:                  -6.742
REMARK INTRA:                  -1.767
REMARK UNBOUND:                -1.302
REMARK SMILES CCCCCCC=CCCCCCCCC(=O)[O-]
REMARK SMILES IDX 10 1 11 2 12 3 13 4 14 5 15 6 16 7 17 8 18 9 9 10 8 11 7 12
REMARK SMILES IDX 6 13 5 14 4 15 3 16 2 17 1 18
REMARK H PARENT
REMARK Flexibility Score: inf
ROOT
ATOM      1  C   UNL     1      -1.495   5.270  13.541  1.00  0.00     0.004 C 
ENDROOT
BRANCH   1   2
ATOM      2  C   UNL     1      -2.858   5.185  14.250  1.00  0.00     0.000 C 
BRANCH   2   3
ATOM      3  C   UNL     1      -3.429   3.763  14.405  1.00  0.00     0.000 C 
BRANCH   3   4
ATOM      4  C   UNL     1      -4.096   3.243  13.118  1.00  0.00     0.000 C 
BRANCH   4   5
ATOM      5  C   UNL     1      -3.207   2.246  12.358  1.00  0.00     0.006 C 
BRANCH   5   6
ATOM      6  C   UNL     1      -3.876   1.709  11.086  1.00  0.00     0.053 C 
BRANCH   6   7
ATOM      7  C   UNL     1      -2.908   1.717   9.944  1.00  0.00     0.041 C 
ATOM      8  O   UNL     1      -3.323   1.595   8.761  1.00  0.00    -0.550 OA
ATOM      9  O   UNL     1      -1.544   1.812  10.191  1.00  0.00    -0.550 OA
ENDBRANCH   6   7
ENDBRANCH   5   6
ENDBRANCH   4   5
ENDBRANCH   3   4
ENDBRANCH   2   3
ENDBRANCH   1   2
BRANCH   1  10
ATOM     10  C   UNL     1      -0.531   4.150  13.957  1.00  0.00     0.027 C 
BRANCH  10  11
ATOM     11  C   UNL     1       0.827   4.705  14.313  1.00  0.00    -0.031 C 
ATOM     12  C   UNL     1       1.389   4.575  15.529  1.00  0.00    -0.031 C 
BRANCH  12  13
ATOM     13  C   UNL     1       0.728   3.898  16.704  1.00  0.00     0.027 C 
BRANCH  13  14
ATOM     14  C   UNL     1       1.238   2.458  16.917  1.00  0.00     0.004 C 
BRANCH  14  15
ATOM     15  C   UNL     1       0.143   1.471  17.356  1.00  0.00     0.000 C 
BRANCH  15  16
ATOM     16  C   UNL     1      -1.178   1.664  16.592  1.00  0.00    -0.000 C 
BRANCH  16  17
ATOM     17  C   UNL     1      -1.205   0.899  15.260  1.00  0.00    -0.003 C 
ATOM     18  C   UNL     1      -2.090  -0.346  15.313  1.00  0.00     0.004 C 
ENDBRANCH  16  17
ENDBRANCH  15  16
ENDBRANCH  14  15
ENDBRANCH  13  14
ENDBRANCH  12  13
ENDBRANCH  10  11
ENDBRANCH   1  10
TORSDOF 13
ENDMDL
MODEL 5
REMARK VINA RESULT:    -4.090      2.686      7.240
REMARK INTER + INTRA:          -8.501
REMARK INTER:                  -6.902
REMARK INTRA:                  -1.599
REMARK UNBOUND:                -1.302
REMARK SMILES CCCCCCC=CCCCCCCCC(=O)[O-]
REMARK SMILES IDX 10 1 11 2 12 3 13 4 14 5 15 6 16 7 17 8 18 9 9 10 8 11 7 12
REMARK SMILES IDX 6 13 5 14 4 15 3 16 2 17 1 18
REMARK H PARENT
REMARK Flexibility Score: inf
ROOT
ATOM      1  C   UNL     1     -10.513  -8.236  15.127  1.00  0.00     0.004 C 
ENDROOT
BRANCH   1   2
ATOM      2  C   UNL     1     -12.001  -8.351  14.754  1.00  0.00     0.000 C 
BRANCH   2   3
ATOM      3  C   UNL     1     -12.285  -8.595  13.260  1.00  0.00     0.000 C 
BRANCH   3   4
ATOM      4  C   UNL     1     -13.056  -7.437  12.601  1.00  0.00     0.000 C 
BRANCH   4   5
ATOM      5  C   UNL     1     -12.177  -6.196  12.381  1.00  0.00     0.006 C 
BRANCH   5   6
ATOM      6  C   UNL     1     -12.607  -5.006  13.247  1.00  0.00     0.053 C 
BRANCH   6   7
ATOM      7  C   UNL     1     -11.486  -4.578  14.141  1.00  0.00     0.041 C 
ATOM      8  O   UNL     1     -10.316  -4.998  13.935  1.00  0.00    -0.550 OA
ATOM      9  O   UNL     1     -11.740  -3.751  15.228  1.00  0.00    -0.550 OA
ENDBRANCH   6   7
ENDBRANCH   5   6
ENDBRANCH   4   5
ENDBRANCH   3   4
ENDBRANCH   2   3
ENDBRANCH   1   2
BRANCH   1  10
ATOM     10  C   UNL     1     -10.261  -8.358  16.637  1.00  0.00     0.027 C 
BRANCH  10  11
ATOM     11  C   UNL     1     -11.553  -8.270  17.412  1.00  0.00    -0.031 C 
ATOM     12  C   UNL     1     -11.649  -8.521  18.731  1.00  0.00    -0.031 C 
BRANCH  12  13
ATOM     13  C   UNL     1     -10.495  -8.960  19.600  1.00  0.00     0.027 C 
BRANCH  13  14
ATOM     14  C   UNL     1     -10.535  -8.315  21.000  1.00  0.00     0.004 C 
BRANCH  14  15
ATOM     15  C   UNL     1      -9.258  -7.537  21.361  1.00  0.00     0.000 C 
BRANCH  15  16
ATOM     16  C   UNL     1      -8.743  -6.662  20.204  1.00  0.00    -0.000 C 
BRANCH  16  17
ATOM     17  C   UNL     1      -9.488  -5.323  20.103  1.00  0.00    -0.003 C 
ATOM     18  C   UNL     1     -10.140  -5.111  18.737  1.00  0.00     0.004 C 
ENDBRANCH  16  17
ENDBRANCH  15  16
ENDBRANCH  14  15
ENDBRANCH  13  14
ENDBRANCH  12  13
ENDBRANCH  10  11
ENDBRANCH   1  10
TORSDOF 13
ENDMDL
MODEL 6
REMARK VINA RESULT:    -4.062     17.306     18.166
REMARK INTER + INTRA:          -8.452
REMARK INTER:                  -6.610
REMARK INTRA:                  -1.842
REMARK UNBOUND:                -1.302
REMARK SMILES CCCCCCC=CCCCCCCCC(=O)[O-]
REMARK SMILES IDX 10 1 11 2 12 3 13 4 14 5 15 6 16 7 17 8 18 9 9 10 8 11 7 12
REMARK SMILES IDX 6 13 5 14 4 15 3 16 2 17 1 18
REMARK H PARENT
REMARK Flexibility Score: inf
ROOT
ATOM      1  C   UNL     1       5.369  -5.683  12.121  1.00  0.00     0.004 C 
ENDROOT
BRANCH   1   2
ATOM      2  C   UNL     1       6.626  -5.299  12.920  1.00  0.00     0.000 C 
BRANCH   2   3
ATOM      3  C   UNL     1       6.698  -5.876  14.346  1.00  0.00     0.000 C 
BRANCH   3   4
ATOM      4  C   UNL     1       6.237  -7.342  14.423  1.00  0.00     0.000 C 
BRANCH   4   5
ATOM      5  C   UNL     1       6.177  -7.865  15.866  1.00  0.00     0.006 C 
BRANCH   5   6
ATOM      6  C   UNL     1       7.006  -7.016  16.838  1.00  0.00     0.053 C 
BRANCH   6   7
ATOM      7  C   UNL     1       6.182  -6.626  18.025  1.00  0.00     0.041 C 
ATOM      8  O   UNL     1       5.166  -5.896  17.878  1.00  0.00    -0.550 OA
ATOM      9  O   UNL     1       6.562  -7.031  19.298  1.00  0.00    -0.550 OA
ENDBRANCH   6   7
ENDBRANCH   5   6
ENDBRANCH   4   5
ENDBRANCH   3   4
ENDBRANCH   2   3
ENDBRANCH   1   2
BRANCH   1  10
ATOM     10  C   UNL     1       5.550  -5.527  10.604  1.00  0.00     0.027 C 
BRANCH  10  11
ATOM     11  C   UNL     1       6.912  -4.966  10.274  1.00  0.00    -0.031 C 
ATOM     12  C   UNL     1       7.124  -3.686   9.917  1.00  0.00    -0.031 C 
BRANCH  12  13
ATOM     13  C   UNL     1       6.033  -2.655   9.759  1.00  0.00     0.027 C 
BRANCH  13  14
ATOM     14  C   UNL     1       5.817  -1.827  11.042  1.00  0.00     0.004 C 
BRANCH  14  15
ATOM     15  C   UNL     1       7.066  -1.728  11.934  1.00  0.00     0.000 C 
BRANCH  15  16
ATOM     16  C   UNL     1       6.725  -1.606  13.430  1.00  0.00    -0.000 C 
BRANCH  16  17
ATOM     17  C   UNL     1       5.222  -1.767  13.705  1.00  0.00    -0.003 C 
ATOM     18  C   UNL     1       4.934  -2.687  14.891  1.00  0.00     0.004 C 
ENDBRANCH  16  17
ENDBRANCH  15  16
ENDBRANCH  14  15
ENDBRANCH  13  14
ENDBRANCH  12  13
ENDBRANCH  10  11
ENDBRANCH   1  10
TORSDOF 13
ENDMDL
MODEL 7
REMARK VINA RESULT:    -4.050      1.535      2.145
REMARK INTER + INTRA:          -8.429
REMARK INTER:                  -6.901
REMARK INTRA:                  -1.528
REMARK UNBOUND:                -1.302
REMARK SMILES CCCCCCC=CCCCCCCCC(=O)[O-]
REMARK SMILES IDX 10 1 11 2 12 3 13 4 14 5 15 6 16 7 17 8 18 9 9 10 8 11 7 12
REMARK SMILES IDX 6 13 5 14 4 15 3 16 2 17 1 18
REMARK H PARENT
REMARK Flexibility Score: inf
ROOT
ATOM      1  C   UNL     1     -10.733  -8.598  17.234  1.00  0.00     0.004 C 
ENDROOT
BRANCH   1   2
ATOM      2  C   UNL     1     -11.591  -8.385  18.493  1.00  0.00     0.000 C 
BRANCH   2   3
ATOM      3  C   UNL     1     -10.959  -8.876  19.809  1.00  0.00     0.000 C 
BRANCH   3   4
ATOM      4  C   UNL     1      -9.634  -8.164  20.137  1.00  0.00     0.000 C 
BRANCH   4   5
ATOM      5  C   UNL     1      -9.849  -6.754  20.709  1.00  0.00     0.006 C 
BRANCH   5   6
ATOM      6  C   UNL     1      -8.889  -5.720  20.108  1.00  0.00     0.053 C 
BRANCH   6   7
ATOM      7  C   UNL     1      -9.644  -4.720  19.290  1.00  0.00     0.041 C 
ATOM      8  O   UNL     1      -9.338  -3.499  19.342  1.00  0.00    -0.550 OA
ATOM      9  O   UNL     1     -10.715  -5.130  18.506  1.00  0.00    -0.550 OA
ENDBRANCH   6   7
ENDBRANCH   5   6
ENDBRANCH   4   5
ENDBRANCH   3   4
ENDBRANCH   2   3
ENDBRANCH   1   2
BRANCH   1  10
ATOM     10  C   UNL     1     -11.368  -8.007  15.967  1.00  0.00     0.027 C 
BRANCH  10  11
ATOM     11  C   UNL     1     -10.562  -8.359  14.740  1.00  0.00    -0.031 C 
ATOM     12  C   UNL     1     -11.092  -8.472  13.508  1.00  0.00    -0.031 C 
BRANCH  12  13
ATOM     13  C   UNL     1     -12.559  -8.306  13.194  1.00  0.00     0.027 C 
BRANCH  13  14
ATOM     14  C   UNL     1     -12.808  -7.262  12.086  1.00  0.00     0.004 C 
BRANCH  14  15
ATOM     15  C   UNL     1     -12.054  -5.939  12.300  1.00  0.00     0.000 C 
BRANCH  15  16
ATOM     16  C   UNL     1     -12.808  -4.962  13.218  1.00  0.00    -0.000 C 
BRANCH  16  17
ATOM     17  C   UNL     1     -11.917  -4.403  14.339  1.00  0.00    -0.003 C 
ATOM     18  C   UNL     1     -10.450  -4.795  14.178  1.00  0.00     0.004 C 
ENDBRANCH  16  17
ENDBRANCH  15  16
ENDBRANCH  14  15
ENDBRANCH  13  14
ENDBRANCH  12  13
ENDBRANCH  10  11
ENDBRANCH   1  10
TORSDOF 13
ENDMDL
MODEL 8
REMARK VINA RESULT:    -4.037     16.756     17.767
REMARK INTER + INTRA:          -8.407
REMARK INTER:                  -6.577
REMARK INTRA:                  -1.830
REMARK UNBOUND:                -1.302
REMARK SMILES CCCCCCC=CCCCCCCCC(=O)[O-]
REMARK SMILES IDX 10 1 11 2 12 3 13 4 14 5 15 6 16 7 17 8 18 9 9 10 8 11 7 12
REMARK SMILES IDX 6 13 5 14 4 15 3 16 2 17 1 18
REMARK H PARENT
REMARK Flexibility Score: inf
ROOT
ATOM      1  C   UNL     1       5.415  -4.850  12.301  1.00  0.00     0.004 C 
ENDROOT
BRANCH   1   2
ATOM      2  C   UNL     1       5.403  -6.138  13.143  1.00  0.00     0.000 C 
BRANCH   2   3
ATOM      3  C   UNL     1       6.647  -6.357  14.024  1.00  0.00     0.000 C 
BRANCH   3   4
ATOM      4  C   UNL     1       6.680  -7.750  14.679  1.00  0.00     0.000 C 
BRANCH   4   5
ATOM      5  C   UNL     1       6.104  -7.744  16.103  1.00  0.00     0.006 C 
BRANCH   5   6
ATOM      6  C   UNL     1       6.967  -6.944  17.087  1.00  0.00     0.053 C 
BRANCH   6   7
ATOM      7  C   UNL     1       6.253  -6.777  18.392  1.00  0.00     0.041 C 
ATOM      8  O   UNL     1       5.954  -7.786  19.084  1.00  0.00    -0.550 OA
ATOM      9  O   UNL     1       5.876  -5.510  18.820  1.00  0.00    -0.550 OA
ENDBRANCH   6   7
ENDBRANCH   5   6
ENDBRANCH   4   5
ENDBRANCH   3   4
ENDBRANCH   2   3
ENDBRANCH   1   2
BRANCH   1  10
ATOM     10  C   UNL     1       6.769  -4.127  12.330  1.00  0.00     0.027 C 
BRANCH  10  11
ATOM     11  C   UNL     1       6.741  -2.887  11.469  1.00  0.00    -0.031 C 
ATOM     12  C   UNL     1       6.624  -1.641  11.962  1.00  0.00    -0.031 C 
BRANCH  12  13
ATOM     13  C   UNL     1       6.464  -1.316  13.427  1.00  0.00     0.027 C 
BRANCH  13  14
ATOM     14  C   UNL     1       5.059  -0.773  13.758  1.00  0.00     0.004 C 
BRANCH  14  15
ATOM     15  C   UNL     1       3.914  -1.621  13.180  1.00  0.00     0.000 C 
BRANCH  15  16
ATOM     16  C   UNL     1       3.271  -2.550  14.225  1.00  0.00    -0.000 C 
BRANCH  16  17
ATOM     17  C   UNL     1       3.971  -2.474  15.590  1.00  0.00    -0.003 C 
ATOM     18  C   UNL     1       4.756  -3.741  15.922  1.00  0.00     0.004 C 
ENDBRANCH  16  17
ENDBRANCH  15  16
ENDBRANCH  14  15
ENDBRANCH  13  14
ENDBRANCH  12  13
ENDBRANCH  10  11
ENDBRANCH   1  10
TORSDOF 13
ENDMDL
MODEL 9
REMARK VINA RESULT:    -3.966     11.924     13.648
REMARK INTER + INTRA:          -8.282
REMARK INTER:                  -6.810
REMARK INTRA:                  -1.471
REMARK UNBOUND:                -1.302
REMARK SMILES CCCCCCC=CCCCCCCCC(=O)[O-]
REMARK SMILES IDX 10 1 11 2 12 3 13 4 14 5 15 6 16 7 17 8 18 9 9 10 8 11 7 12
REMARK SMILES IDX 6 13 5 14 4 15 3 16 2 17 1 18
REMARK H PARENT
REMARK Flexibility Score: inf
ROOT
ATOM      1  C   UNL     1      -3.431   1.606  16.471  1.00  0.00     0.004 C 
ENDROOT
BRANCH   1   2
ATOM      2  C   UNL     1      -4.450   0.991  17.446  1.00  0.00     0.000 C 
BRANCH   2   3
ATOM      3  C   UNL     1      -4.602   1.731  18.788  1.00  0.00     0.000 C 
BRANCH   3   4
ATOM      4  C   UNL     1      -6.072   1.978  19.171  1.00  0.00     0.000 C 
BRANCH   4   5
ATOM      5  C   UNL     1      -6.235   3.148  20.155  1.00  0.00     0.006 C 
BRANCH   5   6
ATOM      6  C   UNL     1      -6.528   2.680  21.586  1.00  0.00     0.053 C 
BRANCH   6   7
ATOM      7  C   UNL     1      -5.299   2.790  22.433  1.00  0.00     0.041 C 
ATOM      8  O   UNL     1      -4.267   3.353  21.981  1.00  0.00    -0.550 OA
ATOM      9  O   UNL     1      -5.278   2.228  23.703  1.00  0.00    -0.550 OA
ENDBRANCH   6   7
ENDBRANCH   5   6
ENDBRANCH   4   5
ENDBRANCH   3   4
ENDBRANCH   2   3
ENDBRANCH   1   2
BRANCH   1  10
ATOM     10  C   UNL     1      -2.172   2.136  17.173  1.00  0.00     0.027 C 
BRANCH  10  11
ATOM     11  C   UNL     1      -2.168   3.645  17.217  1.00  0.00    -0.031 C 
ATOM     12  C   UNL     1      -1.097   4.396  16.903  1.00  0.00    -0.031 C 
BRANCH  12  13
ATOM     13  C   UNL     1       0.247   3.838  16.505  1.00  0.00     0.027 C 
BRANCH  13  14
ATOM     14  C   UNL     1       0.366   3.622  14.983  1.00  0.00     0.004 C 
BRANCH  14  15
ATOM     15  C   UNL     1      -0.653   4.428  14.160  1.00  0.00     0.000 C 
BRANCH  15  16
ATOM     16  C   UNL     1      -1.673   3.536  13.432  1.00  0.00    -0.000 C 
BRANCH  16  17
ATOM     17  C   UNL     1      -3.118   4.028  13.612  1.00  0.00    -0.003 C 
ATOM     18  C   UNL     1      -3.195   5.500  14.011  1.00  0.00     0.004 C 
ENDBRANCH  16  17
ENDBRANCH  15  16
ENDBRANCH  14  15
ENDBRANCH  13  14
ENDBRANCH  12  13
ENDBRANCH  10  11
ENDBRANCH   1  10
TORSDOF 13
ENDMDL
