MODEL 1
REMARK VINA RESULT:    -2.900      0.000      0.000
REMARK INTER + INTRA:          -3.651
REMARK INTER:                  -3.578
REMARK INTRA:                  -0.073
REMARK UNBOUND:                -0.073
REMARK SMILES CCCCCC(=O)[O-]
REMARK SMILES IDX 4 1 5 2 6 3 7 4 8 5 3 6 2 7 1 8
REMARK H PARENT
REMARK Flexibility Score: inf
ROOT
ATOM      1  C   UNL     1     -99.361  68.917  25.058  1.00  0.00     0.006 C 
ENDROOT
BRANCH   1   2
ATOM      2  C   UNL     1     -99.209  69.144  26.569  1.00  0.00     0.053 C 
BRANCH   2   3
ATOM      3  C   UNL     1    -100.468  68.815  27.310  1.00  0.00     0.041 C 
ATOM      4  O   UNL     1    -100.414  68.216  28.416  1.00  0.00    -0.550 OA
ATOM      5  O   UNL     1    -101.700  69.200  26.795  1.00  0.00    -0.550 OA
ENDBRANCH   2   3
ENDBRANCH   1   2
BRANCH   1   6
ATOM      6  C   UNL     1     -99.114  70.200  24.250  1.00  0.00     0.000 C 
BRANCH   6   7
ATOM      7  C   UNL     1     -98.945  69.885  22.759  1.00  0.00    -0.003 C 
ATOM      8  C   UNL     1     -98.074  70.931  22.070  1.00  0.00     0.004 C 
ENDBRANCH   6   7
ENDBRANCH   1   6
TORSDOF 4
ENDMDL
MODEL 2
REMARK VINA RESULT:    -2.889      1.203      1.508
REMARK INTER + INTRA:          -3.638
REMARK INTER:                  -3.543
REMARK INTRA:                  -0.095
REMARK UNBOUND:                -0.073
REMARK SMILES CCCCCC(=O)[O-]
REMARK SMILES IDX 4 1 5 2 6 3 7 4 8 5 3 6 2 7 1 8
REMARK H PARENT
REMARK Flexibility Score: inf
ROOT
ATOM      1  C   UNL     1     -99.803  69.123  25.764  1.00  0.00     0.006 C 
ENDROOT
BRANCH   1   2
ATOM      2  C   UNL     1     -98.786  69.394  26.881  1.00  0.00     0.053 C 
BRANCH   2   3
ATOM      3  C   UNL     1     -99.207  68.774  28.178  1.00  0.00     0.041 C 
ATOM      4  O   UNL     1     -98.371  68.619  29.107  1.00  0.00    -0.550 OA
ATOM      5  O   UNL     1    -100.529  68.397  28.373  1.00  0.00    -0.550 OA
ENDBRANCH   2   3
ENDBRANCH   1   2
BRANCH   1   6
ATOM      6  C   UNL     1     -99.148  68.509  24.517  1.00  0.00     0.000 C 
BRANCH   6   7
ATOM      7  C   UNL     1     -99.657  69.187  23.240  1.00  0.00    -0.003 C 
ATOM      8  C   UNL     1     -98.681  70.255  22.756  1.00  0.00     0.004 C 
ENDBRANCH   6   7
ENDBRANCH   1   6
TORSDOF 4
ENDMDL
MODEL 3
REMARK VINA RESULT:    -2.858      1.397      2.197
REMARK INTER + INTRA:          -3.599
REMARK INTER:                  -3.368
REMARK INTRA:                  -0.230
REMARK UNBOUND:                -0.073
REMARK SMILES CCCCCC(=O)[O-]
REMARK SMILES IDX 4 1 5 2 6 3 7 4 8 5 3 6 2 7 1 8
REMARK H PARENT
REMARK Flexibility Score: inf
ROOT
ATOM      1  C   UNL     1     -99.421  70.824  25.453  1.00  0.00     0.006 C 
ENDROOT
BRANCH   1   2
ATOM      2  C   UNL     1     -98.589  70.507  26.703  1.00  0.00     0.053 C 
BRANCH   2   3
ATOM      3  C   UNL     1     -99.083  69.278  27.403  1.00  0.00     0.041 C 
ATOM      4  O   UNL     1    -100.224  68.815  27.140  1.00  0.00    -0.550 OA
ATOM      5  O   UNL     1     -98.271  68.627  28.322  1.00  0.00    -0.550 OA
ENDBRANCH   2   3
ENDBRANCH   1   2
BRANCH   1   6
ATOM      6  C   UNL     1     -98.674  70.486  24.154  1.00  0.00     0.000 C 
BRANCH   6   7
ATOM      7  C   UNL     1     -99.407  69.393  23.368  1.00  0.00    -0.003 C 
ATOM      8  C   UNL     1     -99.060  68.005  23.898  1.00  0.00     0.004 C 
ENDBRANCH   6   7
ENDBRANCH   1   6
TORSDOF 4
ENDMDL
MODEL 4
REMARK VINA RESULT:    -2.854      2.661      4.633
REMARK INTER + INTRA:          -3.595
REMARK INTER:                  -3.486
REMARK INTRA:                  -0.109
REMARK UNBOUND:                -0.073
REMARK SMILES CCCCCC(=O)[O-]
REMARK SMILES IDX 4 1 5 2 6 3 7 4 8 5 3 6 2 7 1 8
REMARK H PARENT
REMARK Flexibility Score: inf
ROOT
ATOM      1  C   UNL     1    -100.585  68.950  26.499  1.00  0.00     0.006 C 
ENDROOT
BRANCH   1   2
ATOM      2  C   UNL     1     -99.223  69.043  25.799  1.00  0.00     0.053 C 
BRANCH   2   3
ATOM      3  C   UNL     1     -99.334  68.775  24.329  1.00  0.00     0.041 C 
ATOM      4  O   UNL     1     -98.939  67.678  23.853  1.00  0.00    -0.550 OA
ATOM      5  O   UNL     1     -99.903  69.724  23.490  1.00  0.00    -0.550 OA
ENDBRANCH   2   3
ENDBRANCH   1   2
BRANCH   1   6
ATOM      6  C   UNL     1    -100.450  68.620  27.994  1.00  0.00     0.000 C 
BRANCH   6   7
ATOM      7  C   UNL     1     -98.998  68.771  28.460  1.00  0.00    -0.003 C 
ATOM      8  C   UNL     1     -98.720  67.909  29.688  1.00  0.00     0.004 C 
ENDBRANCH   6   7
ENDBRANCH   1   6
TORSDOF 4
ENDMDL
MODEL 5
REMARK VINA RESULT:    -2.820      9.562     10.927
REMARK INTER + INTRA:          -3.552
REMARK INTER:                  -3.414
REMARK INTRA:                  -0.139
REMARK UNBOUND:                -0.073
REMARK SMILES CCCCCC(=O)[O-]
REMARK SMILES IDX 4 1 5 2 6 3 7 4 8 5 3 6 2 7 1 8
REMARK H PARENT
REMARK Flexibility Score: inf
ROOT
ATOM      1  C   UNL     1    -100.842  63.335  34.015  1.00  0.00     0.006 C 
ENDROOT
BRANCH   1   2
ATOM      2  C   UNL     1     -99.753  64.261  34.574  1.00  0.00     0.053 C 
BRANCH   2   3
ATOM      3  C   UNL     1     -98.837  64.756  33.497  1.00  0.00     0.041 C 
ATOM      4  O   UNL     1     -97.900  65.549  33.778  1.00  0.00    -0.550 OA
ATOM      5  O   UNL     1     -98.998  64.316  32.190  1.00  0.00    -0.550 OA
ENDBRANCH   2   3
ENDBRANCH   1   2
BRANCH   1   6
ATOM      6  C   UNL     1    -100.569  61.857  34.333  1.00  0.00     0.000 C 
BRANCH   6   7
ATOM      7  C   UNL     1    -100.409  61.040  33.046  1.00  0.00    -0.003 C 
ATOM      8  C   UNL     1    -101.745  60.458  32.593  1.00  0.00     0.004 C 
ENDBRANCH   6   7
ENDBRANCH   1   6
TORSDOF 4
ENDMDL
MODEL 6
REMARK VINA RESULT:    -2.793     13.386     13.840
REMARK INTER + INTRA:          -3.518
REMARK INTER:                  -3.293
REMARK INTRA:                  -0.225
REMARK UNBOUND:                -0.073
REMARK SMILES CCCCCC(=O)[O-]
REMARK SMILES IDX 4 1 5 2 6 3 7 4 8 5 3 6 2 7 1 8
REMARK H PARENT
REMARK Flexibility Score: inf
ROOT
ATOM      1  C   UNL     1     -96.047  56.605  20.651  1.00  0.00     0.006 C 
ENDROOT
BRANCH   1   2
ATOM      2  C   UNL     1     -97.196  57.303  21.392  1.00  0.00     0.053 C 
BRANCH   2   3
ATOM      3  C   UNL     1     -97.507  58.643  20.799  1.00  0.00     0.041 C 
ATOM      4  O   UNL     1     -97.602  58.776  19.550  1.00  0.00    -0.550 OA
ATOM      5  O   UNL     1     -97.723  59.738  21.626  1.00  0.00    -0.550 OA
ENDBRANCH   2   3
ENDBRANCH   1   2
BRANCH   1   6
ATOM      6  C   UNL     1     -96.476  55.255  20.055  1.00  0.00     0.000 C 
BRANCH   6   7
ATOM      7  C   UNL     1     -96.672  55.363  18.539  1.00  0.00    -0.003 C 
ATOM      8  C   UNL     1     -95.692  56.358  17.925  1.00  0.00     0.004 C 
ENDBRANCH   6   7
ENDBRANCH   1   6
TORSDOF 4
ENDMDL
MODEL 7
REMARK VINA RESULT:    -2.788     10.050     10.806
REMARK INTER + INTRA:          -3.512
REMARK INTER:                  -3.458
REMARK INTRA:                  -0.055
REMARK UNBOUND:                -0.073
REMARK SMILES CCCCCC(=O)[O-]
REMARK SMILES IDX 4 1 5 2 6 3 7 4 8 5 3 6 2 7 1 8
REMARK H PARENT
REMARK Flexibility Score: inf
ROOT
ATOM      1  C   UNL     1    -100.062  63.599  33.603  1.00  0.00     0.006 C 
ENDROOT
BRANCH   1   2
ATOM      2  C   UNL     1    -100.681  62.493  34.468  1.00  0.00     0.053 C 
BRANCH   2   3
ATOM      3  C   UNL     1    -102.071  62.153  34.026  1.00  0.00     0.041 C 
ATOM      4  O   UNL     1    -103.049  62.837  34.430  1.00  0.00    -0.550 OA
ATOM      5  O   UNL     1    -102.285  61.102  33.144  1.00  0.00    -0.550 OA
ENDBRANCH   2   3
ENDBRANCH   1   2
BRANCH   1   6
ATOM      6  C   UNL     1     -99.389  64.691  34.448  1.00  0.00     0.000 C 
BRANCH   6   7
ATOM      7  C   UNL     1     -98.208  65.316  33.698  1.00  0.00    -0.003 C 
ATOM      8  C   UNL     1     -97.476  66.333  34.569  1.00  0.00     0.004 C 
ENDBRANCH   6   7
ENDBRANCH   1   6
TORSDOF 4
ENDMDL
MODEL 8
REMARK VINA RESULT:    -2.747     13.529     14.302
REMARK INTER + INTRA:          -3.462
REMARK INTER:                  -3.264
REMARK INTRA:                  -0.199
REMARK UNBOUND:                -0.073
REMARK SMILES CCCCCC(=O)[O-]
REMARK SMILES IDX 4 1 5 2 6 3 7 4 8 5 3 6 2 7 1 8
REMARK H PARENT
REMARK Flexibility Score: inf
ROOT
ATOM      1  C   UNL     1     -95.780  56.349  21.318  1.00  0.00     0.006 C 
ENDROOT
BRANCH   1   2
ATOM      2  C   UNL     1     -96.343  56.767  19.952  1.00  0.00     0.053 C 
BRANCH   2   3
ATOM      3  C   UNL     1     -97.222  57.975  20.059  1.00  0.00     0.041 C 
ATOM      4  O   UNL     1     -97.382  58.732  19.065  1.00  0.00    -0.550 OA
ATOM      5  O   UNL     1     -97.889  58.248  21.246  1.00  0.00    -0.550 OA
ENDBRANCH   2   3
ENDBRANCH   1   2
BRANCH   1   6
ATOM      6  C   UNL     1     -96.412  55.047  21.833  1.00  0.00     0.000 C 
BRANCH   6   7
ATOM      7  C   UNL     1     -97.104  55.269  23.182  1.00  0.00    -0.003 C 
ATOM      8  C   UNL     1     -98.608  55.035  23.075  1.00  0.00     0.004 C 
ENDBRANCH   6   7
ENDBRANCH   1   6
TORSDOF 4
ENDMDL
MODEL 9
REMARK VINA RESULT:    -2.745     10.671     11.662
REMARK INTER + INTRA:          -3.460
REMARK INTER:                  -3.338
REMARK INTRA:                  -0.121
REMARK UNBOUND:                -0.073
REMARK SMILES CCCCCC(=O)[O-]
REMARK SMILES IDX 4 1 5 2 6 3 7 4 8 5 3 6 2 7 1 8
REMARK H PARENT
REMARK Flexibility Score: inf
ROOT
ATOM      1  C   UNL     1    -100.501  62.410  33.630  1.00  0.00     0.006 C 
ENDROOT
BRANCH   1   2
ATOM      2  C   UNL     1    -100.498  60.909  33.308  1.00  0.00     0.053 C 
BRANCH   2   3
ATOM      3  C   UNL     1    -101.741  60.494  32.582  1.00  0.00     0.041 C 
ATOM      4  O   UNL     1    -102.854  60.511  33.171  1.00  0.00    -0.550 OA
ATOM      5  O   UNL     1    -101.675  60.120  31.246  1.00  0.00    -0.550 OA
ENDBRANCH   2   3
ENDBRANCH   1   2
BRANCH   1   6
ATOM      6  C   UNL     1    -100.647  62.681  35.135  1.00  0.00     0.000 C 
BRANCH   6   7
ATOM      7  C   UNL     1     -99.897  63.955  35.539  1.00  0.00    -0.003 C 
ATOM      8  C   UNL     1     -99.359  64.690  34.314  1.00  0.00     0.004 C 
ENDBRANCH   6   7
ENDBRANCH   1   6
TORSDOF 4
ENDMDL
