MODEL 1
REMARK VINA RESULT:    -4.407      0.000      0.000
REMARK INTER + INTRA:          -7.406
REMARK INTER:                  -6.726
REMARK INTRA:                  -0.680
REMARK UNBOUND:                -0.680
REMARK SMILES CCCCCCCCCCC(=O)[O-]
REMARK SMILES IDX 7 1 8 2 9 3 10 4 11 5 12 6 13 7 6 8 5 9 4 10 3 11 2 12 1 13
REMARK H PARENT
REMARK Flexibility Score: inf
ROOT
ATOM      1  C   UNL     1      28.975  28.141 -16.643  1.00  0.00     0.000 C 
ENDROOT
BRANCH   1   2
ATOM      2  C   UNL     1      28.653  29.366 -17.514  1.00  0.00     0.000 C 
BRANCH   2   3
ATOM      3  C   UNL     1      27.162  29.739 -17.481  1.00  0.00     0.006 C 
BRANCH   3   4
ATOM      4  C   UNL     1      26.523  29.697 -18.875  1.00  0.00     0.053 C 
BRANCH   4   5
ATOM      5  C   UNL     1      26.641  31.013 -19.583  1.00  0.00     0.041 C 
ATOM      6  O   UNL     1      25.956  31.999 -19.203  1.00  0.00    -0.550 OA
ATOM      7  O   UNL     1      27.482  31.140 -20.681  1.00  0.00    -0.550 OA
ENDBRANCH   4   5
ENDBRANCH   3   4
ENDBRANCH   2   3
ENDBRANCH   1   2
BRANCH   1   8
ATOM      8  C   UNL     1      27.796  27.155 -16.548  1.00  0.00     0.000 C 
BRANCH   8   9
ATOM      9  C   UNL     1      28.222  25.702 -16.809  1.00  0.00    -0.000 C 
BRANCH   9  10
ATOM     10  C   UNL     1      27.149  24.901 -17.567  1.00  0.00    -0.000 C 
BRANCH  10  11
ATOM     11  C   UNL     1      26.516  25.701 -18.717  1.00  0.00    -0.000 C 
BRANCH  11  12
ATOM     12  C   UNL     1      25.987  24.799 -19.841  1.00  0.00    -0.003 C 
ATOM     13  C   UNL     1      27.127  24.058 -20.534  1.00  0.00     0.004 C 
ENDBRANCH  11  12
ENDBRANCH  10  11
ENDBRANCH   9  10
ENDBRANCH   8   9
ENDBRANCH   1   8
TORSDOF 9
ENDMDL
MODEL 2
REMARK VINA RESULT:    -4.088      3.013      5.522
REMARK INTER + INTRA:          -6.920
REMARK INTER:                  -6.284
REMARK INTRA:                  -0.636
REMARK UNBOUND:                -0.680
REMARK SMILES CCCCCCCCCCC(=O)[O-]
REMARK SMILES IDX 7 1 8 2 9 3 10 4 11 5 12 6 13 7 6 8 5 9 4 10 3 11 2 12 1 13
REMARK H PARENT
REMARK Flexibility Score: inf
ROOT
ATOM      1  C   UNL     1      27.988  25.776 -16.835  1.00  0.00     0.000 C 
ENDROOT
BRANCH   1   2
ATOM      2  C   UNL     1      29.341  25.443 -17.485  1.00  0.00     0.000 C 
BRANCH   2   3
ATOM      3  C   UNL     1      29.273  24.197 -18.384  1.00  0.00     0.006 C 
BRANCH   3   4
ATOM      4  C   UNL     1      27.853  23.624 -18.474  1.00  0.00     0.053 C 
BRANCH   4   5
ATOM      5  C   UNL     1      27.248  23.842 -19.827  1.00  0.00     0.041 C 
ATOM      6  O   UNL     1      27.598  23.124 -20.800  1.00  0.00    -0.550 OA
ATOM      7  O   UNL     1      26.322  24.859 -20.021  1.00  0.00    -0.550 OA
ENDBRANCH   4   5
ENDBRANCH   3   4
ENDBRANCH   2   3
ENDBRANCH   1   2
BRANCH   1   8
ATOM      8  C   UNL     1      27.895  27.244 -16.380  1.00  0.00     0.000 C 
BRANCH   8   9
ATOM      9  C   UNL     1      29.109  28.075 -16.823  1.00  0.00    -0.000 C 
BRANCH   9  10
ATOM     10  C   UNL     1      28.707  29.323 -17.627  1.00  0.00    -0.000 C 
BRANCH  10  11
ATOM     11  C   UNL     1      27.224  29.689 -17.449  1.00  0.00    -0.000 C 
BRANCH  11  12
ATOM     12  C   UNL     1      26.579  30.184 -18.751  1.00  0.00    -0.003 C 
ATOM     13  C   UNL     1      27.635  30.696 -19.727  1.00  0.00     0.004 C 
ENDBRANCH  11  12
ENDBRANCH  10  11
ENDBRANCH   9  10
ENDBRANCH   8   9
ENDBRANCH   1   8
TORSDOF 9
ENDMDL
MODEL 3
REMARK VINA RESULT:    -3.959      3.402      5.578
REMARK INTER + INTRA:          -6.723
REMARK INTER:                  -5.755
REMARK INTRA:                  -0.968
REMARK UNBOUND:                -0.680
REMARK SMILES CCCCCCCCCCC(=O)[O-]
REMARK SMILES IDX 7 1 8 2 9 3 10 4 11 5 12 6 13 7 6 8 5 9 4 10 3 11 2 12 1 13
REMARK H PARENT
REMARK Flexibility Score: inf
ROOT
ATOM      1  C   UNL     1      27.838  27.315 -16.795  1.00  0.00     0.000 C 
ENDROOT
BRANCH   1   2
ATOM      2  C   UNL     1      27.573  25.837 -16.468  1.00  0.00     0.000 C 
BRANCH   2   3
ATOM      3  C   UNL     1      26.611  25.174 -17.467  1.00  0.00     0.006 C 
BRANCH   3   4
ATOM      4  C   UNL     1      27.353  24.345 -18.524  1.00  0.00     0.053 C 
BRANCH   4   5
ATOM      5  C   UNL     1      26.691  24.429 -19.865  1.00  0.00     0.041 C 
ATOM      6  O   UNL     1      25.761  25.255 -20.062  1.00  0.00    -0.550 OA
ATOM      7  O   UNL     1      27.079  23.573 -20.888  1.00  0.00    -0.550 OA
ENDBRANCH   4   5
ENDBRANCH   3   4
ENDBRANCH   2   3
ENDBRANCH   1   2
BRANCH   1   8
ATOM      8  C   UNL     1      29.319  27.702 -16.633  1.00  0.00     0.000 C 
BRANCH   8   9
ATOM      9  C   UNL     1      30.272  26.559 -17.018  1.00  0.00    -0.000 C 
BRANCH   9  10
ATOM     10  C   UNL     1      31.204  26.154 -15.864  1.00  0.00    -0.000 C 
BRANCH  10  11
ATOM     11  C   UNL     1      30.843  26.850 -14.541  1.00  0.00    -0.000 C 
BRANCH  11  12
ATOM     12  C   UNL     1      30.127  25.911 -13.558  1.00  0.00    -0.003 C 
ATOM     13  C   UNL     1      28.867  26.562 -12.996  1.00  0.00     0.004 C 
ENDBRANCH  11  12
ENDBRANCH  10  11
ENDBRANCH   9  10
ENDBRANCH   8   9
ENDBRANCH   1   8
TORSDOF 9
ENDMDL
MODEL 4
REMARK VINA RESULT:    -3.826      1.479      2.237
REMARK INTER + INTRA:          -6.520
REMARK INTER:                  -5.710
REMARK INTRA:                  -0.809
REMARK UNBOUND:                -0.680
REMARK SMILES CCCCCCCCCCC(=O)[O-]
REMARK SMILES IDX 7 1 8 2 9 3 10 4 11 5 12 6 13 7 6 8 5 9 4 10 3 11 2 12 1 13
REMARK H PARENT
REMARK Flexibility Score: inf
ROOT
ATOM      1  C   UNL     1      28.484  26.597 -15.153  1.00  0.00     0.000 C 
ENDROOT
BRANCH   1   2
ATOM      2  C   UNL     1      29.766  27.118 -15.822  1.00  0.00     0.000 C 
BRANCH   2   3
ATOM      3  C   UNL     1      29.484  28.203 -16.874  1.00  0.00     0.006 C 
BRANCH   3   4
ATOM      4  C   UNL     1      27.991  28.541 -16.972  1.00  0.00     0.053 C 
BRANCH   4   5
ATOM      5  C   UNL     1      27.739  29.690 -17.900  1.00  0.00     0.041 C 
ATOM      6  O   UNL     1      26.617  30.261 -17.910  1.00  0.00    -0.550 OA
ATOM      7  O   UNL     1      28.732  30.109 -18.776  1.00  0.00    -0.550 OA
ENDBRANCH   4   5
ENDBRANCH   3   4
ENDBRANCH   2   3
ENDBRANCH   1   2
BRANCH   1   8
ATOM      8  C   UNL     1      28.115  25.172 -15.606  1.00  0.00     0.000 C 
BRANCH   8   9
ATOM      9  C   UNL     1      26.776  25.122 -16.358  1.00  0.00    -0.000 C 
BRANCH   9  10
ATOM     10  C   UNL     1      26.958  25.060 -17.884  1.00  0.00    -0.000 C 
BRANCH  10  11
ATOM     11  C   UNL     1      28.212  24.271 -18.297  1.00  0.00    -0.000 C 
BRANCH  11  12
ATOM     12  C   UNL     1      28.190  23.864 -19.777  1.00  0.00    -0.003 C 
ATOM     13  C   UNL     1      26.833  24.162 -20.409  1.00  0.00     0.004 C 
ENDBRANCH  11  12
ENDBRANCH  10  11
ENDBRANCH   9  10
ENDBRANCH   8   9
ENDBRANCH   1   8
TORSDOF 9
ENDMDL
MODEL 5
REMARK VINA RESULT:    -3.710      3.444      5.360
REMARK INTER + INTRA:          -6.342
REMARK INTER:                  -5.147
REMARK INTRA:                  -1.195
REMARK UNBOUND:                -0.680
REMARK SMILES CCCCCCCCCCC(=O)[O-]
REMARK SMILES IDX 7 1 8 2 9 3 10 4 11 5 12 6 13 7 6 8 5 9 4 10 3 11 2 12 1 13
REMARK H PARENT
REMARK Flexibility Score: inf
ROOT
ATOM      1  C   UNL     1      30.421  24.881 -17.469  1.00  0.00     0.000 C 
ENDROOT
BRANCH   1   2
ATOM      2  C   UNL     1      29.412  23.750 -17.211  1.00  0.00     0.000 C 
BRANCH   2   3
ATOM      3  C   UNL     1      28.522  23.463 -18.431  1.00  0.00     0.006 C 
BRANCH   3   4
ATOM      4  C   UNL     1      27.316  24.409 -18.503  1.00  0.00     0.053 C 
BRANCH   4   5
ATOM      5  C   UNL     1      26.681  24.403 -19.860  1.00  0.00     0.041 C 
ATOM      6  O   UNL     1      27.131  23.652 -20.766  1.00  0.00    -0.550 OA
ATOM      7  O   UNL     1      25.615  25.250 -20.134  1.00  0.00    -0.550 OA
ENDBRANCH   4   5
ENDBRANCH   3   4
ENDBRANCH   2   3
ENDBRANCH   1   2
BRANCH   1   8
ATOM      8  C   UNL     1      30.391  25.962 -16.373  1.00  0.00     0.000 C 
BRANCH   8   9
ATOM      9  C   UNL     1      29.555  27.187 -16.777  1.00  0.00    -0.000 C 
BRANCH   9  10
ATOM     10  C   UNL     1      28.129  27.142 -16.202  1.00  0.00    -0.000 C 
BRANCH  10  11
ATOM     11  C   UNL     1      28.052  26.372 -14.874  1.00  0.00    -0.000 C 
BRANCH  11  12
ATOM     12  C   UNL     1      26.760  25.552 -14.743  1.00  0.00    -0.003 C 
ATOM     13  C   UNL     1      27.067  24.079 -14.490  1.00  0.00     0.004 C 
ENDBRANCH  11  12
ENDBRANCH  10  11
ENDBRANCH   9  10
ENDBRANCH   8   9
ENDBRANCH   1   8
TORSDOF 9
ENDMDL
MODEL 6
REMARK VINA RESULT:    -3.691      1.834      3.063
REMARK INTER + INTRA:          -6.314
REMARK INTER:                  -5.730
REMARK INTRA:                  -0.584
REMARK UNBOUND:                -0.680
REMARK SMILES CCCCCCCCCCC(=O)[O-]
REMARK SMILES IDX 7 1 8 2 9 3 10 4 11 5 12 6 13 7 6 8 5 9 4 10 3 11 2 12 1 13
REMARK H PARENT
REMARK Flexibility Score: inf
ROOT
ATOM      1  C   UNL     1      29.881  25.676 -17.061  1.00  0.00     0.000 C 
ENDROOT
BRANCH   1   2
ATOM      2  C   UNL     1      28.407  25.680 -16.626  1.00  0.00     0.000 C 
BRANCH   2   3
ATOM      3  C   UNL     1      27.800  27.092 -16.603  1.00  0.00     0.006 C 
BRANCH   3   4
ATOM      4  C   UNL     1      28.872  28.184 -16.718  1.00  0.00     0.053 C 
BRANCH   4   5
ATOM      5  C   UNL     1      28.420  29.321 -17.583  1.00  0.00     0.041 C 
ATOM      6  O   UNL     1      29.203  29.817 -18.435  1.00  0.00    -0.550 OA
ATOM      7  O   UNL     1      27.146  29.852 -17.427  1.00  0.00    -0.550 OA
ENDBRANCH   4   5
ENDBRANCH   3   4
ENDBRANCH   2   3
ENDBRANCH   1   2
BRANCH   1   8
ATOM      8  C   UNL     1      30.196  24.562 -18.076  1.00  0.00     0.000 C 
BRANCH   8   9
ATOM      9  C   UNL     1      29.462  23.250 -17.757  1.00  0.00    -0.000 C 
BRANCH   9  10
ATOM     10  C   UNL     1      28.122  23.129 -18.503  1.00  0.00    -0.000 C 
BRANCH  10  11
ATOM     11  C   UNL     1      28.207  23.630 -19.955  1.00  0.00    -0.000 C 
BRANCH  11  12
ATOM     12  C   UNL     1      26.854  24.122 -20.488  1.00  0.00    -0.003 C 
ATOM     13  C   UNL     1      26.101  24.919 -19.427  1.00  0.00     0.004 C 
ENDBRANCH  11  12
ENDBRANCH  10  11
ENDBRANCH   9  10
ENDBRANCH   8   9
ENDBRANCH   1   8
TORSDOF 9
ENDMDL
MODEL 7
REMARK VINA RESULT:    -3.674      3.893      4.804
REMARK INTER + INTRA:          -6.288
REMARK INTER:                  -5.280
REMARK INTRA:                  -1.007
REMARK UNBOUND:                -0.680
REMARK SMILES CCCCCCCCCCC(=O)[O-]
REMARK SMILES IDX 7 1 8 2 9 3 10 4 11 5 12 6 13 7 6 8 5 9 4 10 3 11 2 12 1 13
REMARK H PARENT
REMARK Flexibility Score: inf
ROOT
ATOM      1  C   UNL     1      27.684  26.450 -15.711  1.00  0.00     0.000 C 
ENDROOT
BRANCH   1   2
ATOM      2  C   UNL     1      28.033  27.539 -16.738  1.00  0.00     0.000 C 
BRANCH   2   3
ATOM      3  C   UNL     1      29.516  27.941 -16.692  1.00  0.00     0.006 C 
BRANCH   3   4
ATOM      4  C   UNL     1      30.449  26.726 -16.768  1.00  0.00     0.053 C 
BRANCH   4   5
ATOM      5  C   UNL     1      31.420  26.695 -15.627  1.00  0.00     0.041 C 
ATOM      6  O   UNL     1      31.016  26.877 -14.448  1.00  0.00    -0.550 OA
ATOM      7  O   UNL     1      32.773  26.496 -15.869  1.00  0.00    -0.550 OA
ENDBRANCH   4   5
ENDBRANCH   3   4
ENDBRANCH   2   3
ENDBRANCH   1   2
BRANCH   1   8
ATOM      8  C   UNL     1      27.042  25.209 -16.358  1.00  0.00     0.000 C 
BRANCH   8   9
ATOM      9  C   UNL     1      26.636  25.451 -17.820  1.00  0.00    -0.000 C 
BRANCH   9  10
ATOM     10  C   UNL     1      27.079  24.309 -18.751  1.00  0.00    -0.000 C 
BRANCH  10  11
ATOM     11  C   UNL     1      28.606  24.132 -18.784  1.00  0.00    -0.000 C 
BRANCH  11  12
ATOM     12  C   UNL     1      29.029  22.656 -18.754  1.00  0.00    -0.003 C 
ATOM     13  C   UNL     1      28.679  22.012 -17.415  1.00  0.00     0.004 C 
ENDBRANCH  11  12
ENDBRANCH  10  11
ENDBRANCH   9  10
ENDBRANCH   8   9
ENDBRANCH   1   8
TORSDOF 9
ENDMDL
MODEL 8
REMARK VINA RESULT:    -3.672      4.366      6.445
REMARK INTER + INTRA:          -6.285
REMARK INTER:                  -5.564
REMARK INTRA:                  -0.721
REMARK UNBOUND:                -0.680
REMARK SMILES CCCCCCCCCCC(=O)[O-]
REMARK SMILES IDX 7 1 8 2 9 3 10 4 11 5 12 6 13 7 6 8 5 9 4 10 3 11 2 12 1 13
REMARK H PARENT
REMARK Flexibility Score: inf
ROOT
ATOM      1  C   UNL     1      26.125  24.643 -18.733  1.00  0.00     0.000 C 
ENDROOT
BRANCH   1   2
ATOM      2  C   UNL     1      26.598  24.634 -20.196  1.00  0.00     0.000 C 
BRANCH   2   3
ATOM      3  C   UNL     1      27.534  23.455 -20.507  1.00  0.00     0.006 C 
BRANCH   3   4
ATOM      4  C   UNL     1      28.830  23.513 -19.689  1.00  0.00     0.053 C 
BRANCH   4   5
ATOM      5  C   UNL     1      29.001  22.300 -18.826  1.00  0.00     0.041 C 
ATOM      6  O   UNL     1      29.667  21.316 -19.241  1.00  0.00    -0.550 OA
ATOM      7  O   UNL     1      28.397  22.245 -17.576  1.00  0.00    -0.550 OA
ENDBRANCH   4   5
ENDBRANCH   3   4
ENDBRANCH   2   3
ENDBRANCH   1   2
BRANCH   1   8
ATOM      8  C   UNL     1      26.733  25.802 -17.921  1.00  0.00     0.000 C 
BRANCH   8   9
ATOM      9  C   UNL     1      26.989  25.422 -16.454  1.00  0.00    -0.000 C 
BRANCH   9  10
ATOM     10  C   UNL     1      27.749  26.516 -15.686  1.00  0.00    -0.000 C 
BRANCH  10  11
ATOM     11  C   UNL     1      28.413  27.541 -16.620  1.00  0.00    -0.000 C 
BRANCH  11  12
ATOM     12  C   UNL     1      29.938  27.594 -16.448  1.00  0.00    -0.003 C 
ATOM     13  C   UNL     1      30.603  26.364 -17.058  1.00  0.00     0.004 C 
ENDBRANCH  11  12
ENDBRANCH  10  11
ENDBRANCH   9  10
ENDBRANCH   8   9
ENDBRANCH   1   8
TORSDOF 9
ENDMDL
MODEL 9
REMARK VINA RESULT:    -3.598      4.120      5.091
REMARK INTER + INTRA:          -6.172
REMARK INTER:                  -5.286
REMARK INTRA:                  -0.886
REMARK UNBOUND:                -0.680
REMARK SMILES CCCCCCCCCCC(=O)[O-]
REMARK SMILES IDX 7 1 8 2 9 3 10 4 11 5 12 6 13 7 6 8 5 9 4 10 3 11 2 12 1 13
REMARK H PARENT
REMARK Flexibility Score: inf
ROOT
ATOM      1  C   UNL     1      28.195  27.290 -16.846  1.00  0.00     0.000 C 
ENDROOT
BRANCH   1   2
ATOM      2  C   UNL     1      29.565  27.858 -16.442  1.00  0.00     0.000 C 
BRANCH   2   3
ATOM      3  C   UNL     1      30.684  26.806 -16.511  1.00  0.00     0.006 C 
BRANCH   3   4
ATOM      4  C   UNL     1      31.541  26.787 -15.238  1.00  0.00     0.053 C 
BRANCH   4   5
ATOM      5  C   UNL     1      30.810  26.175 -14.082  1.00  0.00     0.041 C 
ATOM      6  O   UNL     1      30.344  26.907 -13.169  1.00  0.00    -0.550 OA
ATOM      7  O   UNL     1      30.672  24.796 -13.996  1.00  0.00    -0.550 OA
ENDBRANCH   4   5
ENDBRANCH   3   4
ENDBRANCH   2   3
ENDBRANCH   1   2
BRANCH   1   8
ATOM      8  C   UNL     1      27.592  26.373 -15.766  1.00  0.00     0.000 C 
BRANCH   8   9
ATOM      9  C   UNL     1      27.129  25.022 -16.334  1.00  0.00    -0.000 C 
BRANCH   9  10
ATOM     10  C   UNL     1      28.301  24.163 -16.841  1.00  0.00    -0.000 C 
BRANCH  10  11
ATOM     11  C   UNL     1      28.009  23.513 -18.204  1.00  0.00    -0.000 C 
BRANCH  11  12
ATOM     12  C   UNL     1      26.939  24.271 -19.002  1.00  0.00    -0.003 C 
ATOM     13  C   UNL     1      27.061  23.983 -20.496  1.00  0.00     0.004 C 
ENDBRANCH  11  12
ENDBRANCH  10  11
ENDBRANCH   9  10
ENDBRANCH   8   9
ENDBRANCH   1   8
TORSDOF 9
ENDMDL
