MODEL 1
REMARK VINA RESULT:    -6.618      0.000      0.000
REMARK INTER + INTRA:          -6.618
REMARK INTER:                  -6.618
REMARK INTRA:                   0.000
REMARK UNBOUND:                 0.000
REMARK SMILES Cc1cc2cc3c(C)cc(=O)oc3c(C)c2o1
REMARK SMILES IDX 8 1 7 2 9 3 10 4 11 5 12 6 13 7 6 8 5 9 4 10 3 11 2 12 17 13
REMARK SMILES IDX 16 14 14 15 15 16 1 17
REMARK H PARENT
REMARK Flexibility Score: inf
ROOT
ATOM      1  C   UNL     1      20.583 -16.103 -13.062  1.00  0.00     0.045 C 
ATOM      2  C   UNL     1      21.569 -16.476 -11.984  1.00  0.00    -0.033 A 
ATOM      3  C   UNL     1      22.316 -15.466 -11.362  1.00  0.00     0.098 A 
ATOM      4  C   UNL     1      23.233 -15.803 -10.365  1.00  0.00     0.336 A 
ATOM      5  O   UNL     1      23.908 -14.901  -9.804  1.00  0.00    -0.246 OA
ATOM      6  O   UNL     1      23.401 -17.068 -10.000  1.00  0.00    -0.422 OA
ATOM      7  C   UNL     1      22.724 -18.074 -10.548  1.00  0.00     0.145 A 
ATOM      8  C   UNL     1      21.767 -17.815 -11.580  1.00  0.00     0.022 A 
ATOM      9  C   UNL     1      21.059 -18.893 -12.164  1.00  0.00     0.024 A 
ATOM     10  C   UNL     1      21.328 -20.178 -11.706  1.00  0.00     0.022 A 
ATOM     11  C   UNL     1      20.807 -21.391 -12.093  1.00  0.00     0.054 A 
ATOM     12  C   UNL     1      21.465 -22.316 -11.289  1.00  0.00     0.102 A 
ATOM     13  O   UNL     1      22.313 -21.713 -10.477  1.00  0.00    -0.461 OA
ATOM     14  C   UNL     1      22.243 -20.425 -10.718  1.00  0.00     0.140 A 
ATOM     15  C   UNL     1      22.959 -19.397 -10.101  1.00  0.00     0.036 A 
ATOM     16  C   UNL     1      23.979 -19.691  -9.038  1.00  0.00     0.052 C 
ATOM     17  C   UNL     1      21.241 -23.790 -11.313  1.00  0.00     0.087 C 
ENDROOT
TORSDOF 0
ENDMDL
MODEL 2
REMARK VINA RESULT:    -6.584      1.504      2.827
REMARK INTER + INTRA:          -6.584
REMARK INTER:                  -6.584
REMARK INTRA:                   0.000
REMARK UNBOUND:                 0.000
REMARK SMILES Cc1cc2cc3c(C)cc(=O)oc3c(C)c2o1
REMARK SMILES IDX 8 1 7 2 9 3 10 4 11 5 12 6 13 7 6 8 5 9 4 10 3 11 2 12 17 13
REMARK SMILES IDX 16 14 14 15 15 16 1 17
REMARK H PARENT
REMARK Flexibility Score: inf
ROOT
ATOM      1  C   UNL     1      24.048 -17.243  -8.536  1.00  0.00     0.045 C 
ATOM      2  C   UNL     1      23.043 -16.971  -9.626  1.00  0.00    -0.033 A 
ATOM      3  C   UNL     1      22.679 -15.647  -9.907  1.00  0.00     0.098 A 
ATOM      4  C   UNL     1      21.748 -15.387 -10.913  1.00  0.00     0.336 A 
ATOM      5  O   UNL     1      21.416 -14.200 -11.168  1.00  0.00    -0.246 OA
ATOM      6  O   UNL     1      21.206 -16.381 -11.606  1.00  0.00    -0.422 OA
ATOM      7  C   UNL     1      21.507 -17.659 -11.392  1.00  0.00     0.145 A 
ATOM      8  C   UNL     1      22.452 -18.012 -10.376  1.00  0.00     0.022 A 
ATOM      9  C   UNL     1      22.758 -19.376 -10.149  1.00  0.00     0.024 A 
ATOM     10  C   UNL     1      22.118 -20.330 -10.932  1.00  0.00     0.022 A 
ATOM     11  C   UNL     1      22.214 -21.702 -10.923  1.00  0.00     0.054 A 
ATOM     12  C   UNL     1      21.334 -22.111 -11.920  1.00  0.00     0.102 A 
ATOM     13  O   UNL     1      20.755 -21.071 -12.490  1.00  0.00    -0.461 OA
ATOM     14  C   UNL     1      21.216 -19.992 -11.905  1.00  0.00     0.140 A 
ATOM     15  C   UNL     1      20.888 -18.662 -12.177  1.00  0.00     0.036 A 
ATOM     16  C   UNL     1      19.874 -18.312 -13.229  1.00  0.00     0.052 C 
ATOM     17  C   UNL     1      21.082 -23.526 -12.317  1.00  0.00     0.087 C 
ENDROOT
TORSDOF 0
ENDMDL
MODEL 3
REMARK VINA RESULT:    -6.413      1.278      5.115
REMARK INTER + INTRA:          -6.413
REMARK INTER:                  -6.413
REMARK INTRA:                   0.000
REMARK UNBOUND:                 0.000
REMARK SMILES Cc1cc2cc3c(C)cc(=O)oc3c(C)c2o1
REMARK SMILES IDX 8 1 7 2 9 3 10 4 11 5 12 6 13 7 6 8 5 9 4 10 3 11 2 12 17 13
REMARK SMILES IDX 16 14 14 15 15 16 1 17
REMARK H PARENT
REMARK Flexibility Score: inf
ROOT
ATOM      1  C   UNL     1      19.529 -18.659 -13.419  1.00  0.00     0.045 C 
ATOM      2  C   UNL     1      20.544 -19.307 -12.512  1.00  0.00    -0.033 A 
ATOM      3  C   UNL     1      20.707 -20.698 -12.551  1.00  0.00     0.098 A 
ATOM      4  C   UNL     1      21.643 -21.306 -11.713  1.00  0.00     0.336 A 
ATOM      5  O   UNL     1      21.792 -22.556 -11.743  1.00  0.00    -0.246 OA
ATOM      6  O   UNL     1      22.380 -20.579 -10.883  1.00  0.00    -0.422 OA
ATOM      7  C   UNL     1      22.277 -19.255 -10.796  1.00  0.00     0.145 A 
ATOM      8  C   UNL     1      21.338 -18.554 -11.619  1.00  0.00     0.022 A 
ATOM      9  C   UNL     1      21.229 -17.147 -11.512  1.00  0.00     0.024 A 
ATOM     10  C   UNL     1      22.048 -16.494 -10.597  1.00  0.00     0.022 A 
ATOM     11  C   UNL     1      22.145 -15.159 -10.280  1.00  0.00     0.054 A 
ATOM     12  C   UNL     1      23.124 -15.114  -9.293  1.00  0.00     0.102 A 
ATOM     13  O   UNL     1      23.586 -16.323  -9.035  1.00  0.00    -0.461 OA
ATOM     14  C   UNL     1      22.946 -17.165  -9.811  1.00  0.00     0.140 A 
ATOM     15  C   UNL     1      23.102 -18.550  -9.886  1.00  0.00     0.036 A 
ATOM     16  C   UNL     1      24.073 -19.272  -8.995  1.00  0.00     0.052 C 
ATOM     17  C   UNL     1      23.611 -13.875  -8.622  1.00  0.00     0.087 C 
ENDROOT
TORSDOF 0
ENDMDL
MODEL 4
REMARK VINA RESULT:    -6.392      2.078      2.780
REMARK INTER + INTRA:          -6.392
REMARK INTER:                  -6.392
REMARK INTRA:                   0.000
REMARK UNBOUND:                 0.000
REMARK SMILES Cc1cc2cc3c(C)cc(=O)oc3c(C)c2o1
REMARK SMILES IDX 8 1 7 2 9 3 10 4 11 5 12 6 13 7 6 8 5 9 4 10 3 11 2 12 17 13
REMARK SMILES IDX 16 14 14 15 15 16 1 17
REMARK H PARENT
REMARK Flexibility Score: inf
ROOT
ATOM      1  C   UNL     1      20.935 -15.837 -12.705  1.00  0.00     0.045 C 
ATOM      2  C   UNL     1      21.299 -17.027 -11.854  1.00  0.00    -0.033 A 
ATOM      3  C   UNL     1      21.817 -16.816 -10.569  1.00  0.00     0.098 A 
ATOM      4  C   UNL     1      22.158 -17.912  -9.775  1.00  0.00     0.336 A 
ATOM      5  O   UNL     1      22.625 -17.728  -8.621  1.00  0.00    -0.246 OA
ATOM      6  O   UNL     1      21.996 -19.149 -10.226  1.00  0.00    -0.422 OA
ATOM      7  C   UNL     1      21.510 -19.421 -11.434  1.00  0.00     0.145 A 
ATOM      8  C   UNL     1      21.137 -18.353 -12.312  1.00  0.00     0.022 A 
ATOM      9  C   UNL     1      20.629 -18.652 -13.600  1.00  0.00     0.024 A 
ATOM     10  C   UNL     1      20.515 -19.989 -13.965  1.00  0.00     0.022 A 
ATOM     11  C   UNL     1      20.071 -20.560 -15.136  1.00  0.00     0.054 A 
ATOM     12  C   UNL     1      20.196 -21.927 -14.916  1.00  0.00     0.102 A 
ATOM     13  O   UNL     1      20.672 -22.167 -13.708  1.00  0.00    -0.461 OA
ATOM     14  C   UNL     1      20.870 -21.009 -13.124  1.00  0.00     0.140 A 
ATOM     15  C   UNL     1      21.364 -20.770 -11.840  1.00  0.00     0.036 A 
ATOM     16  C   UNL     1      21.775 -21.902 -10.943  1.00  0.00     0.052 C 
ATOM     17  C   UNL     1      19.828 -22.992 -15.892  1.00  0.00     0.087 C 
ENDROOT
TORSDOF 0
ENDMDL
MODEL 5
REMARK VINA RESULT:    -6.388      2.072      5.708
REMARK INTER + INTRA:          -6.388
REMARK INTER:                  -6.388
REMARK INTRA:                   0.000
REMARK UNBOUND:                 0.000
REMARK SMILES Cc1cc2cc3c(C)cc(=O)oc3c(C)c2o1
REMARK SMILES IDX 8 1 7 2 9 3 10 4 11 5 12 6 13 7 6 8 5 9 4 10 3 11 2 12 17 13
REMARK SMILES IDX 16 14 14 15 15 16 1 17
REMARK H PARENT
REMARK Flexibility Score: inf
ROOT
ATOM      1  C   UNL     1      22.140 -21.642 -10.876  1.00  0.00     0.045 C 
ATOM      2  C   UNL     1      21.602 -20.572 -11.792  1.00  0.00    -0.033 A 
ATOM      3  C   UNL     1      20.954 -20.948 -12.976  1.00  0.00     0.098 A 
ATOM      4  C   UNL     1      20.454 -19.964 -13.830  1.00  0.00     0.336 A 
ATOM      5  O   UNL     1      19.873 -20.295 -14.896  1.00  0.00    -0.246 OA
ATOM      6  O   UNL     1      20.586 -18.678 -13.530  1.00  0.00    -0.422 OA
ATOM      7  C   UNL     1      21.188 -18.252 -12.423  1.00  0.00     0.145 A 
ATOM      8  C   UNL     1      21.731 -19.197 -11.494  1.00  0.00     0.022 A 
ATOM      9  C   UNL     1      22.379 -18.734 -10.323  1.00  0.00     0.024 A 
ATOM     10  C   UNL     1      22.466 -17.361 -10.122  1.00  0.00     0.022 A 
ATOM     11  C   UNL     1      23.039 -16.644  -9.098  1.00  0.00     0.054 A 
ATOM     12  C   UNL     1      22.821 -15.316  -9.449  1.00  0.00     0.102 A 
ATOM     13  O   UNL     1      22.165 -15.234 -10.591  1.00  0.00    -0.461 OA
ATOM     14  C   UNL     1      21.946 -16.459 -11.010  1.00  0.00     0.140 A 
ATOM     15  C   UNL     1      21.286 -16.862 -12.173  1.00  0.00     0.036 A 
ATOM     16  C   UNL     1      20.747 -15.855 -13.149  1.00  0.00     0.052 C 
ATOM     17  C   UNL     1      23.245 -14.133  -8.646  1.00  0.00     0.087 C 
ENDROOT
TORSDOF 0
ENDMDL
MODEL 6
REMARK VINA RESULT:    -6.327      2.067      2.344
REMARK INTER + INTRA:          -6.327
REMARK INTER:                  -6.327
REMARK INTRA:                   0.000
REMARK UNBOUND:                 0.000
REMARK SMILES Cc1cc2cc3c(C)cc(=O)oc3c(C)c2o1
REMARK SMILES IDX 8 1 7 2 9 3 10 4 11 5 12 6 13 7 6 8 5 9 4 10 3 11 2 12 17 13
REMARK SMILES IDX 16 14 14 15 15 16 1 17
REMARK H PARENT
REMARK Flexibility Score: inf
ROOT
ATOM      1  C   UNL     1      19.883 -18.130 -13.322  1.00  0.00     0.045 C 
ATOM      2  C   UNL     1      20.916 -18.259 -12.231  1.00  0.00    -0.033 A 
ATOM      3  C   UNL     1      20.990 -17.272 -11.239  1.00  0.00     0.098 A 
ATOM      4  C   UNL     1      21.944 -17.383 -10.227  1.00  0.00     0.336 A 
ATOM      5  O   UNL     1      22.017 -16.498  -9.335  1.00  0.00    -0.246 OA
ATOM      6  O   UNL     1      22.778 -18.415 -10.194  1.00  0.00    -0.422 OA
ATOM      7  C   UNL     1      22.761 -19.387 -11.102  1.00  0.00     0.145 A 
ATOM      8  C   UNL     1      21.815 -19.347 -12.176  1.00  0.00     0.022 A 
ATOM      9  C   UNL     1      21.811 -20.382 -13.143  1.00  0.00     0.024 A 
ATOM     10  C   UNL     1      22.741 -21.406 -13.010  1.00  0.00     0.022 A 
ATOM     11  C   UNL     1      22.968 -22.514 -13.794  1.00  0.00     0.054 A 
ATOM     12  C   UNL     1      24.026 -23.163 -13.169  1.00  0.00     0.102 A 
ATOM     13  O   UNL     1      24.409 -22.506 -12.090  1.00  0.00    -0.461 OA
ATOM     14  C   UNL     1      23.644 -21.444 -11.982  1.00  0.00     0.140 A 
ATOM     15  C   UNL     1      23.683 -20.457 -10.995  1.00  0.00     0.036 A 
ATOM     16  C   UNL     1      24.700 -20.502  -9.892  1.00  0.00     0.052 C 
ATOM     17  C   UNL     1      24.645 -24.439 -13.629  1.00  0.00     0.087 C 
ENDROOT
TORSDOF 0
ENDMDL
MODEL 7
REMARK VINA RESULT:    -6.228      2.195      3.360
REMARK INTER + INTRA:          -6.228
REMARK INTER:                  -6.228
REMARK INTRA:                   0.000
REMARK UNBOUND:                 0.000
REMARK SMILES Cc1cc2cc3c(C)cc(=O)oc3c(C)c2o1
REMARK SMILES IDX 8 1 7 2 9 3 10 4 11 5 12 6 13 7 6 8 5 9 4 10 3 11 2 12 17 13
REMARK SMILES IDX 16 14 14 15 15 16 1 17
REMARK H PARENT
REMARK Flexibility Score: inf
ROOT
ATOM      1  C   UNL     1      22.043 -17.717  -9.395  1.00  0.00     0.045 C 
ATOM      2  C   UNL     1      21.559 -17.811 -10.820  1.00  0.00    -0.033 A 
ATOM      3  C   UNL     1      21.275 -16.634 -11.525  1.00  0.00     0.098 A 
ATOM      4  C   UNL     1      20.825 -16.712 -12.843  1.00  0.00     0.336 A 
ATOM      5  O   UNL     1      20.567 -15.659 -13.481  1.00  0.00    -0.246 OA
ATOM      6  O   UNL     1      20.666 -17.890 -13.434  1.00  0.00    -0.422 OA
ATOM      7  C   UNL     1      20.918 -19.045 -12.824  1.00  0.00     0.145 A 
ATOM      8  C   UNL     1      21.380 -19.053 -11.469  1.00  0.00     0.022 A 
ATOM      9  C   UNL     1      21.637 -20.288 -10.825  1.00  0.00     0.024 A 
ATOM     10  C   UNL     1      21.422 -21.458 -11.543  1.00  0.00     0.022 A 
ATOM     11  C   UNL     1      21.576 -22.774 -11.173  1.00  0.00     0.054 A 
ATOM     12  C   UNL     1      21.203 -23.492 -12.304  1.00  0.00     0.102 A 
ATOM     13  O   UNL     1      20.855 -22.678 -13.283  1.00  0.00    -0.461 OA
ATOM     14  C   UNL     1      20.981 -21.450 -12.839  1.00  0.00     0.140 A 
ATOM     15  C   UNL     1      20.726 -20.260 -13.525  1.00  0.00     0.036 A 
ATOM     16  C   UNL     1      20.215 -20.273 -14.937  1.00  0.00     0.052 C 
ATOM     17  C   UNL     1      21.208 -24.979 -12.419  1.00  0.00     0.087 C 
ENDROOT
TORSDOF 0
ENDMDL
MODEL 8
REMARK VINA RESULT:    -6.201      1.925      3.562
REMARK INTER + INTRA:          -6.201
REMARK INTER:                  -6.201
REMARK INTRA:                   0.000
REMARK UNBOUND:                 0.000
REMARK SMILES Cc1cc2cc3c(C)cc(=O)oc3c(C)c2o1
REMARK SMILES IDX 8 1 7 2 9 3 10 4 11 5 12 6 13 7 6 8 5 9 4 10 3 11 2 12 17 13
REMARK SMILES IDX 16 14 14 15 15 16 1 17
REMARK H PARENT
REMARK Flexibility Score: inf
ROOT
ATOM      1  C   UNL     1      24.742 -20.236  -9.423  1.00  0.00     0.045 C 
ATOM      2  C   UNL     1      24.054 -18.975  -9.881  1.00  0.00    -0.033 A 
ATOM      3  C   UNL     1      24.312 -17.773  -9.208  1.00  0.00     0.098 A 
ATOM      4  C   UNL     1      23.678 -16.601  -9.623  1.00  0.00     0.336 A 
ATOM      5  O   UNL     1      23.903 -15.519  -9.021  1.00  0.00    -0.246 OA
ATOM      6  O   UNL     1      22.837 -16.615 -10.650  1.00  0.00    -0.422 OA
ATOM      7  C   UNL     1      22.550 -17.719 -11.334  1.00  0.00     0.145 A 
ATOM      8  C   UNL     1      23.155 -18.965 -10.970  1.00  0.00     0.022 A 
ATOM      9  C   UNL     1      22.835 -20.137 -11.697  1.00  0.00     0.024 A 
ATOM     10  C   UNL     1      21.931 -20.029 -12.748  1.00  0.00     0.022 A 
ATOM     11  C   UNL     1      21.437 -20.988 -13.603  1.00  0.00     0.054 A 
ATOM     12  C   UNL     1      20.567 -20.288 -14.433  1.00  0.00     0.102 A 
ATOM     13  O   UNL     1      20.538 -19.009 -14.110  1.00  0.00    -0.461 OA
ATOM     14  C   UNL     1      21.353 -18.838 -13.096  1.00  0.00     0.140 A 
ATOM     15  C   UNL     1      21.644 -17.651 -12.420  1.00  0.00     0.036 A 
ATOM     16  C   UNL     1      20.978 -16.359 -12.799  1.00  0.00     0.052 C 
ATOM     17  C   UNL     1      19.782 -20.883 -15.552  1.00  0.00     0.087 C 
ENDROOT
TORSDOF 0
ENDMDL
