MODEL 1
REMARK VINA RESULT:    -6.626      0.000      0.000
REMARK INTER + INTRA:         -11.252
REMARK INTER:                 -10.113
REMARK INTRA:                  -1.139
REMARK UNBOUND:                -1.139
REMARK SMILES OC[C@@H]1O[C@H](O[C@@]2(CO)O[C@H](CO)[C@@H](O)[C@H]2O)[C@@H](O)[C@H](O)[C@@H]1O
REMARK SMILES IDX 6 1 5 2 3 3 22 4 4 5 20 6 18 7 2 8 1 9 23 11 21 13 19 15
REMARK SMILES IDX 7 17 16 18 10 19 14 20 11 21 8 22 9 23 17 25 15 27 12 29
REMARK SMILES IDX 13 30
REMARK H PARENT 1 10 23 12 21 14 19 16 9 24 17 26 15 28 13 31
REMARK Flexibility Score: inf
ROOT
ATOM      1  O   UNL     1      22.772  18.272  85.503  1.00  0.00    -0.313 OA
ENDROOT
BRANCH   1   2
ATOM      2  C   UNL     1      21.742  18.455  84.538  1.00  0.00     0.285 C 
ATOM      3  C   UNL     1      21.602  16.146  83.927  1.00  0.00     0.178 C 
ATOM      4  C   UNL     1      20.225  15.979  84.622  1.00  0.00     0.177 C 
ATOM      5  O   UNL     1      21.857  17.483  83.506  1.00  0.00    -0.341 OA
ATOM      6  C   UNL     1      19.996  17.026  85.725  1.00  0.00     0.179 C 
ATOM      7  C   UNL     1      20.354  18.430  85.219  1.00  0.00     0.202 C 
BRANCH   3   8
ATOM      8  C   UNL     1      22.790  15.517  84.692  1.00  0.00     0.191 C 
BRANCH   8   9
ATOM      9  O   UNL     1      22.682  14.119  84.709  1.00  0.00    -0.394 OA
ATOM     10  H   UNL     1      23.584  13.763  84.494  1.00  0.00     0.210 HD
ENDBRANCH   8   9
ENDBRANCH   3   8
BRANCH   4  11
ATOM     11  O   UNL     1      20.077  14.686  85.150  1.00  0.00    -0.387 OA
ATOM     12  H   UNL     1      20.791  14.127  84.746  1.00  0.00     0.211 HD
ENDBRANCH   4  11
BRANCH   6  13
ATOM     13  O   UNL     1      20.762  16.731  86.867  1.00  0.00    -0.387 OA
ATOM     14  H   UNL     1      21.205  17.573  87.148  1.00  0.00     0.211 HD
ENDBRANCH   6  13
BRANCH   7  15
ATOM     15  O   UNL     1      19.355  18.925  84.360  1.00  0.00    -0.385 OA
ATOM     16  H   UNL     1      19.189  18.249  83.653  1.00  0.00     0.211 HD
ENDBRANCH   7  15
ENDBRANCH   1   2
BRANCH   1  17
ATOM     17  C   UNL     1      23.412  19.473  85.926  1.00  0.00     0.224 C 
ATOM     18  C   UNL     1      23.694  19.368  87.444  1.00  0.00     0.208 C 
ATOM     19  O   UNL     1      22.585  20.607  85.704  1.00  0.00    -0.337 OA
ATOM     20  C   UNL     1      23.342  20.748  87.947  1.00  0.00     0.180 C 
ATOM     21  C   UNL     1      22.285  21.189  86.952  1.00  0.00     0.179 C 
BRANCH  17  22
ATOM     22  C   UNL     1      24.738  19.646  85.143  1.00  0.00     0.225 C 
BRANCH  22  23
ATOM     23  O   UNL     1      25.804  19.022  85.811  1.00  0.00    -0.391 OA
ATOM     24  H   UNL     1      26.018  18.194  85.309  1.00  0.00     0.210 HD
ENDBRANCH  22  23
ENDBRANCH  17  22
BRANCH  18  25
ATOM     25  O   UNL     1      22.856  18.402  88.035  1.00  0.00    -0.385 OA
ATOM     26  H   UNL     1      23.118  18.336  88.990  1.00  0.00     0.211 HD
ENDBRANCH  18  25
BRANCH  20  27
ATOM     27  O   UNL     1      22.827  20.732  89.253  1.00  0.00    -0.387 OA
ATOM     28  H   UNL     1      22.810  19.780  89.536  1.00  0.00     0.211 HD
ENDBRANCH  20  27
BRANCH  21  29
ATOM     29  C   UNL     1      22.227  22.715  86.816  1.00  0.00     0.191 C 
BRANCH  29  30
ATOM     30  O   UNL     1      22.577  23.103  85.515  1.00  0.00    -0.394 OA
ATOM     31  H   UNL     1      22.754  22.269  85.006  1.00  0.00     0.210 HD
ENDBRANCH  29  30
ENDBRANCH  21  29
ENDBRANCH   1  17
TORSDOF 13
ENDMDL
MODEL 2
REMARK VINA RESULT:    -6.496      1.644      3.209
REMARK INTER + INTRA:         -11.053
REMARK INTER:                  -9.805
REMARK INTRA:                  -1.248
REMARK UNBOUND:                -1.139
REMARK SMILES OC[C@@H]1O[C@H](O[C@@]2(CO)O[C@H](CO)[C@@H](O)[C@H]2O)[C@@H](O)[C@H](O)[C@@H]1O
REMARK SMILES IDX 6 1 5 2 3 3 22 4 4 5 20 6 18 7 2 8 1 9 23 11 21 13 19 15
REMARK SMILES IDX 7 17 16 18 10 19 14 20 11 21 8 22 9 23 17 25 15 27 12 29
REMARK SMILES IDX 13 30
REMARK H PARENT 1 10 23 12 21 14 19 16 9 24 17 26 15 28 13 31
REMARK Flexibility Score: inf
ROOT
ATOM      1  O   UNL     1      22.436  19.214  84.905  1.00  0.00    -0.313 OA
ENDROOT
BRANCH   1   2
ATOM      2  C   UNL     1      21.429  18.751  85.797  1.00  0.00     0.285 C 
ATOM      3  C   UNL     1      19.660  18.829  84.188  1.00  0.00     0.178 C 
ATOM      4  C   UNL     1      19.584  17.282  84.102  1.00  0.00     0.177 C 
ATOM      5  O   UNL     1      20.165  19.294  85.436  1.00  0.00    -0.341 OA
ATOM      6  C   UNL     1      20.900  16.606  84.523  1.00  0.00     0.179 C 
ATOM      7  C   UNL     1      21.415  17.206  85.840  1.00  0.00     0.202 C 
BRANCH   3   8
ATOM      8  C   UNL     1      20.333  19.508  82.973  1.00  0.00     0.191 C 
BRANCH   8   9
ATOM      9  O   UNL     1      19.386  19.796  81.979  1.00  0.00    -0.394 OA
ATOM     10  H   UNL     1      18.660  20.311  82.420  1.00  0.00     0.210 HD
ENDBRANCH   8   9
ENDBRANCH   3   8
BRANCH   4  11
ATOM     11  O   UNL     1      19.223  16.863  82.810  1.00  0.00    -0.387 OA
ATOM     12  H   UNL     1      19.994  17.062  82.217  1.00  0.00     0.211 HD
ENDBRANCH   4  11
BRANCH   6  13
ATOM     13  O   UNL     1      21.883  16.751  83.528  1.00  0.00    -0.387 OA
ATOM     14  H   UNL     1      22.498  17.469  83.827  1.00  0.00     0.211 HD
ENDBRANCH   6  13
BRANCH   7  15
ATOM     15  O   UNL     1      20.668  16.732  86.935  1.00  0.00    -0.385 OA
ATOM     16  H   UNL     1      20.252  15.869  86.677  1.00  0.00     0.211 HD
ENDBRANCH   7  15
ENDBRANCH   1   2
BRANCH   1  17
ATOM     17  C   UNL     1      23.178  20.336  85.376  1.00  0.00     0.224 C 
ATOM     18  C   UNL     1      24.685  19.987  85.314  1.00  0.00     0.208 C 
ATOM     19  O   UNL     1      22.849  20.648  86.723  1.00  0.00    -0.337 OA
ATOM     20  C   UNL     1      25.216  20.558  86.607  1.00  0.00     0.180 C 
ATOM     21  C   UNL     1      24.002  20.474  87.514  1.00  0.00     0.179 C 
BRANCH  17  22
ATOM     22  C   UNL     1      22.873  21.562  84.479  1.00  0.00     0.225 C 
BRANCH  22  23
ATOM     23  O   UNL     1      22.762  22.733  85.245  1.00  0.00    -0.391 OA
ATOM     24  H   UNL     1      22.744  22.458  86.198  1.00  0.00     0.210 HD
ENDBRANCH  22  23
ENDBRANCH  17  22
BRANCH  18  25
ATOM     25  O   UNL     1      24.865  18.589  85.285  1.00  0.00    -0.385 OA
ATOM     26  H   UNL     1      24.453  18.262  84.443  1.00  0.00     0.211 HD
ENDBRANCH  18  25
BRANCH  20  27
ATOM     27  O   UNL     1      26.285  19.812  87.129  1.00  0.00    -0.387 OA
ATOM     28  H   UNL     1      27.053  20.438  87.206  1.00  0.00     0.211 HD
ENDBRANCH  20  27
BRANCH  21  29
ATOM     29  C   UNL     1      24.040  21.534  88.621  1.00  0.00     0.191 C 
BRANCH  29  30
ATOM     30  O   UNL     1      23.525  22.750  88.152  1.00  0.00    -0.394 OA
ATOM     31  H   UNL     1      22.941  23.109  88.870  1.00  0.00     0.210 HD
ENDBRANCH  29  30
ENDBRANCH  21  29
ENDBRANCH   1  17
TORSDOF 13
ENDMDL
MODEL 3
REMARK VINA RESULT:    -6.371      1.237      2.079
REMARK INTER + INTRA:         -10.861
REMARK INTER:                  -9.370
REMARK INTRA:                  -1.491
REMARK UNBOUND:                -1.139
REMARK SMILES OC[C@@H]1O[C@H](O[C@@]2(CO)O[C@H](CO)[C@@H](O)[C@H]2O)[C@@H](O)[C@H](O)[C@@H]1O
REMARK SMILES IDX 6 1 5 2 3 3 22 4 4 5 20 6 18 7 2 8 1 9 23 11 21 13 19 15
REMARK SMILES IDX 7 17 16 18 10 19 14 20 11 21 8 22 9 23 17 25 15 27 12 29
REMARK SMILES IDX 13 30
REMARK H PARENT 1 10 23 12 21 14 19 16 9 24 17 26 15 28 13 31
REMARK Flexibility Score: inf
ROOT
ATOM      1  O   UNL     1      22.573  18.562  85.080  1.00  0.00    -0.313 OA
ENDROOT
BRANCH   1   2
ATOM      2  C   UNL     1      21.461  18.590  84.192  1.00  0.00     0.285 C 
ATOM      3  C   UNL     1      21.600  16.278  83.596  1.00  0.00     0.178 C 
ATOM      4  C   UNL     1      20.312  15.929  84.390  1.00  0.00     0.177 C 
ATOM      5  O   UNL     1      21.635  17.632  83.156  1.00  0.00    -0.341 OA
ATOM      6  C   UNL     1      20.020  16.947  85.506  1.00  0.00     0.179 C 
ATOM      7  C   UNL     1      20.143  18.381  84.973  1.00  0.00     0.202 C 
BRANCH   3   8
ATOM      8  C   UNL     1      22.915  15.827  84.274  1.00  0.00     0.191 C 
BRANCH   8   9
ATOM      9  O   UNL     1      24.024  16.383  83.620  1.00  0.00    -0.394 OA
ATOM     10  H   UNL     1      23.678  16.826  82.802  1.00  0.00     0.210 HD
ENDBRANCH   8   9
ENDBRANCH   3   8
BRANCH   4  11
ATOM     11  O   UNL     1      20.383  14.634  84.929  1.00  0.00    -0.387 OA
ATOM     12  H   UNL     1      19.669  14.101  84.491  1.00  0.00     0.211 HD
ENDBRANCH   4  11
BRANCH   6  13
ATOM     13  O   UNL     1      20.900  16.773  86.589  1.00  0.00    -0.387 OA
ATOM     14  H   UNL     1      20.367  16.414  87.345  1.00  0.00     0.211 HD
ENDBRANCH   6  13
BRANCH   7  15
ATOM     15  O   UNL     1      19.025  18.724  84.188  1.00  0.00    -0.385 OA
ATOM     16  H   UNL     1      18.841  19.690  84.315  1.00  0.00     0.211 HD
ENDBRANCH   7  15
ENDBRANCH   1   2
BRANCH   1  17
ATOM     17  C   UNL     1      23.098  19.843  85.418  1.00  0.00     0.224 C 
ATOM     18  C   UNL     1      24.639  19.792  85.281  1.00  0.00     0.208 C 
ATOM     19  O   UNL     1      22.783  20.196  86.757  1.00  0.00    -0.337 OA
ATOM     20  C   UNL     1      25.111  20.563  86.490  1.00  0.00     0.180 C 
ATOM     21  C   UNL     1      23.986  20.319  87.480  1.00  0.00     0.179 C 
BRANCH  17  22
ATOM     22  C   UNL     1      22.508  20.905  84.457  1.00  0.00     0.225 C 
BRANCH  22  23
ATOM     23  O   UNL     1      22.405  22.155  85.087  1.00  0.00    -0.391 OA
ATOM     24  H   UNL     1      22.472  21.996  86.064  1.00  0.00     0.210 HD
ENDBRANCH  22  23
ENDBRANCH  17  22
BRANCH  18  25
ATOM     25  O   UNL     1      25.094  18.459  85.341  1.00  0.00    -0.385 OA
ATOM     26  H   UNL     1      24.568  18.006  86.050  1.00  0.00     0.211 HD
ENDBRANCH  18  25
BRANCH  20  27
ATOM     27  O   UNL     1      26.333  20.088  86.992  1.00  0.00    -0.387 OA
ATOM     28  H   UNL     1      26.859  20.889  87.253  1.00  0.00     0.211 HD
ENDBRANCH  20  27
BRANCH  21  29
ATOM     29  C   UNL     1      23.867  21.456  88.503  1.00  0.00     0.191 C 
BRANCH  29  30
ATOM     30  O   UNL     1      23.523  22.655  87.863  1.00  0.00    -0.394 OA
ATOM     31  H   UNL     1      22.605  22.885  88.164  1.00  0.00     0.210 HD
ENDBRANCH  29  30
ENDBRANCH  21  29
ENDBRANCH   1  17
TORSDOF 13
ENDMDL
MODEL 4
REMARK VINA RESULT:    -6.353      1.613      5.920
REMARK INTER + INTRA:         -10.834
REMARK INTER:                  -9.863
REMARK INTRA:                  -0.971
REMARK UNBOUND:                -1.139
REMARK SMILES OC[C@@H]1O[C@H](O[C@@]2(CO)O[C@H](CO)[C@@H](O)[C@H]2O)[C@@H](O)[C@H](O)[C@@H]1O
REMARK SMILES IDX 6 1 5 2 3 3 22 4 4 5 20 6 18 7 2 8 1 9 23 11 21 13 19 15
REMARK SMILES IDX 7 17 16 18 10 19 14 20 11 21 8 22 9 23 17 25 15 27 12 29
REMARK SMILES IDX 13 30
REMARK H PARENT 1 10 23 12 21 14 19 16 9 24 17 26 15 28 13 31
REMARK Flexibility Score: inf
ROOT
ATOM      1  O   UNL     1      22.964  19.156  85.644  1.00  0.00    -0.313 OA
ENDROOT
BRANCH   1   2
ATOM      2  C   UNL     1      24.062  20.052  85.514  1.00  0.00     0.285 C 
ATOM      3  C   UNL     1      23.076  21.796  86.821  1.00  0.00     0.178 C 
ATOM      4  C   UNL     1      24.060  21.560  87.998  1.00  0.00     0.177 C 
ATOM      5  O   UNL     1      23.606  21.398  85.561  1.00  0.00    -0.341 OA
ATOM      6  C   UNL     1      24.641  20.136  87.997  1.00  0.00     0.179 C 
ATOM      7  C   UNL     1      25.131  19.754  86.592  1.00  0.00     0.202 C 
BRANCH   3   8
ATOM      8  C   UNL     1      21.642  21.271  87.067  1.00  0.00     0.191 C 
BRANCH   8   9
ATOM      9  O   UNL     1      20.692  22.169  86.559  1.00  0.00    -0.394 OA
ATOM     10  H   UNL     1      20.349  21.772  85.716  1.00  0.00     0.210 HD
ENDBRANCH   8   9
ENDBRANCH   3   8
BRANCH   4  11
ATOM     11  O   UNL     1      23.447  21.826  89.233  1.00  0.00    -0.387 OA
ATOM     12  H   UNL     1      22.706  22.462  89.055  1.00  0.00     0.211 HD
ENDBRANCH   4  11
BRANCH   6  13
ATOM     13  O   UNL     1      23.684  19.200  88.428  1.00  0.00    -0.387 OA
ATOM     14  H   UNL     1      24.042  18.773  89.249  1.00  0.00     0.211 HD
ENDBRANCH   6  13
BRANCH   7  15
ATOM     15  O   UNL     1      26.349  20.394  86.293  1.00  0.00    -0.385 OA
ATOM     16  H   UNL     1      26.568  20.217  85.342  1.00  0.00     0.211 HD
ENDBRANCH   7  15
ENDBRANCH   1   2
BRANCH   1  17
ATOM     17  C   UNL     1      22.698  18.370  84.485  1.00  0.00     0.224 C 
ATOM     18  C   UNL     1      21.812  17.171  84.901  1.00  0.00     0.208 C 
ATOM     19  O   UNL     1      23.897  17.861  83.917  1.00  0.00    -0.337 OA
ATOM     20  C   UNL     1      22.411  16.024  84.122  1.00  0.00     0.180 C 
ATOM     21  C   UNL     1      23.861  16.454  83.988  1.00  0.00     0.179 C 
BRANCH  17  22
ATOM     22  C   UNL     1      21.965  19.242  83.435  1.00  0.00     0.225 C 
BRANCH  22  23
ATOM     23  O   UNL     1      21.120  20.176  84.056  1.00  0.00    -0.391 OA
ATOM     24  H   UNL     1      21.590  21.050  84.040  1.00  0.00     0.210 HD
ENDBRANCH  22  23
ENDBRANCH  17  22
BRANCH  18  25
ATOM     25  O   UNL     1      21.923  16.934  86.286  1.00  0.00    -0.385 OA
ATOM     26  H   UNL     1      21.111  17.317  86.711  1.00  0.00     0.211 HD
ENDBRANCH  18  25
BRANCH  20  27
ATOM     27  O   UNL     1      22.312  14.799  84.801  1.00  0.00    -0.387 OA
ATOM     28  H   UNL     1      22.856  14.148  84.286  1.00  0.00     0.211 HD
ENDBRANCH  20  27
BRANCH  21  29
ATOM     29  C   UNL     1      24.524  15.851  82.744  1.00  0.00     0.191 C 
BRANCH  29  30
ATOM     30  O   UNL     1      25.724  15.214  83.090  1.00  0.00    -0.394 OA
ATOM     31  H   UNL     1      26.434  15.907  83.057  1.00  0.00     0.210 HD
ENDBRANCH  29  30
ENDBRANCH  21  29
ENDBRANCH   1  17
TORSDOF 13
ENDMDL
MODEL 5
REMARK VINA RESULT:    -6.303      2.347      5.838
REMARK INTER + INTRA:         -10.758
REMARK INTER:                  -9.297
REMARK INTRA:                  -1.461
REMARK UNBOUND:                -1.139
REMARK SMILES OC[C@@H]1O[C@H](O[C@@]2(CO)O[C@H](CO)[C@@H](O)[C@H]2O)[C@@H](O)[C@H](O)[C@@H]1O
REMARK SMILES IDX 6 1 5 2 3 3 22 4 4 5 20 6 18 7 2 8 1 9 23 11 21 13 19 15
REMARK SMILES IDX 7 17 16 18 10 19 14 20 11 21 8 22 9 23 17 25 15 27 12 29
REMARK SMILES IDX 13 30
REMARK H PARENT 1 10 23 12 21 14 19 16 9 24 17 26 15 28 13 31
REMARK Flexibility Score: inf
ROOT
ATOM      1  O   UNL     1      22.659  20.158  84.874  1.00  0.00    -0.313 OA
ENDROOT
BRANCH   1   2
ATOM      2  C   UNL     1      23.416  21.363  84.861  1.00  0.00     0.285 C 
ATOM      3  C   UNL     1      22.441  22.255  86.855  1.00  0.00     0.178 C 
ATOM      4  C   UNL     1      23.746  22.039  87.667  1.00  0.00     0.177 C 
ATOM      5  O   UNL     1      22.673  22.417  85.459  1.00  0.00    -0.341 OA
ATOM      6  C   UNL     1      24.638  20.942  87.060  1.00  0.00     0.179 C 
ATOM      7  C   UNL     1      24.786  21.146  85.545  1.00  0.00     0.202 C 
BRANCH   3   8
ATOM      8  C   UNL     1      21.314  21.243  87.167  1.00  0.00     0.191 C 
BRANCH   8   9
ATOM      9  O   UNL     1      20.200  21.474  86.346  1.00  0.00    -0.394 OA
ATOM     10  H   UNL     1      20.045  22.455  86.349  1.00  0.00     0.210 HD
ENDBRANCH   8   9
ENDBRANCH   3   8
BRANCH   4  11
ATOM     11  O   UNL     1      23.463  21.737  89.010  1.00  0.00    -0.387 OA
ATOM     12  H   UNL     1      22.475  21.698  89.094  1.00  0.00     0.211 HD
ENDBRANCH   4  11
BRANCH   6  13
ATOM     13  O   UNL     1      24.107  19.664  87.310  1.00  0.00    -0.387 OA
ATOM     14  H   UNL     1      24.627  19.273  88.058  1.00  0.00     0.211 HD
ENDBRANCH   6  13
BRANCH   7  15
ATOM     15  O   UNL     1      25.671  22.205  85.264  1.00  0.00    -0.385 OA
ATOM     16  H   UNL     1      25.306  22.720  84.499  1.00  0.00     0.211 HD
ENDBRANCH   7  15
ENDBRANCH   1   2
BRANCH   1  17
ATOM     17  C   UNL     1      22.687  19.424  83.653  1.00  0.00     0.224 C 
ATOM     18  C   UNL     1      22.956  17.936  83.982  1.00  0.00     0.208 C 
ATOM     19  O   UNL     1      23.721  19.884  82.794  1.00  0.00    -0.337 OA
ATOM     20  C   UNL     1      23.932  17.525  82.904  1.00  0.00     0.180 C 
ATOM     21  C   UNL     1      24.639  18.833  82.601  1.00  0.00     0.179 C 
BRANCH  17  22
ATOM     22  C   UNL     1      21.322  19.578  82.935  1.00  0.00     0.225 C 
BRANCH  22  23
ATOM     23  O   UNL     1      20.359  20.133  83.794  1.00  0.00    -0.391 OA
ATOM     24  H   UNL     1      20.226  19.489  84.537  1.00  0.00     0.210 HD
ENDBRANCH  22  23
ENDBRANCH  17  22
BRANCH  18  25
ATOM     25  O   UNL     1      23.550  17.814  85.254  1.00  0.00    -0.385 OA
ATOM     26  H   UNL     1      22.813  17.821  85.919  1.00  0.00     0.211 HD
ENDBRANCH  18  25
BRANCH  20  27
ATOM     27  O   UNL     1      24.843  16.552  83.344  1.00  0.00    -0.387 OA
ATOM     28  H   UNL     1      25.476  16.401  82.594  1.00  0.00     0.211 HD
ENDBRANCH  20  27
BRANCH  21  29
ATOM     29  C   UNL     1      25.181  18.871  81.167  1.00  0.00     0.191 C 
BRANCH  29  30
ATOM     30  O   UNL     1      24.128  18.803  80.244  1.00  0.00    -0.394 OA
ATOM     31  H   UNL     1      23.598  19.636  80.355  1.00  0.00     0.210 HD
ENDBRANCH  29  30
ENDBRANCH  21  29
ENDBRANCH   1  17
TORSDOF 13
ENDMDL
MODEL 6
REMARK VINA RESULT:    -6.193      1.561      3.035
REMARK INTER + INTRA:         -10.591
REMARK INTER:                  -9.117
REMARK INTRA:                  -1.473
REMARK UNBOUND:                -1.139
REMARK SMILES OC[C@@H]1O[C@H](O[C@@]2(CO)O[C@H](CO)[C@@H](O)[C@H]2O)[C@@H](O)[C@H](O)[C@@H]1O
REMARK SMILES IDX 6 1 5 2 3 3 22 4 4 5 20 6 18 7 2 8 1 9 23 11 21 13 19 15
REMARK SMILES IDX 7 17 16 18 10 19 14 20 11 21 8 22 9 23 17 25 15 27 12 29
REMARK SMILES IDX 13 30
REMARK H PARENT 1 10 23 12 21 14 19 16 9 24 17 26 15 28 13 31
REMARK Flexibility Score: inf
ROOT
ATOM      1  O   UNL     1      21.951  18.577  85.578  1.00  0.00    -0.313 OA
ENDROOT
BRANCH   1   2
ATOM      2  C   UNL     1      22.691  17.762  84.676  1.00  0.00     0.285 C 
ATOM      3  C   UNL     1      20.967  16.127  84.395  1.00  0.00     0.178 C 
ATOM      4  C   UNL     1      20.675  16.590  82.943  1.00  0.00     0.177 C 
ATOM      5  O   UNL     1      22.302  16.401  84.811  1.00  0.00    -0.341 OA
ATOM      6  C   UNL     1      21.111  18.043  82.694  1.00  0.00     0.179 C 
ATOM      7  C   UNL     1      22.531  18.279  83.227  1.00  0.00     0.202 C 
BRANCH   3   8
ATOM      8  C   UNL     1      19.909  16.563  85.435  1.00  0.00     0.191 C 
BRANCH   8   9
ATOM      9  O   UNL     1      20.403  16.409  86.738  1.00  0.00    -0.394 OA
ATOM     10  H   UNL     1      20.994  17.188  86.911  1.00  0.00     0.210 HD
ENDBRANCH   8   9
ENDBRANCH   3   8
BRANCH   4  11
ATOM     11  O   UNL     1      19.315  16.436  82.626  1.00  0.00    -0.387 OA
ATOM     12  H   UNL     1      19.082  15.488  82.809  1.00  0.00     0.211 HD
ENDBRANCH   4  11
BRANCH   6  13
ATOM     13  O   UNL     1      20.225  18.948  83.307  1.00  0.00    -0.387 OA
ATOM     14  H   UNL     1      19.531  19.177  82.636  1.00  0.00     0.211 HD
ENDBRANCH   6  13
BRANCH   7  15
ATOM     15  O   UNL     1      23.492  17.706  82.371  1.00  0.00    -0.385 OA
ATOM     16  H   UNL     1      24.370  18.126  82.564  1.00  0.00     0.211 HD
ENDBRANCH   7  15
ENDBRANCH   1   2
BRANCH   1  17
ATOM     17  C   UNL     1      22.730  19.534  86.290  1.00  0.00     0.224 C 
ATOM     18  C   UNL     1      21.938  20.862  86.350  1.00  0.00     0.208 C 
ATOM     19  O   UNL     1      23.968  19.783  85.640  1.00  0.00    -0.337 OA
ATOM     20  C   UNL     1      23.005  21.901  86.097  1.00  0.00     0.180 C 
ATOM     21  C   UNL     1      23.998  21.135  85.243  1.00  0.00     0.179 C 
BRANCH  17  22
ATOM     22  C   UNL     1      23.002  19.005  87.721  1.00  0.00     0.225 C 
BRANCH  22  23
ATOM     23  O   UNL     1      22.552  17.683  87.865  1.00  0.00    -0.391 OA
ATOM     24  H   UNL     1      21.594  17.727  88.119  1.00  0.00     0.210 HD
ENDBRANCH  22  23
ENDBRANCH  17  22
BRANCH  18  25
ATOM     25  O   UNL     1      20.965  20.900  85.332  1.00  0.00    -0.385 OA
ATOM     26  H   UNL     1      20.089  20.715  85.761  1.00  0.00     0.211 HD
ENDBRANCH  18  25
BRANCH  20  27
ATOM     27  O   UNL     1      22.514  23.023  85.410  1.00  0.00    -0.387 OA
ATOM     28  H   UNL     1      22.900  22.984  84.496  1.00  0.00     0.211 HD
ENDBRANCH  20  27
BRANCH  21  29
ATOM     29  C   UNL     1      25.421  21.689  85.383  1.00  0.00     0.191 C 
BRANCH  29  30
ATOM     30  O   UNL     1      25.572  22.848  84.610  1.00  0.00    -0.394 OA
ATOM     31  H   UNL     1      24.677  23.061  84.236  1.00  0.00     0.210 HD
ENDBRANCH  29  30
ENDBRANCH  21  29
ENDBRANCH   1  17
TORSDOF 13
ENDMDL
MODEL 7
REMARK VINA RESULT:    -6.086      1.566      5.862
REMARK INTER + INTRA:         -10.428
REMARK INTER:                  -8.739
REMARK INTRA:                  -1.689
REMARK UNBOUND:                -1.139
REMARK SMILES OC[C@@H]1O[C@H](O[C@@]2(CO)O[C@H](CO)[C@@H](O)[C@H]2O)[C@@H](O)[C@H](O)[C@@H]1O
REMARK SMILES IDX 6 1 5 2 3 3 22 4 4 5 20 6 18 7 2 8 1 9 23 11 21 13 19 15
REMARK SMILES IDX 7 17 16 18 10 19 14 20 11 21 8 22 9 23 17 25 15 27 12 29
REMARK SMILES IDX 13 30
REMARK H PARENT 1 10 23 12 21 14 19 16 9 24 17 26 15 28 13 31
REMARK Flexibility Score: inf
ROOT
ATOM      1  O   UNL     1      21.325  19.143  85.590  1.00  0.00    -0.313 OA
ENDROOT
BRANCH   1   2
ATOM      2  C   UNL     1      22.281  19.666  84.675  1.00  0.00     0.285 C 
ATOM      3  C   UNL     1      22.711  21.660  85.925  1.00  0.00     0.178 C 
ATOM      4  C   UNL     1      24.125  21.172  86.340  1.00  0.00     0.177 C 
ATOM      5  O   UNL     1      22.260  21.087  84.702  1.00  0.00    -0.341 OA
ATOM      6  C   UNL     1      24.252  19.640  86.294  1.00  0.00     0.179 C 
ATOM      7  C   UNL     1      23.685  19.092  84.976  1.00  0.00     0.202 C 
BRANCH   3   8
ATOM      8  C   UNL     1      21.652  21.593  87.050  1.00  0.00     0.191 C 
BRANCH   8   9
ATOM      9  O   UNL     1      20.382  21.919  86.554  1.00  0.00    -0.394 OA
ATOM     10  H   UNL     1      20.527  22.403  85.699  1.00  0.00     0.210 HD
ENDBRANCH   8   9
ENDBRANCH   3   8
BRANCH   4  11
ATOM     11  O   UNL     1      24.469  21.642  87.618  1.00  0.00    -0.387 OA
ATOM     12  H   UNL     1      24.575  22.627  87.543  1.00  0.00     0.211 HD
ENDBRANCH   4  11
BRANCH   6  13
ATOM     13  O   UNL     1      23.578  19.045  87.375  1.00  0.00    -0.387 OA
ATOM     14  H   UNL     1      22.615  19.018  87.141  1.00  0.00     0.211 HD
ENDBRANCH   6  13
BRANCH   7  15
ATOM     15  O   UNL     1      24.573  19.329  83.909  1.00  0.00    -0.385 OA
ATOM     16  H   UNL     1      24.049  19.669  83.138  1.00  0.00     0.211 HD
ENDBRANCH   7  15
ENDBRANCH   1   2
BRANCH   1  17
ATOM     17  C   UNL     1      20.319  18.326  84.998  1.00  0.00     0.224 C 
ATOM     18  C   UNL     1      20.265  16.982  85.765  1.00  0.00     0.208 C 
ATOM     19  O   UNL     1      20.612  18.048  83.635  1.00  0.00    -0.337 OA
ATOM     20  C   UNL     1      20.107  15.968  84.656  1.00  0.00     0.180 C 
ATOM     21  C   UNL     1      20.797  16.659  83.494  1.00  0.00     0.179 C 
BRANCH  17  22
ATOM     22  C   UNL     1      18.954  19.052  85.089  1.00  0.00     0.225 C 
BRANCH  22  23
ATOM     23  O   UNL     1      19.056  20.378  84.638  1.00  0.00    -0.391 OA
ATOM     24  H   UNL     1      19.601  20.872  85.303  1.00  0.00     0.210 HD
ENDBRANCH  22  23
ENDBRANCH  17  22
BRANCH  18  25
ATOM     25  O   UNL     1      21.472  16.764  86.460  1.00  0.00    -0.385 OA
ATOM     26  H   UNL     1      21.549  17.485  87.139  1.00  0.00     0.211 HD
ENDBRANCH  18  25
BRANCH  20  27
ATOM     27  O   UNL     1      20.726  14.744  84.952  1.00  0.00    -0.387 OA
ATOM     28  H   UNL     1      21.666  14.822  84.639  1.00  0.00     0.211 HD
ENDBRANCH  20  27
BRANCH  21  29
ATOM     29  C   UNL     1      20.243  16.194  82.142  1.00  0.00     0.191 C 
BRANCH  29  30
ATOM     30  O   UNL     1      19.227  15.246  82.329  1.00  0.00    -0.394 OA
ATOM     31  H   UNL     1      19.409  14.802  83.198  1.00  0.00     0.210 HD
ENDBRANCH  29  30
ENDBRANCH  21  29
ENDBRANCH   1  17
TORSDOF 13
ENDMDL
MODEL 8
REMARK VINA RESULT:    -6.020      1.731      5.835
REMARK INTER + INTRA:         -10.326
REMARK INTER:                  -9.340
REMARK INTRA:                  -0.987
REMARK UNBOUND:                -1.139
REMARK SMILES OC[C@@H]1O[C@H](O[C@@]2(CO)O[C@H](CO)[C@@H](O)[C@H]2O)[C@@H](O)[C@H](O)[C@@H]1O
REMARK SMILES IDX 6 1 5 2 3 3 22 4 4 5 20 6 18 7 2 8 1 9 23 11 21 13 19 15
REMARK SMILES IDX 7 17 16 18 10 19 14 20 11 21 8 22 9 23 17 25 15 27 12 29
REMARK SMILES IDX 13 30
REMARK H PARENT 1 10 23 12 21 14 19 16 9 24 17 26 15 28 13 31
REMARK Flexibility Score: inf
ROOT
ATOM      1  O   UNL     1      22.969  19.296  85.553  1.00  0.00    -0.313 OA
ENDROOT
BRANCH   1   2
ATOM      2  C   UNL     1      24.082  20.179  85.470  1.00  0.00     0.285 C 
ATOM      3  C   UNL     1      23.117  21.876  86.853  1.00  0.00     0.178 C 
ATOM      4  C   UNL     1      24.092  21.569  88.021  1.00  0.00     0.177 C 
ATOM      5  O   UNL     1      23.647  21.529  85.577  1.00  0.00    -0.341 OA
ATOM      6  C   UNL     1      24.651  20.138  87.955  1.00  0.00     0.179 C 
ATOM      7  C   UNL     1      25.140  19.814  86.536  1.00  0.00     0.202 C 
BRANCH   3   8
ATOM      8  C   UNL     1      21.674  21.363  87.069  1.00  0.00     0.191 C 
BRANCH   8   9
ATOM      9  O   UNL     1      20.741  22.303  86.609  1.00  0.00    -0.394 OA
ATOM     10  H   UNL     1      21.081  22.637  85.737  1.00  0.00     0.210 HD
ENDBRANCH   8   9
ENDBRANCH   3   8
BRANCH   4  11
ATOM     11  O   UNL     1      23.478  21.787  89.265  1.00  0.00    -0.387 OA
ATOM     12  H   UNL     1      22.525  21.997  89.083  1.00  0.00     0.211 HD
ENDBRANCH   4  11
BRANCH   6  13
ATOM     13  O   UNL     1      23.677  19.198  88.339  1.00  0.00    -0.387 OA
ATOM     14  H   UNL     1      23.961  18.319  87.978  1.00  0.00     0.211 HD
ENDBRANCH   6  13
BRANCH   7  15
ATOM     15  O   UNL     1      26.370  20.447  86.272  1.00  0.00    -0.385 OA
ATOM     16  H   UNL     1      26.408  20.662  85.304  1.00  0.00     0.211 HD
ENDBRANCH   7  15
ENDBRANCH   1   2
BRANCH   1  17
ATOM     17  C   UNL     1      22.724  18.534  84.374  1.00  0.00     0.224 C 
ATOM     18  C   UNL     1      21.847  19.378  83.419  1.00  0.00     0.208 C 
ATOM     19  O   UNL     1      22.029  17.330  84.669  1.00  0.00    -0.337 OA
ATOM     20  C   UNL     1      20.862  18.366  82.883  1.00  0.00     0.180 C 
ATOM     21  C   UNL     1      20.776  17.372  84.026  1.00  0.00     0.179 C 
BRANCH  17  22
ATOM     22  C   UNL     1      24.076  18.190  83.700  1.00  0.00     0.225 C 
BRANCH  22  23
ATOM     23  O   UNL     1      24.644  17.037  84.265  1.00  0.00    -0.391 OA
ATOM     24  H   UNL     1      24.011  16.290  84.101  1.00  0.00     0.210 HD
ENDBRANCH  22  23
ENDBRANCH  17  22
BRANCH  18  25
ATOM     25  O   UNL     1      21.172  20.387  84.134  1.00  0.00    -0.385 OA
ATOM     26  H   UNL     1      21.575  21.253  83.864  1.00  0.00     0.211 HD
ENDBRANCH  18  25
BRANCH  20  27
ATOM     27  O   UNL     1      19.605  18.927  82.609  1.00  0.00    -0.387 OA
ATOM     28  H   UNL     1      19.635  19.860  82.947  1.00  0.00     0.211 HD
ENDBRANCH  20  27
BRANCH  21  29
ATOM     29  C   UNL     1      20.394  15.969  83.538  1.00  0.00     0.191 C 
BRANCH  29  30
ATOM     30  O   UNL     1      19.889  16.027  82.231  1.00  0.00    -0.394 OA
ATOM     31  H   UNL     1      19.019  15.549  82.240  1.00  0.00     0.210 HD
ENDBRANCH  29  30
ENDBRANCH  21  29
ENDBRANCH   1  17
TORSDOF 13
ENDMDL
MODEL 9
REMARK VINA RESULT:    -6.006      1.368      5.538
REMARK INTER + INTRA:         -10.306
REMARK INTER:                  -8.867
REMARK INTRA:                  -1.439
REMARK UNBOUND:                -1.139
REMARK SMILES OC[C@@H]1O[C@H](O[C@@]2(CO)O[C@H](CO)[C@@H](O)[C@H]2O)[C@@H](O)[C@H](O)[C@@H]1O
REMARK SMILES IDX 6 1 5 2 3 3 22 4 4 5 20 6 18 7 2 8 1 9 23 11 21 13 19 15
REMARK SMILES IDX 7 17 16 18 10 19 14 20 11 21 8 22 9 23 17 25 15 27 12 29
REMARK SMILES IDX 13 30
REMARK H PARENT 1 10 23 12 21 14 19 16 9 24 17 26 15 28 13 31
REMARK Flexibility Score: inf
ROOT
ATOM      1  O   UNL     1      22.085  19.133  85.951  1.00  0.00    -0.313 OA
ENDROOT
BRANCH   1   2
ATOM      2  C   UNL     1      22.200  20.549  86.025  1.00  0.00     0.285 C 
ATOM      3  C   UNL     1      24.042  20.540  87.551  1.00  0.00     0.178 C 
ATOM      4  C   UNL     1      25.033  21.022  86.459  1.00  0.00     0.177 C 
ATOM      5  O   UNL     1      22.698  20.936  87.299  1.00  0.00    -0.341 OA
ATOM      6  C   UNL     1      24.548  20.686  85.038  1.00  0.00     0.179 C 
ATOM      7  C   UNL     1      23.074  21.080  84.865  1.00  0.00     0.202 C 
BRANCH   3   8
ATOM      8  C   UNL     1      24.172  19.044  87.921  1.00  0.00     0.191 C 
BRANCH   8   9
ATOM      9  O   UNL     1      23.058  18.619  88.660  1.00  0.00    -0.394 OA
ATOM     10  H   UNL     1      22.855  19.342  89.309  1.00  0.00     0.210 HD
ENDBRANCH   8   9
ENDBRANCH   3   8
BRANCH   4  11
ATOM     11  O   UNL     1      26.316  20.488  86.666  1.00  0.00    -0.387 OA
ATOM     12  H   UNL     1      26.941  21.257  86.729  1.00  0.00     0.211 HD
ENDBRANCH   4  11
BRANCH   6  13
ATOM     13  O   UNL     1      24.699  19.314  84.765  1.00  0.00    -0.387 OA
ATOM     14  H   UNL     1      25.558  19.029  85.172  1.00  0.00     0.211 HD
ENDBRANCH   6  13
BRANCH   7  15
ATOM     15  O   UNL     1      22.940  22.475  84.722  1.00  0.00    -0.385 OA
ATOM     16  H   UNL     1      23.687  22.803  84.157  1.00  0.00     0.211 HD
ENDBRANCH   7  15
ENDBRANCH   1   2
BRANCH   1  17
ATOM     17  C   UNL     1      20.953  18.665  85.223  1.00  0.00     0.224 C 
ATOM     18  C   UNL     1      20.412  17.395  85.924  1.00  0.00     0.208 C 
ATOM     19  O   UNL     1      21.299  18.323  83.888  1.00  0.00    -0.337 OA
ATOM     20  C   UNL     1      20.081  16.486  84.764  1.00  0.00     0.180 C 
ATOM     21  C   UNL     1      21.072  16.944  83.709  1.00  0.00     0.179 C 
BRANCH  17  22
ATOM     22  C   UNL     1      19.868  19.771  85.202  1.00  0.00     0.225 C 
BRANCH  22  23
ATOM     23  O   UNL     1      19.523  20.114  83.885  1.00  0.00    -0.391 OA
ATOM     24  H   UNL     1      20.251  20.689  83.533  1.00  0.00     0.210 HD
ENDBRANCH  22  23
ENDBRANCH  17  22
BRANCH  18  25
ATOM     25  O   UNL     1      21.411  16.816  86.731  1.00  0.00    -0.385 OA
ATOM     26  H   UNL     1      21.102  16.889  87.672  1.00  0.00     0.211 HD
ENDBRANCH  18  25
BRANCH  20  27
ATOM     27  O   UNL     1      20.266  15.129  85.071  1.00  0.00    -0.387 OA
ATOM     28  H   UNL     1      21.248  14.980  85.104  1.00  0.00     0.211 HD
ENDBRANCH  20  27
BRANCH  21  29
ATOM     29  C   UNL     1      20.559  16.680  82.289  1.00  0.00     0.191 C 
BRANCH  29  30
ATOM     30  O   UNL     1      19.778  17.755  81.843  1.00  0.00    -0.394 OA
ATOM     31  H   UNL     1      18.937  17.733  82.370  1.00  0.00     0.210 HD
ENDBRANCH  29  30
ENDBRANCH  21  29
ENDBRANCH   1  17
TORSDOF 13
ENDMDL
