MODEL 1
REMARK VINA RESULT:    -3.795      0.000      0.000
REMARK INTER + INTRA:          -7.036
REMARK INTER:                  -5.791
REMARK INTRA:                  -1.245
REMARK UNBOUND:                -1.245
REMARK SMILES CCCCCCCCCCC(=O)[O-]
REMARK SMILES IDX 7 1 8 2 9 3 10 4 11 5 12 6 13 7 6 8 5 9 4 10 3 11 2 12 1 13
REMARK H PARENT
REMARK Flexibility Score: inf
ROOT
ATOM      1  C   UNL     1       5.274  -6.873 -32.662  1.00  0.00     0.000 C 
ENDROOT
BRANCH   1   2
ATOM      2  C   UNL     1       5.369  -7.990 -33.716  1.00  0.00     0.000 C 
BRANCH   2   3
ATOM      3  C   UNL     1       5.977  -7.511 -35.042  1.00  0.00     0.006 C 
BRANCH   3   4
ATOM      4  C   UNL     1       5.089  -6.452 -35.701  1.00  0.00     0.053 C 
BRANCH   4   5
ATOM      5  C   UNL     1       3.936  -7.099 -36.401  1.00  0.00     0.041 C 
ATOM      6  O   UNL     1       2.761  -6.919 -35.986  1.00  0.00    -0.550 OA
ATOM      7  O   UNL     1       4.163  -7.942 -37.482  1.00  0.00    -0.550 OA
ENDBRANCH   4   5
ENDBRANCH   3   4
ENDBRANCH   2   3
ENDBRANCH   1   2
BRANCH   1   8
ATOM      8  C   UNL     1       6.351  -6.971 -31.561  1.00  0.00     0.000 C 
BRANCH   8   9
ATOM      9  C   UNL     1       7.334  -5.787 -31.605  1.00  0.00    -0.000 C 
BRANCH   9  10
ATOM     10  C   UNL     1       8.307  -5.874 -32.792  1.00  0.00    -0.000 C 
BRANCH  10  11
ATOM     11  C   UNL     1       8.159  -4.684 -33.756  1.00  0.00    -0.000 C 
BRANCH  11  12
ATOM     12  C   UNL     1       7.176  -3.623 -33.235  1.00  0.00    -0.003 C 
ATOM     13  C   UNL     1       6.170  -3.177 -34.295  1.00  0.00     0.004 C 
ENDBRANCH  11  12
ENDBRANCH  10  11
ENDBRANCH   9  10
ENDBRANCH   8   9
ENDBRANCH   1   8
TORSDOF 9
ENDMDL
MODEL 2
REMARK VINA RESULT:    -3.772     13.865     15.483
REMARK INTER + INTRA:          -7.001
REMARK INTER:                  -6.311
REMARK INTRA:                  -0.690
REMARK UNBOUND:                -1.245
REMARK SMILES CCCCCCCCCCC(=O)[O-]
REMARK SMILES IDX 7 1 8 2 9 3 10 4 11 5 12 6 13 7 6 8 5 9 4 10 3 11 2 12 1 13
REMARK H PARENT
REMARK Flexibility Score: inf
ROOT
ATOM      1  C   UNL     1      13.893  -2.330 -20.328  1.00  0.00     0.000 C 
ENDROOT
BRANCH   1   2
ATOM      2  C   UNL     1      12.982  -2.312 -19.087  1.00  0.00     0.000 C 
BRANCH   2   3
ATOM      3  C   UNL     1      11.537  -1.911 -19.411  1.00  0.00     0.006 C 
BRANCH   3   4
ATOM      4  C   UNL     1      11.339  -1.748 -20.921  1.00  0.00     0.053 C 
BRANCH   4   5
ATOM      5  C   UNL     1       9.939  -1.315 -21.221  1.00  0.00     0.041 C 
ATOM      6  O   UNL     1       8.974  -2.094 -21.004  1.00  0.00    -0.550 OA
ATOM      7  O   UNL     1       9.704  -0.068 -21.787  1.00  0.00    -0.550 OA
ENDBRANCH   4   5
ENDBRANCH   3   4
ENDBRANCH   2   3
ENDBRANCH   1   2
BRANCH   1   8
ATOM      8  C   UNL     1      14.972  -3.433 -20.285  1.00  0.00     0.000 C 
BRANCH   8   9
ATOM      9  C   UNL     1      14.389  -4.826 -20.585  1.00  0.00    -0.000 C 
BRANCH   9  10
ATOM     10  C   UNL     1      13.438  -4.818 -21.793  1.00  0.00    -0.000 C 
BRANCH  10  11
ATOM     11  C   UNL     1      14.177  -4.552 -23.116  1.00  0.00    -0.000 C 
BRANCH  11  12
ATOM     12  C   UNL     1      14.539  -5.848 -23.859  1.00  0.00    -0.003 C 
ATOM     13  C   UNL     1      15.903  -6.404 -23.450  1.00  0.00     0.004 C 
ENDBRANCH  11  12
ENDBRANCH  10  11
ENDBRANCH   9  10
ENDBRANCH   8   9
ENDBRANCH   1   8
TORSDOF 9
ENDMDL
MODEL 3
REMARK VINA RESULT:    -3.752      1.603      1.978
REMARK INTER + INTRA:          -6.972
REMARK INTER:                  -6.010
REMARK INTRA:                  -0.961
REMARK UNBOUND:                -1.245
REMARK SMILES CCCCCCCCCCC(=O)[O-]
REMARK SMILES IDX 7 1 8 2 9 3 10 4 11 5 12 6 13 7 6 8 5 9 4 10 3 11 2 12 1 13
REMARK H PARENT
REMARK Flexibility Score: inf
ROOT
ATOM      1  C   UNL     1       5.309  -6.765 -32.670  1.00  0.00     0.000 C 
ENDROOT
BRANCH   1   2
ATOM      2  C   UNL     1       5.365  -7.914 -33.692  1.00  0.00     0.000 C 
BRANCH   2   3
ATOM      3  C   UNL     1       4.897  -7.493 -35.092  1.00  0.00     0.006 C 
BRANCH   3   4
ATOM      4  C   UNL     1       5.715  -8.197 -36.178  1.00  0.00     0.053 C 
BRANCH   4   5
ATOM      5  C   UNL     1       6.891  -7.360 -36.571  1.00  0.00     0.041 C 
ATOM      6  O   UNL     1       6.805  -6.562 -37.540  1.00  0.00    -0.550 OA
ATOM      7  O   UNL     1       8.099  -7.499 -35.898  1.00  0.00    -0.550 OA
ENDBRANCH   4   5
ENDBRANCH   3   4
ENDBRANCH   2   3
ENDBRANCH   1   2
BRANCH   1   8
ATOM      8  C   UNL     1       6.379  -6.872 -31.563  1.00  0.00     0.000 C 
BRANCH   8   9
ATOM      9  C   UNL     1       7.404  -5.726 -31.636  1.00  0.00    -0.000 C 
BRANCH   9  10
ATOM     10  C   UNL     1       8.309  -5.824 -32.875  1.00  0.00    -0.000 C 
BRANCH  10  11
ATOM     11  C   UNL     1       8.172  -4.599 -33.795  1.00  0.00    -0.000 C 
BRANCH  11  12
ATOM     12  C   UNL     1       7.114  -3.602 -33.295  1.00  0.00    -0.003 C 
ATOM     13  C   UNL     1       6.016  -3.338 -34.326  1.00  0.00     0.004 C 
ENDBRANCH  11  12
ENDBRANCH  10  11
ENDBRANCH   9  10
ENDBRANCH   8   9
ENDBRANCH   1   8
TORSDOF 9
ENDMDL
MODEL 4
REMARK VINA RESULT:    -3.720      2.330      4.695
REMARK INTER + INTRA:          -6.922
REMARK INTER:                  -5.765
REMARK INTRA:                  -1.158
REMARK UNBOUND:                -1.245
REMARK SMILES CCCCCCCCCCC(=O)[O-]
REMARK SMILES IDX 7 1 8 2 9 3 10 4 11 5 12 6 13 7 6 8 5 9 4 10 3 11 2 12 1 13
REMARK H PARENT
REMARK Flexibility Score: inf
ROOT
ATOM      1  C   UNL     1       7.289  -3.521 -33.266  1.00  0.00     0.000 C 
ENDROOT
BRANCH   1   2
ATOM      2  C   UNL     1       8.195  -4.704 -33.651  1.00  0.00     0.000 C 
BRANCH   2   3
ATOM      3  C   UNL     1       8.200  -5.821 -32.598  1.00  0.00     0.006 C 
BRANCH   3   4
ATOM      4  C   UNL     1       7.012  -5.678 -31.642  1.00  0.00     0.053 C 
BRANCH   4   5
ATOM      5  C   UNL     1       6.164  -6.910 -31.675  1.00  0.00     0.041 C 
ATOM      6  O   UNL     1       6.494  -7.925 -31.007  1.00  0.00    -0.550 OA
ATOM      7  O   UNL     1       5.036  -6.956 -32.484  1.00  0.00    -0.550 OA
ENDBRANCH   4   5
ENDBRANCH   3   4
ENDBRANCH   2   3
ENDBRANCH   1   2
BRANCH   1   8
ATOM      8  C   UNL     1       6.745  -2.741 -34.481  1.00  0.00     0.000 C 
BRANCH   8   9
ATOM      9  C   UNL     1       5.505  -3.417 -35.095  1.00  0.00    -0.000 C 
BRANCH   9  10
ATOM     10  C   UNL     1       5.640  -3.628 -36.612  1.00  0.00    -0.000 C 
BRANCH  10  11
ATOM     11  C   UNL     1       6.032  -5.072 -36.966  1.00  0.00    -0.000 C 
BRANCH  11  12
ATOM     12  C   UNL     1       5.545  -6.089 -35.921  1.00  0.00    -0.003 C 
ATOM     13  C   UNL     1       6.545  -7.220 -35.686  1.00  0.00     0.004 C 
ENDBRANCH  11  12
ENDBRANCH  10  11
ENDBRANCH   9  10
ENDBRANCH   8   9
ENDBRANCH   1   8
TORSDOF 9
ENDMDL
MODEL 5
REMARK VINA RESULT:    -3.714      4.997      6.776
REMARK INTER + INTRA:          -6.913
REMARK INTER:                  -6.416
REMARK INTRA:                  -0.497
REMARK UNBOUND:                -1.245
REMARK SMILES CCCCCCCCCCC(=O)[O-]
REMARK SMILES IDX 7 1 8 2 9 3 10 4 11 5 12 6 13 7 6 8 5 9 4 10 3 11 2 12 1 13
REMARK H PARENT
REMARK Flexibility Score: inf
ROOT
ATOM      1  C   UNL     1       7.377  -2.381 -35.417  1.00  0.00     0.000 C 
ENDROOT
BRANCH   1   2
ATOM      2  C   UNL     1       8.771  -2.593 -36.032  1.00  0.00     0.000 C 
BRANCH   2   3
ATOM      3  C   UNL     1       9.847  -1.701 -35.398  1.00  0.00     0.006 C 
BRANCH   3   4
ATOM      4  C   UNL     1      11.040  -1.526 -36.342  1.00  0.00     0.053 C 
BRANCH   4   5
ATOM      5  C   UNL     1      12.323  -1.784 -35.615  1.00  0.00     0.041 C 
ATOM      6  O   UNL     1      12.347  -1.791 -34.356  1.00  0.00    -0.550 OA
ATOM      7  O   UNL     1      13.501  -1.965 -36.328  1.00  0.00    -0.550 OA
ENDBRANCH   4   5
ENDBRANCH   3   4
ENDBRANCH   2   3
ENDBRANCH   1   2
BRANCH   1   8
ATOM      8  C   UNL     1       7.252  -2.913 -33.974  1.00  0.00     0.000 C 
BRANCH   8   9
ATOM      9  C   UNL     1       6.429  -4.212 -33.904  1.00  0.00    -0.000 C 
BRANCH   9  10
ATOM     10  C   UNL     1       7.294  -5.468 -34.100  1.00  0.00    -0.000 C 
BRANCH  10  11
ATOM     11  C   UNL     1       8.204  -5.744 -32.890  1.00  0.00    -0.000 C 
BRANCH  11  12
ATOM     12  C   UNL     1       7.420  -5.831 -31.571  1.00  0.00    -0.003 C 
ATOM     13  C   UNL     1       6.342  -6.914 -31.594  1.00  0.00     0.004 C 
ENDBRANCH  11  12
ENDBRANCH  10  11
ENDBRANCH   9  10
ENDBRANCH   8   9
ENDBRANCH   1   8
TORSDOF 9
ENDMDL
MODEL 6
REMARK VINA RESULT:    -3.663      1.518      3.556
REMARK INTER + INTRA:          -6.836
REMARK INTER:                  -5.733
REMARK INTRA:                  -1.102
REMARK UNBOUND:                -1.245
REMARK SMILES CCCCCCCCCCC(=O)[O-]
REMARK SMILES IDX 7 1 8 2 9 3 10 4 11 5 12 6 13 7 6 8 5 9 4 10 3 11 2 12 1 13
REMARK H PARENT
REMARK Flexibility Score: inf
ROOT
ATOM      1  C   UNL     1       7.279  -3.758 -33.053  1.00  0.00     0.000 C 
ENDROOT
BRANCH   1   2
ATOM      2  C   UNL     1       6.913  -2.872 -34.257  1.00  0.00     0.000 C 
BRANCH   2   3
ATOM      3  C   UNL     1       5.564  -3.245 -34.887  1.00  0.00     0.006 C 
BRANCH   3   4
ATOM      4  C   UNL     1       5.755  -4.225 -36.049  1.00  0.00     0.053 C 
BRANCH   4   5
ATOM      5  C   UNL     1       4.437  -4.561 -36.670  1.00  0.00     0.041 C 
ATOM      6  O   UNL     1       4.252  -5.693 -37.191  1.00  0.00    -0.550 OA
ATOM      7  O   UNL     1       3.428  -3.608 -36.719  1.00  0.00    -0.550 OA
ENDBRANCH   4   5
ENDBRANCH   3   4
ENDBRANCH   2   3
ENDBRANCH   1   2
BRANCH   1   8
ATOM      8  C   UNL     1       8.245  -4.908 -33.405  1.00  0.00     0.000 C 
BRANCH   8   9
ATOM      9  C   UNL     1       8.187  -6.050 -32.374  1.00  0.00    -0.000 C 
BRANCH   9  10
ATOM     10  C   UNL     1       6.843  -6.103 -31.629  1.00  0.00    -0.000 C 
BRANCH  10  11
ATOM     11  C   UNL     1       5.952  -7.258 -32.116  1.00  0.00    -0.000 C 
BRANCH  11  12
ATOM     12  C   UNL     1       5.180  -6.907 -33.397  1.00  0.00    -0.003 C 
ATOM     13  C   UNL     1       5.665  -7.693 -34.615  1.00  0.00     0.004 C 
ENDBRANCH  11  12
ENDBRANCH  10  11
ENDBRANCH   9  10
ENDBRANCH   8   9
ENDBRANCH   1   8
TORSDOF 9
ENDMDL
MODEL 7
REMARK VINA RESULT:    -3.629     11.487     13.461
REMARK INTER + INTRA:          -6.784
REMARK INTER:                  -6.035
REMARK INTRA:                  -0.749
REMARK UNBOUND:                -1.245
REMARK SMILES CCCCCCCCCCC(=O)[O-]
REMARK SMILES IDX 7 1 8 2 9 3 10 4 11 5 12 6 13 7 6 8 5 9 4 10 3 11 2 12 1 13
REMARK H PARENT
REMARK Flexibility Score: inf
ROOT
ATOM      1  C   UNL     1       5.252 -12.985 -20.285  1.00  0.00     0.000 C 
ENDROOT
BRANCH   1   2
ATOM      2  C   UNL     1       4.355 -11.815 -20.723  1.00  0.00     0.000 C 
BRANCH   2   3
ATOM      3  C   UNL     1       2.877 -12.210 -20.855  1.00  0.00     0.006 C 
BRANCH   3   4
ATOM      4  C   UNL     1       2.303 -11.741 -22.195  1.00  0.00     0.053 C 
BRANCH   4   5
ATOM      5  C   UNL     1       2.051 -12.911 -23.093  1.00  0.00     0.041 C 
ATOM      6  O   UNL     1       1.527 -12.740 -24.225  1.00  0.00    -0.550 OA
ATOM      7  O   UNL     1       2.348 -14.197 -22.659  1.00  0.00    -0.550 OA
ENDBRANCH   4   5
ENDBRANCH   3   4
ENDBRANCH   2   3
ENDBRANCH   1   2
BRANCH   1   8
ATOM      8  C   UNL     1       5.644 -13.928 -21.441  1.00  0.00     0.000 C 
BRANCH   8   9
ATOM      9  C   UNL     1       6.587 -13.247 -22.450  1.00  0.00    -0.000 C 
BRANCH   9  10
ATOM     10  C   UNL     1       5.932 -13.050 -23.827  1.00  0.00    -0.000 C 
BRANCH  10  11
ATOM     11  C   UNL     1       6.963 -12.733 -24.923  1.00  0.00    -0.000 C 
BRANCH  11  12
ATOM     12  C   UNL     1       8.285 -12.195 -24.350  1.00  0.00    -0.003 C 
ATOM     13  C   UNL     1       8.869 -11.053 -25.182  1.00  0.00     0.004 C 
ENDBRANCH  11  12
ENDBRANCH  10  11
ENDBRANCH   9  10
ENDBRANCH   8   9
ENDBRANCH   1   8
TORSDOF 9
ENDMDL
MODEL 8
REMARK VINA RESULT:    -3.623      1.975      3.771
REMARK INTER + INTRA:          -6.774
REMARK INTER:                  -5.816
REMARK INTRA:                  -0.958
REMARK UNBOUND:                -1.245
REMARK SMILES CCCCCCCCCCC(=O)[O-]
REMARK SMILES IDX 7 1 8 2 9 3 10 4 11 5 12 6 13 7 6 8 5 9 4 10 3 11 2 12 1 13
REMARK H PARENT
REMARK Flexibility Score: inf
ROOT
ATOM      1  C   UNL     1       6.643  -2.857 -35.415  1.00  0.00     0.000 C 
ENDROOT
BRANCH   1   2
ATOM      2  C   UNL     1       5.389  -3.592 -35.919  1.00  0.00     0.000 C 
BRANCH   2   3
ATOM      3  C   UNL     1       5.651  -5.070 -36.240  1.00  0.00     0.006 C 
BRANCH   3   4
ATOM      4  C   UNL     1       7.008  -5.250 -36.927  1.00  0.00     0.053 C 
BRANCH   4   5
ATOM      5  C   UNL     1       7.390  -6.696 -36.959  1.00  0.00     0.041 C 
ATOM      6  O   UNL     1       7.982  -7.173 -37.962  1.00  0.00    -0.550 OA
ATOM      7  O   UNL     1       7.047  -7.529 -35.901  1.00  0.00    -0.550 OA
ENDBRANCH   4   5
ENDBRANCH   3   4
ENDBRANCH   2   3
ENDBRANCH   1   2
BRANCH   1   8
ATOM      8  C   UNL     1       6.828  -2.931 -33.885  1.00  0.00     0.000 C 
BRANCH   8   9
ATOM      9  C   UNL     1       8.057  -3.770 -33.490  1.00  0.00    -0.000 C 
BRANCH   9  10
ATOM     10  C   UNL     1       7.704  -5.242 -33.221  1.00  0.00    -0.000 C 
BRANCH  10  11
ATOM     11  C   UNL     1       7.289  -5.485 -31.760  1.00  0.00    -0.000 C 
BRANCH  11  12
ATOM     12  C   UNL     1       6.411  -6.737 -31.598  1.00  0.00    -0.003 C 
ATOM     13  C   UNL     1       5.436  -6.930 -32.759  1.00  0.00     0.004 C 
ENDBRANCH  11  12
ENDBRANCH  10  11
ENDBRANCH   9  10
ENDBRANCH   8   9
ENDBRANCH   1   8
TORSDOF 9
ENDMDL
MODEL 9
REMARK VINA RESULT:    -3.551     14.641     16.821
REMARK INTER + INTRA:          -6.665
REMARK INTER:                  -5.715
REMARK INTRA:                  -0.950
REMARK UNBOUND:                -1.245
REMARK SMILES CCCCCCCCCCC(=O)[O-]
REMARK SMILES IDX 7 1 8 2 9 3 10 4 11 5 12 6 13 7 6 8 5 9 4 10 3 11 2 12 1 13
REMARK H PARENT
REMARK Flexibility Score: inf
ROOT
ATOM      1  C   UNL     1      14.739  -2.889 -21.620  1.00  0.00     0.000 C 
ENDROOT
BRANCH   1   2
ATOM      2  C   UNL     1      14.727  -2.371 -20.170  1.00  0.00     0.000 C 
BRANCH   2   3
ATOM      3  C   UNL     1      15.469  -3.299 -19.198  1.00  0.00     0.006 C 
BRANCH   3   4
ATOM      4  C   UNL     1      14.494  -4.249 -18.496  1.00  0.00     0.053 C 
BRANCH   4   5
ATOM      5  C   UNL     1      14.843  -5.672 -18.800  1.00  0.00     0.041 C 
ATOM      6  O   UNL     1      13.940  -6.492 -19.111  1.00  0.00    -0.550 OA
ATOM      7  O   UNL     1      16.158  -6.104 -18.690  1.00  0.00    -0.550 OA
ENDBRANCH   4   5
ENDBRANCH   3   4
ENDBRANCH   2   3
ENDBRANCH   1   2
BRANCH   1   8
ATOM      8  C   UNL     1      13.448  -3.632 -22.020  1.00  0.00     0.000 C 
BRANCH   8   9
ATOM      9  C   UNL     1      13.705  -5.119 -22.322  1.00  0.00    -0.000 C 
BRANCH   9  10
ATOM     10  C   UNL     1      14.320  -5.339 -23.714  1.00  0.00    -0.000 C 
BRANCH  10  11
ATOM     11  C   UNL     1      15.669  -6.076 -23.645  1.00  0.00    -0.000 C 
BRANCH  11  12
ATOM     12  C   UNL     1      16.255  -6.100 -22.224  1.00  0.00    -0.003 C 
ATOM     13  C   UNL     1      17.253  -7.239 -22.015  1.00  0.00     0.004 C 
ENDBRANCH  11  12
ENDBRANCH  10  11
ENDBRANCH   9  10
ENDBRANCH   8   9
ENDBRANCH   1   8
TORSDOF 9
ENDMDL
