MODEL 1
REMARK VINA RESULT:    -5.283      0.000      0.000
REMARK INTER + INTRA:          -5.283
REMARK INTER:                  -5.283
REMARK INTRA:                   0.000
REMARK UNBOUND:                 0.000
REMARK SMILES CC(C)=C1CC[C@@H](C)CC1=O
REMARK SMILES IDX 8 1 7 2 6 3 5 4 4 5 2 6 1 7 3 8 10 9 11 10 9 11
REMARK H PARENT
REMARK Flexibility Score: inf
ROOT
ATOM      1  C   UNL     1     -21.295 -53.878  22.804  1.00  0.00     0.008 C 
ATOM      2  C   UNL     1     -20.580 -53.196  23.974  1.00  0.00    -0.006 C 
ATOM      3  C   UNL     1     -21.554 -52.963  25.141  1.00  0.00     0.008 C 
ATOM      4  C   UNL     1     -20.832 -52.373  26.360  1.00  0.00     0.039 C 
ATOM      5  C   UNL     1     -20.024 -51.129  26.015  1.00  0.00    -0.006 C 
ATOM      6  C   UNL     1     -19.852 -50.121  26.921  1.00  0.00    -0.070 C 
ATOM      7  C   UNL     1     -20.440 -50.209  28.311  1.00  0.00     0.039 C 
ATOM      8  C   UNL     1     -19.101 -48.857  26.571  1.00  0.00     0.039 C 
ATOM      9  C   UNL     1     -19.347 -51.135  24.684  1.00  0.00     0.159 C 
ATOM     10  O   UNL     1     -18.248 -50.544  24.506  1.00  0.00    -0.295 OA
ATOM     11  C   UNL     1     -19.970 -51.859  23.526  1.00  0.00     0.084 C 
ENDROOT
TORSDOF 0
ENDMDL
MODEL 2
REMARK VINA RESULT:    -5.119      5.103      6.828
REMARK INTER + INTRA:          -5.119
REMARK INTER:                  -5.119
REMARK INTRA:                   0.000
REMARK UNBOUND:                 0.000
REMARK SMILES CC(C)=C1CC[C@@H](C)CC1=O
REMARK SMILES IDX 8 1 7 2 6 3 5 4 4 5 2 6 1 7 3 8 10 9 11 10 9 11
REMARK H PARENT
REMARK Flexibility Score: inf
ROOT
ATOM      1  C   UNL     1     -28.779 -53.503  25.624  1.00  0.00     0.008 C 
ATOM      2  C   UNL     1     -27.250 -53.423  25.551  1.00  0.00    -0.006 C 
ATOM      3  C   UNL     1     -26.775 -53.485  24.090  1.00  0.00     0.008 C 
ATOM      4  C   UNL     1     -25.254 -53.304  23.991  1.00  0.00     0.039 C 
ATOM      5  C   UNL     1     -24.491 -54.262  24.897  1.00  0.00    -0.006 C 
ATOM      6  C   UNL     1     -23.258 -54.736  24.550  1.00  0.00    -0.070 C 
ATOM      7  C   UNL     1     -22.591 -54.313  23.260  1.00  0.00     0.039 C 
ATOM      8  C   UNL     1     -22.516 -55.730  25.412  1.00  0.00     0.039 C 
ATOM      9  C   UNL     1     -25.118 -54.552  26.220  1.00  0.00     0.159 C 
ATOM     10  O   UNL     1     -24.415 -54.786  27.240  1.00  0.00    -0.295 OA
ATOM     11  C   UNL     1     -26.612 -54.562  26.359  1.00  0.00     0.084 C 
ENDROOT
TORSDOF 0
ENDMDL
MODEL 3
REMARK VINA RESULT:    -5.110      2.454      4.563
REMARK INTER + INTRA:          -5.110
REMARK INTER:                  -5.110
REMARK INTRA:                   0.000
REMARK UNBOUND:                 0.000
REMARK SMILES CC(C)=C1CC[C@@H](C)CC1=O
REMARK SMILES IDX 8 1 7 2 6 3 5 4 4 5 2 6 1 7 3 8 10 9 11 10 9 11
REMARK H PARENT
REMARK Flexibility Score: inf
ROOT
ATOM      1  C   UNL     1     -18.997 -50.976  24.236  1.00  0.00     0.008 C 
ATOM      2  C   UNL     1     -20.345 -51.703  24.257  1.00  0.00    -0.006 C 
ATOM      3  C   UNL     1     -20.837 -51.889  25.702  1.00  0.00     0.008 C 
ATOM      4  C   UNL     1     -22.233 -52.525  25.738  1.00  0.00     0.039 C 
ATOM      5  C   UNL     1     -22.312 -53.809  24.923  1.00  0.00    -0.006 C 
ATOM      6  C   UNL     1     -23.144 -54.829  25.286  1.00  0.00    -0.070 C 
ATOM      7  C   UNL     1     -24.035 -54.718  26.502  1.00  0.00     0.039 C 
ATOM      8  C   UNL     1     -23.189 -56.130  24.518  1.00  0.00     0.039 C 
ATOM      9  C   UNL     1     -21.520 -53.832  23.657  1.00  0.00     0.159 C 
ATOM     10  O   UNL     1     -21.913 -54.480  22.650  1.00  0.00    -0.295 OA
ATOM     11  C   UNL     1     -20.231 -53.068  23.562  1.00  0.00     0.084 C 
ENDROOT
TORSDOF 0
ENDMDL
MODEL 4
REMARK VINA RESULT:    -5.088      3.664      6.095
REMARK INTER + INTRA:          -5.088
REMARK INTER:                  -5.088
REMARK INTRA:                   0.000
REMARK UNBOUND:                 0.000
REMARK SMILES CC(C)=C1CC[C@@H](C)CC1=O
REMARK SMILES IDX 8 1 7 2 6 3 5 4 4 5 2 6 1 7 3 8 10 9 11 10 9 11
REMARK H PARENT
REMARK Flexibility Score: inf
ROOT
ATOM      1  C   UNL     1     -17.640 -52.358  33.242  1.00  0.00     0.008 C 
ATOM      2  C   UNL     1     -17.678 -51.520  31.960  1.00  0.00    -0.006 C 
ATOM      3  C   UNL     1     -19.109 -51.041  31.669  1.00  0.00     0.008 C 
ATOM      4  C   UNL     1     -19.149 -50.116  30.445  1.00  0.00     0.039 C 
ATOM      5  C   UNL     1     -18.479 -50.733  29.225  1.00  0.00    -0.006 C 
ATOM      6  C   UNL     1     -18.914 -50.454  27.960  1.00  0.00    -0.070 C 
ATOM      7  C   UNL     1     -20.066 -49.505  27.719  1.00  0.00     0.039 C 
ATOM      8  C   UNL     1     -18.294 -51.104  26.745  1.00  0.00     0.039 C 
ATOM      9  C   UNL     1     -17.263 -51.557  29.491  1.00  0.00     0.159 C 
ATOM     10  O   UNL     1     -16.317 -51.616  28.660  1.00  0.00    -0.295 OA
ATOM     11  C   UNL     1     -17.145 -52.333  30.771  1.00  0.00     0.084 C 
ENDROOT
TORSDOF 0
ENDMDL
MODEL 5
REMARK VINA RESULT:    -5.003      5.945      7.275
REMARK INTER + INTRA:          -5.003
REMARK INTER:                  -5.003
REMARK INTRA:                   0.000
REMARK UNBOUND:                 0.000
REMARK SMILES CC(C)=C1CC[C@@H](C)CC1=O
REMARK SMILES IDX 8 1 7 2 6 3 5 4 4 5 2 6 1 7 3 8 10 9 11 10 9 11
REMARK H PARENT
REMARK Flexibility Score: inf
ROOT
ATOM      1  C   UNL     1     -23.242 -55.773  25.383  1.00  0.00     0.008 C 
ATOM      2  C   UNL     1     -24.299 -54.678  25.559  1.00  0.00    -0.006 C 
ATOM      3  C   UNL     1     -24.488 -54.342  27.047  1.00  0.00     0.008 C 
ATOM      4  C   UNL     1     -25.469 -53.176  27.235  1.00  0.00     0.039 C 
ATOM      5  C   UNL     1     -26.791 -53.403  26.515  1.00  0.00    -0.006 C 
ATOM      6  C   UNL     1     -27.963 -52.904  27.008  1.00  0.00    -0.070 C 
ATOM      7  C   UNL     1     -27.993 -52.090  28.281  1.00  0.00     0.039 C 
ATOM      8  C   UNL     1     -29.288 -53.171  26.332  1.00  0.00     0.039 C 
ATOM      9  C   UNL     1     -26.707 -54.095  25.194  1.00  0.00     0.159 C 
ATOM     10  O   UNL     1     -27.519 -53.835  24.266  1.00  0.00    -0.295 OA
ATOM     11  C   UNL     1     -25.638 -55.119  24.947  1.00  0.00     0.084 C 
ENDROOT
TORSDOF 0
ENDMDL
MODEL 6
REMARK VINA RESULT:    -5.001      3.198      5.574
REMARK INTER + INTRA:          -5.001
REMARK INTER:                  -5.001
REMARK INTRA:                   0.000
REMARK UNBOUND:                 0.000
REMARK SMILES CC(C)=C1CC[C@@H](C)CC1=O
REMARK SMILES IDX 8 1 7 2 6 3 5 4 4 5 2 6 1 7 3 8 10 9 11 10 9 11
REMARK H PARENT
REMARK Flexibility Score: inf
ROOT
ATOM      1  C   UNL     1     -16.875 -51.601  31.877  1.00  0.00     0.008 C 
ATOM      2  C   UNL     1     -17.691 -51.609  30.580  1.00  0.00    -0.006 C 
ATOM      3  C   UNL     1     -16.764 -51.515  29.357  1.00  0.00     0.008 C 
ATOM      4  C   UNL     1     -17.557 -51.625  28.047  1.00  0.00     0.039 C 
ATOM      5  C   UNL     1     -18.715 -50.638  27.981  1.00  0.00    -0.006 C 
ATOM      6  C   UNL     1     -19.125 -50.105  26.792  1.00  0.00    -0.070 C 
ATOM      7  C   UNL     1     -18.458 -50.487  25.491  1.00  0.00     0.039 C 
ATOM      8  C   UNL     1     -20.235 -49.082  26.721  1.00  0.00     0.039 C 
ATOM      9  C   UNL     1     -19.435 -50.386  29.264  1.00  0.00     0.159 C 
ATOM     10  O   UNL     1     -20.668 -50.125  29.283  1.00  0.00    -0.295 OA
ATOM     11  C   UNL     1     -18.694 -50.446  30.568  1.00  0.00     0.084 C 
ENDROOT
TORSDOF 0
ENDMDL
MODEL 7
REMARK VINA RESULT:    -4.981      5.991      7.420
REMARK INTER + INTRA:          -4.981
REMARK INTER:                  -4.981
REMARK INTRA:                   0.000
REMARK UNBOUND:                 0.000
REMARK SMILES CC(C)=C1CC[C@@H](C)CC1=O
REMARK SMILES IDX 8 1 7 2 6 3 5 4 4 5 2 6 1 7 3 8 10 9 11 10 9 11
REMARK H PARENT
REMARK Flexibility Score: inf
ROOT
ATOM      1  C   UNL     1     -23.136 -55.515  24.948  1.00  0.00     0.008 C 
ATOM      2  C   UNL     1     -24.518 -55.367  25.594  1.00  0.00    -0.006 C 
ATOM      3  C   UNL     1     -25.505 -54.712  24.615  1.00  0.00     0.008 C 
ATOM      4  C   UNL     1     -26.919 -54.649  25.209  1.00  0.00     0.039 C 
ATOM      5  C   UNL     1     -26.946 -54.001  26.587  1.00  0.00    -0.006 C 
ATOM      6  C   UNL     1     -28.025 -53.280  27.012  1.00  0.00    -0.070 C 
ATOM      7  C   UNL     1     -29.246 -53.110  26.137  1.00  0.00     0.039 C 
ATOM      8  C   UNL     1     -28.039 -52.586  28.354  1.00  0.00     0.039 C 
ATOM      9  C   UNL     1     -25.782 -54.300  27.474  1.00  0.00     0.159 C 
ATOM     10  O   UNL     1     -25.914 -54.369  28.726  1.00  0.00    -0.295 OA
ATOM     11  C   UNL     1     -24.423 -54.533  26.881  1.00  0.00     0.084 C 
ENDROOT
TORSDOF 0
ENDMDL
MODEL 8
REMARK VINA RESULT:    -4.906      4.003      5.510
REMARK INTER + INTRA:          -4.906
REMARK INTER:                  -4.906
REMARK INTRA:                   0.000
REMARK UNBOUND:                 0.000
REMARK SMILES CC(C)=C1CC[C@@H](C)CC1=O
REMARK SMILES IDX 8 1 7 2 6 3 5 4 4 5 2 6 1 7 3 8 10 9 11 10 9 11
REMARK H PARENT
REMARK Flexibility Score: inf
ROOT
ATOM      1  C   UNL     1     -19.679 -48.977  27.027  1.00  0.00     0.008 C 
ATOM      2  C   UNL     1     -19.259 -50.067  28.017  1.00  0.00    -0.006 C 
ATOM      3  C   UNL     1     -20.352 -50.286  29.076  1.00  0.00     0.008 C 
ATOM      4  C   UNL     1     -19.994 -51.446  30.016  1.00  0.00     0.039 C 
ATOM      5  C   UNL     1     -18.608 -51.294  30.628  1.00  0.00    -0.006 C 
ATOM      6  C   UNL     1     -18.329 -51.766  31.879  1.00  0.00    -0.070 C 
ATOM      7  C   UNL     1     -19.381 -52.477  32.700  1.00  0.00     0.039 C 
ATOM      8  C   UNL     1     -16.974 -51.571  32.520  1.00  0.00     0.039 C 
ATOM      9  C   UNL     1     -17.559 -50.708  29.741  1.00  0.00     0.159 C 
ATOM     10  O   UNL     1     -16.351 -51.051  29.840  1.00  0.00    -0.295 OA
ATOM     11  C   UNL     1     -17.935 -49.694  28.700  1.00  0.00     0.084 C 
ENDROOT
TORSDOF 0
ENDMDL
MODEL 9
REMARK VINA RESULT:    -4.900      2.835      4.589
REMARK INTER + INTRA:          -4.900
REMARK INTER:                  -4.900
REMARK INTRA:                   0.000
REMARK UNBOUND:                 0.000
REMARK SMILES CC(C)=C1CC[C@@H](C)CC1=O
REMARK SMILES IDX 8 1 7 2 6 3 5 4 4 5 2 6 1 7 3 8 10 9 11 10 9 11
REMARK H PARENT
REMARK Flexibility Score: inf
ROOT
ATOM      1  C   UNL     1     -19.590 -52.313  22.700  1.00  0.00     0.008 C 
ATOM      2  C   UNL     1     -20.569 -52.947  23.694  1.00  0.00    -0.006 C 
ATOM      3  C   UNL     1     -21.522 -53.914  22.972  1.00  0.00     0.008 C 
ATOM      4  C   UNL     1     -22.443 -54.635  23.967  1.00  0.00     0.039 C 
ATOM      5  C   UNL     1     -23.177 -53.670  24.888  1.00  0.00    -0.006 C 
ATOM      6  C   UNL     1     -24.427 -53.952  25.360  1.00  0.00    -0.070 C 
ATOM      7  C   UNL     1     -25.127 -55.243  25.001  1.00  0.00     0.039 C 
ATOM      8  C   UNL     1     -25.188 -52.977  26.228  1.00  0.00     0.039 C 
ATOM      9  C   UNL     1     -22.405 -52.469  25.329  1.00  0.00     0.159 C 
ATOM     10  O   UNL     1     -22.594 -51.949  26.461  1.00  0.00    -0.295 OA
ATOM     11  C   UNL     1     -21.377 -51.861  24.421  1.00  0.00     0.084 C 
ENDROOT
TORSDOF 0
ENDMDL
