MODEL 1
REMARK VINA RESULT:    -3.438      0.000      0.000
REMARK INTER + INTRA:          -5.884
REMARK INTER:                  -4.945
REMARK INTRA:                  -0.939
REMARK UNBOUND:                -0.939
REMARK SMILES O=C(CO)[C@@H](O)[C@@H](O)[C@H](O)CO
REMARK SMILES IDX 7 1 9 2 11 3 12 4 10 6 5 8 2 9 1 10 3 11 4 12 6 14 8 16
REMARK H PARENT 12 5 10 7 4 13 6 15 8 17
REMARK Flexibility Score: inf
ROOT
ATOM      1  C   UNL     1       4.358 -11.398  -5.535  1.00  0.00     0.181 C 
ENDROOT
BRANCH   1   2
ATOM      2  C   UNL     1       3.753 -11.819  -4.170  1.00  0.00     0.171 C 
BRANCH   2   3
ATOM      3  C   UNL     1       4.776 -11.644  -3.038  1.00  0.00     0.190 C 
BRANCH   3   4
ATOM      4  O   UNL     1       4.873 -10.294  -2.670  1.00  0.00    -0.394 OA
ATOM      5  H   UNL     1       4.018  -9.864  -2.938  1.00  0.00     0.210 HD
ENDBRANCH   3   4
ENDBRANCH   2   3
BRANCH   2   6
ATOM      6  O   UNL     1       2.611 -11.053  -3.877  1.00  0.00    -0.388 OA
ATOM      7  H   UNL     1       2.912 -10.116  -3.746  1.00  0.00     0.211 HD
ENDBRANCH   2   6
ENDBRANCH   1   2
BRANCH   1   8
ATOM      8  C   UNL     1       3.594 -10.211  -6.182  1.00  0.00     0.214 C 
BRANCH   8   9
ATOM      9  C   UNL     1       4.420  -9.562  -7.274  1.00  0.00     0.189 C 
ATOM     10  O   UNL     1       5.158 -10.250  -7.963  1.00  0.00    -0.294 OA
BRANCH   9  11
ATOM     11  C   UNL     1       4.359  -8.079  -7.524  1.00  0.00     0.234 C 
BRANCH  11  12
ATOM     12  O   UNL     1       3.184  -7.546  -6.977  1.00  0.00    -0.388 OA
ATOM     13  H   UNL     1       3.457  -6.986  -6.203  1.00  0.00     0.211 HD
ENDBRANCH  11  12
ENDBRANCH   9  11
ENDBRANCH   8   9
BRANCH   8  14
ATOM     14  O   UNL     1       2.352 -10.622  -6.700  1.00  0.00    -0.382 OA
ATOM     15  H   UNL     1       2.054  -9.939  -7.356  1.00  0.00     0.211 HD
ENDBRANCH   8  14
ENDBRANCH   1   8
BRANCH   1  16
ATOM     16  O   UNL     1       5.727 -11.095  -5.404  1.00  0.00    -0.387 OA
ATOM     17  H   UNL     1       5.839 -10.122  -5.569  1.00  0.00     0.211 HD
ENDBRANCH   1  16
TORSDOF 10
ENDMDL
MODEL 2
REMARK VINA RESULT:    -3.405      1.497      2.641
REMARK INTER + INTRA:          -5.836
REMARK INTER:                  -4.677
REMARK INTRA:                  -1.159
REMARK UNBOUND:                -0.939
REMARK SMILES O=C(CO)[C@@H](O)[C@@H](O)[C@H](O)CO
REMARK SMILES IDX 7 1 9 2 11 3 12 4 10 6 5 8 2 9 1 10 3 11 4 12 6 14 8 16
REMARK H PARENT 12 5 10 7 4 13 6 15 8 17
REMARK Flexibility Score: inf
ROOT
ATOM      1  C   UNL     1       4.521 -10.961  -6.882  1.00  0.00     0.181 C 
ENDROOT
BRANCH   1   2
ATOM      2  C   UNL     1       3.086 -11.499  -6.648  1.00  0.00     0.171 C 
BRANCH   2   3
ATOM      3  C   UNL     1       2.945 -12.093  -5.238  1.00  0.00     0.190 C 
BRANCH   3   4
ATOM      4  O   UNL     1       2.803 -11.071  -4.288  1.00  0.00    -0.394 OA
ATOM      5  H   UNL     1       1.830 -10.895  -4.202  1.00  0.00     0.210 HD
ENDBRANCH   3   4
ENDBRANCH   2   3
BRANCH   2   6
ATOM      6  O   UNL     1       2.139 -10.472  -6.808  1.00  0.00    -0.388 OA
ATOM      7  H   UNL     1       1.517 -10.759  -7.528  1.00  0.00     0.211 HD
ENDBRANCH   2   6
ENDBRANCH   1   2
BRANCH   1   8
ATOM      8  C   UNL     1       4.623 -10.073  -8.152  1.00  0.00     0.214 C 
BRANCH   8   9
ATOM      9  C   UNL     1       4.722  -8.606  -7.785  1.00  0.00     0.189 C 
ATOM     10  O   UNL     1       3.735  -8.019  -7.370  1.00  0.00    -0.294 OA
BRANCH   9  11
ATOM     11  C   UNL     1       6.015  -7.849  -7.932  1.00  0.00     0.234 C 
BRANCH  11  12
ATOM     12  O   UNL     1       7.020  -8.460  -7.172  1.00  0.00    -0.388 OA
ATOM     13  H   UNL     1       6.895  -8.156  -6.235  1.00  0.00     0.211 HD
ENDBRANCH  11  12
ENDBRANCH   9  11
ENDBRANCH   8   9
BRANCH   8  14
ATOM     14  O   UNL     1       5.721 -10.444  -8.949  1.00  0.00    -0.382 OA
ATOM     15  H   UNL     1       6.321  -9.656  -9.026  1.00  0.00     0.211 HD
ENDBRANCH   8  14
ENDBRANCH   1   8
BRANCH   1  16
ATOM     16  O   UNL     1       4.986 -10.264  -5.750  1.00  0.00    -0.387 OA
ATOM     17  H   UNL     1       4.566 -10.673  -4.948  1.00  0.00     0.211 HD
ENDBRANCH   1  16
TORSDOF 10
ENDMDL
MODEL 3
REMARK VINA RESULT:    -3.362      7.925      9.715
REMARK INTER + INTRA:          -5.775
REMARK INTER:                  -5.035
REMARK INTRA:                  -0.740
REMARK UNBOUND:                -0.939
REMARK SMILES O=C(CO)[C@@H](O)[C@@H](O)[C@H](O)CO
REMARK SMILES IDX 7 1 9 2 11 3 12 4 10 6 5 8 2 9 1 10 3 11 4 12 6 14 8 16
REMARK H PARENT 12 5 10 7 4 13 6 15 8 17
REMARK Flexibility Score: inf
ROOT
ATOM      1  C   UNL     1      -2.950  -9.375  -9.159  1.00  0.00     0.181 C 
ENDROOT
BRANCH   1   2
ATOM      2  C   UNL     1      -4.102  -8.355  -9.353  1.00  0.00     0.171 C 
BRANCH   2   3
ATOM      3  C   UNL     1      -3.557  -6.921  -9.441  1.00  0.00     0.190 C 
BRANCH   3   4
ATOM      4  O   UNL     1      -2.816  -6.751 -10.619  1.00  0.00    -0.394 OA
ATOM      5  H   UNL     1      -2.955  -5.811 -10.908  1.00  0.00     0.210 HD
ENDBRANCH   3   4
ENDBRANCH   2   3
BRANCH   2   6
ATOM      6  O   UNL     1      -4.827  -8.641 -10.523  1.00  0.00    -0.388 OA
ATOM      7  H   UNL     1      -4.234  -9.182 -11.109  1.00  0.00     0.211 HD
ENDBRANCH   2   6
ENDBRANCH   1   2
BRANCH   1   8
ATOM      8  C   UNL     1      -3.436 -10.706  -8.525  1.00  0.00     0.214 C 
BRANCH   8   9
ATOM      9  C   UNL     1      -4.452 -11.395  -9.414  1.00  0.00     0.189 C 
ATOM     10  O   UNL     1      -4.145 -11.703 -10.556  1.00  0.00    -0.294 OA
BRANCH   9  11
ATOM     11  C   UNL     1      -5.842 -11.700  -8.924  1.00  0.00     0.234 C 
BRANCH  11  12
ATOM     12  O   UNL     1      -6.755 -10.787  -9.468  1.00  0.00    -0.388 OA
ATOM     13  H   UNL     1      -6.483 -10.638 -10.411  1.00  0.00     0.211 HD
ENDBRANCH  11  12
ENDBRANCH   9  11
ENDBRANCH   8   9
BRANCH   8  14
ATOM     14  O   UNL     1      -2.359 -11.573  -8.265  1.00  0.00    -0.382 OA
ATOM     15  H   UNL     1      -1.636 -11.042  -7.840  1.00  0.00     0.211 HD
ENDBRANCH   8  14
ENDBRANCH   1   8
BRANCH   1  16
ATOM     16  O   UNL     1      -2.286  -9.618 -10.377  1.00  0.00    -0.387 OA
ATOM     17  H   UNL     1      -2.221 -10.602 -10.495  1.00  0.00     0.211 HD
ENDBRANCH   1  16
TORSDOF 10
ENDMDL
MODEL 4
REMARK VINA RESULT:    -3.338      8.077      9.531
REMARK INTER + INTRA:          -5.740
REMARK INTER:                  -4.743
REMARK INTRA:                  -0.997
REMARK UNBOUND:                -0.939
REMARK SMILES O=C(CO)[C@@H](O)[C@@H](O)[C@H](O)CO
REMARK SMILES IDX 7 1 9 2 11 3 12 4 10 6 5 8 2 9 1 10 3 11 4 12 6 14 8 16
REMARK H PARENT 12 5 10 7 4 13 6 15 8 17
REMARK Flexibility Score: inf
ROOT
ATOM      1  C   UNL     1      -4.233  -8.481  -9.315  1.00  0.00     0.181 C 
ENDROOT
BRANCH   1   2
ATOM      2  C   UNL     1      -3.023  -9.439  -9.163  1.00  0.00     0.171 C 
BRANCH   2   3
ATOM      3  C   UNL     1      -3.488 -10.859  -8.808  1.00  0.00     0.190 C 
BRANCH   3   4
ATOM      4  O   UNL     1      -2.433 -11.594  -8.248  1.00  0.00    -0.394 OA
ATOM      5  H   UNL     1      -2.723 -11.858  -7.336  1.00  0.00     0.210 HD
ENDBRANCH   3   4
ENDBRANCH   2   3
BRANCH   2   6
ATOM      6  O   UNL     1      -2.276  -9.486 -10.352  1.00  0.00    -0.388 OA
ATOM      7  H   UNL     1      -1.958 -10.421 -10.460  1.00  0.00     0.211 HD
ENDBRANCH   2   6
ENDBRANCH   1   2
BRANCH   1   8
ATOM      8  C   UNL     1      -3.848  -6.996  -9.078  1.00  0.00     0.214 C 
BRANCH   8   9
ATOM      9  C   UNL     1      -3.607  -6.279 -10.391  1.00  0.00     0.189 C 
ATOM     10  O   UNL     1      -2.617  -6.550 -11.055  1.00  0.00    -0.294 OA
BRANCH   9  11
ATOM     11  C   UNL     1      -4.558  -5.226 -10.894  1.00  0.00     0.234 C 
BRANCH  11  12
ATOM     12  O   UNL     1      -5.834  -5.777 -11.073  1.00  0.00    -0.388 OA
ATOM     13  H   UNL     1      -6.421  -5.042 -11.391  1.00  0.00     0.211 HD
ENDBRANCH  11  12
ENDBRANCH   9  11
ENDBRANCH   8   9
BRANCH   8  14
ATOM     14  O   UNL     1      -4.836  -6.321  -8.338  1.00  0.00    -0.382 OA
ATOM     15  H   UNL     1      -4.473  -6.150  -7.429  1.00  0.00     0.211 HD
ENDBRANCH   8  14
ENDBRANCH   1   8
BRANCH   1  16
ATOM     16  O   UNL     1      -4.845  -8.641 -10.573  1.00  0.00    -0.387 OA
ATOM     17  H   UNL     1      -4.380  -9.382 -11.043  1.00  0.00     0.211 HD
ENDBRANCH   1  16
TORSDOF 10
ENDMDL
MODEL 5
REMARK VINA RESULT:    -3.315      8.470      9.992
REMARK INTER + INTRA:          -5.708
REMARK INTER:                  -4.394
REMARK INTRA:                  -1.314
REMARK UNBOUND:                -0.939
REMARK SMILES O=C(CO)[C@@H](O)[C@@H](O)[C@H](O)CO
REMARK SMILES IDX 7 1 9 2 11 3 12 4 10 6 5 8 2 9 1 10 3 11 4 12 6 14 8 16
REMARK H PARENT 12 5 10 7 4 13 6 15 8 17
REMARK Flexibility Score: inf
ROOT
ATOM      1  C   UNL     1      -3.300  -8.667  -8.905  1.00  0.00     0.181 C 
ENDROOT
BRANCH   1   2
ATOM      2  C   UNL     1      -3.888  -7.238  -8.774  1.00  0.00     0.171 C 
BRANCH   2   3
ATOM      3  C   UNL     1      -3.442  -6.351  -9.946  1.00  0.00     0.190 C 
BRANCH   3   4
ATOM      4  O   UNL     1      -4.276  -6.551 -11.056  1.00  0.00    -0.394 OA
ATOM      5  H   UNL     1      -3.684  -6.799 -11.814  1.00  0.00     0.210 HD
ENDBRANCH   3   4
ENDBRANCH   2   3
BRANCH   2   6
ATOM      6  O   UNL     1      -5.292  -7.281  -8.741  1.00  0.00    -0.388 OA
ATOM      7  H   UNL     1      -5.568  -8.146  -9.145  1.00  0.00     0.211 HD
ENDBRANCH   2   6
ENDBRANCH   1   2
BRANCH   1   8
ATOM      8  C   UNL     1      -4.351  -9.771  -8.612  1.00  0.00     0.214 C 
BRANCH   8   9
ATOM      9  C   UNL     1      -4.691 -10.548  -9.868  1.00  0.00     0.189 C 
ATOM     10  O   UNL     1      -3.973 -11.472 -10.220  1.00  0.00    -0.294 OA
BRANCH   9  11
ATOM     11  C   UNL     1      -5.893 -10.198 -10.704  1.00  0.00     0.234 C 
BRANCH  11  12
ATOM     12  O   UNL     1      -5.706  -8.951 -11.316  1.00  0.00    -0.388 OA
ATOM     13  H   UNL     1      -5.663  -8.278 -10.587  1.00  0.00     0.211 HD
ENDBRANCH  11  12
ENDBRANCH   9  11
ENDBRANCH   8   9
BRANCH   8  14
ATOM     14  O   UNL     1      -3.903 -10.652  -7.610  1.00  0.00    -0.382 OA
ATOM     15  H   UNL     1      -3.239 -11.267  -8.019  1.00  0.00     0.211 HD
ENDBRANCH   8  14
ENDBRANCH   1   8
BRANCH   1  16
ATOM     16  O   UNL     1      -2.722  -8.856 -10.176  1.00  0.00    -0.387 OA
ATOM     17  H   UNL     1      -2.541  -7.960 -10.563  1.00  0.00     0.211 HD
ENDBRANCH   1  16
TORSDOF 10
ENDMDL
MODEL 6
REMARK VINA RESULT:    -3.301      8.657      9.584
REMARK INTER + INTRA:          -5.687
REMARK INTER:                  -4.478
REMARK INTRA:                  -1.209
REMARK UNBOUND:                -0.939
REMARK SMILES O=C(CO)[C@@H](O)[C@@H](O)[C@H](O)CO
REMARK SMILES IDX 7 1 9 2 11 3 12 4 10 6 5 8 2 9 1 10 3 11 4 12 6 14 8 16
REMARK H PARENT 12 5 10 7 4 13 6 15 8 17
REMARK Flexibility Score: inf
ROOT
ATOM      1  C   UNL     1      -5.475  -9.928  -9.792  1.00  0.00     0.181 C 
ENDROOT
BRANCH   1   2
ATOM      2  C   UNL     1      -5.492 -11.246  -8.975  1.00  0.00     0.171 C 
BRANCH   2   3
ATOM      3  C   UNL     1      -4.261 -12.106  -9.295  1.00  0.00     0.190 C 
BRANCH   3   4
ATOM      4  O   UNL     1      -3.173 -11.721  -8.498  1.00  0.00    -0.394 OA
ATOM      5  H   UNL     1      -2.544 -11.234  -9.092  1.00  0.00     0.210 HD
ENDBRANCH   3   4
ENDBRANCH   2   3
BRANCH   2   6
ATOM      6  O   UNL     1      -5.515 -10.975  -7.596  1.00  0.00    -0.388 OA
ATOM      7  H   UNL     1      -5.653  -9.996  -7.493  1.00  0.00     0.211 HD
ENDBRANCH   2   6
ENDBRANCH   1   2
BRANCH   1   8
ATOM      8  C   UNL     1      -5.401  -8.669  -8.887  1.00  0.00     0.214 C 
BRANCH   8   9
ATOM      9  C   UNL     1      -3.970  -8.192  -8.734  1.00  0.00     0.189 C 
ATOM     10  O   UNL     1      -3.175  -8.862  -8.093  1.00  0.00    -0.294 OA
BRANCH   9  11
ATOM     11  C   UNL     1      -3.508  -6.897  -9.348  1.00  0.00     0.234 C 
BRANCH  11  12
ATOM     12  O   UNL     1      -2.871  -7.146 -10.571  1.00  0.00    -0.388 OA
ATOM     13  H   UNL     1      -2.585  -8.097 -10.557  1.00  0.00     0.211 HD
ENDBRANCH  11  12
ENDBRANCH   9  11
ENDBRANCH   8   9
BRANCH   8  14
ATOM     14  O   UNL     1      -6.203  -7.628  -9.389  1.00  0.00    -0.382 OA
ATOM     15  H   UNL     1      -5.757  -7.264 -10.199  1.00  0.00     0.211 HD
ENDBRANCH   8  14
ENDBRANCH   1   8
BRANCH   1  16
ATOM     16  O   UNL     1      -4.422  -9.931 -10.727  1.00  0.00    -0.387 OA
ATOM     17  H   UNL     1      -4.655  -9.289 -11.448  1.00  0.00     0.211 HD
ENDBRANCH   1  16
TORSDOF 10
ENDMDL
MODEL 7
REMARK VINA RESULT:    -3.231      8.593     10.123
REMARK INTER + INTRA:          -5.587
REMARK INTER:                  -4.362
REMARK INTRA:                  -1.224
REMARK UNBOUND:                -0.939
REMARK SMILES O=C(CO)[C@@H](O)[C@@H](O)[C@H](O)CO
REMARK SMILES IDX 7 1 9 2 11 3 12 4 10 6 5 8 2 9 1 10 3 11 4 12 6 14 8 16
REMARK H PARENT 12 5 10 7 4 13 6 15 8 17
REMARK Flexibility Score: inf
ROOT
ATOM      1  C   UNL     1      -5.185 -10.267 -10.758  1.00  0.00     0.181 C 
ENDROOT
BRANCH   1   2
ATOM      2  C   UNL     1      -6.616 -10.599 -10.263  1.00  0.00     0.171 C 
BRANCH   2   3
ATOM      3  C   UNL     1      -6.680 -12.017  -9.677  1.00  0.00     0.190 C 
BRANCH   3   4
ATOM      4  O   UNL     1      -5.894 -12.105  -8.518  1.00  0.00    -0.394 OA
ATOM      5  H   UNL     1      -4.990 -12.393  -8.810  1.00  0.00     0.210 HD
ENDBRANCH   3   4
ENDBRANCH   2   3
BRANCH   2   6
ATOM      6  O   UNL     1      -7.027  -9.680  -9.282  1.00  0.00    -0.388 OA
ATOM      7  H   UNL     1      -7.995  -9.837  -9.122  1.00  0.00     0.211 HD
ENDBRANCH   2   6
ENDBRANCH   1   2
BRANCH   1   8
ATOM      8  C   UNL     1      -4.437  -9.297  -9.804  1.00  0.00     0.214 C 
BRANCH   8   9
ATOM      9  C   UNL     1      -2.977  -9.683  -9.668  1.00  0.00     0.189 C 
ATOM     10  O   UNL     1      -2.200  -9.438 -10.579  1.00  0.00    -0.294 OA
BRANCH   9  11
ATOM     11  C   UNL     1      -2.462 -10.375  -8.435  1.00  0.00     0.234 C 
BRANCH  11  12
ATOM     12  O   UNL     1      -2.934 -11.694  -8.391  1.00  0.00    -0.388 OA
ATOM     13  H   UNL     1      -2.712 -12.047  -7.490  1.00  0.00     0.211 HD
ENDBRANCH  11  12
ENDBRANCH   9  11
ENDBRANCH   8   9
BRANCH   8  14
ATOM     14  O   UNL     1      -4.542  -7.965 -10.243  1.00  0.00    -0.382 OA
ATOM     15  H   UNL     1      -4.563  -7.380  -9.440  1.00  0.00     0.211 HD
ENDBRANCH   8  14
ENDBRANCH   1   8
BRANCH   1  16
ATOM     16  O   UNL     1      -4.437 -11.445 -10.955  1.00  0.00    -0.387 OA
ATOM     17  H   UNL     1      -5.074 -12.206 -10.986  1.00  0.00     0.211 HD
ENDBRANCH   1  16
TORSDOF 10
ENDMDL
MODEL 8
REMARK VINA RESULT:    -3.216      8.610      9.972
REMARK INTER + INTRA:          -5.564
REMARK INTER:                  -4.578
REMARK INTRA:                  -0.986
REMARK UNBOUND:                -0.939
REMARK SMILES O=C(CO)[C@@H](O)[C@@H](O)[C@H](O)CO
REMARK SMILES IDX 7 1 9 2 11 3 12 4 10 6 5 8 2 9 1 10 3 11 4 12 6 14 8 16
REMARK H PARENT 12 5 10 7 4 13 6 15 8 17
REMARK Flexibility Score: inf
ROOT
ATOM      1  C   UNL     1      -3.854  -8.353  -8.761  1.00  0.00     0.181 C 
ENDROOT
BRANCH   1   2
ATOM      2  C   UNL     1      -3.993  -6.813  -8.882  1.00  0.00     0.171 C 
BRANCH   2   3
ATOM      3  C   UNL     1      -3.996  -6.376 -10.354  1.00  0.00     0.190 C 
BRANCH   3   4
ATOM      4  O   UNL     1      -2.714  -6.509 -10.908  1.00  0.00    -0.394 OA
ATOM      5  H   UNL     1      -2.837  -6.603 -11.889  1.00  0.00     0.210 HD
ENDBRANCH   3   4
ENDBRANCH   2   3
BRANCH   2   6
ATOM      6  O   UNL     1      -5.180  -6.373  -8.271  1.00  0.00    -0.388 OA
ATOM      7  H   UNL     1      -5.031  -6.398  -7.290  1.00  0.00     0.211 HD
ENDBRANCH   2   6
ENDBRANCH   1   2
BRANCH   1   8
ATOM      8  C   UNL     1      -5.060  -9.109  -9.382  1.00  0.00     0.214 C 
BRANCH   8   9
ATOM      9  C   UNL     1      -4.641 -10.470  -9.901  1.00  0.00     0.189 C 
ATOM     10  O   UNL     1      -4.420 -10.620 -11.094  1.00  0.00    -0.294 OA
BRANCH   9  11
ATOM     11  C   UNL     1      -4.503 -11.650  -8.978  1.00  0.00     0.234 C 
BRANCH  11  12
ATOM     12  O   UNL     1      -3.195 -11.720  -8.479  1.00  0.00    -0.388 OA
ATOM     13  H   UNL     1      -2.951 -12.682  -8.450  1.00  0.00     0.211 HD
ENDBRANCH  11  12
ENDBRANCH   9  11
ENDBRANCH   8   9
BRANCH   8  14
ATOM     14  O   UNL     1      -6.108  -9.250  -8.455  1.00  0.00    -0.382 OA
ATOM     15  H   UNL     1      -5.942  -8.617  -7.708  1.00  0.00     0.211 HD
ENDBRANCH   8  14
ENDBRANCH   1   8
BRANCH   1  16
ATOM     16  O   UNL     1      -2.644  -8.793  -9.332  1.00  0.00    -0.387 OA
ATOM     17  H   UNL     1      -2.861  -9.503  -9.992  1.00  0.00     0.211 HD
ENDBRANCH   1  16
TORSDOF 10
ENDMDL
MODEL 9
REMARK VINA RESULT:    -3.099      8.415      9.653
REMARK INTER + INTRA:          -5.396
REMARK INTER:                  -4.246
REMARK INTRA:                  -1.150
REMARK UNBOUND:                -0.939
REMARK SMILES O=C(CO)[C@@H](O)[C@@H](O)[C@H](O)CO
REMARK SMILES IDX 7 1 9 2 11 3 12 4 10 6 5 8 2 9 1 10 3 11 4 12 6 14 8 16
REMARK H PARENT 12 5 10 7 4 13 6 15 8 17
REMARK Flexibility Score: inf
ROOT
ATOM      1  C   UNL     1      -3.680 -11.027  -8.952  1.00  0.00     0.181 C 
ENDROOT
BRANCH   1   2
ATOM      2  C   UNL     1      -4.630 -12.125  -9.497  1.00  0.00     0.171 C 
BRANCH   2   3
ATOM      3  C   UNL     1      -5.964 -12.124  -8.736  1.00  0.00     0.190 C 
BRANCH   3   4
ATOM      4  O   UNL     1      -6.788 -11.084  -9.192  1.00  0.00    -0.394 OA
ATOM      5  H   UNL     1      -7.630 -11.139  -8.669  1.00  0.00     0.210 HD
ENDBRANCH   3   4
ENDBRANCH   2   3
BRANCH   2   6
ATOM      6  O   UNL     1      -4.884 -11.927 -10.866  1.00  0.00    -0.388 OA
ATOM      7  H   UNL     1      -5.494 -12.654 -11.158  1.00  0.00     0.211 HD
ENDBRANCH   2   6
ENDBRANCH   1   2
BRANCH   1   8
ATOM      8  C   UNL     1      -3.586  -9.800  -9.899  1.00  0.00     0.214 C 
BRANCH   8   9
ATOM      9  C   UNL     1      -4.232  -8.579  -9.275  1.00  0.00     0.189 C 
ATOM     10  O   UNL     1      -5.421  -8.600  -8.996  1.00  0.00    -0.294 OA
BRANCH   9  11
ATOM     11  C   UNL     1      -3.439  -7.329  -9.000  1.00  0.00     0.234 C 
BRANCH  11  12
ATOM     12  O   UNL     1      -3.008  -6.758 -10.206  1.00  0.00    -0.388 OA
ATOM     13  H   UNL     1      -3.546  -5.935 -10.341  1.00  0.00     0.211 HD
ENDBRANCH  11  12
ENDBRANCH   9  11
ENDBRANCH   8   9
BRANCH   8  14
ATOM     14  O   UNL     1      -2.251  -9.516 -10.239  1.00  0.00    -0.382 OA
ATOM     15  H   UNL     1      -1.882 -10.307 -10.714  1.00  0.00     0.211 HD
ENDBRANCH   8  14
ENDBRANCH   1   8
BRANCH   1  16
ATOM     16  O   UNL     1      -4.066 -10.628  -7.658  1.00  0.00    -0.387 OA
ATOM     17  H   UNL     1      -4.902 -10.097  -7.741  1.00  0.00     0.211 HD
ENDBRANCH   1  16
TORSDOF 10
ENDMDL
