MODEL 1
REMARK VINA RESULT:     0.874      0.000      0.000
REMARK INTER + INTRA:           0.319
REMARK INTER:                   1.691
REMARK INTRA:                  -1.372
REMARK UNBOUND:                -1.372
REMARK SMILES CCCCCCCCCCCCCCCCCC(=O)[O-]
REMARK SMILES IDX 10 1 11 2 12 3 13 4 14 5 15 6 16 7 17 8 18 9 19 10 20 11
REMARK SMILES IDX 9 12 8 13 7 14 6 15 5 16 4 17 3 18 2 19 1 20
REMARK H PARENT
REMARK Flexibility Score: inf
ROOT
ATOM      1  C   UNL     1      -4.434  34.820  22.338  1.00  0.00     0.000 C 
ENDROOT
BRANCH   1   2
ATOM      2  C   UNL     1      -5.908  34.494  22.638  1.00  0.00     0.000 C 
BRANCH   2   3
ATOM      3  C   UNL     1      -6.125  34.018  24.084  1.00  0.00     0.000 C 
BRANCH   3   4
ATOM      4  C   UNL     1      -5.820  35.109  25.121  1.00  0.00     0.000 C 
BRANCH   4   5
ATOM      5  C   UNL     1      -6.124  36.504  24.554  1.00  0.00     0.000 C 
BRANCH   5   6
ATOM      6  C   UNL     1      -4.973  37.498  24.777  1.00  0.00     0.000 C 
BRANCH   6   7
ATOM      7  C   UNL     1      -5.036  38.702  23.819  1.00  0.00     0.006 C 
BRANCH   7   8
ATOM      8  C   UNL     1      -5.928  38.425  22.601  1.00  0.00     0.053 C 
BRANCH   8   9
ATOM      9  C   UNL     1      -5.740  39.457  21.532  1.00  0.00     0.041 C 
ATOM     10  O   UNL     1      -5.858  40.681  21.804  1.00  0.00    -0.550 OA
ATOM     11  O   UNL     1      -5.469  39.066  20.227  1.00  0.00    -0.550 OA
ENDBRANCH   8   9
ENDBRANCH   7   8
ENDBRANCH   6   7
ENDBRANCH   5   6
ENDBRANCH   4   5
ENDBRANCH   3   4
ENDBRANCH   2   3
ENDBRANCH   1   2
BRANCH   1  12
ATOM     12  C   UNL     1      -4.256  35.572  21.009  1.00  0.00     0.000 C 
BRANCH  12  13
ATOM     13  C   UNL     1      -5.589  35.807  20.276  1.00  0.00    -0.000 C 
BRANCH  13  14
ATOM     14  C   UNL     1      -5.408  35.929  18.754  1.00  0.00    -0.000 C 
BRANCH  14  15
ATOM     15  C   UNL     1      -5.244  34.562  18.068  1.00  0.00    -0.000 C 
BRANCH  15  16
ATOM     16  C   UNL     1      -4.096  34.549  17.047  1.00  0.00    -0.000 C 
BRANCH  16  17
ATOM     17  C   UNL     1      -4.136  35.761  16.100  1.00  0.00    -0.000 C 
BRANCH  17  18
ATOM     18  C   UNL     1      -3.162  35.620  14.919  1.00  0.00    -0.000 C 
BRANCH  18  19
ATOM     19  C   UNL     1      -3.264  36.789  13.928  1.00  0.00    -0.003 C 
ATOM     20  C   UNL     1      -4.340  37.781  14.359  1.00  0.00     0.004 C 
ENDBRANCH  18  19
ENDBRANCH  17  18
ENDBRANCH  16  17
ENDBRANCH  15  16
ENDBRANCH  14  15
ENDBRANCH  13  14
ENDBRANCH  12  13
ENDBRANCH   1  12
TORSDOF 16
ENDMDL
MODEL 2
REMARK VINA RESULT:     1.507      2.270      3.677
REMARK INTER + INTRA:           1.544
REMARK INTER:                   2.451
REMARK INTRA:                  -0.907
REMARK UNBOUND:                -1.372
REMARK SMILES CCCCCCCCCCCCCCCCCC(=O)[O-]
REMARK SMILES IDX 10 1 11 2 12 3 13 4 14 5 15 6 16 7 17 8 18 9 19 10 20 11
REMARK SMILES IDX 9 12 8 13 7 14 6 15 5 16 4 17 3 18 2 19 1 20
REMARK H PARENT
REMARK Flexibility Score: inf
ROOT
ATOM      1  C   UNL     1      -4.366  36.510  20.705  1.00  0.00     0.000 C 
ENDROOT
BRANCH   1   2
ATOM      2  C   UNL     1      -4.725  37.897  20.146  1.00  0.00     0.000 C 
BRANCH   2   3
ATOM      3  C   UNL     1      -5.823  38.598  20.964  1.00  0.00     0.000 C 
BRANCH   3   4
ATOM      4  C   UNL     1      -5.308  39.838  21.709  1.00  0.00     0.000 C 
BRANCH   4   5
ATOM      5  C   UNL     1      -5.523  39.696  23.224  1.00  0.00     0.000 C 
BRANCH   5   6
ATOM      6  C   UNL     1      -4.693  38.556  23.835  1.00  0.00     0.000 C 
BRANCH   6   7
ATOM      7  C   UNL     1      -5.569  37.453  24.456  1.00  0.00     0.006 C 
BRANCH   7   8
ATOM      8  C   UNL     1      -5.844  36.310  23.468  1.00  0.00     0.053 C 
BRANCH   8   9
ATOM      9  C   UNL     1      -5.787  34.973  24.139  1.00  0.00     0.041 C 
ATOM     10  O   UNL     1      -5.462  33.947  23.484  1.00  0.00    -0.550 OA
ATOM     11  O   UNL     1      -6.124  34.853  25.481  1.00  0.00    -0.550 OA
ENDBRANCH   8   9
ENDBRANCH   7   8
ENDBRANCH   6   7
ENDBRANCH   5   6
ENDBRANCH   4   5
ENDBRANCH   3   4
ENDBRANCH   2   3
ENDBRANCH   1   2
BRANCH   1  12
ATOM     12  C   UNL     1      -5.066  35.369  19.948  1.00  0.00     0.000 C 
BRANCH  12  13
ATOM     13  C   UNL     1      -5.350  35.720  18.477  1.00  0.00    -0.000 C 
BRANCH  13  14
ATOM     14  C   UNL     1      -4.349  35.064  17.513  1.00  0.00    -0.000 C 
BRANCH  14  15
ATOM     15  C   UNL     1      -4.484  35.589  16.074  1.00  0.00    -0.000 C 
BRANCH  15  16
ATOM     16  C   UNL     1      -3.235  35.309  15.224  1.00  0.00    -0.000 C 
BRANCH  16  17
ATOM     17  C   UNL     1      -3.067  36.316  14.073  1.00  0.00    -0.000 C 
BRANCH  17  18
ATOM     18  C   UNL     1      -4.308  37.201  13.876  1.00  0.00    -0.000 C 
BRANCH  18  19
ATOM     19  C   UNL     1      -4.098  38.634  14.387  1.00  0.00    -0.003 C 
ATOM     20  C   UNL     1      -5.199  39.563  13.883  1.00  0.00     0.004 C 
ENDBRANCH  18  19
ENDBRANCH  17  18
ENDBRANCH  16  17
ENDBRANCH  15  16
ENDBRANCH  14  15
ENDBRANCH  13  14
ENDBRANCH  12  13
ENDBRANCH   1  12
TORSDOF 16
ENDMDL
MODEL 3
REMARK VINA RESULT:     1.624      0.994      1.491
REMARK INTER + INTRA:           1.770
REMARK INTER:                   2.796
REMARK INTRA:                  -1.026
REMARK UNBOUND:                -1.372
REMARK SMILES CCCCCCCCCCCCCCCCCC(=O)[O-]
REMARK SMILES IDX 10 1 11 2 12 3 13 4 14 5 15 6 16 7 17 8 18 9 19 10 20 11
REMARK SMILES IDX 9 12 8 13 7 14 6 15 5 16 4 17 3 18 2 19 1 20
REMARK H PARENT
REMARK Flexibility Score: inf
ROOT
ATOM      1  C   UNL     1      -5.969  34.061  23.003  1.00  0.00     0.000 C 
ENDROOT
BRANCH   1   2
ATOM      2  C   UNL     1      -6.113  34.556  24.452  1.00  0.00     0.000 C 
BRANCH   2   3
ATOM      3  C   UNL     1      -6.090  36.091  24.557  1.00  0.00     0.000 C 
BRANCH   3   4
ATOM      4  C   UNL     1      -5.309  36.590  25.781  1.00  0.00     0.000 C 
BRANCH   4   5
ATOM      5  C   UNL     1      -4.444  37.808  25.420  1.00  0.00     0.000 C 
BRANCH   5   6
ATOM      6  C   UNL     1      -5.271  38.976  24.860  1.00  0.00     0.000 C 
BRANCH   6   7
ATOM      7  C   UNL     1      -4.731  39.491  23.513  1.00  0.00     0.006 C 
BRANCH   7   8
ATOM      8  C   UNL     1      -5.776  39.386  22.394  1.00  0.00     0.053 C 
BRANCH   8   9
ATOM      9  C   UNL     1      -5.228  38.687  21.188  1.00  0.00     0.041 C 
ATOM     10  O   UNL     1      -5.919  38.594  20.139  1.00  0.00    -0.550 OA
ATOM     11  O   UNL     1      -3.966  38.109  21.234  1.00  0.00    -0.550 OA
ENDBRANCH   8   9
ENDBRANCH   7   8
ENDBRANCH   6   7
ENDBRANCH   5   6
ENDBRANCH   4   5
ENDBRANCH   3   4
ENDBRANCH   2   3
ENDBRANCH   1   2
BRANCH   1  12
ATOM     12  C   UNL     1      -6.092  35.197  21.975  1.00  0.00     0.000 C 
BRANCH  12  13
ATOM     13  C   UNL     1      -4.970  35.171  20.923  1.00  0.00    -0.000 C 
BRANCH  13  14
ATOM     14  C   UNL     1      -5.510  35.245  19.486  1.00  0.00    -0.000 C 
BRANCH  14  15
ATOM     15  C   UNL     1      -4.488  34.754  18.446  1.00  0.00    -0.000 C 
BRANCH  15  16
ATOM     16  C   UNL     1      -4.919  35.067  17.004  1.00  0.00    -0.000 C 
BRANCH  16  17
ATOM     17  C   UNL     1      -3.999  36.097  16.325  1.00  0.00    -0.000 C 
BRANCH  17  18
ATOM     18  C   UNL     1      -3.443  35.597  14.982  1.00  0.00    -0.000 C 
BRANCH  18  19
ATOM     19  C   UNL     1      -3.456  36.684  13.898  1.00  0.00    -0.003 C 
ATOM     20  C   UNL     1      -4.256  37.902  14.351  1.00  0.00     0.004 C 
ENDBRANCH  18  19
ENDBRANCH  17  18
ENDBRANCH  16  17
ENDBRANCH  15  16
ENDBRANCH  14  15
ENDBRANCH  13  14
ENDBRANCH  12  13
ENDBRANCH   1  12
TORSDOF 16
ENDMDL
MODEL 4
REMARK VINA RESULT:     2.200      2.349      7.506
REMARK INTER + INTRA:           2.887
REMARK INTER:                   3.359
REMARK INTRA:                  -0.473
REMARK UNBOUND:                -1.372
REMARK SMILES CCCCCCCCCCCCCCCCCC(=O)[O-]
REMARK SMILES IDX 10 1 11 2 12 3 13 4 14 5 15 6 16 7 17 8 18 9 19 10 20 11
REMARK SMILES IDX 9 12 8 13 7 14 6 15 5 16 4 17 3 18 2 19 1 20
REMARK H PARENT
REMARK Flexibility Score: inf
ROOT
ATOM      1  C   UNL     1      -4.912  35.971  20.737  1.00  0.00     0.000 C 
ENDROOT
BRANCH   1   2
ATOM      2  C   UNL     1      -5.943  34.853  20.506  1.00  0.00     0.000 C 
BRANCH   2   3
ATOM      3  C   UNL     1      -5.663  34.044  19.228  1.00  0.00     0.000 C 
BRANCH   3   4
ATOM      4  C   UNL     1      -5.711  34.906  17.958  1.00  0.00     0.000 C 
BRANCH   4   5
ATOM      5  C   UNL     1      -4.447  34.703  17.109  1.00  0.00     0.000 C 
BRANCH   5   6
ATOM      6  C   UNL     1      -4.170  35.884  16.167  1.00  0.00     0.000 C 
BRANCH   6   7
ATOM      7  C   UNL     1      -3.175  35.529  15.047  1.00  0.00     0.006 C 
BRANCH   7   8
ATOM      8  C   UNL     1      -3.110  36.615  13.965  1.00  0.00     0.053 C 
BRANCH   8   9
ATOM      9  C   UNL     1      -4.193  37.635  14.139  1.00  0.00     0.041 C 
ATOM     10  O   UNL     1      -5.392  37.336  13.893  1.00  0.00    -0.550 OA
ATOM     11  O   UNL     1      -3.875  38.925  14.543  1.00  0.00    -0.550 OA
ENDBRANCH   8   9
ENDBRANCH   7   8
ENDBRANCH   6   7
ENDBRANCH   5   6
ENDBRANCH   4   5
ENDBRANCH   3   4
ENDBRANCH   2   3
ENDBRANCH   1   2
BRANCH   1  12
ATOM     12  C   UNL     1      -5.314  37.292  20.060  1.00  0.00     0.000 C 
BRANCH  12  13
ATOM     13  C   UNL     1      -4.648  38.518  20.710  1.00  0.00    -0.000 C 
BRANCH  13  14
ATOM     14  C   UNL     1      -4.510  38.372  22.234  1.00  0.00    -0.000 C 
BRANCH  14  15
ATOM     15  C   UNL     1      -5.421  39.343  23.005  1.00  0.00    -0.000 C 
BRANCH  15  16
ATOM     16  C   UNL     1      -5.483  39.026  24.507  1.00  0.00    -0.000 C 
BRANCH  16  17
ATOM     17  C   UNL     1      -4.740  37.728  24.867  1.00  0.00    -0.000 C 
BRANCH  17  18
ATOM     18  C   UNL     1      -5.664  36.500  24.868  1.00  0.00    -0.000 C 
BRANCH  18  19
ATOM     19  C   UNL     1      -5.137  35.365  23.977  1.00  0.00    -0.003 C 
ATOM     20  C   UNL     1      -6.124  34.202  23.929  1.00  0.00     0.004 C 
ENDBRANCH  18  19
ENDBRANCH  17  18
ENDBRANCH  16  17
ENDBRANCH  15  16
ENDBRANCH  14  15
ENDBRANCH  13  14
ENDBRANCH  12  13
ENDBRANCH   1  12
TORSDOF 16
ENDMDL
MODEL 5
REMARK VINA RESULT:     2.396      2.601      7.200
REMARK INTER + INTRA:           3.266
REMARK INTER:                   4.429
REMARK INTRA:                  -1.163
REMARK UNBOUND:                -1.372
REMARK SMILES CCCCCCCCCCCCCCCCCC(=O)[O-]
REMARK SMILES IDX 10 1 11 2 12 3 13 4 14 5 15 6 16 7 17 8 18 9 19 10 20 11
REMARK SMILES IDX 9 12 8 13 7 14 6 15 5 16 4 17 3 18 2 19 1 20
REMARK H PARENT
REMARK Flexibility Score: inf
ROOT
ATOM      1  C   UNL     1      -5.068  39.457  22.081  1.00  0.00     0.000 C 
ENDROOT
BRANCH   1   2
ATOM      2  C   UNL     1      -5.373  38.810  20.719  1.00  0.00     0.000 C 
BRANCH   2   3
ATOM      3  C   UNL     1      -4.935  37.337  20.652  1.00  0.00     0.000 C 
BRANCH   3   4
ATOM      4  C   UNL     1      -4.953  36.776  19.222  1.00  0.00     0.000 C 
BRANCH   4   5
ATOM      5  C   UNL     1      -5.168  35.256  19.233  1.00  0.00     0.000 C 
BRANCH   5   6
ATOM      6  C   UNL     1      -4.890  34.609  17.867  1.00  0.00     0.000 C 
BRANCH   6   7
ATOM      7  C   UNL     1      -4.610  35.647  16.766  1.00  0.00     0.006 C 
BRANCH   7   8
ATOM      8  C   UNL     1      -3.573  35.147  15.751  1.00  0.00     0.053 C 
BRANCH   8   9
ATOM      9  C   UNL     1      -3.323  36.156  14.672  1.00  0.00     0.041 C 
ATOM     10  O   UNL     1      -4.272  36.848  14.218  1.00  0.00    -0.550 OA
ATOM     11  O   UNL     1      -2.047  36.310  14.146  1.00  0.00    -0.550 OA
ENDBRANCH   8   9
ENDBRANCH   7   8
ENDBRANCH   6   7
ENDBRANCH   5   6
ENDBRANCH   4   5
ENDBRANCH   3   4
ENDBRANCH   2   3
ENDBRANCH   1   2
BRANCH   1  12
ATOM     12  C   UNL     1      -6.017  38.973  23.190  1.00  0.00     0.000 C 
BRANCH  12  13
ATOM     13  C   UNL     1      -5.364  38.997  24.583  1.00  0.00    -0.000 C 
BRANCH  13  14
ATOM     14  C   UNL     1      -4.681  37.665  24.934  1.00  0.00    -0.000 C 
BRANCH  14  15
ATOM     15  C   UNL     1      -5.528  36.800  25.882  1.00  0.00    -0.000 C 
BRANCH  15  16
ATOM     16  C   UNL     1      -6.107  35.558  25.187  1.00  0.00    -0.000 C 
BRANCH  16  17
ATOM     17  C   UNL     1      -6.051  35.662  23.653  1.00  0.00    -0.000 C 
BRANCH  17  18
ATOM     18  C   UNL     1      -6.113  34.289  22.966  1.00  0.00    -0.000 C 
BRANCH  18  19
ATOM     19  C   UNL     1      -4.732  33.628  22.842  1.00  0.00    -0.003 C 
ATOM     20  C   UNL     1      -3.761  34.526  22.080  1.00  0.00     0.004 C 
ENDBRANCH  18  19
ENDBRANCH  17  18
ENDBRANCH  16  17
ENDBRANCH  15  16
ENDBRANCH  14  15
ENDBRANCH  13  14
ENDBRANCH  12  13
ENDBRANCH   1  12
TORSDOF 16
ENDMDL
MODEL 6
REMARK VINA RESULT:     2.536      2.126      3.285
REMARK INTER + INTRA:           3.536
REMARK INTER:                   3.270
REMARK INTRA:                   0.266
REMARK UNBOUND:                -1.372
REMARK SMILES CCCCCCCCCCCCCCCCCC(=O)[O-]
REMARK SMILES IDX 10 1 11 2 12 3 13 4 14 5 15 6 16 7 17 8 18 9 19 10 20 11
REMARK SMILES IDX 9 12 8 13 7 14 6 15 5 16 4 17 3 18 2 19 1 20
REMARK H PARENT
REMARK Flexibility Score: inf
ROOT
ATOM      1  C   UNL     1      -4.090  35.323  20.561  1.00  0.00     0.000 C 
ENDROOT
BRANCH   1   2
ATOM      2  C   UNL     1      -5.050  35.114  21.745  1.00  0.00     0.000 C 
BRANCH   2   3
ATOM      3  C   UNL     1      -6.090  36.240  21.869  1.00  0.00     0.000 C 
BRANCH   3   4
ATOM      4  C   UNL     1      -5.769  37.446  20.973  1.00  0.00     0.000 C 
BRANCH   4   5
ATOM      5  C   UNL     1      -4.681  38.326  21.606  1.00  0.00     0.000 C 
BRANCH   5   6
ATOM      6  C   UNL     1      -5.254  39.585  22.275  1.00  0.00     0.000 C 
BRANCH   6   7
ATOM      7  C   UNL     1      -5.437  39.418  23.795  1.00  0.00     0.006 C 
BRANCH   7   8
ATOM      8  C   UNL     1      -4.373  38.495  24.406  1.00  0.00     0.053 C 
BRANCH   8   9
ATOM      9  C   UNL     1      -4.961  37.581  25.437  1.00  0.00     0.041 C 
ATOM     10  O   UNL     1      -4.890  37.874  26.660  1.00  0.00    -0.550 OA
ATOM     11  O   UNL     1      -5.558  36.389  25.049  1.00  0.00    -0.550 OA
ENDBRANCH   8   9
ENDBRANCH   7   8
ENDBRANCH   6   7
ENDBRANCH   5   6
ENDBRANCH   4   5
ENDBRANCH   3   4
ENDBRANCH   2   3
ENDBRANCH   1   2
BRANCH   1  12
ATOM     12  C   UNL     1      -4.828  35.653  19.254  1.00  0.00     0.000 C 
BRANCH  12  13
ATOM     13  C   UNL     1      -4.972  34.431  18.329  1.00  0.00    -0.000 C 
BRANCH  13  14
ATOM     14  C   UNL     1      -4.160  34.577  17.032  1.00  0.00    -0.000 C 
BRANCH  14  15
ATOM     15  C   UNL     1      -4.302  35.972  16.400  1.00  0.00    -0.000 C 
BRANCH  15  16
ATOM     16  C   UNL     1      -3.994  35.971  14.895  1.00  0.00    -0.000 C 
BRANCH  16  17
ATOM     17  C   UNL     1      -3.535  37.349  14.387  1.00  0.00    -0.000 C 
BRANCH  17  18
ATOM     18  C   UNL     1      -4.714  38.267  14.025  1.00  0.00    -0.000 C 
BRANCH  18  19
ATOM     19  C   UNL     1      -4.546  39.688  14.581  1.00  0.00    -0.003 C 
ATOM     20  C   UNL     1      -5.481  40.667  13.876  1.00  0.00     0.004 C 
ENDBRANCH  18  19
ENDBRANCH  17  18
ENDBRANCH  16  17
ENDBRANCH  15  16
ENDBRANCH  14  15
ENDBRANCH  13  14
ENDBRANCH  12  13
ENDBRANCH   1  12
TORSDOF 16
ENDMDL
MODEL 7
REMARK VINA RESULT:     3.351      1.577      3.199
REMARK INTER + INTRA:           5.113
REMARK INTER:                   5.170
REMARK INTRA:                  -0.057
REMARK UNBOUND:                -1.372
REMARK SMILES CCCCCCCCCCCCCCCCCC(=O)[O-]
REMARK SMILES IDX 10 1 11 2 12 3 13 4 14 5 15 6 16 7 17 8 18 9 19 10 20 11
REMARK SMILES IDX 9 12 8 13 7 14 6 15 5 16 4 17 3 18 2 19 1 20
REMARK H PARENT
REMARK Flexibility Score: inf
ROOT
ATOM      1  C   UNL     1      -6.124  35.866  24.042  1.00  0.00     0.000 C 
ENDROOT
BRANCH   1   2
ATOM      2  C   UNL     1      -5.709  35.872  25.523  1.00  0.00     0.000 C 
BRANCH   2   3
ATOM      3  C   UNL     1      -5.674  37.288  26.122  1.00  0.00     0.000 C 
BRANCH   3   4
ATOM      4  C   UNL     1      -4.284  37.936  26.034  1.00  0.00     0.000 C 
BRANCH   4   5
ATOM      5  C   UNL     1      -4.032  38.506  24.630  1.00  0.00     0.000 C 
BRANCH   5   6
ATOM      6  C   UNL     1      -5.289  39.140  24.014  1.00  0.00     0.000 C 
BRANCH   6   7
ATOM      7  C   UNL     1      -4.961  40.110  22.864  1.00  0.00     0.006 C 
BRANCH   7   8
ATOM      8  C   UNL     1      -5.838  39.860  21.630  1.00  0.00     0.053 C 
BRANCH   8   9
ATOM      9  C   UNL     1      -5.260  38.798  20.746  1.00  0.00     0.041 C 
ATOM     10  O   UNL     1      -4.184  38.225  21.062  1.00  0.00    -0.550 OA
ATOM     11  O   UNL     1      -5.893  38.464  19.556  1.00  0.00    -0.550 OA
ENDBRANCH   8   9
ENDBRANCH   7   8
ENDBRANCH   6   7
ENDBRANCH   5   6
ENDBRANCH   4   5
ENDBRANCH   3   4
ENDBRANCH   2   3
ENDBRANCH   1   2
BRANCH   1  12
ATOM     12  C   UNL     1      -6.114  34.455  23.432  1.00  0.00     0.000 C 
BRANCH  12  13
ATOM     13  C   UNL     1      -4.690  33.909  23.222  1.00  0.00    -0.000 C 
BRANCH  13  14
ATOM     14  C   UNL     1      -4.278  33.897  21.741  1.00  0.00    -0.000 C 
BRANCH  14  15
ATOM     15  C   UNL     1      -4.179  35.312  21.146  1.00  0.00    -0.000 C 
BRANCH  15  16
ATOM     16  C   UNL     1      -5.232  35.568  20.056  1.00  0.00    -0.000 C 
BRANCH  16  17
ATOM     17  C   UNL     1      -5.977  34.287  19.644  1.00  0.00    -0.000 C 
BRANCH  17  18
ATOM     18  C   UNL     1      -5.808  33.960  18.151  1.00  0.00    -0.000 C 
BRANCH  18  19
ATOM     19  C   UNL     1      -4.372  34.189  17.657  1.00  0.00    -0.003 C 
ATOM     20  C   UNL     1      -4.320  35.308  16.621  1.00  0.00     0.004 C 
ENDBRANCH  18  19
ENDBRANCH  17  18
ENDBRANCH  16  17
ENDBRANCH  15  16
ENDBRANCH  14  15
ENDBRANCH  13  14
ENDBRANCH  12  13
ENDBRANCH   1  12
TORSDOF 16
ENDMDL
MODEL 8
REMARK VINA RESULT:     3.405      2.202      3.364
REMARK INTER + INTRA:           5.218
REMARK INTER:                   5.878
REMARK INTRA:                  -0.659
REMARK UNBOUND:                -1.372
REMARK SMILES CCCCCCCCCCCCCCCCCC(=O)[O-]
REMARK SMILES IDX 10 1 11 2 12 3 13 4 14 5 15 6 16 7 17 8 18 9 19 10 20 11
REMARK SMILES IDX 9 12 8 13 7 14 6 15 5 16 4 17 3 18 2 19 1 20
REMARK H PARENT
REMARK Flexibility Score: inf
ROOT
ATOM      1  C   UNL     1      -4.329  35.790  21.283  1.00  0.00     0.000 C 
ENDROOT
BRANCH   1   2
ATOM      2  C   UNL     1      -4.342  37.294  20.958  1.00  0.00     0.000 C 
BRANCH   2   3
ATOM      3  C   UNL     1      -5.659  37.746  20.306  1.00  0.00     0.000 C 
BRANCH   3   4
ATOM      4  C   UNL     1      -5.810  39.274  20.271  1.00  0.00     0.000 C 
BRANCH   4   5
ATOM      5  C   UNL     1      -5.977  39.841  21.689  1.00  0.00     0.000 C 
BRANCH   5   6
ATOM      6  C   UNL     1      -4.759  39.563  22.585  1.00  0.00     0.000 C 
BRANCH   6   7
ATOM      7  C   UNL     1      -5.156  39.041  23.978  1.00  0.00     0.006 C 
BRANCH   7   8
ATOM      8  C   UNL     1      -5.809  37.654  23.910  1.00  0.00     0.053 C 
BRANCH   8   9
ATOM      9  C   UNL     1      -5.326  36.760  25.011  1.00  0.00     0.041 C 
ATOM     10  O   UNL     1      -4.759  37.250  26.024  1.00  0.00    -0.550 OA
ATOM     11  O   UNL     1      -5.474  35.384  24.905  1.00  0.00    -0.550 OA
ENDBRANCH   8   9
ENDBRANCH   7   8
ENDBRANCH   6   7
ENDBRANCH   5   6
ENDBRANCH   4   5
ENDBRANCH   3   4
ENDBRANCH   2   3
ENDBRANCH   1   2
BRANCH   1  12
ATOM     12  C   UNL     1      -5.444  35.020  20.559  1.00  0.00     0.000 C 
BRANCH  12  13
ATOM     13  C   UNL     1      -4.899  33.922  19.628  1.00  0.00    -0.000 C 
BRANCH  13  14
ATOM     14  C   UNL     1      -5.513  33.987  18.220  1.00  0.00    -0.000 C 
BRANCH  14  15
ATOM     15  C   UNL     1      -5.419  35.392  17.601  1.00  0.00    -0.000 C 
BRANCH  15  16
ATOM     16  C   UNL     1      -4.063  35.648  16.924  1.00  0.00    -0.000 C 
BRANCH  16  17
ATOM     17  C   UNL     1      -4.098  35.370  15.411  1.00  0.00    -0.000 C 
BRANCH  17  18
ATOM     18  C   UNL     1      -4.246  36.652  14.578  1.00  0.00    -0.000 C 
BRANCH  18  19
ATOM     19  C   UNL     1      -2.905  37.149  14.017  1.00  0.00    -0.003 C 
ATOM     20  C   UNL     1      -1.874  36.024  13.984  1.00  0.00     0.004 C 
ENDBRANCH  18  19
ENDBRANCH  17  18
ENDBRANCH  16  17
ENDBRANCH  15  16
ENDBRANCH  14  15
ENDBRANCH  13  14
ENDBRANCH  12  13
ENDBRANCH   1  12
TORSDOF 16
ENDMDL
