MODEL 1
REMARK VINA RESULT:    -4.796      0.000      0.000
REMARK INTER + INTRA:          -9.015
REMARK INTER:                  -7.039
REMARK INTRA:                  -1.976
REMARK UNBOUND:                -1.976
REMARK SMILES O=c1c(O[C@H]2O[C@H](CO)[C@H](O)[C@H](O)[C@H]2O)c(-c2ccc(O)c(O)c2)oc2cc(O)cc(O)c12
REMARK SMILES IDX 4 1 3 2 16 3 25 4 2 5 26 6 1 7 33 8 27 9 31 10 28 11 30 12
REMARK SMILES IDX 17 13 18 14 19 15 20 16 24 17 22 18 21 19 23 21 32 23 29 25
REMARK SMILES IDX 5 27 14 28 6 29 12 30 7 31 10 32 15 33 13 35 8 37 9 38 11 40
REMARK H PARENT 21 20 23 22 32 24 29 26 15 34 13 36 9 39 11 41
REMARK Flexibility Score: inf
ROOT
ATOM      1  O   UNL     1      32.558 175.386  32.022  1.00  0.00    -0.454 OA
ENDROOT
BRANCH   1   2
ATOM      2  C   UNL     1      32.806 176.774  31.973  1.00  0.00     0.214 A 
ATOM      3  C   UNL     1      34.140 177.210  32.096  1.00  0.00     0.180 A 
ATOM      4  O   UNL     1      34.420 178.506  32.119  1.00  0.00    -0.452 OA
ATOM      5  C   UNL     1      31.793 177.752  31.845  1.00  0.00     0.239 A 
ATOM      6  C   UNL     1      33.505 179.454  31.979  1.00  0.00     0.146 A 
ATOM      7  O   UNL     1      30.586 177.404  31.841  1.00  0.00    -0.285 OA
ATOM      8  C   UNL     1      32.141 179.123  31.781  1.00  0.00     0.111 A 
ATOM      9  C   UNL     1      33.911 180.789  32.038  1.00  0.00     0.094 A 
ATOM     10  C   UNL     1      31.208 180.183  31.579  1.00  0.00     0.134 A 
ATOM     11  C   UNL     1      32.978 181.819  31.908  1.00  0.00     0.123 A 
ATOM     12  C   UNL     1      31.637 181.512  31.682  1.00  0.00     0.093 A 
BRANCH   3  13
ATOM     13  C   UNL     1      35.262 176.256  32.240  1.00  0.00     0.025 A 
ATOM     14  C   UNL     1      35.706 175.840  33.505  1.00  0.00     0.016 A 
ATOM     15  C   UNL     1      36.761 174.932  33.620  1.00  0.00     0.051 A 
ATOM     16  C   UNL     1      37.375 174.413  32.476  1.00  0.00     0.157 A 
ATOM     17  C   UNL     1      35.864 175.717  31.092  1.00  0.00     0.062 A 
ATOM     18  C   UNL     1      36.923 174.803  31.205  1.00  0.00     0.158 A 
BRANCH  16  19
ATOM     19  O   UNL     1      38.427 173.509  32.622  1.00  0.00    -0.504 OA
ATOM     20  H   UNL     1      39.341 173.679  32.218  1.00  0.00     0.293 HD
ENDBRANCH  16  19
BRANCH  18  21
ATOM     21  O   UNL     1      37.525 174.284  30.060  1.00  0.00    -0.504 OA
ATOM     22  H   UNL     1      38.378 174.681  29.682  1.00  0.00     0.293 HD
ENDBRANCH  18  21
ENDBRANCH   3  13
BRANCH  10  23
ATOM     23  O   UNL     1      29.866 179.984  31.241  1.00  0.00    -0.507 OA
ATOM     24  H   UNL     1      29.475 180.166  30.329  1.00  0.00     0.293 HD
ENDBRANCH  10  23
BRANCH  11  25
ATOM     25  O   UNL     1      33.375 183.152  31.988  1.00  0.00    -0.508 OA
ATOM     26  H   UNL     1      32.714 183.891  32.197  1.00  0.00     0.293 HD
ENDBRANCH  11  25
ENDBRANCH   1   2
BRANCH   1  27
ATOM     27  C   UNL     1      32.140 174.535  30.948  1.00  0.00     0.339 C 
ATOM     28  C   UNL     1      30.865 173.764  31.341  1.00  0.00     0.214 C 
ATOM     29  O   UNL     1      33.174 173.646  30.547  1.00  0.00    -0.332 OA
ATOM     30  C   UNL     1      31.175 172.718  32.427  1.00  0.00     0.180 C 
ATOM     31  C   UNL     1      33.571 172.794  31.609  1.00  0.00     0.179 C 
ATOM     32  C   UNL     1      32.405 171.870  32.043  1.00  0.00     0.177 C 
BRANCH  28  33
ATOM     33  O   UNL     1      29.901 174.672  31.806  1.00  0.00    -0.384 OA
ATOM     34  H   UNL     1      29.418 174.226  32.551  1.00  0.00     0.211 HD
ENDBRANCH  28  33
BRANCH  30  35
ATOM     35  O   UNL     1      30.056 171.891  32.620  1.00  0.00    -0.387 OA
ATOM     36  H   UNL     1      30.000 171.295  31.827  1.00  0.00     0.211 HD
ENDBRANCH  30  35
BRANCH  31  37
ATOM     37  C   UNL     1      34.793 171.978  31.165  1.00  0.00     0.191 C 
BRANCH  37  38
ATOM     38  O   UNL     1      35.084 172.231  29.817  1.00  0.00    -0.394 OA
ATOM     39  H   UNL     1      34.749 173.145  29.618  1.00  0.00     0.210 HD
ENDBRANCH  37  38
ENDBRANCH  31  37
BRANCH  32  40
ATOM     40  O   UNL     1      32.083 170.924  31.049  1.00  0.00    -0.387 OA
ATOM     41  H   UNL     1      32.206 171.351  30.164  1.00  0.00     0.211 HD
ENDBRANCH  32  40
ENDBRANCH   1  27
TORSDOF 12
ENDMDL
MODEL 2
REMARK VINA RESULT:    -4.685      2.199      8.053
REMARK INTER + INTRA:          -8.852
REMARK INTER:                  -7.280
REMARK INTRA:                  -1.572
REMARK UNBOUND:                -1.976
REMARK SMILES O=c1c(O[C@H]2O[C@H](CO)[C@H](O)[C@H](O)[C@H]2O)c(-c2ccc(O)c(O)c2)oc2cc(O)cc(O)c12
REMARK SMILES IDX 4 1 3 2 16 3 25 4 2 5 26 6 1 7 33 8 27 9 31 10 28 11 30 12
REMARK SMILES IDX 17 13 18 14 19 15 20 16 24 17 22 18 21 19 23 21 32 23 29 25
REMARK SMILES IDX 5 27 14 28 6 29 12 30 7 31 10 32 15 33 13 35 8 37 9 38 11 40
REMARK H PARENT 21 20 23 22 32 24 29 26 15 34 13 36 9 39 11 41
REMARK Flexibility Score: inf
ROOT
ATOM      1  O   UNL     1      31.067 180.235  30.870  1.00  0.00    -0.454 OA
ENDROOT
BRANCH   1   2
ATOM      2  C   UNL     1      32.039 179.269  31.207  1.00  0.00     0.214 A 
ATOM      3  C   UNL     1      33.228 179.715  31.817  1.00  0.00     0.180 A 
ATOM      4  O   UNL     1      34.198 178.854  32.097  1.00  0.00    -0.452 OA
ATOM      5  C   UNL     1      31.903 177.888  30.937  1.00  0.00     0.239 A 
ATOM      6  C   UNL     1      34.103 177.550  31.882  1.00  0.00     0.146 A 
ATOM      7  O   UNL     1      30.904 177.471  30.298  1.00  0.00    -0.285 OA
ATOM      8  C   UNL     1      32.923 176.989  31.335  1.00  0.00     0.111 A 
ATOM      9  C   UNL     1      35.196 176.740  32.198  1.00  0.00     0.094 A 
ATOM     10  C   UNL     1      32.854 175.572  31.178  1.00  0.00     0.134 A 
ATOM     11  C   UNL     1      35.142 175.363  31.976  1.00  0.00     0.123 A 
ATOM     12  C   UNL     1      33.978 174.789  31.467  1.00  0.00     0.093 A 
BRANCH   3  13
ATOM     13  C   UNL     1      33.456 181.142  32.131  1.00  0.00     0.025 A 
ATOM     14  C   UNL     1      33.338 181.628  33.443  1.00  0.00     0.016 A 
ATOM     15  C   UNL     1      33.565 182.977  33.720  1.00  0.00     0.051 A 
ATOM     16  C   UNL     1      33.933 183.857  32.696  1.00  0.00     0.157 A 
ATOM     17  C   UNL     1      33.846 182.021  31.109  1.00  0.00     0.062 A 
ATOM     18  C   UNL     1      34.078 183.377  31.384  1.00  0.00     0.158 A 
BRANCH  16  19
ATOM     19  O   UNL     1      34.152 185.200  33.003  1.00  0.00    -0.504 OA
ATOM     20  H   UNL     1      33.682 185.659  33.774  1.00  0.00     0.293 HD
ENDBRANCH  16  19
BRANCH  18  21
ATOM     21  O   UNL     1      34.451 184.246  30.360  1.00  0.00    -0.504 OA
ATOM     22  H   UNL     1      34.249 185.239  30.406  1.00  0.00     0.293 HD
ENDBRANCH  18  21
ENDBRANCH   3  13
BRANCH  10  23
ATOM     23  O   UNL     1      31.702 174.889  30.779  1.00  0.00    -0.507 OA
ATOM     24  H   UNL     1      31.588 173.887  30.826  1.00  0.00     0.293 HD
ENDBRANCH  10  23
BRANCH  11  25
ATOM     25  O   UNL     1      36.238 174.553  32.269  1.00  0.00    -0.508 OA
ATOM     26  H   UNL     1      37.031 174.904  32.792  1.00  0.00     0.293 HD
ENDBRANCH  11  25
ENDBRANCH   1   2
BRANCH   1  27
ATOM     27  C   UNL     1      29.676 180.232  31.211  1.00  0.00     0.339 C 
ATOM     28  C   UNL     1      28.821 180.572  29.975  1.00  0.00     0.214 C 
ATOM     29  O   UNL     1      29.396 181.116  32.288  1.00  0.00    -0.332 OA
ATOM     30  C   UNL     1      29.010 182.047  29.573  1.00  0.00     0.180 C 
ATOM     31  C   UNL     1      29.731 182.455  31.966  1.00  0.00     0.179 C 
ATOM     32  C   UNL     1      28.862 182.977  30.794  1.00  0.00     0.177 C 
BRANCH  28  33
ATOM     33  O   UNL     1      29.187 179.730  28.913  1.00  0.00    -0.384 OA
ATOM     34  H   UNL     1      30.180 179.680  28.913  1.00  0.00     0.211 HD
ENDBRANCH  28  33
BRANCH  30  35
ATOM     35  O   UNL     1      28.074 182.390  28.584  1.00  0.00    -0.387 OA
ATOM     36  H   UNL     1      27.913 183.366  28.668  1.00  0.00     0.211 HD
ENDBRANCH  30  35
BRANCH  31  37
ATOM     37  C   UNL     1      29.561 183.327  33.217  1.00  0.00     0.191 C 
BRANCH  37  38
ATOM     38  O   UNL     1      29.153 184.620  32.859  1.00  0.00    -0.394 OA
ATOM     39  H   UNL     1      29.117 185.151  33.698  1.00  0.00     0.210 HD
ENDBRANCH  37  38
ENDBRANCH  31  37
BRANCH  32  40
ATOM     40  O   UNL     1      27.510 183.123  31.164  1.00  0.00    -0.387 OA
ATOM     41  H   UNL     1      26.978 182.453  30.665  1.00  0.00     0.211 HD
ENDBRANCH  32  40
ENDBRANCH   1  27
TORSDOF 12
ENDMDL
MODEL 3
REMARK VINA RESULT:    -4.640      2.217      6.692
REMARK INTER + INTRA:          -8.787
REMARK INTER:                  -6.758
REMARK INTRA:                  -2.028
REMARK UNBOUND:                -1.976
REMARK SMILES O=c1c(O[C@H]2O[C@H](CO)[C@H](O)[C@H](O)[C@H]2O)c(-c2ccc(O)c(O)c2)oc2cc(O)cc(O)c12
REMARK SMILES IDX 4 1 3 2 16 3 25 4 2 5 26 6 1 7 33 8 27 9 31 10 28 11 30 12
REMARK SMILES IDX 17 13 18 14 19 15 20 16 24 17 22 18 21 19 23 21 32 23 29 25
REMARK SMILES IDX 5 27 14 28 6 29 12 30 7 31 10 32 15 33 13 35 8 37 9 38 11 40
REMARK H PARENT 21 20 23 22 32 24 29 26 15 34 13 36 9 39 11 41
REMARK Flexibility Score: inf
ROOT
ATOM      1  O   UNL     1      30.907 175.956  31.796  1.00  0.00    -0.454 OA
ENDROOT
BRANCH   1   2
ATOM      2  C   UNL     1      30.630 174.735  32.446  1.00  0.00     0.214 A 
ATOM      3  C   UNL     1      31.709 174.031  33.016  1.00  0.00     0.180 A 
ATOM      4  O   UNL     1      31.510 172.849  33.583  1.00  0.00    -0.452 OA
ATOM      5  C   UNL     1      29.340 174.160  32.527  1.00  0.00     0.239 A 
ATOM      6  C   UNL     1      30.316 172.285  33.701  1.00  0.00     0.146 A 
ATOM      7  O   UNL     1      28.374 174.707  31.938  1.00  0.00    -0.285 OA
ATOM      8  C   UNL     1      29.154 172.940  33.222  1.00  0.00     0.111 A 
ATOM      9  C   UNL     1      30.227 171.027  34.300  1.00  0.00     0.094 A 
ATOM     10  C   UNL     1      27.889 172.314  33.427  1.00  0.00     0.134 A 
ATOM     11  C   UNL     1      28.991 170.393  34.433  1.00  0.00     0.123 A 
ATOM     12  C   UNL     1      27.834 171.036  33.995  1.00  0.00     0.093 A 
BRANCH   3  13
ATOM     13  C   UNL     1      33.092 174.555  32.972  1.00  0.00     0.025 A 
ATOM     14  C   UNL     1      33.626 175.292  34.041  1.00  0.00     0.016 A 
ATOM     15  C   UNL     1      34.936 175.771  33.984  1.00  0.00     0.051 A 
ATOM     16  C   UNL     1      35.738 175.505  32.870  1.00  0.00     0.157 A 
ATOM     17  C   UNL     1      33.905 174.270  31.864  1.00  0.00     0.062 A 
ATOM     18  C   UNL     1      35.223 174.747  31.805  1.00  0.00     0.158 A 
BRANCH  16  19
ATOM     19  O   UNL     1      37.042 175.998  32.841  1.00  0.00    -0.504 OA
ATOM     20  H   UNL     1      37.521 176.303  33.680  1.00  0.00     0.293 HD
ENDBRANCH  16  19
BRANCH  18  21
ATOM     21  O   UNL     1      36.019 174.472  30.695  1.00  0.00    -0.504 OA
ATOM     22  H   UNL     1      35.714 174.697  29.754  1.00  0.00     0.293 HD
ENDBRANCH  18  21
ENDBRANCH   3  13
BRANCH  10  23
ATOM     23  O   UNL     1      26.665 172.917  33.124  1.00  0.00    -0.507 OA
ATOM     24  H   UNL     1      26.527 173.912  33.031  1.00  0.00     0.293 HD
ENDBRANCH  10  23
BRANCH  11  25
ATOM     25  O   UNL     1      28.899 169.128  35.011  1.00  0.00    -0.508 OA
ATOM     26  H   UNL     1      28.069 168.832  35.510  1.00  0.00     0.293 HD
ENDBRANCH  11  25
ENDBRANCH   1   2
BRANCH   1  27
ATOM     27  C   UNL     1      30.616 177.279  32.262  1.00  0.00     0.339 C 
ATOM     28  C   UNL     1      29.811 178.055  31.201  1.00  0.00     0.214 C 
ATOM     29  O   UNL     1      31.797 177.982  32.624  1.00  0.00    -0.332 OA
ATOM     30  C   UNL     1      30.690 178.372  29.977  1.00  0.00     0.180 C 
ATOM     31  C   UNL     1      32.679 178.124  31.524  1.00  0.00     0.179 C 
ATOM     32  C   UNL     1      32.038 178.986  30.407  1.00  0.00     0.177 C 
BRANCH  28  33
ATOM     33  O   UNL     1      28.700 177.289  30.813  1.00  0.00    -0.384 OA
ATOM     34  H   UNL     1      28.135 177.169  31.622  1.00  0.00     0.211 HD
ENDBRANCH  28  33
BRANCH  30  35
ATOM     35  O   UNL     1      30.006 179.251  29.121  1.00  0.00    -0.387 OA
ATOM     36  H   UNL     1      30.697 179.733  28.594  1.00  0.00     0.211 HD
ENDBRANCH  30  35
BRANCH  31  37
ATOM     37  C   UNL     1      33.996 178.740  32.016  1.00  0.00     0.191 C 
BRANCH  37  38
ATOM     38  O   UNL     1      33.741 179.770  32.933  1.00  0.00    -0.394 OA
ATOM     39  H   UNL     1      33.569 180.590  32.400  1.00  0.00     0.210 HD
ENDBRANCH  37  38
ENDBRANCH  31  37
BRANCH  32  40
ATOM     40  O   UNL     1      31.885 180.330  30.800  1.00  0.00    -0.387 OA
ATOM     41  H   UNL     1      31.290 180.778  30.146  1.00  0.00     0.211 HD
ENDBRANCH  32  40
ENDBRANCH   1  27
TORSDOF 12
ENDMDL
MODEL 4
REMARK VINA RESULT:    -4.526     10.031     13.138
REMARK INTER + INTRA:          -8.618
REMARK INTER:                  -6.811
REMARK INTRA:                  -1.807
REMARK UNBOUND:                -1.976
REMARK SMILES O=c1c(O[C@H]2O[C@H](CO)[C@H](O)[C@H](O)[C@H]2O)c(-c2ccc(O)c(O)c2)oc2cc(O)cc(O)c12
REMARK SMILES IDX 4 1 3 2 16 3 25 4 2 5 26 6 1 7 33 8 27 9 31 10 28 11 30 12
REMARK SMILES IDX 17 13 18 14 19 15 20 16 24 17 22 18 21 19 23 21 32 23 29 25
REMARK SMILES IDX 5 27 14 28 6 29 12 30 7 31 10 32 15 33 13 35 8 37 9 38 11 40
REMARK H PARENT 21 20 23 22 32 24 29 26 15 34 13 36 9 39 11 41
REMARK Flexibility Score: inf
ROOT
ATOM      1  O   UNL     1      31.514 170.304  22.660  1.00  0.00    -0.454 OA
ENDROOT
BRANCH   1   2
ATOM      2  C   UNL     1      31.563 170.478  21.261  1.00  0.00     0.214 A 
ATOM      3  C   UNL     1      30.590 171.304  20.665  1.00  0.00     0.180 A 
ATOM      4  O   UNL     1      30.554 171.451  19.347  1.00  0.00    -0.452 OA
ATOM      5  C   UNL     1      32.506 169.844  20.420  1.00  0.00     0.239 A 
ATOM      6  C   UNL     1      31.432 170.893  18.525  1.00  0.00     0.146 A 
ATOM      7  O   UNL     1      33.319 169.017  20.904  1.00  0.00    -0.285 OA
ATOM      8  C   UNL     1      32.492 170.098  19.027  1.00  0.00     0.111 A 
ATOM      9  C   UNL     1      31.286 171.100  17.152  1.00  0.00     0.094 A 
ATOM     10  C   UNL     1      33.441 169.571  18.101  1.00  0.00     0.134 A 
ATOM     11  C   UNL     1      32.182 170.522  16.251  1.00  0.00     0.123 A 
ATOM     12  C   UNL     1      33.248 169.761  16.728  1.00  0.00     0.093 A 
BRANCH   3  13
ATOM     13  C   UNL     1      29.562 172.002  21.468  1.00  0.00     0.025 A 
ATOM     14  C   UNL     1      28.460 171.312  21.999  1.00  0.00     0.016 A 
ATOM     15  C   UNL     1      27.505 171.986  22.761  1.00  0.00     0.051 A 
ATOM     16  C   UNL     1      27.644 173.353  23.021  1.00  0.00     0.157 A 
ATOM     17  C   UNL     1      29.712 173.369  21.748  1.00  0.00     0.062 A 
ATOM     18  C   UNL     1      28.755 174.049  22.516  1.00  0.00     0.158 A 
BRANCH  16  19
ATOM     19  O   UNL     1      26.673 174.001  23.784  1.00  0.00    -0.504 OA
ATOM     20  H   UNL     1      26.264 174.883  23.499  1.00  0.00     0.293 HD
ENDBRANCH  16  19
BRANCH  18  21
ATOM     21  O   UNL     1      28.904 175.410  22.776  1.00  0.00    -0.504 OA
ATOM     22  H   UNL     1      28.376 176.109  22.266  1.00  0.00     0.293 HD
ENDBRANCH  18  21
ENDBRANCH   3  13
BRANCH  10  23
ATOM     23  O   UNL     1      34.601 168.888  18.481  1.00  0.00    -0.507 OA
ATOM     24  H   UNL     1      34.631 168.161  19.180  1.00  0.00     0.293 HD
ENDBRANCH  10  23
BRANCH  11  25
ATOM     25  O   UNL     1      32.028 170.707  14.878  1.00  0.00    -0.508 OA
ATOM     26  H   UNL     1      31.242 171.221  14.498  1.00  0.00     0.293 HD
ENDBRANCH  11  25
ENDBRANCH   1   2
BRANCH   1  27
ATOM     27  C   UNL     1      32.032 171.181  23.667  1.00  0.00     0.339 C 
ATOM     28  C   UNL     1      33.169 170.491  24.445  1.00  0.00     0.214 C 
ATOM     29  O   UNL     1      31.011 171.634  24.546  1.00  0.00    -0.332 OA
ATOM     30  C   UNL     1      32.615 169.350  25.320  1.00  0.00     0.180 C 
ATOM     31  C   UNL     1      30.391 170.557  25.227  1.00  0.00     0.179 C 
ATOM     32  C   UNL     1      31.401 169.825  26.145  1.00  0.00     0.177 C 
BRANCH  28  33
ATOM     33  O   UNL     1      34.113 169.988  23.536  1.00  0.00    -0.384 OA
ATOM     34  H   UNL     1      33.605 169.632  22.759  1.00  0.00     0.211 HD
ENDBRANCH  28  33
BRANCH  30  35
ATOM     35  O   UNL     1      33.627 168.875  26.171  1.00  0.00    -0.387 OA
ATOM     36  H   UNL     1      33.578 169.416  27.002  1.00  0.00     0.211 HD
ENDBRANCH  30  35
BRANCH  31  37
ATOM     37  C   UNL     1      29.197 171.093  26.028  1.00  0.00     0.191 C 
BRANCH  37  38
ATOM     38  O   UNL     1      29.439 172.411  26.442  1.00  0.00    -0.394 OA
ATOM     39  H   UNL     1      30.141 172.365  27.143  1.00  0.00     0.210 HD
ENDBRANCH  37  38
ENDBRANCH  31  37
BRANCH  32  40
ATOM     40  O   UNL     1      31.805 170.628  27.231  1.00  0.00    -0.387 OA
ATOM     41  H   UNL     1      32.672 171.047  27.000  1.00  0.00     0.211 HD
ENDBRANCH  32  40
ENDBRANCH   1  27
TORSDOF 12
ENDMDL
MODEL 5
REMARK VINA RESULT:    -4.482      1.662      2.560
REMARK INTER + INTRA:          -8.555
REMARK INTER:                  -6.567
REMARK INTRA:                  -1.987
REMARK UNBOUND:                -1.976
REMARK SMILES O=c1c(O[C@H]2O[C@H](CO)[C@H](O)[C@H](O)[C@H]2O)c(-c2ccc(O)c(O)c2)oc2cc(O)cc(O)c12
REMARK SMILES IDX 4 1 3 2 16 3 25 4 2 5 26 6 1 7 33 8 27 9 31 10 28 11 30 12
REMARK SMILES IDX 17 13 18 14 19 15 20 16 24 17 22 18 21 19 23 21 32 23 29 25
REMARK SMILES IDX 5 27 14 28 6 29 12 30 7 31 10 32 15 33 13 35 8 37 9 38 11 40
REMARK H PARENT 21 20 23 22 32 24 29 26 15 34 13 36 9 39 11 41
REMARK Flexibility Score: inf
ROOT
ATOM      1  O   UNL     1      34.209 173.546  31.684  1.00  0.00    -0.454 OA
ENDROOT
BRANCH   1   2
ATOM      2  C   UNL     1      34.077 174.951  31.716  1.00  0.00     0.214 A 
ATOM      3  C   UNL     1      35.153 175.703  32.226  1.00  0.00     0.180 A 
ATOM      4  O   UNL     1      35.055 177.021  32.335  1.00  0.00    -0.452 OA
ATOM      5  C   UNL     1      32.916 175.643  31.299  1.00  0.00     0.239 A 
ATOM      6  C   UNL     1      33.995 177.711  31.936  1.00  0.00     0.146 A 
ATOM      7  O   UNL     1      31.899 174.998  30.941  1.00  0.00    -0.285 OA
ATOM      8  C   UNL     1      32.885 177.058  31.346  1.00  0.00     0.111 A 
ATOM      9  C   UNL     1      33.993 179.096  32.117  1.00  0.00     0.094 A 
ATOM     10  C   UNL     1      31.796 177.856  30.882  1.00  0.00     0.134 A 
ATOM     11  C   UNL     1      32.893 179.858  31.722  1.00  0.00     0.123 A 
ATOM     12  C   UNL     1      31.804 179.237  31.112  1.00  0.00     0.093 A 
BRANCH   3  13
ATOM     13  C   UNL     1      36.403 175.060  32.689  1.00  0.00     0.025 A 
ATOM     14  C   UNL     1      36.528 174.570  33.999  1.00  0.00     0.016 A 
ATOM     15  C   UNL     1      37.712 173.959  34.414  1.00  0.00     0.051 A 
ATOM     16  C   UNL     1      38.782 173.812  33.525  1.00  0.00     0.157 A 
ATOM     17  C   UNL     1      37.468 174.892  31.791  1.00  0.00     0.062 A 
ATOM     18  C   UNL     1      38.659 174.277  32.205  1.00  0.00     0.158 A 
BRANCH  16  19
ATOM     19  O   UNL     1      39.953 173.199  33.969  1.00  0.00    -0.504 OA
ATOM     20  H   UNL     1      40.095 172.198  33.903  1.00  0.00     0.293 HD
ENDBRANCH  16  19
BRANCH  18  21
ATOM     21  O   UNL     1      39.718 174.127  31.311  1.00  0.00    -0.504 OA
ATOM     22  H   UNL     1      40.373 174.880  31.133  1.00  0.00     0.293 HD
ENDBRANCH  18  21
ENDBRANCH   3  13
BRANCH  10  23
ATOM     23  O   UNL     1      30.710 177.347  30.165  1.00  0.00    -0.507 OA
ATOM     24  H   UNL     1      30.056 176.669  30.526  1.00  0.00     0.293 HD
ENDBRANCH  10  23
BRANCH  11  25
ATOM     25  O   UNL     1      32.876 181.237  31.921  1.00  0.00    -0.508 OA
ATOM     26  H   UNL     1      33.455 181.678  32.626  1.00  0.00     0.293 HD
ENDBRANCH  11  25
ENDBRANCH   1   2
BRANCH   1  27
ATOM     27  C   UNL     1      34.322 172.705  30.530  1.00  0.00     0.339 C 
ATOM     28  C   UNL     1      33.281 171.571  30.590  1.00  0.00     0.214 C 
ATOM     29  O   UNL     1      35.637 172.187  30.382  1.00  0.00    -0.332 OA
ATOM     30  C   UNL     1      33.633 170.569  31.706  1.00  0.00     0.180 C 
ATOM     31  C   UNL     1      36.016 171.399  31.498  1.00  0.00     0.179 C 
ATOM     32  C   UNL     1      35.114 170.146  31.623  1.00  0.00     0.177 C 
BRANCH  28  33
ATOM     33  O   UNL     1      32.010 172.121  30.818  1.00  0.00    -0.384 OA
ATOM     34  H   UNL     1      31.764 172.628  29.999  1.00  0.00     0.211 HD
ENDBRANCH  28  33
BRANCH  30  35
ATOM     35  O   UNL     1      32.798 169.443  31.610  1.00  0.00    -0.387 OA
ATOM     36  H   UNL     1      31.863 169.777  31.637  1.00  0.00     0.211 HD
ENDBRANCH  30  35
BRANCH  31  37
ATOM     37  C   UNL     1      37.494 171.009  31.355  1.00  0.00     0.191 C 
BRANCH  37  38
ATOM     38  O   UNL     1      38.074 171.686  30.273  1.00  0.00    -0.394 OA
ATOM     39  H   UNL     1      38.708 171.052  29.846  1.00  0.00     0.210 HD
ENDBRANCH  37  38
ENDBRANCH  31  37
BRANCH  32  40
ATOM     40  O   UNL     1      35.326 169.235  30.569  1.00  0.00    -0.387 OA
ATOM     41  H   UNL     1      35.168 168.319  30.914  1.00  0.00     0.211 HD
ENDBRANCH  32  40
ENDBRANCH   1  27
TORSDOF 12
ENDMDL
MODEL 6
REMARK VINA RESULT:    -4.361      8.211     11.103
REMARK INTER + INTRA:          -8.377
REMARK INTER:                  -6.506
REMARK INTRA:                  -1.871
REMARK UNBOUND:                -1.976
REMARK SMILES O=c1c(O[C@H]2O[C@H](CO)[C@H](O)[C@H](O)[C@H]2O)c(-c2ccc(O)c(O)c2)oc2cc(O)cc(O)c12
REMARK SMILES IDX 4 1 3 2 16 3 25 4 2 5 26 6 1 7 33 8 27 9 31 10 28 11 30 12
REMARK SMILES IDX 17 13 18 14 19 15 20 16 24 17 22 18 21 19 23 21 32 23 29 25
REMARK SMILES IDX 5 27 14 28 6 29 12 30 7 31 10 32 15 33 13 35 8 37 9 38 11 40
REMARK H PARENT 21 20 23 22 32 24 29 26 15 34 13 36 9 39 11 41
REMARK Flexibility Score: inf
ROOT
ATOM      1  O   UNL     1      31.495 171.140  23.476  1.00  0.00    -0.454 OA
ENDROOT
BRANCH   1   2
ATOM      2  C   UNL     1      31.204 171.547  24.796  1.00  0.00     0.214 A 
ATOM      3  C   UNL     1      30.158 172.471  24.985  1.00  0.00     0.180 A 
ATOM      4  O   UNL     1      29.885 172.932  26.198  1.00  0.00    -0.452 OA
ATOM      5  C   UNL     1      31.923 171.109  25.932  1.00  0.00     0.239 A 
ATOM      6  C   UNL     1      30.518 172.532  27.292  1.00  0.00     0.146 A 
ATOM      7  O   UNL     1      32.929 170.370  25.789  1.00  0.00    -0.285 OA
ATOM      8  C   UNL     1      31.542 171.555  27.221  1.00  0.00     0.111 A 
ATOM      9  C   UNL     1      30.160 173.100  28.516  1.00  0.00     0.094 A 
ATOM     10  C   UNL     1      32.149 171.119  28.437  1.00  0.00     0.134 A 
ATOM     11  C   UNL     1      30.810 172.716  29.691  1.00  0.00     0.123 A 
ATOM     12  C   UNL     1      31.798 171.734  29.645  1.00  0.00     0.093 A 
BRANCH   3  13
ATOM     13  C   UNL     1      29.358 172.986  23.852  1.00  0.00     0.025 A 
ATOM     14  C   UNL     1      28.239 172.286  23.372  1.00  0.00     0.016 A 
ATOM     15  C   UNL     1      27.492 172.792  22.307  1.00  0.00     0.051 A 
ATOM     16  C   UNL     1      27.838 174.013  21.718  1.00  0.00     0.157 A 
ATOM     17  C   UNL     1      29.691 174.221  23.275  1.00  0.00     0.062 A 
ATOM     18  C   UNL     1      28.940 174.734  22.206  1.00  0.00     0.158 A 
BRANCH  16  19
ATOM     19  O   UNL     1      27.074 174.493  20.655  1.00  0.00    -0.504 OA
ATOM     20  H   UNL     1      26.951 173.965  19.799  1.00  0.00     0.293 HD
ENDBRANCH  16  19
BRANCH  18  21
ATOM     21  O   UNL     1      29.287 175.955  21.629  1.00  0.00    -0.504 OA
ATOM     22  H   UNL     1      30.208 176.359  21.754  1.00  0.00     0.293 HD
ENDBRANCH  18  21
ENDBRANCH   3  13
BRANCH  10  23
ATOM     23  O   UNL     1      33.069 170.069  28.514  1.00  0.00    -0.507 OA
ATOM     24  H   UNL     1      32.835 169.096  28.390  1.00  0.00     0.293 HD
ENDBRANCH  10  23
BRANCH  11  25
ATOM     25  O   UNL     1      30.471 173.296  30.912  1.00  0.00    -0.508 OA
ATOM     26  H   UNL     1      29.835 172.841  31.556  1.00  0.00     0.293 HD
ENDBRANCH  11  25
ENDBRANCH   1   2
BRANCH   1  27
ATOM     27  C   UNL     1      31.047 169.954  22.808  1.00  0.00     0.339 C 
ATOM     28  C   UNL     1      32.251 169.088  22.390  1.00  0.00     0.214 C 
ATOM     29  O   UNL     1      30.222 170.259  21.692  1.00  0.00    -0.332 OA
ATOM     30  C   UNL     1      33.043 169.768  21.258  1.00  0.00     0.180 C 
ATOM     31  C   UNL     1      30.914 171.032  20.726  1.00  0.00     0.179 C 
ATOM     32  C   UNL     1      32.103 170.238  20.129  1.00  0.00     0.177 C 
BRANCH  28  33
ATOM     33  O   UNL     1      33.080 168.880  23.504  1.00  0.00    -0.384 OA
ATOM     34  H   UNL     1      32.505 168.517  24.229  1.00  0.00     0.211 HD
ENDBRANCH  28  33
BRANCH  30  35
ATOM     35  O   UNL     1      34.003 168.876  20.753  1.00  0.00    -0.387 OA
ATOM     36  H   UNL     1      33.529 168.026  20.556  1.00  0.00     0.211 HD
ENDBRANCH  30  35
BRANCH  31  37
ATOM     37  C   UNL     1      29.928 171.465  19.633  1.00  0.00     0.191 C 
BRANCH  37  38
ATOM     38  O   UNL     1      28.925 170.498  19.470  1.00  0.00    -0.394 OA
ATOM     39  H   UNL     1      28.233 170.687  20.157  1.00  0.00     0.210 HD
ENDBRANCH  37  38
ENDBRANCH  31  37
BRANCH  32  40
ATOM     40  O   UNL     1      31.670 169.152  19.341  1.00  0.00    -0.387 OA
ATOM     41  H   UNL     1      30.755 168.906  19.630  1.00  0.00     0.211 HD
ENDBRANCH  32  40
ENDBRANCH   1  27
TORSDOF 12
ENDMDL
MODEL 7
REMARK VINA RESULT:    -4.315      1.485      2.880
REMARK INTER + INTRA:          -8.309
REMARK INTER:                  -6.769
REMARK INTRA:                  -1.540
REMARK UNBOUND:                -1.976
REMARK SMILES O=c1c(O[C@H]2O[C@H](CO)[C@H](O)[C@H](O)[C@H]2O)c(-c2ccc(O)c(O)c2)oc2cc(O)cc(O)c12
REMARK SMILES IDX 4 1 3 2 16 3 25 4 2 5 26 6 1 7 33 8 27 9 31 10 28 11 30 12
REMARK SMILES IDX 17 13 18 14 19 15 20 16 24 17 22 18 21 19 23 21 32 23 29 25
REMARK SMILES IDX 5 27 14 28 6 29 12 30 7 31 10 32 15 33 13 35 8 37 9 38 11 40
REMARK H PARENT 21 20 23 22 32 24 29 26 15 34 13 36 9 39 11 41
REMARK Flexibility Score: inf
ROOT
ATOM      1  O   UNL     1      32.384 176.245  30.700  1.00  0.00    -0.454 OA
ENDROOT
BRANCH   1   2
ATOM      2  C   UNL     1      32.788 177.520  31.147  1.00  0.00     0.214 A 
ATOM      3  C   UNL     1      34.010 177.619  31.841  1.00  0.00     0.180 A 
ATOM      4  O   UNL     1      34.405 178.784  32.336  1.00  0.00    -0.452 OA
ATOM      5  C   UNL     1      32.023 178.697  30.971  1.00  0.00     0.239 A 
ATOM      6  C   UNL     1      33.731 179.914  32.175  1.00  0.00     0.146 A 
ATOM      7  O   UNL     1      30.881 178.627  30.453  1.00  0.00    -0.285 OA
ATOM      8  C   UNL     1      32.523 179.938  31.435  1.00  0.00     0.111 A 
ATOM      9  C   UNL     1      34.232 181.080  32.757  1.00  0.00     0.094 A 
ATOM     10  C   UNL     1      31.869 181.192  31.243  1.00  0.00     0.134 A 
ATOM     11  C   UNL     1      33.547 182.288  32.621  1.00  0.00     0.123 A 
ATOM     12  C   UNL     1      32.373 182.337  31.871  1.00  0.00     0.093 A 
BRANCH   3  13
ATOM     13  C   UNL     1      34.871 176.439  32.075  1.00  0.00     0.025 A 
ATOM     14  C   UNL     1      34.769 175.685  33.256  1.00  0.00     0.016 A 
ATOM     15  C   UNL     1      35.584 174.570  33.455  1.00  0.00     0.051 A 
ATOM     16  C   UNL     1      36.500 174.178  32.472  1.00  0.00     0.157 A 
ATOM     17  C   UNL     1      35.774 176.032  31.081  1.00  0.00     0.062 A 
ATOM     18  C   UNL     1      36.593 174.910  31.276  1.00  0.00     0.158 A 
BRANCH  16  19
ATOM     19  O   UNL     1      37.302 173.061  32.699  1.00  0.00    -0.504 OA
ATOM     20  H   UNL     1      37.096 172.158  32.288  1.00  0.00     0.293 HD
ENDBRANCH  16  19
BRANCH  18  21
ATOM     21  O   UNL     1      37.498 174.522  30.289  1.00  0.00    -0.504 OA
ATOM     22  H   UNL     1      38.315 175.080  30.069  1.00  0.00     0.293 HD
ENDBRANCH  18  21
ENDBRANCH   3  13
BRANCH  10  23
ATOM     23  O   UNL     1      30.751 181.369  30.424  1.00  0.00    -0.507 OA
ATOM     24  H   UNL     1      30.127 182.160  30.473  1.00  0.00     0.293 HD
ENDBRANCH  10  23
BRANCH  11  25
ATOM     25  O   UNL     1      34.031 183.451  33.219  1.00  0.00    -0.508 OA
ATOM     26  H   UNL     1      35.023 183.657  33.251  1.00  0.00     0.293 HD
ENDBRANCH  11  25
ENDBRANCH   1   2
BRANCH   1  27
ATOM     27  C   UNL     1      31.741 175.215  31.460  1.00  0.00     0.339 C 
ATOM     28  C   UNL     1      31.946 173.845  30.787  1.00  0.00     0.214 C 
ATOM     29  O   UNL     1      30.360 175.489  31.654  1.00  0.00    -0.332 OA
ATOM     30  C   UNL     1      31.153 173.761  29.469  1.00  0.00     0.180 C 
ATOM     31  C   UNL     1      29.666 175.576  30.421  1.00  0.00     0.179 C 
ATOM     32  C   UNL     1      29.694 174.221  29.672  1.00  0.00     0.177 C 
BRANCH  28  33
ATOM     33  O   UNL     1      33.315 173.651  30.540  1.00  0.00    -0.384 OA
ATOM     34  H   UNL     1      33.570 172.796  30.979  1.00  0.00     0.211 HD
ENDBRANCH  28  33
BRANCH  30  35
ATOM     35  O   UNL     1      31.185 172.444  28.982  1.00  0.00    -0.387 OA
ATOM     36  H   UNL     1      30.365 172.321  28.436  1.00  0.00     0.211 HD
ENDBRANCH  30  35
BRANCH  31  37
ATOM     37  C   UNL     1      28.226 176.034  30.690  1.00  0.00     0.191 C 
BRANCH  37  38
ATOM     38  O   UNL     1      28.204 177.390  31.049  1.00  0.00    -0.394 OA
ATOM     39  H   UNL     1      28.929 177.833  30.536  1.00  0.00     0.210 HD
ENDBRANCH  37  38
ENDBRANCH  31  37
BRANCH  32  40
ATOM     40  O   UNL     1      28.936 173.235  30.335  1.00  0.00    -0.387 OA
ATOM     41  H   UNL     1      28.603 172.593  29.657  1.00  0.00     0.211 HD
ENDBRANCH  32  40
ENDBRANCH   1  27
TORSDOF 12
ENDMDL
MODEL 8
REMARK VINA RESULT:    -4.305      2.232      6.862
REMARK INTER + INTRA:          -8.294
REMARK INTER:                  -6.666
REMARK INTRA:                  -1.628
REMARK UNBOUND:                -1.976
REMARK SMILES O=c1c(O[C@H]2O[C@H](CO)[C@H](O)[C@H](O)[C@H]2O)c(-c2ccc(O)c(O)c2)oc2cc(O)cc(O)c12
REMARK SMILES IDX 4 1 3 2 16 3 25 4 2 5 26 6 1 7 33 8 27 9 31 10 28 11 30 12
REMARK SMILES IDX 17 13 18 14 19 15 20 16 24 17 22 18 21 19 23 21 32 23 29 25
REMARK SMILES IDX 5 27 14 28 6 29 12 30 7 31 10 32 15 33 13 35 8 37 9 38 11 40
REMARK H PARENT 21 20 23 22 32 24 29 26 15 34 13 36 9 39 11 41
REMARK Flexibility Score: inf
ROOT
ATOM      1  O   UNL     1      33.726 172.701  32.179  1.00  0.00    -0.454 OA
ENDROOT
BRANCH   1   2
ATOM      2  C   UNL     1      32.349 172.589  32.466  1.00  0.00     0.214 A 
ATOM      3  C   UNL     1      31.628 173.773  32.712  1.00  0.00     0.180 A 
ATOM      4  O   UNL     1      30.346 173.717  33.047  1.00  0.00    -0.452 OA
ATOM      5  C   UNL     1      31.661 171.357  32.555  1.00  0.00     0.239 A 
ATOM      6  C   UNL     1      29.658 172.587  33.120  1.00  0.00     0.146 A 
ATOM      7  O   UNL     1      32.295 170.277  32.447  1.00  0.00    -0.285 OA
ATOM      8  C   UNL     1      30.271 171.344  32.825  1.00  0.00     0.111 A 
ATOM      9  C   UNL     1      28.315 172.645  33.501  1.00  0.00     0.094 A 
ATOM     10  C   UNL     1      29.467 170.165  32.862  1.00  0.00     0.134 A 
ATOM     11  C   UNL     1      27.558 171.477  33.601  1.00  0.00     0.123 A 
ATOM     12  C   UNL     1      28.136 170.249  33.285  1.00  0.00     0.093 A 
BRANCH   3  13
ATOM     13  C   UNL     1      32.269 175.105  32.646  1.00  0.00     0.025 A 
ATOM     14  C   UNL     1      33.060 175.586  33.702  1.00  0.00     0.016 A 
ATOM     15  C   UNL     1      33.664 176.842  33.617  1.00  0.00     0.051 A 
ATOM     16  C   UNL     1      33.504 177.627  32.471  1.00  0.00     0.157 A 
ATOM     17  C   UNL     1      32.128 175.885  31.488  1.00  0.00     0.062 A 
ATOM     18  C   UNL     1      32.736 177.146  31.398  1.00  0.00     0.158 A 
BRANCH  16  19
ATOM     19  O   UNL     1      34.118 178.878  32.416  1.00  0.00    -0.504 OA
ATOM     20  H   UNL     1      34.379 179.311  31.537  1.00  0.00     0.293 HD
ENDBRANCH  16  19
BRANCH  18  21
ATOM     21  O   UNL     1      32.577 177.920  30.250  1.00  0.00    -0.504 OA
ATOM     22  H   UNL     1      32.550 178.933  30.292  1.00  0.00     0.293 HD
ENDBRANCH  18  21
ENDBRANCH   3  13
BRANCH  10  23
ATOM     23  O   UNL     1      29.919 168.904  32.463  1.00  0.00    -0.507 OA
ATOM     24  H   UNL     1      30.835 168.535  32.669  1.00  0.00     0.293 HD
ENDBRANCH  10  23
BRANCH  11  25
ATOM     25  O   UNL     1      26.224 171.528  34.002  1.00  0.00    -0.508 OA
ATOM     26  H   UNL     1      25.476 171.686  33.338  1.00  0.00     0.293 HD
ENDBRANCH  11  25
ENDBRANCH   1   2
BRANCH   1  27
ATOM     27  C   UNL     1      34.334 173.003  30.918  1.00  0.00     0.339 C 
ATOM     28  C   UNL     1      35.100 171.775  30.386  1.00  0.00     0.214 C 
ATOM     29  O   UNL     1      35.183 174.140  31.000  1.00  0.00    -0.332 OA
ATOM     30  C   UNL     1      36.348 171.499  31.244  1.00  0.00     0.180 C 
ATOM     31  C   UNL     1      36.240 173.937  31.922  1.00  0.00     0.179 C 
ATOM     32  C   UNL     1      37.169 172.788  31.456  1.00  0.00     0.177 C 
BRANCH  28  33
ATOM     33  O   UNL     1      34.248 170.659  30.398  1.00  0.00    -0.384 OA
ATOM     34  H   UNL     1      33.389 170.955  30.800  1.00  0.00     0.211 HD
ENDBRANCH  28  33
BRANCH  30  35
ATOM     35  O   UNL     1      37.138 170.516  30.625  1.00  0.00    -0.387 OA
ATOM     36  H   UNL     1      36.517 169.810  30.305  1.00  0.00     0.211 HD
ENDBRANCH  30  35
BRANCH  31  37
ATOM     37  C   UNL     1      37.017 175.250  32.087  1.00  0.00     0.191 C 
BRANCH  37  38
ATOM     38  O   UNL     1      36.375 176.288  31.396  1.00  0.00    -0.394 OA
ATOM     39  H   UNL     1      37.088 176.834  30.974  1.00  0.00     0.210 HD
ENDBRANCH  37  38
ENDBRANCH  31  37
BRANCH  32  40
ATOM     40  O   UNL     1      37.891 173.131  30.295  1.00  0.00    -0.387 OA
ATOM     41  H   UNL     1      38.705 172.567  30.259  1.00  0.00     0.211 HD
ENDBRANCH  32  40
ENDBRANCH   1  27
TORSDOF 12
ENDMDL
MODEL 9
REMARK VINA RESULT:    -4.181      6.994      8.932
REMARK INTER + INTRA:          -8.113
REMARK INTER:                  -6.105
REMARK INTRA:                  -2.008
REMARK UNBOUND:                -1.976
REMARK SMILES O=c1c(O[C@H]2O[C@H](CO)[C@H](O)[C@H](O)[C@H]2O)c(-c2ccc(O)c(O)c2)oc2cc(O)cc(O)c12
REMARK SMILES IDX 4 1 3 2 16 3 25 4 2 5 26 6 1 7 33 8 27 9 31 10 28 11 30 12
REMARK SMILES IDX 17 13 18 14 19 15 20 16 24 17 22 18 21 19 23 21 32 23 29 25
REMARK SMILES IDX 5 27 14 28 6 29 12 30 7 31 10 32 15 33 13 35 8 37 9 38 11 40
REMARK H PARENT 21 20 23 22 32 24 29 26 15 34 13 36 9 39 11 41
REMARK Flexibility Score: inf
ROOT
ATOM      1  O   UNL     1      28.715 172.552  27.599  1.00  0.00    -0.454 OA
ENDROOT
BRANCH   1   2
ATOM      2  C   UNL     1      28.845 171.907  28.847  1.00  0.00     0.214 A 
ATOM      3  C   UNL     1      29.667 170.765  28.917  1.00  0.00     0.180 A 
ATOM      4  O   UNL     1      29.772 170.086  30.052  1.00  0.00    -0.452 OA
ATOM      5  C   UNL     1      28.171 172.318  30.020  1.00  0.00     0.239 A 
ATOM      6  C   UNL     1      29.177 170.449  31.179  1.00  0.00     0.146 A 
ATOM      7  O   UNL     1      27.348 173.266  29.968  1.00  0.00    -0.285 OA
ATOM      8  C   UNL     1      28.382 171.621  31.235  1.00  0.00     0.111 A 
ATOM      9  C   UNL     1      29.343 169.648  32.311  1.00  0.00     0.094 A 
ATOM     10  C   UNL     1      27.812 171.995  32.489  1.00  0.00     0.134 A 
ATOM     11  C   UNL     1      28.724 169.988  33.515  1.00  0.00     0.123 A 
ATOM     12  C   UNL     1      27.963 171.153  33.596  1.00  0.00     0.093 A 
BRANCH   3  13
ATOM     13  C   UNL     1      30.403 170.261  27.737  1.00  0.00     0.025 A 
ATOM     14  C   UNL     1      29.805 169.373  26.829  1.00  0.00     0.016 A 
ATOM     15  C   UNL     1      30.514 168.915  25.717  1.00  0.00     0.051 A 
ATOM     16  C   UNL     1      31.823 169.351  25.484  1.00  0.00     0.157 A 
ATOM     17  C   UNL     1      31.709 170.714  27.491  1.00  0.00     0.062 A 
ATOM     18  C   UNL     1      32.423 170.258  26.373  1.00  0.00     0.158 A 
BRANCH  16  19
ATOM     19  O   UNL     1      32.507 168.875  24.366  1.00  0.00    -0.504 OA
ATOM     20  H   UNL     1      32.027 168.615  23.513  1.00  0.00     0.293 HD
ENDBRANCH  16  19
BRANCH  18  21
ATOM     21  O   UNL     1      33.724 170.703  26.144  1.00  0.00    -0.504 OA
ATOM     22  H   UNL     1      33.955 171.689  26.140  1.00  0.00     0.293 HD
ENDBRANCH  18  21
ENDBRANCH   3  13
BRANCH  10  23
ATOM     23  O   UNL     1      27.125 173.194  32.703  1.00  0.00    -0.507 OA
ATOM     24  H   UNL     1      26.798 173.803  31.968  1.00  0.00     0.293 HD
ENDBRANCH  10  23
BRANCH  11  25
ATOM     25  O   UNL     1      28.869 169.180  34.641  1.00  0.00    -0.508 OA
ATOM     26  H   UNL     1      28.065 168.808  35.134  1.00  0.00     0.293 HD
ENDBRANCH  11  25
ENDBRANCH   1   2
BRANCH   1  27
ATOM     27  C   UNL     1      29.387 173.736  27.154  1.00  0.00     0.339 C 
ATOM     28  C   UNL     1      28.361 174.801  26.720  1.00  0.00     0.214 C 
ATOM     29  O   UNL     1      30.310 173.458  26.110  1.00  0.00    -0.332 OA
ATOM     30  C   UNL     1      27.650 174.375  25.422  1.00  0.00     0.180 C 
ATOM     31  C   UNL     1      29.664 172.907  24.974  1.00  0.00     0.179 C 
ATOM     32  C   UNL     1      28.668 173.920  24.357  1.00  0.00     0.177 C 
BRANCH  28  33
ATOM     33  O   UNL     1      27.423 174.986  27.748  1.00  0.00    -0.384 OA
ATOM     34  H   UNL     1      26.733 175.612  27.401  1.00  0.00     0.211 HD
ENDBRANCH  28  33
BRANCH  30  35
ATOM     35  O   UNL     1      26.878 175.442  24.934  1.00  0.00    -0.387 OA
ATOM     36  H   UNL     1      27.516 176.118  24.582  1.00  0.00     0.211 HD
ENDBRANCH  30  35
BRANCH  31  37
ATOM     37  C   UNL     1      30.728 172.478  23.954  1.00  0.00     0.191 C 
BRANCH  37  38
ATOM     38  O   UNL     1      30.163 172.377  22.674  1.00  0.00    -0.394 OA
ATOM     39  H   UNL     1      30.733 171.747  22.160  1.00  0.00     0.210 HD
ENDBRANCH  37  38
ENDBRANCH  31  37
BRANCH  32  40
ATOM     40  O   UNL     1      29.328 175.023  23.778  1.00  0.00    -0.387 OA
ATOM     41  H   UNL     1      30.288 174.972  24.021  1.00  0.00     0.211 HD
ENDBRANCH  32  40
ENDBRANCH   1  27
TORSDOF 12
ENDMDL
