MODEL 1
REMARK VINA RESULT:    -0.703      0.000      0.000
REMARK INTER + INTRA:          -1.409
REMARK INTER:                  -1.073
REMARK INTRA:                  -0.336
REMARK UNBOUND:                -0.336
REMARK SMILES O=C([O-])CCCCCCCCC(=O)[O-]
REMARK SMILES IDX 7 1 6 2 5 3 4 4 2 5 1 6 3 7 8 8 9 9 10 10 11 11 12 12 13 13
REMARK SMILES IDX 14 14
REMARK H PARENT
REMARK Flexibility Score: inf
ROOT
ATOM      1  C   UNL     1      -7.129  28.861 -18.670  1.00  0.00     0.000 C 
ENDROOT
BRANCH   1   2
ATOM      2  C   UNL     1      -6.164  28.389 -19.774  1.00  0.00     0.000 C 
BRANCH   2   3
ATOM      3  C   UNL     1      -6.361  29.059 -21.145  1.00  0.00     0.006 C 
BRANCH   3   4
ATOM      4  C   UNL     1      -5.313  28.628 -22.179  1.00  0.00     0.053 C 
BRANCH   4   5
ATOM      5  C   UNL     1      -5.731  27.356 -22.846  1.00  0.00     0.041 C 
ATOM      6  O   UNL     1      -4.875  26.475 -23.125  1.00  0.00    -0.550 OA
ATOM      7  O   UNL     1      -7.073  27.120 -23.118  1.00  0.00    -0.550 OA
ENDBRANCH   4   5
ENDBRANCH   3   4
ENDBRANCH   2   3
ENDBRANCH   1   2
BRANCH   1   8
ATOM      8  C   UNL     1      -6.584  28.616 -17.253  1.00  0.00     0.000 C 
BRANCH   8   9
ATOM      9  C   UNL     1      -7.659  28.794 -16.169  1.00  0.00     0.000 C 
BRANCH   9  10
ATOM     10  C   UNL     1      -8.849  29.643 -16.651  1.00  0.00     0.006 C 
BRANCH  10  11
ATOM     11  C   UNL     1      -9.305  30.655 -15.591  1.00  0.00     0.053 C 
BRANCH  11  12
ATOM     12  C   UNL     1      -9.036  32.065 -16.014  1.00  0.00     0.041 C 
ATOM     13  O   UNL     1      -9.154  32.399 -17.223  1.00  0.00    -0.550 OA
ATOM     14  O   UNL     1      -8.624  33.006 -15.077  1.00  0.00    -0.550 OA
ENDBRANCH  11  12
ENDBRANCH  10  11
ENDBRANCH   9  10
ENDBRANCH   8   9
ENDBRANCH   1   8
TORSDOF 9
ENDMDL
MODEL 2
REMARK VINA RESULT:    -0.145      0.818      7.249
REMARK INTER + INTRA:          -0.558
REMARK INTER:                  -0.479
REMARK INTRA:                  -0.079
REMARK UNBOUND:                -0.336
REMARK SMILES O=C([O-])CCCCCCCCC(=O)[O-]
REMARK SMILES IDX 7 1 6 2 5 3 4 4 2 5 1 6 3 7 8 8 9 9 10 10 11 11 12 12 13 13
REMARK SMILES IDX 14 14
REMARK H PARENT
REMARK Flexibility Score: inf
ROOT
ATOM      1  C   UNL     1      -8.728  29.387 -17.590  1.00  0.00     0.000 C 
ENDROOT
BRANCH   1   2
ATOM      2  C   UNL     1      -7.893  28.972 -16.364  1.00  0.00     0.000 C 
BRANCH   2   3
ATOM      3  C   UNL     1      -8.159  29.787 -15.086  1.00  0.00     0.006 C 
BRANCH   3   4
ATOM      4  C   UNL     1      -9.399  30.684 -15.195  1.00  0.00     0.053 C 
BRANCH   4   5
ATOM      5  C   UNL     1      -9.007  32.068 -15.608  1.00  0.00     0.041 C 
ATOM      6  O   UNL     1      -9.020  32.394 -16.825  1.00  0.00    -0.550 OA
ATOM      7  O   UNL     1      -8.675  33.014 -14.647  1.00  0.00    -0.550 OA
ENDBRANCH   4   5
ENDBRANCH   3   4
ENDBRANCH   2   3
ENDBRANCH   1   2
BRANCH   1   8
ATOM      8  C   UNL     1      -7.945  29.286 -18.910  1.00  0.00     0.000 C 
BRANCH   8   9
ATOM      9  C   UNL     1      -6.579  28.603 -18.734  1.00  0.00     0.000 C 
BRANCH   9  10
ATOM     10  C   UNL     1      -6.110  27.880 -20.009  1.00  0.00     0.006 C 
BRANCH  10  11
ATOM     11  C   UNL     1      -6.326  28.731 -21.268  1.00  0.00     0.053 C 
BRANCH  11  12
ATOM     12  C   UNL     1      -5.977  27.979 -22.515  1.00  0.00     0.041 C 
ATOM     13  O   UNL     1      -4.880  28.190 -23.098  1.00  0.00    -0.550 OA
ATOM     14  O   UNL     1      -6.877  27.066 -23.051  1.00  0.00    -0.550 OA
ENDBRANCH  11  12
ENDBRANCH  10  11
ENDBRANCH   9  10
ENDBRANCH   8   9
ENDBRANCH   1   8
TORSDOF 9
ENDMDL
MODEL 3
REMARK VINA RESULT:     1.785      1.711      2.003
REMARK INTER + INTRA:           2.387
REMARK INTER:                   2.390
REMARK INTRA:                  -0.003
REMARK UNBOUND:                -0.336
REMARK SMILES O=C([O-])CCCCCCCCC(=O)[O-]
REMARK SMILES IDX 7 1 6 2 5 3 4 4 2 5 1 6 3 7 8 8 9 9 10 10 11 11 12 12 13 13
REMARK SMILES IDX 14 14
REMARK H PARENT
REMARK Flexibility Score: inf
ROOT
ATOM      1  C   UNL     1      -7.242  28.907 -18.433  1.00  0.00     0.000 C 
ENDROOT
BRANCH   1   2
ATOM      2  C   UNL     1      -6.374  28.334 -19.570  1.00  0.00     0.000 C 
BRANCH   2   3
ATOM      3  C   UNL     1      -6.451  29.101 -20.901  1.00  0.00     0.006 C 
BRANCH   3   4
ATOM      4  C   UNL     1      -5.359  28.687 -21.895  1.00  0.00     0.053 C 
BRANCH   4   5
ATOM      5  C   UNL     1      -5.742  27.421 -22.594  1.00  0.00     0.041 C 
ATOM      6  O   UNL     1      -4.875  26.535 -22.821  1.00  0.00    -0.550 OA
ATOM      7  O   UNL     1      -7.065  27.195 -22.952  1.00  0.00    -0.550 OA
ENDBRANCH   4   5
ENDBRANCH   3   4
ENDBRANCH   2   3
ENDBRANCH   1   2
BRANCH   1   8
ATOM      8  C   UNL     1      -8.606  29.424 -18.924  1.00  0.00     0.000 C 
BRANCH   8   9
ATOM      9  C   UNL     1      -9.583  29.693 -17.768  1.00  0.00     0.000 C 
BRANCH   9  10
ATOM     10  C   UNL     1      -9.090  30.803 -16.823  1.00  0.00     0.006 C 
BRANCH  10  11
ATOM     11  C   UNL     1      -9.359  30.469 -15.349  1.00  0.00     0.053 C 
BRANCH  11  12
ATOM     12  C   UNL     1      -8.237  29.684 -14.743  1.00  0.00     0.041 C 
ATOM     13  O   UNL     1      -7.527  28.932 -15.461  1.00  0.00    -0.550 OA
ATOM     14  O   UNL     1      -7.996  29.759 -13.376  1.00  0.00    -0.550 OA
ENDBRANCH  11  12
ENDBRANCH  10  11
ENDBRANCH   9  10
ENDBRANCH   8   9
ENDBRANCH   1   8
TORSDOF 9
ENDMDL
MODEL 4
REMARK VINA RESULT:     1.973      1.804      6.950
REMARK INTER + INTRA:           2.674
REMARK INTER:                   2.639
REMARK INTRA:                   0.035
REMARK UNBOUND:                -0.336
REMARK SMILES O=C([O-])CCCCCCCCC(=O)[O-]
REMARK SMILES IDX 7 1 6 2 5 3 4 4 2 5 1 6 3 7 8 8 9 9 10 10 11 11 12 12 13 13
REMARK SMILES IDX 14 14
REMARK H PARENT
REMARK Flexibility Score: inf
ROOT
ATOM      1  C   UNL     1      -9.318  29.743 -18.080  1.00  0.00     0.000 C 
ENDROOT
BRANCH   1   2
ATOM      2  C   UNL     1      -9.313  31.245 -17.738  1.00  0.00     0.000 C 
BRANCH   2   3
ATOM      3  C   UNL     1      -9.015  31.578 -16.265  1.00  0.00     0.006 C 
BRANCH   3   4
ATOM      4  C   UNL     1      -9.502  30.494 -15.296  1.00  0.00     0.053 C 
BRANCH   4   5
ATOM      5  C   UNL     1      -8.342  29.723 -14.750  1.00  0.00     0.041 C 
ATOM      6  O   UNL     1      -8.097  29.735 -13.514  1.00  0.00    -0.550 OA
ATOM      7  O   UNL     1      -7.559  28.949 -15.598  1.00  0.00    -0.550 OA
ENDBRANCH   4   5
ENDBRANCH   3   4
ENDBRANCH   2   3
ENDBRANCH   1   2
BRANCH   1   8
ATOM      8  C   UNL     1      -8.260  29.365 -19.131  1.00  0.00     0.000 C 
BRANCH   8   9
ATOM      9  C   UNL     1      -7.059  28.628 -18.518  1.00  0.00     0.000 C 
BRANCH   9  10
ATOM     10  C   UNL     1      -6.009  28.230 -19.570  1.00  0.00     0.006 C 
BRANCH  10  11
ATOM     11  C   UNL     1      -6.193  28.994 -20.889  1.00  0.00     0.053 C 
BRANCH  11  12
ATOM     12  C   UNL     1      -5.968  28.113 -22.079  1.00  0.00     0.041 C 
ATOM     13  O   UNL     1      -4.875  28.156 -22.703  1.00  0.00    -0.550 OA
ATOM     14  O   UNL     1      -6.979  27.266 -22.518  1.00  0.00    -0.550 OA
ENDBRANCH  11  12
ENDBRANCH  10  11
ENDBRANCH   9  10
ENDBRANCH   8   9
ENDBRANCH   1   8
TORSDOF 9
ENDMDL
