MODEL 1
REMARK VINA RESULT:    -4.823      0.000      0.000
REMARK INTER + INTRA:          -5.345
REMARK INTER:                  -5.246
REMARK INTRA:                  -0.099
REMARK UNBOUND:                -0.099
REMARK SMILES C=C(C)[C@H]1CC=C(C)[C@@H](O)C1
REMARK SMILES IDX 8 1 7 2 6 3 5 4 4 5 11 6 9 7 10 8 2 10 1 11 3 12
REMARK H PARENT 10 9
REMARK Flexibility Score: inf
ROOT
ATOM      1  C   UNL     1     120.288 131.609 125.115  1.00  0.00     0.042 C 
ATOM      2  C   UNL     1     119.664 130.289 125.494  1.00  0.00    -0.049 C 
ATOM      3  C   UNL     1     118.379 130.261 125.915  1.00  0.00    -0.025 C 
ATOM      4  C   UNL     1     117.669 128.992 126.316  1.00  0.00     0.035 C 
ATOM      5  C   UNL     1     118.295 127.750 125.662  1.00  0.00     0.021 C 
ATOM      6  C   UNL     1     119.817 127.773 125.861  1.00  0.00     0.044 C 
ATOM      7  C   UNL     1     120.426 129.007 125.176  1.00  0.00     0.140 C 
ENDROOT
BRANCH   7   8
ATOM      8  O   UNL     1     121.766 129.124 125.581  1.00  0.00    -0.389 OA
ATOM      9  H   UNL     1     122.169 128.218 125.529  1.00  0.00     0.211 HD
ENDBRANCH   7   8
BRANCH   5  10
ATOM     10  C   UNL     1     117.679 126.467 126.205  1.00  0.00    -0.077 C 
ATOM     11  C   UNL     1     116.856 126.511 127.264  1.00  0.00     0.008 C 
ATOM     12  C   UNL     1     117.979 125.126 125.582  1.00  0.00     0.039 C 
ENDBRANCH   5  10
TORSDOF 2
ENDMDL
MODEL 2
REMARK VINA RESULT:    -4.620     12.490     13.463
REMARK INTER + INTRA:          -5.124
REMARK INTER:                  -5.026
REMARK INTRA:                  -0.098
REMARK UNBOUND:                -0.099
REMARK SMILES C=C(C)[C@H]1CC=C(C)[C@@H](O)C1
REMARK SMILES IDX 8 1 7 2 6 3 5 4 4 5 11 6 9 7 10 8 2 10 1 11 3 12
REMARK H PARENT 10 9
REMARK Flexibility Score: inf
ROOT
ATOM      1  C   UNL     1     111.990 117.173 122.550  1.00  0.00     0.042 C 
ATOM      2  C   UNL     1     112.031 117.154 124.057  1.00  0.00    -0.049 C 
ATOM      3  C   UNL     1     112.355 116.007 124.696  1.00  0.00    -0.025 C 
ATOM      4  C   UNL     1     112.422 115.890 126.199  1.00  0.00     0.035 C 
ATOM      5  C   UNL     1     112.676 117.247 126.872  1.00  0.00     0.021 C 
ATOM      6  C   UNL     1     111.703 118.293 126.312  1.00  0.00     0.044 C 
ATOM      7  C   UNL     1     111.931 118.480 124.804  1.00  0.00     0.140 C 
ENDROOT
BRANCH   7   8
ATOM      8  O   UNL     1     110.875 119.251 124.287  1.00  0.00    -0.389 OA
ATOM      9  H   UNL     1     110.414 118.696 123.605  1.00  0.00     0.211 HD
ENDBRANCH   7   8
BRANCH   5  10
ATOM     10  C   UNL     1     112.575 117.142 128.389  1.00  0.00    -0.077 C 
ATOM     11  C   UNL     1     111.626 116.375 128.948  1.00  0.00     0.008 C 
ATOM     12  C   UNL     1     113.518 117.895 129.294  1.00  0.00     0.039 C 
ENDBRANCH   5  10
TORSDOF 2
ENDMDL
MODEL 3
REMARK VINA RESULT:    -4.610     15.199     16.027
REMARK INTER + INTRA:          -5.114
REMARK INTER:                  -5.021
REMARK INTRA:                  -0.092
REMARK UNBOUND:                -0.099
REMARK SMILES C=C(C)[C@H]1CC=C(C)[C@@H](O)C1
REMARK SMILES IDX 8 1 7 2 6 3 5 4 4 5 11 6 9 7 10 8 2 10 1 11 3 12
REMARK H PARENT 10 9
REMARK Flexibility Score: inf
ROOT
ATOM      1  C   UNL     1     121.099 116.082 116.065  1.00  0.00     0.042 C 
ATOM      2  C   UNL     1     122.394 116.843 115.917  1.00  0.00    -0.049 C 
ATOM      3  C   UNL     1     122.442 117.912 115.091  1.00  0.00    -0.025 C 
ATOM      4  C   UNL     1     123.689 118.734 114.877  1.00  0.00     0.035 C 
ATOM      5  C   UNL     1     124.658 118.631 116.064  1.00  0.00     0.021 C 
ATOM      6  C   UNL     1     124.868 117.156 116.435  1.00  0.00     0.044 C 
ATOM      7  C   UNL     1     123.539 116.522 116.873  1.00  0.00     0.140 C 
ENDROOT
BRANCH   7   8
ATOM      8  O   UNL     1     123.719 115.131 116.967  1.00  0.00    -0.389 OA
ATOM      9  H   UNL     1     124.296 114.858 116.207  1.00  0.00     0.211 HD
ENDBRANCH   7   8
BRANCH   5  10
ATOM     10  C   UNL     1     125.980 119.327 115.765  1.00  0.00    -0.077 C 
ATOM     11  C   UNL     1     125.988 120.589 115.310  1.00  0.00     0.008 C 
ATOM     12  C   UNL     1     127.301 118.622 115.956  1.00  0.00     0.039 C 
ENDBRANCH   5  10
TORSDOF 2
ENDMDL
MODEL 4
REMARK VINA RESULT:    -4.574     11.866     13.406
REMARK INTER + INTRA:          -5.074
REMARK INTER:                  -4.977
REMARK INTRA:                  -0.097
REMARK UNBOUND:                -0.099
REMARK SMILES C=C(C)[C@H]1CC=C(C)[C@@H](O)C1
REMARK SMILES IDX 8 1 7 2 6 3 5 4 4 5 11 6 9 7 10 8 2 10 1 11 3 12
REMARK H PARENT 10 9
REMARK Flexibility Score: inf
ROOT
ATOM      1  C   UNL     1     112.016 116.410 129.243  1.00  0.00     0.042 C 
ATOM      2  C   UNL     1     112.102 116.884 127.814  1.00  0.00    -0.049 C 
ATOM      3  C   UNL     1     112.401 115.996 126.839  1.00  0.00    -0.025 C 
ATOM      4  C   UNL     1     112.510 116.374 125.382  1.00  0.00     0.035 C 
ATOM      5  C   UNL     1     111.702 117.638 125.053  1.00  0.00     0.021 C 
ATOM      6  C   UNL     1     112.028 118.740 126.071  1.00  0.00     0.044 C 
ATOM      7  C   UNL     1     111.627 118.296 127.486  1.00  0.00     0.140 C 
ENDROOT
BRANCH   7   8
ATOM      8  O   UNL     1     112.157 119.214 128.408  1.00  0.00    -0.389 OA
ATOM      9  H   UNL     1     113.055 119.479 128.076  1.00  0.00     0.211 HD
ENDBRANCH   7   8
BRANCH   5  10
ATOM     10  C   UNL     1     111.955 118.103 123.625  1.00  0.00    -0.077 C 
ATOM     11  C   UNL     1     112.139 119.406 123.363  1.00  0.00     0.008 C 
ATOM     12  C   UNL     1     111.994 117.126 122.475  1.00  0.00     0.039 C 
ENDBRANCH   5  10
TORSDOF 2
ENDMDL
MODEL 5
REMARK VINA RESULT:    -4.556      1.455      2.097
REMARK INTER + INTRA:          -5.054
REMARK INTER:                  -4.960
REMARK INTRA:                  -0.094
REMARK UNBOUND:                -0.099
REMARK SMILES C=C(C)[C@H]1CC=C(C)[C@@H](O)C1
REMARK SMILES IDX 8 1 7 2 6 3 5 4 4 5 11 6 9 7 10 8 2 10 1 11 3 12
REMARK H PARENT 10 9
REMARK Flexibility Score: inf
ROOT
ATOM      1  C   UNL     1     120.593 131.553 125.290  1.00  0.00     0.042 C 
ATOM      2  C   UNL     1     119.812 130.280 125.503  1.00  0.00    -0.049 C 
ATOM      3  C   UNL     1     120.460 129.093 125.467  1.00  0.00    -0.025 C 
ATOM      4  C   UNL     1     119.766 127.768 125.668  1.00  0.00     0.035 C 
ATOM      5  C   UNL     1     118.465 127.914 126.471  1.00  0.00     0.021 C 
ATOM      6  C   UNL     1     117.615 129.047 125.878  1.00  0.00     0.044 C 
ATOM      7  C   UNL     1     118.366 130.384 125.975  1.00  0.00     0.140 C 
ENDROOT
BRANCH   7   8
ATOM      8  O   UNL     1     117.673 131.340 125.213  1.00  0.00    -0.389 OA
ATOM      9  H   UNL     1     118.081 131.345 124.307  1.00  0.00     0.211 HD
ENDBRANCH   7   8
BRANCH   5  10
ATOM     10  C   UNL     1     117.693 126.602 126.521  1.00  0.00    -0.077 C 
ATOM     11  C   UNL     1     116.676 126.452 127.384  1.00  0.00     0.008 C 
ATOM     12  C   UNL     1     118.050 125.444 125.622  1.00  0.00     0.039 C 
ENDBRANCH   5  10
TORSDOF 2
ENDMDL
MODEL 6
REMARK VINA RESULT:    -4.534     11.768     13.235
REMARK INTER + INTRA:          -5.031
REMARK INTER:                  -4.935
REMARK INTRA:                  -0.096
REMARK UNBOUND:                -0.099
REMARK SMILES C=C(C)[C@H]1CC=C(C)[C@@H](O)C1
REMARK SMILES IDX 8 1 7 2 6 3 5 4 4 5 11 6 9 7 10 8 2 10 1 11 3 12
REMARK H PARENT 10 9
REMARK Flexibility Score: inf
ROOT
ATOM      1  C   UNL     1     111.998 118.161 124.616  1.00  0.00     0.042 C 
ATOM      2  C   UNL     1     112.164 117.801 126.071  1.00  0.00    -0.049 C 
ATOM      3  C   UNL     1     112.114 116.500 126.440  1.00  0.00    -0.025 C 
ATOM      4  C   UNL     1     112.268 116.041 127.869  1.00  0.00     0.035 C 
ATOM      5  C   UNL     1     113.046 117.057 128.720  1.00  0.00     0.021 C 
ATOM      6  C   UNL     1     112.461 118.461 128.513  1.00  0.00     0.044 C 
ATOM      7  C   UNL     1     112.606 118.888 127.044  1.00  0.00     0.140 C 
ENDROOT
BRANCH   7   8
ATOM      8  O   UNL     1     111.851 120.056 126.844  1.00  0.00    -0.389 OA
ATOM      9  H   UNL     1     112.141 120.448 125.979  1.00  0.00     0.211 HD
ENDBRANCH   7   8
BRANCH   5  10
ATOM     10  C   UNL     1     113.048 116.662 130.191  1.00  0.00    -0.077 C 
ATOM     11  C   UNL     1     112.236 117.288 131.057  1.00  0.00     0.008 C 
ATOM     12  C   UNL     1     113.958 115.578 130.714  1.00  0.00     0.039 C 
ENDBRANCH   5  10
TORSDOF 2
ENDMDL
MODEL 7
REMARK VINA RESULT:    -4.525      2.198      3.702
REMARK INTER + INTRA:          -5.020
REMARK INTER:                  -4.925
REMARK INTRA:                  -0.096
REMARK UNBOUND:                -0.099
REMARK SMILES C=C(C)[C@H]1CC=C(C)[C@@H](O)C1
REMARK SMILES IDX 8 1 7 2 6 3 5 4 4 5 11 6 9 7 10 8 2 10 1 11 3 12
REMARK H PARENT 10 9
REMARK Flexibility Score: inf
ROOT
ATOM      1  C   UNL     1     121.617 129.479 125.425  1.00  0.00     0.042 C 
ATOM      2  C   UNL     1     120.175 129.910 125.524  1.00  0.00    -0.049 C 
ATOM      3  C   UNL     1     119.887 131.213 125.742  1.00  0.00    -0.025 C 
ATOM      4  C   UNL     1     118.478 131.739 125.856  1.00  0.00     0.035 C 
ATOM      5  C   UNL     1     117.464 130.834 125.140  1.00  0.00     0.021 C 
ATOM      6  C   UNL     1     117.685 129.375 125.563  1.00  0.00     0.044 C 
ATOM      7  C   UNL     1     119.089 128.906 125.151  1.00  0.00     0.140 C 
ENDROOT
BRANCH   7   8
ATOM      8  O   UNL     1     119.341 127.666 125.762  1.00  0.00    -0.389 OA
ATOM      9  H   UNL     1     120.300 127.658 126.023  1.00  0.00     0.211 HD
ENDBRANCH   7   8
BRANCH   5  10
ATOM     10  C   UNL     1     116.033 131.284 125.405  1.00  0.00    -0.077 C 
ATOM     11  C   UNL     1     115.545 131.272 126.655  1.00  0.00     0.008 C 
ATOM     12  C   UNL     1     115.132 131.740 124.285  1.00  0.00     0.039 C 
ENDBRANCH   5  10
TORSDOF 2
ENDMDL
MODEL 8
REMARK VINA RESULT:    -4.519     12.075     13.454
REMARK INTER + INTRA:          -5.014
REMARK INTER:                  -4.915
REMARK INTRA:                  -0.099
REMARK UNBOUND:                -0.099
REMARK SMILES C=C(C)[C@H]1CC=C(C)[C@@H](O)C1
REMARK SMILES IDX 8 1 7 2 6 3 5 4 4 5 11 6 9 7 10 8 2 10 1 11 3 12
REMARK H PARENT 10 9
REMARK Flexibility Score: inf
ROOT
ATOM      1  C   UNL     1     112.411 117.076 130.834  1.00  0.00     0.042 C 
ATOM      2  C   UNL     1     112.429 117.096 129.326  1.00  0.00    -0.049 C 
ATOM      3  C   UNL     1     111.994 116.012 128.645  1.00  0.00    -0.025 C 
ATOM      4  C   UNL     1     111.974 115.937 127.138  1.00  0.00     0.035 C 
ATOM      5  C   UNL     1     111.915 117.329 126.492  1.00  0.00     0.021 C 
ATOM      6  C   UNL     1     112.986 118.234 127.117  1.00  0.00     0.044 C 
ATOM      7  C   UNL     1     112.722 118.415 128.619  1.00  0.00     0.140 C 
ENDROOT
BRANCH   7   8
ATOM      8  O   UNL     1     113.841 119.038 129.197  1.00  0.00    -0.389 OA
ATOM      9  H   UNL     1     113.511 119.595 129.950  1.00  0.00     0.211 HD
ENDBRANCH   7   8
BRANCH   5  10
ATOM     10  C   UNL     1     112.065 117.246 124.979  1.00  0.00    -0.077 C 
ATOM     11  C   UNL     1     112.355 116.073 124.395  1.00  0.00     0.008 C 
ATOM     12  C   UNL     1     111.906 118.465 124.104  1.00  0.00     0.039 C 
ENDBRANCH   5  10
TORSDOF 2
ENDMDL
MODEL 9
REMARK VINA RESULT:    -4.435     12.440     13.629
REMARK INTER + INTRA:          -4.922
REMARK INTER:                  -4.829
REMARK INTRA:                  -0.093
REMARK UNBOUND:                -0.099
REMARK SMILES C=C(C)[C@H]1CC=C(C)[C@@H](O)C1
REMARK SMILES IDX 8 1 7 2 6 3 5 4 4 5 11 6 9 7 10 8 2 10 1 11 3 12
REMARK H PARENT 10 9
REMARK Flexibility Score: inf
ROOT
ATOM      1  C   UNL     1     111.844 116.929 122.487  1.00  0.00     0.042 C 
ATOM      2  C   UNL     1     112.098 117.024 123.971  1.00  0.00    -0.049 C 
ATOM      3  C   UNL     1     111.861 118.193 124.609  1.00  0.00    -0.025 C 
ATOM      4  C   UNL     1     112.084 118.385 126.089  1.00  0.00     0.035 C 
ATOM      5  C   UNL     1     112.020 117.057 126.859  1.00  0.00     0.021 C 
ATOM      6  C   UNL     1     112.906 116.013 126.165  1.00  0.00     0.044 C 
ATOM      7  C   UNL     1     112.395 115.742 124.742  1.00  0.00     0.140 C 
ENDROOT
BRANCH   7   8
ATOM      8  O   UNL     1     113.358 114.977 124.061  1.00  0.00    -0.389 OA
ATOM      9  H   UNL     1     113.168 114.023 124.259  1.00  0.00     0.211 HD
ENDBRANCH   7   8
BRANCH   5  10
ATOM     10  C   UNL     1     112.412 117.243 128.319  1.00  0.00    -0.077 C 
ATOM     11  C   UNL     1     112.008 116.357 129.242  1.00  0.00     0.008 C 
ATOM     12  C   UNL     1     113.246 118.418 128.766  1.00  0.00     0.039 C 
ENDBRANCH   5  10
TORSDOF 2
ENDMDL
