MODEL 1
REMARK VINA RESULT:    -4.116      0.000      0.000
REMARK INTER + INTRA:          -9.429
REMARK INTER:                  -7.966
REMARK INTRA:                  -1.464
REMARK UNBOUND:                -1.464
REMARK SMILES CCCCCCCCCCCCCCCCCC(=O)[O-]
REMARK SMILES IDX 10 1 11 2 12 3 13 4 14 5 15 6 16 7 17 8 18 9 19 10 20 11
REMARK SMILES IDX 9 12 8 13 7 14 6 15 5 16 4 17 3 18 2 19 1 20
REMARK H PARENT
REMARK Flexibility Score: inf
ROOT
ATOM      1  C   UNL     1     158.310 158.457 151.043  1.00  0.00     0.000 C 
ENDROOT
BRANCH   1   2
ATOM      2  C   UNL     1     156.814 158.172 150.820  1.00  0.00     0.000 C 
BRANCH   2   3
ATOM      3  C   UNL     1     156.493 156.763 150.286  1.00  0.00     0.000 C 
BRANCH   3   4
ATOM      4  C   UNL     1     156.479 155.694 151.392  1.00  0.00     0.000 C 
BRANCH   4   5
ATOM      5  C   UNL     1     157.008 154.334 150.910  1.00  0.00     0.000 C 
BRANCH   5   6
ATOM      6  C   UNL     1     158.035 153.722 151.879  1.00  0.00     0.000 C 
BRANCH   6   7
ATOM      7  C   UNL     1     159.405 154.427 151.810  1.00  0.00     0.006 C 
BRANCH   7   8
ATOM      8  C   UNL     1     159.719 155.287 153.045  1.00  0.00     0.053 C 
BRANCH   8   9
ATOM      9  C   UNL     1     160.272 154.482 154.178  1.00  0.00     0.041 C 
ATOM     10  O   UNL     1     161.401 153.934 154.073  1.00  0.00    -0.550 OA
ATOM     11  O   UNL     1     159.537 154.324 155.345  1.00  0.00    -0.550 OA
ENDBRANCH   8   9
ENDBRANCH   7   8
ENDBRANCH   6   7
ENDBRANCH   5   6
ENDBRANCH   4   5
ENDBRANCH   3   4
ENDBRANCH   2   3
ENDBRANCH   1   2
BRANCH   1  12
ATOM     12  C   UNL     1     159.214 157.742 150.023  1.00  0.00     0.000 C 
BRANCH  12  13
ATOM     13  C   UNL     1     160.679 157.667 150.484  1.00  0.00    -0.000 C 
BRANCH  13  14
ATOM     14  C   UNL     1     161.541 158.803 149.901  1.00  0.00    -0.000 C 
BRANCH  14  15
ATOM     15  C   UNL     1     163.039 158.624 150.208  1.00  0.00    -0.000 C 
BRANCH  15  16
ATOM     16  C   UNL     1     163.435 159.016 151.647  1.00  0.00    -0.000 C 
BRANCH  16  17
ATOM     17  C   UNL     1     164.925 158.766 151.960  1.00  0.00    -0.000 C 
BRANCH  17  18
ATOM     18  C   UNL     1     165.694 160.055 152.328  1.00  0.00    -0.000 C 
BRANCH  18  19
ATOM     19  C   UNL     1     166.599 159.899 153.560  1.00  0.00    -0.003 C 
ATOM     20  C   UNL     1     166.217 158.704 154.432  1.00  0.00     0.004 C 
ENDBRANCH  18  19
ENDBRANCH  17  18
ENDBRANCH  16  17
ENDBRANCH  15  16
ENDBRANCH  14  15
ENDBRANCH  13  14
ENDBRANCH  12  13
ENDBRANCH   1  12
TORSDOF 16
ENDMDL
MODEL 2
REMARK VINA RESULT:    -3.923     10.876     13.384
REMARK INTER + INTRA:          -9.055
REMARK INTER:                  -6.082
REMARK INTRA:                  -2.973
REMARK UNBOUND:                -1.464
REMARK SMILES CCCCCCCCCCCCCCCCCC(=O)[O-]
REMARK SMILES IDX 10 1 11 2 12 3 13 4 14 5 15 6 16 7 17 8 18 9 19 10 20 11
REMARK SMILES IDX 9 12 8 13 7 14 6 15 5 16 4 17 3 18 2 19 1 20
REMARK H PARENT
REMARK Flexibility Score: inf
ROOT
ATOM      1  C   UNL     1     166.823 153.784 161.157  1.00  0.00     0.000 C 
ENDROOT
BRANCH   1   2
ATOM      2  C   UNL     1     165.455 153.479 160.522  1.00  0.00     0.000 C 
BRANCH   2   3
ATOM      3  C   UNL     1     164.393 154.581 160.704  1.00  0.00     0.000 C 
BRANCH   3   4
ATOM      4  C   UNL     1     163.038 154.032 161.182  1.00  0.00     0.000 C 
BRANCH   4   5
ATOM      5  C   UNL     1     162.118 155.130 161.741  1.00  0.00     0.000 C 
BRANCH   5   6
ATOM      6  C   UNL     1     161.639 154.828 163.172  1.00  0.00     0.000 C 
BRANCH   6   7
ATOM      7  C   UNL     1     161.621 156.084 164.066  1.00  0.00     0.006 C 
BRANCH   7   8
ATOM      8  C   UNL     1     161.871 155.786 165.554  1.00  0.00     0.053 C 
BRANCH   8   9
ATOM      9  C   UNL     1     162.545 156.920 166.259  1.00  0.00     0.041 C 
ATOM     10  O   UNL     1     162.920 157.935 165.614  1.00  0.00    -0.550 OA
ATOM     11  O   UNL     1     162.774 156.851 167.627  1.00  0.00    -0.550 OA
ENDBRANCH   8   9
ENDBRANCH   7   8
ENDBRANCH   6   7
ENDBRANCH   5   6
ENDBRANCH   4   5
ENDBRANCH   3   4
ENDBRANCH   2   3
ENDBRANCH   1   2
BRANCH   1  12
ATOM     12  C   UNL     1     166.978 155.260 161.562  1.00  0.00     0.000 C 
BRANCH  12  13
ATOM     13  C   UNL     1     167.593 155.426 162.962  1.00  0.00    -0.000 C 
BRANCH  13  14
ATOM     14  C   UNL     1     166.779 156.380 163.856  1.00  0.00    -0.000 C 
BRANCH  14  15
ATOM     15  C   UNL     1     165.423 155.783 164.277  1.00  0.00    -0.000 C 
BRANCH  15  16
ATOM     16  C   UNL     1     165.530 154.399 164.951  1.00  0.00    -0.000 C 
BRANCH  16  17
ATOM     17  C   UNL     1     164.642 153.326 164.286  1.00  0.00    -0.000 C 
BRANCH  17  18
ATOM     18  C   UNL     1     165.338 151.952 164.164  1.00  0.00    -0.000 C 
BRANCH  18  19
ATOM     19  C   UNL     1     166.865 152.021 164.326  1.00  0.00    -0.003 C 
ATOM     20  C   UNL     1     167.382 151.154 165.474  1.00  0.00     0.004 C 
ENDBRANCH  18  19
ENDBRANCH  17  18
ENDBRANCH  16  17
ENDBRANCH  15  16
ENDBRANCH  14  15
ENDBRANCH  13  14
ENDBRANCH  12  13
ENDBRANCH   1  12
TORSDOF 16
ENDMDL
MODEL 3
REMARK VINA RESULT:    -3.813     12.051     14.536
REMARK INTER + INTRA:          -8.844
REMARK INTER:                  -6.501
REMARK INTRA:                  -2.343
REMARK UNBOUND:                -1.464
REMARK SMILES CCCCCCCCCCCCCCCCCC(=O)[O-]
REMARK SMILES IDX 10 1 11 2 12 3 13 4 14 5 15 6 16 7 17 8 18 9 19 10 20 11
REMARK SMILES IDX 9 12 8 13 7 14 6 15 5 16 4 17 3 18 2 19 1 20
REMARK H PARENT
REMARK Flexibility Score: inf
ROOT
ATOM      1  C   UNL     1     165.647 152.861 162.849  1.00  0.00     0.000 C 
ENDROOT
BRANCH   1   2
ATOM      2  C   UNL     1     165.949 153.571 164.180  1.00  0.00     0.000 C 
BRANCH   2   3
ATOM      3  C   UNL     1     166.505 155.001 164.043  1.00  0.00     0.000 C 
BRANCH   3   4
ATOM      4  C   UNL     1     165.655 156.046 164.787  1.00  0.00     0.000 C 
BRANCH   4   5
ATOM      5  C   UNL     1     164.497 155.416 165.576  1.00  0.00     0.000 C 
BRANCH   5   6
ATOM      6  C   UNL     1     163.414 156.441 165.957  1.00  0.00     0.000 C 
BRANCH   6   7
ATOM      7  C   UNL     1     163.221 157.526 164.877  1.00  0.00     0.006 C 
BRANCH   7   8
ATOM      8  C   UNL     1     161.801 158.114 164.841  1.00  0.00     0.053 C 
BRANCH   8   9
ATOM      9  C   UNL     1     161.727 159.470 165.468  1.00  0.00     0.041 C 
ATOM     10  O   UNL     1     160.629 160.084 165.522  1.00  0.00    -0.550 OA
ATOM     11  O   UNL     1     162.873 160.064 165.980  1.00  0.00    -0.550 OA
ENDBRANCH   8   9
ENDBRANCH   7   8
ENDBRANCH   6   7
ENDBRANCH   5   6
ENDBRANCH   4   5
ENDBRANCH   3   4
ENDBRANCH   2   3
ENDBRANCH   1   2
BRANCH   1  12
ATOM     12  C   UNL     1     164.212 152.312 162.776  1.00  0.00     0.000 C 
BRANCH  12  13
ATOM     13  C   UNL     1     163.685 151.855 164.146  1.00  0.00    -0.000 C 
BRANCH  13  14
ATOM     14  C   UNL     1     162.842 150.569 164.057  1.00  0.00    -0.000 C 
BRANCH  14  15
ATOM     15  C   UNL     1     161.681 150.693 163.052  1.00  0.00    -0.000 C 
BRANCH  15  16
ATOM     16  C   UNL     1     160.375 151.238 163.668  1.00  0.00    -0.000 C 
BRANCH  16  17
ATOM     17  C   UNL     1     159.881 152.538 163.002  1.00  0.00    -0.000 C 
BRANCH  17  18
ATOM     18  C   UNL     1     159.831 153.738 163.974  1.00  0.00    -0.000 C 
BRANCH  18  19
ATOM     19  C   UNL     1     161.143 154.537 164.032  1.00  0.00    -0.003 C 
ATOM     20  C   UNL     1     161.709 154.854 162.649  1.00  0.00     0.004 C 
ENDBRANCH  18  19
ENDBRANCH  17  18
ENDBRANCH  16  17
ENDBRANCH  15  16
ENDBRANCH  14  15
ENDBRANCH  13  14
ENDBRANCH  12  13
ENDBRANCH   1  12
TORSDOF 16
ENDMDL
MODEL 4
REMARK VINA RESULT:    -3.808     10.449     13.720
REMARK INTER + INTRA:          -8.833
REMARK INTER:                  -6.724
REMARK INTRA:                  -2.109
REMARK UNBOUND:                -1.464
REMARK SMILES CCCCCCCCCCCCCCCCCC(=O)[O-]
REMARK SMILES IDX 10 1 11 2 12 3 13 4 14 5 15 6 16 7 17 8 18 9 19 10 20 11
REMARK SMILES IDX 9 12 8 13 7 14 6 15 5 16 4 17 3 18 2 19 1 20
REMARK H PARENT
REMARK Flexibility Score: inf
ROOT
ATOM      1  C   UNL     1     167.595 155.474 163.217  1.00  0.00     0.000 C 
ENDROOT
BRANCH   1   2
ATOM      2  C   UNL     1     166.942 155.962 164.522  1.00  0.00     0.000 C 
BRANCH   2   3
ATOM      3  C   UNL     1     165.423 156.208 164.437  1.00  0.00     0.000 C 
BRANCH   3   4
ATOM      4  C   UNL     1     164.637 155.480 165.541  1.00  0.00     0.000 C 
BRANCH   4   5
ATOM      5  C   UNL     1     163.123 155.728 165.451  1.00  0.00     0.000 C 
BRANCH   5   6
ATOM      6  C   UNL     1     162.568 156.452 166.691  1.00  0.00     0.000 C 
BRANCH   6   7
ATOM      7  C   UNL     1     162.792 157.977 166.633  1.00  0.00     0.006 C 
BRANCH   7   8
ATOM      8  C   UNL     1     162.551 158.584 165.241  1.00  0.00     0.053 C 
BRANCH   8   9
ATOM      9  C   UNL     1     161.104 158.851 164.976  1.00  0.00     0.041 C 
ATOM     10  O   UNL     1     160.574 159.922 165.373  1.00  0.00    -0.550 OA
ATOM     11  O   UNL     1     160.333 157.911 164.303  1.00  0.00    -0.550 OA
ENDBRANCH   8   9
ENDBRANCH   7   8
ENDBRANCH   6   7
ENDBRANCH   5   6
ENDBRANCH   4   5
ENDBRANCH   3   4
ENDBRANCH   2   3
ENDBRANCH   1   2
BRANCH   1  12
ATOM     12  C   UNL     1     167.413 153.964 162.986  1.00  0.00     0.000 C 
BRANCH  12  13
ATOM     13  C   UNL     1     166.592 153.656 161.723  1.00  0.00    -0.000 C 
BRANCH  13  14
ATOM     14  C   UNL     1     166.205 154.927 160.944  1.00  0.00    -0.000 C 
BRANCH  14  15
ATOM     15  C   UNL     1     165.052 154.684 159.952  1.00  0.00    -0.000 C 
BRANCH  15  16
ATOM     16  C   UNL     1     163.878 153.874 160.542  1.00  0.00    -0.000 C 
BRANCH  16  17
ATOM     17  C   UNL     1     163.310 154.481 161.841  1.00  0.00    -0.000 C 
BRANCH  17  18
ATOM     18  C   UNL     1     161.940 153.888 162.241  1.00  0.00    -0.000 C 
BRANCH  18  19
ATOM     19  C   UNL     1     162.019 152.906 163.421  1.00  0.00    -0.003 C 
ATOM     20  C   UNL     1     163.447 152.455 163.727  1.00  0.00     0.004 C 
ENDBRANCH  18  19
ENDBRANCH  17  18
ENDBRANCH  16  17
ENDBRANCH  15  16
ENDBRANCH  14  15
ENDBRANCH  13  14
ENDBRANCH  12  13
ENDBRANCH   1  12
TORSDOF 16
ENDMDL
MODEL 5
REMARK VINA RESULT:    -3.789      9.712     12.947
REMARK INTER + INTRA:          -8.796
REMARK INTER:                  -6.492
REMARK INTRA:                  -2.304
REMARK UNBOUND:                -1.464
REMARK SMILES CCCCCCCCCCCCCCCCCC(=O)[O-]
REMARK SMILES IDX 10 1 11 2 12 3 13 4 14 5 15 6 16 7 17 8 18 9 19 10 20 11
REMARK SMILES IDX 9 12 8 13 7 14 6 15 5 16 4 17 3 18 2 19 1 20
REMARK H PARENT
REMARK Flexibility Score: inf
ROOT
ATOM      1  C   UNL     1     163.421 152.435 163.275  1.00  0.00     0.000 C 
ENDROOT
BRANCH   1   2
ATOM      2  C   UNL     1     164.356 152.039 164.431  1.00  0.00     0.000 C 
BRANCH   2   3
ATOM      3  C   UNL     1     165.350 153.132 164.868  1.00  0.00     0.000 C 
BRANCH   3   4
ATOM      4  C   UNL     1     165.293 154.383 163.974  1.00  0.00     0.000 C 
BRANCH   4   5
ATOM      5  C   UNL     1     164.844 155.638 164.739  1.00  0.00     0.000 C 
BRANCH   5   6
ATOM      6  C   UNL     1     164.529 155.348 166.217  1.00  0.00     0.000 C 
BRANCH   6   7
ATOM      7  C   UNL     1     163.276 156.100 166.713  1.00  0.00     0.006 C 
BRANCH   7   8
ATOM      8  C   UNL     1     162.083 156.013 165.747  1.00  0.00     0.053 C 
BRANCH   8   9
ATOM      9  C   UNL     1     161.647 157.355 165.252  1.00  0.00     0.041 C 
ATOM     10  O   UNL     1     160.614 157.464 164.540  1.00  0.00    -0.550 OA
ATOM     11  O   UNL     1     162.389 158.487 165.563  1.00  0.00    -0.550 OA
ENDBRANCH   8   9
ENDBRANCH   7   8
ENDBRANCH   6   7
ENDBRANCH   5   6
ENDBRANCH   4   5
ENDBRANCH   3   4
ENDBRANCH   2   3
ENDBRANCH   1   2
BRANCH   1  12
ATOM     12  C   UNL     1     161.981 152.714 163.740  1.00  0.00     0.000 C 
BRANCH  12  13
ATOM     13  C   UNL     1     161.225 153.653 162.785  1.00  0.00    -0.000 C 
BRANCH  13  14
ATOM     14  C   UNL     1     162.098 154.821 162.289  1.00  0.00    -0.000 C 
BRANCH  14  15
ATOM     15  C   UNL     1     162.228 154.852 160.754  1.00  0.00    -0.000 C 
BRANCH  15  16
ATOM     16  C   UNL     1     163.237 153.829 160.191  1.00  0.00    -0.000 C 
BRANCH  16  17
ATOM     17  C   UNL     1     164.697 154.326 160.232  1.00  0.00    -0.000 C 
BRANCH  17  18
ATOM     18  C   UNL     1     165.236 154.744 158.846  1.00  0.00    -0.000 C 
BRANCH  18  19
ATOM     19  C   UNL     1     164.459 154.126 157.673  1.00  0.00    -0.003 C 
ATOM     20  C   UNL     1     163.892 155.174 156.716  1.00  0.00     0.004 C 
ENDBRANCH  18  19
ENDBRANCH  17  18
ENDBRANCH  16  17
ENDBRANCH  15  16
ENDBRANCH  14  15
ENDBRANCH  13  14
ENDBRANCH  12  13
ENDBRANCH   1  12
TORSDOF 16
ENDMDL
MODEL 6
REMARK VINA RESULT:    -3.776     12.430     14.533
REMARK INTER + INTRA:          -8.771
REMARK INTER:                  -6.288
REMARK INTRA:                  -2.483
REMARK UNBOUND:                -1.464
REMARK SMILES CCCCCCCCCCCCCCCCCC(=O)[O-]
REMARK SMILES IDX 10 1 11 2 12 3 13 4 14 5 15 6 16 7 17 8 18 9 19 10 20 11
REMARK SMILES IDX 9 12 8 13 7 14 6 15 5 16 4 17 3 18 2 19 1 20
REMARK H PARENT
REMARK Flexibility Score: inf
ROOT
ATOM      1  C   UNL     1     154.165 159.747 163.736  1.00  0.00     0.000 C 
ENDROOT
BRANCH   1   2
ATOM      2  C   UNL     1     152.690 159.924 164.136  1.00  0.00     0.000 C 
BRANCH   2   3
ATOM      3  C   UNL     1     151.885 158.616 164.247  1.00  0.00     0.000 C 
BRANCH   3   4
ATOM      4  C   UNL     1     152.777 157.382 164.464  1.00  0.00     0.000 C 
BRANCH   4   5
ATOM      5  C   UNL     1     152.336 156.176 163.618  1.00  0.00     0.000 C 
BRANCH   5   6
ATOM      6  C   UNL     1     153.427 155.713 162.636  1.00  0.00     0.000 C 
BRANCH   6   7
ATOM      7  C   UNL     1     154.187 154.470 163.142  1.00  0.00     0.006 C 
BRANCH   7   8
ATOM      8  C   UNL     1     155.601 154.780 163.660  1.00  0.00     0.053 C 
BRANCH   8   9
ATOM      9  C   UNL     1     156.338 153.550 164.086  1.00  0.00     0.041 C 
ATOM     10  O   UNL     1     157.598 153.536 164.092  1.00  0.00    -0.550 OA
ATOM     11  O   UNL     1     155.636 152.412 164.460  1.00  0.00    -0.550 OA
ENDBRANCH   8   9
ENDBRANCH   7   8
ENDBRANCH   6   7
ENDBRANCH   5   6
ENDBRANCH   4   5
ENDBRANCH   3   4
ENDBRANCH   2   3
ENDBRANCH   1   2
BRANCH   1  12
ATOM     12  C   UNL     1     154.436 160.125 162.269  1.00  0.00     0.000 C 
BRANCH  12  13
ATOM     13  C   UNL     1     153.735 159.181 161.278  1.00  0.00    -0.000 C 
BRANCH  13  14
ATOM     14  C   UNL     1     152.696 159.909 160.404  1.00  0.00    -0.000 C 
BRANCH  14  15
ATOM     15  C   UNL     1     151.261 159.405 160.649  1.00  0.00    -0.000 C 
BRANCH  15  16
ATOM     16  C   UNL     1     151.101 157.876 160.504  1.00  0.00    -0.000 C 
BRANCH  16  17
ATOM     17  C   UNL     1     149.637 157.403 160.607  1.00  0.00    -0.000 C 
BRANCH  17  18
ATOM     18  C   UNL     1     149.476 156.090 161.406  1.00  0.00    -0.000 C 
BRANCH  18  19
ATOM     19  C   UNL     1     148.773 156.278 162.760  1.00  0.00    -0.003 C 
ATOM     20  C   UNL     1     148.404 157.734 163.042  1.00  0.00     0.004 C 
ENDBRANCH  18  19
ENDBRANCH  17  18
ENDBRANCH  16  17
ENDBRANCH  15  16
ENDBRANCH  14  15
ENDBRANCH  13  14
ENDBRANCH  12  13
ENDBRANCH   1  12
TORSDOF 16
ENDMDL
MODEL 7
REMARK VINA RESULT:    -3.747      3.460      6.284
REMARK INTER + INTRA:          -8.715
REMARK INTER:                  -5.786
REMARK INTRA:                  -2.929
REMARK UNBOUND:                -1.464
REMARK SMILES CCCCCCCCCCCCCCCCCC(=O)[O-]
REMARK SMILES IDX 10 1 11 2 12 3 13 4 14 5 15 6 16 7 17 8 18 9 19 10 20 11
REMARK SMILES IDX 9 12 8 13 7 14 6 15 5 16 4 17 3 18 2 19 1 20
REMARK H PARENT
REMARK Flexibility Score: inf
ROOT
ATOM      1  C   UNL     1     159.791 154.910 151.241  1.00  0.00     0.000 C 
ENDROOT
BRANCH   1   2
ATOM      2  C   UNL     1     158.765 154.315 152.221  1.00  0.00     0.000 C 
BRANCH   2   3
ATOM      3  C   UNL     1     158.421 155.212 153.426  1.00  0.00     0.000 C 
BRANCH   3   4
ATOM      4  C   UNL     1     157.580 154.486 154.490  1.00  0.00     0.000 C 
BRANCH   4   5
ATOM      5  C   UNL     1     157.624 152.957 154.340  1.00  0.00     0.000 C 
BRANCH   5   6
ATOM      6  C   UNL     1     158.235 152.260 155.569  1.00  0.00     0.000 C 
BRANCH   6   7
ATOM      7  C   UNL     1     159.737 151.961 155.392  1.00  0.00     0.006 C 
BRANCH   7   8
ATOM      8  C   UNL     1     160.653 153.106 155.856  1.00  0.00     0.053 C 
BRANCH   8   9
ATOM      9  C   UNL     1     161.432 153.708 154.731  1.00  0.00     0.041 C 
ATOM     10  O   UNL     1     161.671 153.035 153.694  1.00  0.00    -0.550 OA
ATOM     11  O   UNL     1     161.910 155.009 154.832  1.00  0.00    -0.550 OA
ENDBRANCH   8   9
ENDBRANCH   7   8
ENDBRANCH   6   7
ENDBRANCH   5   6
ENDBRANCH   4   5
ENDBRANCH   3   4
ENDBRANCH   2   3
ENDBRANCH   1   2
BRANCH   1  12
ATOM     12  C   UNL     1     160.106 156.388 151.529  1.00  0.00     0.000 C 
BRANCH  12  13
ATOM     13  C   UNL     1     159.589 157.327 150.426  1.00  0.00    -0.000 C 
BRANCH  13  14
ATOM     14  C   UNL     1     158.671 158.435 150.976  1.00  0.00    -0.000 C 
BRANCH  14  15
ATOM     15  C   UNL     1     157.305 157.896 151.438  1.00  0.00    -0.000 C 
BRANCH  15  16
ATOM     16  C   UNL     1     156.410 157.388 150.288  1.00  0.00    -0.000 C 
BRANCH  16  17
ATOM     17  C   UNL     1     156.142 155.870 150.347  1.00  0.00    -0.000 C 
BRANCH  17  18
ATOM     18  C   UNL     1     155.200 155.464 151.502  1.00  0.00    -0.000 C 
BRANCH  18  19
ATOM     19  C   UNL     1     155.047 153.943 151.663  1.00  0.00    -0.003 C 
ATOM     20  C   UNL     1     155.690 153.156 150.522  1.00  0.00     0.004 C 
ENDBRANCH  18  19
ENDBRANCH  17  18
ENDBRANCH  16  17
ENDBRANCH  15  16
ENDBRANCH  14  15
ENDBRANCH  13  14
ENDBRANCH  12  13
ENDBRANCH   1  12
TORSDOF 16
ENDMDL
MODEL 8
REMARK VINA RESULT:    -2.941     12.069     13.700
REMARK INTER + INTRA:          -7.156
REMARK INTER:                  -4.636
REMARK INTRA:                  -2.520
REMARK UNBOUND:                -1.464
REMARK SMILES CCCCCCCCCCCCCCCCCC(=O)[O-]
REMARK SMILES IDX 10 1 11 2 12 3 13 4 14 5 15 6 16 7 17 8 18 9 19 10 20 11
REMARK SMILES IDX 9 12 8 13 7 14 6 15 5 16 4 17 3 18 2 19 1 20
REMARK H PARENT
REMARK Flexibility Score: inf
ROOT
ATOM      1  C   UNL     1     152.584 156.348 164.140  1.00  0.00     0.000 C 
ENDROOT
BRANCH   1   2
ATOM      2  C   UNL     1     151.303 156.520 163.305  1.00  0.00     0.000 C 
BRANCH   2   3
ATOM      3  C   UNL     1     151.259 155.696 162.004  1.00  0.00     0.000 C 
BRANCH   3   4
ATOM      4  C   UNL     1     152.239 154.511 162.014  1.00  0.00     0.000 C 
BRANCH   4   5
ATOM      5  C   UNL     1     153.226 154.547 160.836  1.00  0.00     0.000 C 
BRANCH   5   6
ATOM      6  C   UNL     1     154.682 154.750 161.291  1.00  0.00     0.000 C 
BRANCH   6   7
ATOM      7  C   UNL     1     155.141 153.678 162.301  1.00  0.00     0.006 C 
BRANCH   7   8
ATOM      8  C   UNL     1     155.756 154.263 163.583  1.00  0.00     0.053 C 
BRANCH   8   9
ATOM      9  C   UNL     1     156.569 153.259 164.337  1.00  0.00     0.041 C 
ATOM     10  O   UNL     1     156.001 152.386 165.045  1.00  0.00    -0.550 OA
ATOM     11  O   UNL     1     157.956 153.296 164.273  1.00  0.00    -0.550 OA
ENDBRANCH   8   9
ENDBRANCH   7   8
ENDBRANCH   6   7
ENDBRANCH   5   6
ENDBRANCH   4   5
ENDBRANCH   3   4
ENDBRANCH   2   3
ENDBRANCH   1   2
BRANCH   1  12
ATOM     12  C   UNL     1     153.361 157.663 164.322  1.00  0.00     0.000 C 
BRANCH  12  13
ATOM     13  C   UNL     1     154.665 157.695 163.507  1.00  0.00    -0.000 C 
BRANCH  13  14
ATOM     14  C   UNL     1     154.462 158.259 162.088  1.00  0.00    -0.000 C 
BRANCH  14  15
ATOM     15  C   UNL     1     154.043 159.741 162.096  1.00  0.00    -0.000 C 
BRANCH  15  16
ATOM     16  C   UNL     1     152.879 160.067 161.136  1.00  0.00    -0.000 C 
BRANCH  16  17
ATOM     17  C   UNL     1     152.376 158.841 160.347  1.00  0.00    -0.000 C 
BRANCH  17  18
ATOM     18  C   UNL     1     150.835 158.769 160.252  1.00  0.00    -0.000 C 
BRANCH  18  19
ATOM     19  C   UNL     1     150.175 160.125 159.953  1.00  0.00    -0.003 C 
ATOM     20  C   UNL     1     148.649 160.057 159.953  1.00  0.00     0.004 C 
ENDBRANCH  18  19
ENDBRANCH  17  18
ENDBRANCH  16  17
ENDBRANCH  15  16
ENDBRANCH  14  15
ENDBRANCH  13  14
ENDBRANCH  12  13
ENDBRANCH   1  12
TORSDOF 16
ENDMDL
