MODEL 1
REMARK VINA RESULT:    -7.496      0.000      0.000
REMARK INTER + INTRA:         -12.262
REMARK INTER:                 -10.345
REMARK INTRA:                  -1.917
REMARK UNBOUND:                -1.917
REMARK SMILES CC[C@@H](CC[C@@H](C)[C@@H]1CC[C@H]2[C@@H]3CC=C4C[C@@H](O)CC[C@]4(C)[C@@H]3CC[C@@]21C)C(C)C
REMARK SMILES IDX 5 1 4 2 3 3 2 4 1 5 28 6 29 7 30 8 6 9 7 10 8 11 9 12 26 13
REMARK SMILES IDX 10 14 11 15 25 16 27 17 12 18 24 19 23 20 13 21 21 22 14 23
REMARK SMILES IDX 15 24 20 25 22 26 16 27 19 28 17 29 18 30
REMARK H PARENT 18 31
REMARK Flexibility Score: inf
ROOT
ATOM      1  C   UNL     1       1.512  18.390  46.948  1.00  0.00     0.004 C 
ENDROOT
BRANCH   1   2
ATOM      2  C   UNL     1       0.997  17.199  47.786  1.00  0.00     0.004 C 
BRANCH   2   3
ATOM      3  C   UNL     1      -0.053  16.349  46.996  1.00  0.00    -0.009 C 
BRANCH   3   4
ATOM      4  C   UNL     1      -0.258  16.930  45.569  1.00  0.00     0.000 C 
ATOM      5  C   UNL     1      -0.067  15.875  44.471  1.00  0.00     0.004 C 
ENDBRANCH   3   4
BRANCH   3   6
ATOM      6  C   UNL     1      -1.388  16.223  47.807  1.00  0.00    -0.014 C 
ATOM      7  C   UNL     1      -1.237  16.630  49.286  1.00  0.00     0.007 C 
ATOM      8  C   UNL     1      -2.500  17.084  47.175  1.00  0.00     0.007 C 
ENDBRANCH   3   6
ENDBRANCH   2   3
ENDBRANCH   1   2
BRANCH   1   9
ATOM      9  C   UNL     1       1.099  19.800  47.472  1.00  0.00    -0.011 C 
ATOM     10  C   UNL     1       1.765  20.891  46.608  1.00  0.00     0.008 C 
BRANCH   9  11
ATOM     11  C   UNL     1      -0.471  19.929  47.623  1.00  0.00    -0.002 C 
ATOM     12  C   UNL     1      -1.202  20.545  46.388  1.00  0.00     0.005 C 
ATOM     13  C   UNL     1      -0.986  20.845  48.800  1.00  0.00    -0.026 C 
ATOM     14  C   UNL     1      -1.578  21.991  46.739  1.00  0.00     0.005 C 
ATOM     15  C   UNL     1      -0.992  22.221  48.124  1.00  0.00    -0.001 C 
ATOM     16  C   UNL     1      -0.105  20.983  50.088  1.00  0.00     0.007 C 
ATOM     17  C   UNL     1      -2.434  20.357  49.185  1.00  0.00     0.012 C 
ATOM     18  C   UNL     1      -1.605  23.393  48.962  1.00  0.00     0.000 C 
ATOM     19  C   UNL     1      -0.352  22.291  50.910  1.00  0.00     0.005 C 
ATOM     20  C   UNL     1      -1.626  23.080  50.494  1.00  0.00     0.003 C 
ATOM     21  C   UNL     1      -0.794  24.672  48.666  1.00  0.00     0.031 C 
ATOM     22  C   UNL     1      -2.032  24.341  51.376  1.00  0.00    -0.008 C 
ATOM     23  C   UNL     1      -1.084  25.817  49.577  1.00  0.00    -0.027 C 
ATOM     24  C   UNL     1      -1.452  25.659  50.859  1.00  0.00    -0.065 C 
ATOM     25  C   UNL     1      -1.603  24.157  52.867  1.00  0.00     0.014 C 
ATOM     26  C   UNL     1      -3.582  24.469  51.317  1.00  0.00     0.016 C 
ATOM     27  C   UNL     1      -1.567  26.898  51.733  1.00  0.00     0.063 C 
ATOM     28  C   UNL     1      -1.842  25.399  53.742  1.00  0.00     0.033 C 
ATOM     29  C   UNL     1      -1.102  26.615  53.164  1.00  0.00     0.118 C 
BRANCH  29  30
ATOM     30  O   UNL     1      -1.350  27.745  53.958  1.00  0.00    -0.393 OA
ATOM     31  H   UNL     1      -2.208  28.135  53.642  1.00  0.00     0.210 HD
ENDBRANCH  29  30
ENDBRANCH   9  11
ENDBRANCH   1   9
TORSDOF 7
ENDMDL
MODEL 2
REMARK VINA RESULT:    -6.730      1.620      2.474
REMARK INTER + INTRA:         -11.205
REMARK INTER:                  -9.837
REMARK INTRA:                  -1.368
REMARK UNBOUND:                -1.917
REMARK SMILES CC[C@@H](CC[C@@H](C)[C@@H]1CC[C@H]2[C@@H]3CC=C4C[C@@H](O)CC[C@]4(C)[C@@H]3CC[C@@]21C)C(C)C
REMARK SMILES IDX 5 1 4 2 3 3 2 4 1 5 28 6 29 7 30 8 6 9 7 10 8 11 9 12 26 13
REMARK SMILES IDX 10 14 11 15 25 16 27 17 12 18 24 19 23 20 13 21 21 22 14 23
REMARK SMILES IDX 15 24 20 25 22 26 16 27 19 28 17 29 18 30
REMARK H PARENT 18 31
REMARK Flexibility Score: inf
ROOT
ATOM      1  C   UNL     1       3.180  18.829  47.765  1.00  0.00     0.004 C 
ENDROOT
BRANCH   1   2
ATOM      2  C   UNL     1       2.526  17.431  47.698  1.00  0.00     0.004 C 
BRANCH   2   3
ATOM      3  C   UNL     1       2.528  16.863  46.239  1.00  0.00    -0.009 C 
BRANCH   3   4
ATOM      4  C   UNL     1       1.343  15.875  46.041  1.00  0.00     0.000 C 
ATOM      5  C   UNL     1       0.293  16.407  45.055  1.00  0.00     0.004 C 
ENDBRANCH   3   4
BRANCH   3   6
ATOM      6  C   UNL     1       3.920  16.234  45.891  1.00  0.00    -0.014 C 
ATOM      7  C   UNL     1       4.794  17.150  45.012  1.00  0.00     0.007 C 
ATOM      8  C   UNL     1       4.706  15.891  47.172  1.00  0.00     0.007 C 
ENDBRANCH   3   6
ENDBRANCH   2   3
ENDBRANCH   1   2
BRANCH   1   9
ATOM      9  C   UNL     1       2.201  20.030  47.578  1.00  0.00    -0.011 C 
ATOM     10  C   UNL     1       2.440  20.686  46.202  1.00  0.00     0.008 C 
BRANCH   9  11
ATOM     11  C   UNL     1       0.703  19.613  47.871  1.00  0.00    -0.002 C 
ATOM     12  C   UNL     1      -0.254  19.693  46.640  1.00  0.00     0.005 C 
ATOM     13  C   UNL     1      -0.066  20.479  48.942  1.00  0.00    -0.026 C 
ATOM     14  C   UNL     1      -1.126  20.946  46.805  1.00  0.00     0.005 C 
ATOM     15  C   UNL     1      -0.610  21.615  48.070  1.00  0.00    -0.001 C 
ATOM     16  C   UNL     1       0.753  21.152  50.096  1.00  0.00     0.007 C 
ATOM     17  C   UNL     1      -1.212  19.582  49.546  1.00  0.00     0.012 C 
ATOM     18  C   UNL     1      -1.578  22.620  48.780  1.00  0.00     0.000 C 
ATOM     19  C   UNL     1       0.074  22.409  50.731  1.00  0.00     0.005 C 
ATOM     20  C   UNL     1      -1.418  22.601  50.335  1.00  0.00     0.003 C 
ATOM     21  C   UNL     1      -1.313  24.030  48.210  1.00  0.00     0.031 C 
ATOM     22  C   UNL     1      -2.226  23.769  51.054  1.00  0.00    -0.008 C 
ATOM     23  C   UNL     1      -1.970  25.138  48.962  1.00  0.00    -0.027 C 
ATOM     24  C   UNL     1      -2.199  25.092  50.285  1.00  0.00    -0.065 C 
ATOM     25  C   UNL     1      -1.699  24.022  52.502  1.00  0.00     0.014 C 
ATOM     26  C   UNL     1      -3.715  23.321  51.138  1.00  0.00     0.016 C 
ATOM     27  C   UNL     1      -2.729  26.343  50.967  1.00  0.00     0.063 C 
ATOM     28  C   UNL     1      -2.345  25.231  53.198  1.00  0.00     0.033 C 
ATOM     29  C   UNL     1      -2.133  26.506  52.368  1.00  0.00     0.118 C 
BRANCH  29  30
ATOM     30  O   UNL     1      -2.750  27.596  53.003  1.00  0.00    -0.393 OA
ATOM     31  H   UNL     1      -3.678  27.645  52.652  1.00  0.00     0.210 HD
ENDBRANCH  29  30
ENDBRANCH   9  11
ENDBRANCH   1   9
TORSDOF 7
ENDMDL
MODEL 3
REMARK VINA RESULT:    -6.721      6.064     10.067
REMARK INTER + INTRA:         -11.192
REMARK INTER:                  -9.735
REMARK INTRA:                  -1.457
REMARK UNBOUND:                -1.917
REMARK SMILES CC[C@@H](CC[C@@H](C)[C@@H]1CC[C@H]2[C@@H]3CC=C4C[C@@H](O)CC[C@]4(C)[C@@H]3CC[C@@]21C)C(C)C
REMARK SMILES IDX 5 1 4 2 3 3 2 4 1 5 28 6 29 7 30 8 6 9 7 10 8 11 9 12 26 13
REMARK SMILES IDX 10 14 11 15 25 16 27 17 12 18 24 19 23 20 13 21 21 22 14 23
REMARK SMILES IDX 15 24 20 25 22 26 16 27 19 28 17 29 18 30
REMARK H PARENT 18 31
REMARK Flexibility Score: inf
ROOT
ATOM      1  C   UNL     1       0.656  19.365  46.989  1.00  0.00     0.004 C 
ENDROOT
BRANCH   1   2
ATOM      2  C   UNL     1       0.589  18.110  47.887  1.00  0.00     0.004 C 
BRANCH   2   3
ATOM      3  C   UNL     1      -0.257  16.972  47.224  1.00  0.00    -0.009 C 
BRANCH   3   4
ATOM      4  C   UNL     1      -0.657  17.368  45.775  1.00  0.00     0.000 C 
ATOM      5  C   UNL     1      -0.447  16.223  44.774  1.00  0.00     0.004 C 
ENDBRANCH   3   4
BRANCH   3   6
ATOM      6  C   UNL     1      -1.487  16.601  48.122  1.00  0.00    -0.014 C 
ATOM      7  C   UNL     1      -1.200  16.746  49.630  1.00  0.00     0.007 C 
ATOM      8  C   UNL     1      -2.709  17.473  47.771  1.00  0.00     0.007 C 
ENDBRANCH   3   6
ENDBRANCH   2   3
ENDBRANCH   1   2
BRANCH   1   9
ATOM      9  C   UNL     1       2.054  20.056  46.917  1.00  0.00    -0.011 C 
ATOM     10  C   UNL     1       1.897  21.572  47.155  1.00  0.00     0.008 C 
BRANCH   9  11
ATOM     11  C   UNL     1       3.109  19.337  47.851  1.00  0.00    -0.002 C 
ATOM     12  C   UNL     1       3.939  20.294  48.764  1.00  0.00     0.005 C 
ATOM     13  C   UNL     1       4.241  18.514  47.122  1.00  0.00    -0.026 C 
ATOM     14  C   UNL     1       5.345  20.416  48.160  1.00  0.00     0.005 C 
ATOM     15  C   UNL     1       5.287  19.607  46.872  1.00  0.00    -0.001 C 
ATOM     16  C   UNL     1       3.926  17.870  45.729  1.00  0.00     0.007 C 
ATOM     17  C   UNL     1       4.750  17.411  48.125  1.00  0.00     0.012 C 
ATOM     18  C   UNL     1       6.655  19.124  46.282  1.00  0.00     0.000 C 
ATOM     19  C   UNL     1       5.181  17.603  44.834  1.00  0.00     0.005 C 
ATOM     20  C   UNL     1       6.540  17.731  45.580  1.00  0.00     0.003 C 
ATOM     21  C   UNL     1       7.165  20.201  45.302  1.00  0.00     0.031 C 
ATOM     22  C   UNL     1       7.857  17.331  44.783  1.00  0.00    -0.008 C 
ATOM     23  C   UNL     1       8.323  19.780  44.463  1.00  0.00    -0.027 C 
ATOM     24  C   UNL     1       8.520  18.511  44.067  1.00  0.00    -0.065 C 
ATOM     25  C   UNL     1       7.573  16.208  43.735  1.00  0.00     0.014 C 
ATOM     26  C   UNL     1       8.884  16.793  45.822  1.00  0.00     0.016 C 
ATOM     27  C   UNL     1       9.645  18.229  43.085  1.00  0.00     0.063 C 
ATOM     28  C   UNL     1       8.775  15.875  42.836  1.00  0.00     0.033 C 
ATOM     29  C   UNL     1       9.254  17.131  42.092  1.00  0.00     0.118 C 
BRANCH  29  30
ATOM     30  O   UNL     1      10.367  16.818  41.296  1.00  0.00    -0.393 OA
ATOM     31  H   UNL     1      10.016  16.424  40.454  1.00  0.00     0.210 HD
ENDBRANCH  29  30
ENDBRANCH   9  11
ENDBRANCH   1   9
TORSDOF 7
ENDMDL
MODEL 4
REMARK VINA RESULT:    -6.671      3.627      8.435
REMARK INTER + INTRA:         -11.124
REMARK INTER:                  -9.913
REMARK INTRA:                  -1.211
REMARK UNBOUND:                -1.917
REMARK SMILES CC[C@@H](CC[C@@H](C)[C@@H]1CC[C@H]2[C@@H]3CC=C4C[C@@H](O)CC[C@]4(C)[C@@H]3CC[C@@]21C)C(C)C
REMARK SMILES IDX 5 1 4 2 3 3 2 4 1 5 28 6 29 7 30 8 6 9 7 10 8 11 9 12 26 13
REMARK SMILES IDX 10 14 11 15 25 16 27 17 12 18 24 19 23 20 13 21 21 22 14 23
REMARK SMILES IDX 15 24 20 25 22 26 16 27 19 28 17 29 18 30
REMARK H PARENT 18 31
REMARK Flexibility Score: inf
ROOT
ATOM      1  C   UNL     1      -2.254  22.755  50.129  1.00  0.00     0.004 C 
ENDROOT
BRANCH   1   2
ATOM      2  C   UNL     1      -2.175  22.704  51.671  1.00  0.00     0.004 C 
BRANCH   2   3
ATOM      3  C   UNL     1      -1.427  23.951  52.250  1.00  0.00    -0.009 C 
BRANCH   3   4
ATOM      4  C   UNL     1      -0.240  23.502  53.148  1.00  0.00     0.000 C 
ATOM      5  C   UNL     1       0.394  22.188  52.671  1.00  0.00     0.004 C 
ENDBRANCH   3   4
BRANCH   3   6
ATOM      6  C   UNL     1      -2.429  24.906  52.986  1.00  0.00    -0.014 C 
ATOM      7  C   UNL     1      -1.771  25.711  54.125  1.00  0.00     0.007 C 
ATOM      8  C   UNL     1      -3.073  25.897  51.997  1.00  0.00     0.007 C 
ENDBRANCH   3   6
ENDBRANCH   2   3
ENDBRANCH   1   2
BRANCH   1   9
ATOM      9  C   UNL     1      -1.670  21.510  49.392  1.00  0.00    -0.011 C 
ATOM     10  C   UNL     1      -2.735  20.396  49.331  1.00  0.00     0.008 C 
BRANCH   9  11
ATOM     11  C   UNL     1      -1.029  21.902  48.000  1.00  0.00    -0.002 C 
ATOM     12  C   UNL     1      -1.663  21.194  46.761  1.00  0.00     0.005 C 
ATOM     13  C   UNL     1       0.503  21.573  47.818  1.00  0.00    -0.026 C 
ATOM     14  C   UNL     1      -0.693  20.097  46.301  1.00  0.00     0.005 C 
ATOM     15  C   UNL     1       0.438  20.125  47.319  1.00  0.00    -0.001 C 
ATOM     16  C   UNL     1       1.428  21.570  49.083  1.00  0.00     0.007 C 
ATOM     17  C   UNL     1       1.077  22.560  46.732  1.00  0.00     0.012 C 
ATOM     18  C   UNL     1       1.800  19.492  46.876  1.00  0.00     0.000 C 
ATOM     19  C   UNL     1       2.720  20.700  48.943  1.00  0.00     0.005 C 
ATOM     20  C   UNL     1       3.029  20.237  47.491  1.00  0.00     0.003 C 
ATOM     21  C   UNL     1       1.793  18.003  47.280  1.00  0.00     0.031 C 
ATOM     22  C   UNL     1       4.403  19.476  47.238  1.00  0.00    -0.008 C 
ATOM     23  C   UNL     1       3.114  17.320  47.163  1.00  0.00    -0.027 C 
ATOM     24  C   UNL     1       4.285  17.953  47.341  1.00  0.00    -0.065 C 
ATOM     25  C   UNL     1       5.515  19.958  48.224  1.00  0.00     0.014 C 
ATOM     26  C   UNL     1       4.853  19.801  45.783  1.00  0.00     0.016 C 
ATOM     27  C   UNL     1       5.558  17.122  47.353  1.00  0.00     0.063 C 
ATOM     28  C   UNL     1       6.826  19.162  48.122  1.00  0.00     0.033 C 
ATOM     29  C   UNL     1       6.568  17.667  48.367  1.00  0.00     0.118 C 
BRANCH  29  30
ATOM     30  O   UNL     1       7.769  16.950  48.245  1.00  0.00    -0.393 OA
ATOM     31  H   UNL     1       8.361  17.481  47.651  1.00  0.00     0.210 HD
ENDBRANCH  29  30
ENDBRANCH   9  11
ENDBRANCH   1   9
TORSDOF 7
ENDMDL
MODEL 5
REMARK VINA RESULT:    -6.558      1.527      2.944
REMARK INTER + INTRA:         -10.967
REMARK INTER:                  -9.252
REMARK INTRA:                  -1.714
REMARK UNBOUND:                -1.917
REMARK SMILES CC[C@@H](CC[C@@H](C)[C@@H]1CC[C@H]2[C@@H]3CC=C4C[C@@H](O)CC[C@]4(C)[C@@H]3CC[C@@]21C)C(C)C
REMARK SMILES IDX 5 1 4 2 3 3 2 4 1 5 28 6 29 7 30 8 6 9 7 10 8 11 9 12 26 13
REMARK SMILES IDX 10 14 11 15 25 16 27 17 12 18 24 19 23 20 13 21 21 22 14 23
REMARK SMILES IDX 15 24 20 25 22 26 16 27 19 28 17 29 18 30
REMARK H PARENT 18 31
REMARK Flexibility Score: inf
ROOT
ATOM      1  C   UNL     1       1.142  17.145  46.999  1.00  0.00     0.004 C 
ENDROOT
BRANCH   1   2
ATOM      2  C   UNL     1       0.242  16.280  47.910  1.00  0.00     0.004 C 
BRANCH   2   3
ATOM      3  C   UNL     1      -1.256  16.334  47.459  1.00  0.00    -0.009 C 
BRANCH   3   4
ATOM      4  C   UNL     1      -1.396  17.146  46.140  1.00  0.00     0.000 C 
ATOM      5  C   UNL     1      -1.621  16.247  44.917  1.00  0.00     0.004 C 
ENDBRANCH   3   4
BRANCH   3   6
ATOM      6  C   UNL     1      -2.164  16.876  48.615  1.00  0.00    -0.014 C 
ATOM      7  C   UNL     1      -1.361  17.346  49.844  1.00  0.00     0.007 C 
ATOM      8  C   UNL     1      -3.039  18.047  48.126  1.00  0.00     0.007 C 
ENDBRANCH   3   6
ENDBRANCH   2   3
ENDBRANCH   1   2
BRANCH   1   9
ATOM      9  C   UNL     1       2.175  18.043  47.747  1.00  0.00    -0.011 C 
ATOM     10  C   UNL     1       3.509  17.283  47.901  1.00  0.00     0.008 C 
BRANCH   9  11
ATOM     11  C   UNL     1       2.293  19.475  47.083  1.00  0.00    -0.002 C 
ATOM     12  C   UNL     1       3.685  20.162  47.245  1.00  0.00     0.005 C 
ATOM     13  C   UNL     1       1.314  20.583  47.634  1.00  0.00    -0.026 C 
ATOM     14  C   UNL     1       3.549  21.251  48.317  1.00  0.00     0.005 C 
ATOM     15  C   UNL     1       2.119  21.126  48.820  1.00  0.00    -0.001 C 
ATOM     16  C   UNL     1      -0.079  20.143  48.201  1.00  0.00     0.007 C 
ATOM     17  C   UNL     1       1.119  21.655  46.496  1.00  0.00     0.012 C 
ATOM     18  C   UNL     1       1.514  22.377  49.542  1.00  0.00     0.000 C 
ATOM     19  C   UNL     1      -0.713  21.144  49.222  1.00  0.00     0.005 C 
ATOM     20  C   UNL     1      -0.019  22.535  49.273  1.00  0.00     0.003 C 
ATOM     21  C   UNL     1       1.803  22.249  51.052  1.00  0.00     0.031 C 
ATOM     22  C   UNL     1      -0.691  23.660  50.174  1.00  0.00    -0.008 C 
ATOM     23  C   UNL     1       1.073  23.225  51.911  1.00  0.00    -0.027 C 
ATOM     24  C   UNL     1      -0.143  23.707  51.603  1.00  0.00    -0.065 C 
ATOM     25  C   UNL     1      -2.243  23.489  50.240  1.00  0.00     0.014 C 
ATOM     26  C   UNL     1      -0.370  25.035  49.518  1.00  0.00     0.016 C 
ATOM     27  C   UNL     1      -0.856  24.572  52.629  1.00  0.00     0.063 C 
ATOM     28  C   UNL     1      -2.937  24.462  51.208  1.00  0.00     0.033 C 
ATOM     29  C   UNL     1      -2.365  24.310  52.626  1.00  0.00     0.118 C 
BRANCH  29  30
ATOM     30  O   UNL     1      -2.989  25.221  53.492  1.00  0.00    -0.393 OA
ATOM     31  H   UNL     1      -3.437  25.899  52.921  1.00  0.00     0.210 HD
ENDBRANCH  29  30
ENDBRANCH   9  11
ENDBRANCH   1   9
TORSDOF 7
ENDMDL
MODEL 6
REMARK VINA RESULT:    -6.491      5.574      8.803
REMARK INTER + INTRA:         -10.875
REMARK INTER:                  -9.481
REMARK INTRA:                  -1.394
REMARK UNBOUND:                -1.917
REMARK SMILES CC[C@@H](CC[C@@H](C)[C@@H]1CC[C@H]2[C@@H]3CC=C4C[C@@H](O)CC[C@]4(C)[C@@H]3CC[C@@]21C)C(C)C
REMARK SMILES IDX 5 1 4 2 3 3 2 4 1 5 28 6 29 7 30 8 6 9 7 10 8 11 9 12 26 13
REMARK SMILES IDX 10 14 11 15 25 16 27 17 12 18 24 19 23 20 13 21 21 22 14 23
REMARK SMILES IDX 15 24 20 25 22 26 16 27 19 28 17 29 18 30
REMARK H PARENT 18 31
REMARK Flexibility Score: inf
ROOT
ATOM      1  C   UNL     1       8.894  17.990  44.530  1.00  0.00     0.004 C 
ENDROOT
BRANCH   1   2
ATOM      2  C   UNL     1       8.702  19.310  43.752  1.00  0.00     0.004 C 
BRANCH   2   3
ATOM      3  C   UNL     1       8.256  19.049  42.275  1.00  0.00    -0.009 C 
BRANCH   3   4
ATOM      4  C   UNL     1       9.494  18.777  41.374  1.00  0.00     0.000 C 
ATOM      5  C   UNL     1      10.735  19.555  41.831  1.00  0.00     0.004 C 
ENDBRANCH   3   4
BRANCH   3   6
ATOM      6  C   UNL     1       7.358  20.221  41.750  1.00  0.00    -0.014 C 
ATOM      7  C   UNL     1       7.410  20.383  40.218  1.00  0.00     0.007 C 
ATOM      8  C   UNL     1       5.888  20.021  42.171  1.00  0.00     0.007 C 
ENDBRANCH   3   6
ENDBRANCH   2   3
ENDBRANCH   1   2
BRANCH   1   9
ATOM      9  C   UNL     1       7.615  17.441  45.233  1.00  0.00    -0.011 C 
ATOM     10  C   UNL     1       7.631  15.898  45.210  1.00  0.00     0.008 C 
BRANCH   9  11
ATOM     11  C   UNL     1       7.410  18.088  46.663  1.00  0.00    -0.002 C 
ATOM     12  C   UNL     1       7.271  17.065  47.834  1.00  0.00     0.005 C 
ATOM     13  C   UNL     1       6.121  18.978  46.849  1.00  0.00    -0.026 C 
ATOM     14  C   UNL     1       5.789  17.005  48.231  1.00  0.00     0.005 C 
ATOM     15  C   UNL     1       5.084  17.919  47.240  1.00  0.00    -0.001 C 
ATOM     16  C   UNL     1       5.542  19.735  45.605  1.00  0.00     0.007 C 
ATOM     17  C   UNL     1       6.410  19.997  48.015  1.00  0.00     0.012 C 
ATOM     18  C   UNL     1       3.677  18.462  47.661  1.00  0.00     0.000 C 
ATOM     19  C   UNL     1       4.021  20.086  45.705  1.00  0.00     0.005 C 
ATOM     20  C   UNL     1       3.413  19.907  47.125  1.00  0.00     0.003 C 
ATOM     21  C   UNL     1       2.606  17.475  47.149  1.00  0.00     0.031 C 
ATOM     22  C   UNL     1       1.912  20.384  47.348  1.00  0.00    -0.008 C 
ATOM     23  C   UNL     1       1.204  17.975  47.241  1.00  0.00    -0.027 C 
ATOM     24  C   UNL     1       0.880  19.274  47.132  1.00  0.00    -0.065 C 
ATOM     25  C   UNL     1       1.550  21.589  46.422  1.00  0.00     0.014 C 
ATOM     26  C   UNL     1       1.784  20.842  48.831  1.00  0.00     0.016 C 
ATOM     27  C   UNL     1      -0.593  19.647  47.084  1.00  0.00     0.063 C 
ATOM     28  C   UNL     1       0.072  22.006  46.489  1.00  0.00     0.033 C 
ATOM     29  C   UNL     1      -0.838  20.821  46.132  1.00  0.00     0.118 C 
BRANCH  29  30
ATOM     30  O   UNL     1      -2.184  21.210  46.223  1.00  0.00    -0.393 OA
ATOM     31  H   UNL     1      -2.649  20.821  45.436  1.00  0.00     0.210 HD
ENDBRANCH  29  30
ENDBRANCH   9  11
ENDBRANCH   1   9
TORSDOF 7
ENDMDL
MODEL 7
REMARK VINA RESULT:    -6.427      1.296      2.213
REMARK INTER + INTRA:         -10.787
REMARK INTER:                  -9.010
REMARK INTRA:                  -1.777
REMARK UNBOUND:                -1.917
REMARK SMILES CC[C@@H](CC[C@@H](C)[C@@H]1CC[C@H]2[C@@H]3CC=C4C[C@@H](O)CC[C@]4(C)[C@@H]3CC[C@@]21C)C(C)C
REMARK SMILES IDX 5 1 4 2 3 3 2 4 1 5 28 6 29 7 30 8 6 9 7 10 8 11 9 12 26 13
REMARK SMILES IDX 10 14 11 15 25 16 27 17 12 18 24 19 23 20 13 21 21 22 14 23
REMARK SMILES IDX 15 24 20 25 22 26 16 27 19 28 17 29 18 30
REMARK H PARENT 18 31
REMARK Flexibility Score: inf
ROOT
ATOM      1  C   UNL     1       0.518  19.584  46.989  1.00  0.00     0.004 C 
ENDROOT
BRANCH   1   2
ATOM      2  C   UNL     1       0.574  18.310  47.861  1.00  0.00     0.004 C 
BRANCH   2   3
ATOM      3  C   UNL     1      -0.124  17.099  47.157  1.00  0.00    -0.009 C 
BRANCH   3   4
ATOM      4  C   UNL     1      -0.503  17.466  45.695  1.00  0.00     0.000 C 
ATOM      5  C   UNL     1      -0.379  16.273  44.738  1.00  0.00     0.004 C 
ENDBRANCH   3   4
BRANCH   3   6
ATOM      6  C   UNL     1      -1.344  16.594  48.001  1.00  0.00    -0.014 C 
ATOM      7  C   UNL     1      -1.140  16.766  49.520  1.00  0.00     0.007 C 
ATOM      8  C   UNL     1      -2.636  17.330  47.596  1.00  0.00     0.007 C 
ENDBRANCH   3   6
ENDBRANCH   2   3
ENDBRANCH   1   2
BRANCH   1   9
ATOM      9  C   UNL     1      -0.276  20.777  47.605  1.00  0.00    -0.011 C 
ATOM     10  C   UNL     1      -1.492  21.107  46.716  1.00  0.00     0.008 C 
BRANCH   9  11
ATOM     11  C   UNL     1      -0.610  20.530  49.132  1.00  0.00    -0.002 C 
ATOM     12  C   UNL     1      -2.108  20.208  49.434  1.00  0.00     0.005 C 
ATOM     13  C   UNL     1      -0.328  21.732  50.113  1.00  0.00    -0.026 C 
ATOM     14  C   UNL     1      -2.743  21.465  50.043  1.00  0.00     0.005 C 
ATOM     15  C   UNL     1      -1.642  22.514  50.008  1.00  0.00    -0.001 C 
ATOM     16  C   UNL     1       0.821  22.738  49.761  1.00  0.00     0.007 C 
ATOM     17  C   UNL     1      -0.098  21.131  51.551  1.00  0.00     0.012 C 
ATOM     18  C   UNL     1      -1.796  23.729  50.984  1.00  0.00     0.000 C 
ATOM     19  C   UNL     1       0.666  24.156  50.403  1.00  0.00     0.005 C 
ATOM     20  C   UNL     1      -0.417  24.242  51.516  1.00  0.00     0.003 C 
ATOM     21  C   UNL     1      -2.558  24.848  50.245  1.00  0.00     0.031 C 
ATOM     22  C   UNL     1      -0.536  25.608  52.323  1.00  0.00    -0.008 C 
ATOM     23  C   UNL     1      -2.561  26.166  50.944  1.00  0.00    -0.027 C 
ATOM     24  C   UNL     1      -1.551  26.584  51.724  1.00  0.00    -0.065 C 
ATOM     25  C   UNL     1       0.846  26.329  52.434  1.00  0.00     0.014 C 
ATOM     26  C   UNL     1      -1.030  25.259  53.758  1.00  0.00     0.016 C 
ATOM     27  C   UNL     1      -1.594  28.008  52.256  1.00  0.00     0.063 C 
ATOM     28  C   UNL     1       0.772  27.722  53.082  1.00  0.00     0.033 C 
ATOM     29  C   UNL     1      -0.194  28.627  52.302  1.00  0.00     0.118 C 
BRANCH  29  30
ATOM     30  O   UNL     1      -0.271  29.885  52.919  1.00  0.00    -0.393 OA
ATOM     31  H   UNL     1      -1.013  30.377  52.479  1.00  0.00     0.210 HD
ENDBRANCH  29  30
ENDBRANCH   9  11
ENDBRANCH   1   9
TORSDOF 7
ENDMDL
MODEL 8
REMARK VINA RESULT:    -6.423      2.377      3.761
REMARK INTER + INTRA:         -10.781
REMARK INTER:                  -9.690
REMARK INTRA:                  -1.091
REMARK UNBOUND:                -1.917
REMARK SMILES CC[C@@H](CC[C@@H](C)[C@@H]1CC[C@H]2[C@@H]3CC=C4C[C@@H](O)CC[C@]4(C)[C@@H]3CC[C@@]21C)C(C)C
REMARK SMILES IDX 5 1 4 2 3 3 2 4 1 5 28 6 29 7 30 8 6 9 7 10 8 11 9 12 26 13
REMARK SMILES IDX 10 14 11 15 25 16 27 17 12 18 24 19 23 20 13 21 21 22 14 23
REMARK SMILES IDX 15 24 20 25 22 26 16 27 19 28 17 29 18 30
REMARK H PARENT 18 31
REMARK Flexibility Score: inf
ROOT
ATOM      1  C   UNL     1       2.951  18.707  47.287  1.00  0.00     0.004 C 
ENDROOT
BRANCH   1   2
ATOM      2  C   UNL     1       4.455  18.990  47.076  1.00  0.00     0.004 C 
BRANCH   2   3
ATOM      3  C   UNL     1       5.242  18.955  48.428  1.00  0.00    -0.009 C 
BRANCH   3   4
ATOM      4  C   UNL     1       5.894  20.338  48.712  1.00  0.00     0.000 C 
ATOM      5  C   UNL     1       4.906  21.339  49.324  1.00  0.00     0.004 C 
ENDBRANCH   3   4
BRANCH   3   6
ATOM      6  C   UNL     1       6.273  17.774  48.439  1.00  0.00    -0.014 C 
ATOM      7  C   UNL     1       5.630  16.408  48.129  1.00  0.00     0.007 C 
ATOM      8  C   UNL     1       7.406  18.023  47.424  1.00  0.00     0.007 C 
ENDBRANCH   3   6
ENDBRANCH   2   3
ENDBRANCH   1   2
BRANCH   1   9
ATOM      9  C   UNL     1       2.063  19.969  47.519  1.00  0.00    -0.011 C 
ATOM     10  C   UNL     1       2.244  20.954  46.346  1.00  0.00     0.008 C 
BRANCH   9  11
ATOM     11  C   UNL     1       0.564  19.577  47.840  1.00  0.00    -0.002 C 
ATOM     12  C   UNL     1      -0.414  19.668  46.626  1.00  0.00     0.005 C 
ATOM     13  C   UNL     1      -0.173  20.459  48.921  1.00  0.00    -0.026 C 
ATOM     14  C   UNL     1      -1.262  20.935  46.801  1.00  0.00     0.005 C 
ATOM     15  C   UNL     1      -0.713  21.601  48.054  1.00  0.00    -0.001 C 
ATOM     16  C   UNL     1       0.678  21.123  50.057  1.00  0.00     0.007 C 
ATOM     17  C   UNL     1      -1.322  19.582  49.549  1.00  0.00     0.012 C 
ATOM     18  C   UNL     1      -1.653  22.624  48.777  1.00  0.00     0.000 C 
ATOM     19  C   UNL     1       0.029  22.393  50.699  1.00  0.00     0.005 C 
ATOM     20  C   UNL     1      -1.466  22.607  50.329  1.00  0.00     0.003 C 
ATOM     21  C   UNL     1      -1.375  24.027  48.197  1.00  0.00     0.031 C 
ATOM     22  C   UNL     1      -2.242  23.790  51.057  1.00  0.00    -0.008 C 
ATOM     23  C   UNL     1      -2.001  25.148  48.956  1.00  0.00    -0.027 C 
ATOM     24  C   UNL     1      -2.208  25.110  50.283  1.00  0.00    -0.065 C 
ATOM     25  C   UNL     1      -1.685  24.040  52.496  1.00  0.00     0.014 C 
ATOM     26  C   UNL     1      -3.736  23.366  51.170  1.00  0.00     0.016 C 
ATOM     27  C   UNL     1      -2.706  26.371  50.970  1.00  0.00     0.063 C 
ATOM     28  C   UNL     1      -2.300  25.262  53.198  1.00  0.00     0.033 C 
ATOM     29  C   UNL     1      -2.082  26.531  52.360  1.00  0.00     0.118 C 
BRANCH  29  30
ATOM     30  O   UNL     1      -2.671  27.632  53.001  1.00  0.00    -0.393 OA
ATOM     31  H   UNL     1      -2.971  28.254  52.287  1.00  0.00     0.210 HD
ENDBRANCH  29  30
ENDBRANCH   9  11
ENDBRANCH   1   9
TORSDOF 7
ENDMDL
MODEL 9
REMARK VINA RESULT:    -6.321      6.177     10.201
REMARK INTER + INTRA:         -10.640
REMARK INTER:                  -8.921
REMARK INTRA:                  -1.718
REMARK UNBOUND:                -1.917
REMARK SMILES CC[C@@H](CC[C@@H](C)[C@@H]1CC[C@H]2[C@@H]3CC=C4C[C@@H](O)CC[C@]4(C)[C@@H]3CC[C@@]21C)C(C)C
REMARK SMILES IDX 5 1 4 2 3 3 2 4 1 5 28 6 29 7 30 8 6 9 7 10 8 11 9 12 26 13
REMARK SMILES IDX 10 14 11 15 25 16 27 17 12 18 24 19 23 20 13 21 21 22 14 23
REMARK SMILES IDX 15 24 20 25 22 26 16 27 19 28 17 29 18 30
REMARK H PARENT 18 31
REMARK Flexibility Score: inf
ROOT
ATOM      1  C   UNL     1       8.808  20.783  42.522  1.00  0.00     0.004 C 
ENDROOT
BRANCH   1   2
ATOM      2  C   UNL     1       8.019  21.491  41.399  1.00  0.00     0.004 C 
BRANCH   2   3
ATOM      3  C   UNL     1       6.476  21.272  41.552  1.00  0.00    -0.009 C 
BRANCH   3   4
ATOM      4  C   UNL     1       5.923  20.450  40.354  1.00  0.00     0.000 C 
ATOM      5  C   UNL     1       6.825  20.537  39.115  1.00  0.00     0.004 C 
ENDBRANCH   3   4
BRANCH   3   6
ATOM      6  C   UNL     1       5.739  22.640  41.752  1.00  0.00    -0.014 C 
ATOM      7  C   UNL     1       4.415  22.734  40.969  1.00  0.00     0.007 C 
ATOM      8  C   UNL     1       5.444  22.894  43.244  1.00  0.00     0.007 C 
ENDBRANCH   3   6
ENDBRANCH   2   3
ENDBRANCH   1   2
BRANCH   1   9
ATOM      9  C   UNL     1       8.479  19.270  42.714  1.00  0.00    -0.011 C 
ATOM     10  C   UNL     1       9.241  18.436  41.663  1.00  0.00     0.008 C 
BRANCH   9  11
ATOM     11  C   UNL     1       8.689  18.812  44.214  1.00  0.00    -0.002 C 
ATOM     12  C   UNL     1       9.209  17.350  44.388  1.00  0.00     0.005 C 
ATOM     13  C   UNL     1       7.406  18.815  45.132  1.00  0.00    -0.026 C 
ATOM     14  C   UNL     1       8.028  16.483  44.843  1.00  0.00     0.005 C 
ATOM     15  C   UNL     1       6.832  17.424  44.844  1.00  0.00    -0.001 C 
ATOM     16  C   UNL     1       6.263  19.843  44.825  1.00  0.00     0.007 C 
ATOM     17  C   UNL     1       7.887  18.972  46.624  1.00  0.00     0.012 C 
ATOM     18  C   UNL     1       5.601  16.997  45.713  1.00  0.00     0.000 C 
ATOM     19  C   UNL     1       4.851  19.423  45.348  1.00  0.00     0.005 C 
ATOM     20  C   UNL     1       4.863  18.225  46.340  1.00  0.00     0.003 C 
ATOM     21  C   UNL     1       4.648  16.170  44.826  1.00  0.00     0.031 C 
ATOM     22  C   UNL     1       3.487  17.830  47.035  1.00  0.00    -0.008 C 
ATOM     23  C   UNL     1       3.309  15.907  45.427  1.00  0.00    -0.027 C 
ATOM     24  C   UNL     1       2.705  16.758  46.272  1.00  0.00    -0.065 C 
ATOM     25  C   UNL     1       2.566  19.077  47.230  1.00  0.00     0.014 C 
ATOM     26  C   UNL     1       3.826  17.238  48.434  1.00  0.00     0.016 C 
ATOM     27  C   UNL     1       1.276  16.459  46.697  1.00  0.00     0.063 C 
ATOM     28  C   UNL     1       1.167  18.739  47.769  1.00  0.00     0.033 C 
ATOM     29  C   UNL     1       0.457  17.745  46.837  1.00  0.00     0.118 C 
BRANCH  29  30
ATOM     30  O   UNL     1      -0.809  17.427  47.355  1.00  0.00    -0.393 OA
ATOM     31  H   UNL     1      -1.117  18.220  47.867  1.00  0.00     0.210 HD
ENDBRANCH  29  30
ENDBRANCH   9  11
ENDBRANCH   1   9
TORSDOF 7
ENDMDL
