MODEL 1
REMARK VINA RESULT:    -4.208      0.000      0.000
REMARK INTER + INTRA:          -4.768
REMARK INTER:                  -4.577
REMARK INTRA:                  -0.191
REMARK UNBOUND:                -0.191
REMARK SMILES Cc1ccc(C(C)C)c(O)c1
REMARK SMILES IDX 1 1 2 2 11 3 9 4 5 5 4 6 3 7 10 8 6 10 7 11 8 12
REMARK H PARENT 10 9
REMARK Flexibility Score: inf
ROOT
ATOM      1  C   UNL     1      29.665  38.366  74.089  1.00  0.00     0.044 C 
ATOM      2  C   UNL     1      31.026  38.959  73.869  1.00  0.00    -0.047 A 
ATOM      3  C   UNL     1      31.853  38.469  72.849  1.00  0.00     0.049 A 
ATOM      4  C   UNL     1      33.112  39.041  72.611  1.00  0.00     0.119 A 
ATOM      5  C   UNL     1      33.553  40.131  73.398  1.00  0.00    -0.004 A 
ATOM      6  C   UNL     1      32.704  40.626  74.406  1.00  0.00     0.008 A 
ATOM      7  C   UNL     1      31.452  40.050  74.634  1.00  0.00     0.004 A 
ENDROOT
BRANCH   4   8
ATOM      8  O   UNL     1      33.914  38.524  71.596  1.00  0.00    -0.508 OA
ATOM      9  H   UNL     1      34.501  39.120  71.023  1.00  0.00     0.293 HD
ENDBRANCH   4   8
BRANCH   5  10
ATOM     10  C   UNL     1      34.909  40.794  73.188  1.00  0.00     0.017 C 
ATOM     11  C   UNL     1      35.800  40.675  74.431  1.00  0.00     0.012 C 
ATOM     12  C   UNL     1      34.766  42.252  72.734  1.00  0.00     0.012 C 
ENDBRANCH   5  10
TORSDOF 2
ENDMDL
MODEL 2
REMARK VINA RESULT:    -4.107      9.174     10.683
REMARK INTER + INTRA:          -4.658
REMARK INTER:                  -4.461
REMARK INTRA:                  -0.196
REMARK UNBOUND:                -0.191
REMARK SMILES Cc1ccc(C(C)C)c(O)c1
REMARK SMILES IDX 1 1 2 2 11 3 9 4 5 5 4 6 3 7 10 8 6 10 7 11 8 12
REMARK H PARENT 10 9
REMARK Flexibility Score: inf
ROOT
ATOM      1  C   UNL     1      31.521  28.143  75.421  1.00  0.00     0.044 C 
ATOM      2  C   UNL     1      30.687  29.019  74.533  1.00  0.00    -0.047 A 
ATOM      3  C   UNL     1      31.258  30.133  73.903  1.00  0.00     0.049 A 
ATOM      4  C   UNL     1      30.495  30.936  73.041  1.00  0.00     0.119 A 
ATOM      5  C   UNL     1      29.139  30.619  72.793  1.00  0.00    -0.004 A 
ATOM      6  C   UNL     1      28.585  29.486  73.418  1.00  0.00     0.008 A 
ATOM      7  C   UNL     1      29.351  28.691  74.273  1.00  0.00     0.004 A 
ENDROOT
BRANCH   4   8
ATOM      8  O   UNL     1      31.090  32.043  72.438  1.00  0.00    -0.508 OA
ATOM      9  H   UNL     1      30.566  32.888  72.237  1.00  0.00     0.293 HD
ENDBRANCH   4   8
BRANCH   5  10
ATOM     10  C   UNL     1      28.261  31.453  71.869  1.00  0.00     0.017 C 
ATOM     11  C   UNL     1      27.513  32.552  72.633  1.00  0.00     0.012 C 
ATOM     12  C   UNL     1      27.300  30.578  71.055  1.00  0.00     0.012 C 
ENDBRANCH   5  10
TORSDOF 2
ENDMDL
MODEL 3
REMARK VINA RESULT:    -4.010     14.176     15.589
REMARK INTER + INTRA:          -4.552
REMARK INTER:                  -4.357
REMARK INTRA:                  -0.195
REMARK UNBOUND:                -0.191
REMARK SMILES Cc1ccc(C(C)C)c(O)c1
REMARK SMILES IDX 1 1 2 2 11 3 9 4 5 5 4 6 3 7 10 8 6 10 7 11 8 12
REMARK H PARENT 10 9
REMARK Flexibility Score: inf
ROOT
ATOM      1  C   UNL     1      29.338  47.747  83.588  1.00  0.00     0.044 C 
ATOM      2  C   UNL     1      28.971  46.993  84.833  1.00  0.00    -0.047 A 
ATOM      3  C   UNL     1      29.309  45.639  84.964  1.00  0.00     0.049 A 
ATOM      4  C   UNL     1      29.003  44.936  86.139  1.00  0.00     0.119 A 
ATOM      5  C   UNL     1      28.357  45.597  87.211  1.00  0.00    -0.004 A 
ATOM      6  C   UNL     1      28.042  46.961  87.073  1.00  0.00     0.008 A 
ATOM      7  C   UNL     1      28.351  47.653  85.901  1.00  0.00     0.004 A 
ENDROOT
BRANCH   4   8
ATOM      8  O   UNL     1      29.343  43.588  86.234  1.00  0.00    -0.508 OA
ATOM      9  H   UNL     1      30.274  43.255  86.012  1.00  0.00     0.293 HD
ENDBRANCH   4   8
BRANCH   5  10
ATOM     10  C   UNL     1      27.999  44.887  88.511  1.00  0.00     0.017 C 
ATOM     11  C   UNL     1      26.510  44.528  88.573  1.00  0.00     0.012 C 
ATOM     12  C   UNL     1      28.437  45.694  89.740  1.00  0.00     0.012 C 
ENDBRANCH   5  10
TORSDOF 2
ENDMDL
MODEL 4
REMARK VINA RESULT:    -3.850      2.544      5.062
REMARK INTER + INTRA:          -4.379
REMARK INTER:                  -4.182
REMARK INTRA:                  -0.197
REMARK UNBOUND:                -0.191
REMARK SMILES Cc1ccc(C(C)C)c(O)c1
REMARK SMILES IDX 1 1 2 2 11 3 9 4 5 5 4 6 3 7 10 8 6 10 7 11 8 12
REMARK H PARENT 10 9
REMARK Flexibility Score: inf
ROOT
ATOM      1  C   UNL     1      33.441  40.462  74.274  1.00  0.00     0.044 C 
ATOM      2  C   UNL     1      32.433  39.490  73.733  1.00  0.00    -0.047 A 
ATOM      3  C   UNL     1      31.196  39.327  74.372  1.00  0.00     0.049 A 
ATOM      4  C   UNL     1      30.234  38.448  73.852  1.00  0.00     0.119 A 
ATOM      5  C   UNL     1      30.503  37.724  72.666  1.00  0.00    -0.004 A 
ATOM      6  C   UNL     1      31.741  37.913  72.025  1.00  0.00     0.008 A 
ATOM      7  C   UNL     1      32.693  38.791  72.549  1.00  0.00     0.004 A 
ENDROOT
BRANCH   4   8
ATOM      8  O   UNL     1      29.017  38.300  74.517  1.00  0.00    -0.508 OA
ATOM      9  H   UNL     1      28.322  39.037  74.528  1.00  0.00     0.293 HD
ENDBRANCH   4   8
BRANCH   5  10
ATOM     10  C   UNL     1      29.498  36.756  72.055  1.00  0.00     0.017 C 
ATOM     11  C   UNL     1      30.179  35.489  71.522  1.00  0.00     0.012 C 
ATOM     12  C   UNL     1      28.639  37.431  70.979  1.00  0.00     0.012 C 
ENDBRANCH   5  10
TORSDOF 2
ENDMDL
MODEL 5
REMARK VINA RESULT:    -3.778      9.657     10.849
REMARK INTER + INTRA:          -4.300
REMARK INTER:                  -4.104
REMARK INTRA:                  -0.196
REMARK UNBOUND:                -0.191
REMARK SMILES Cc1ccc(C(C)C)c(O)c1
REMARK SMILES IDX 1 1 2 2 11 3 9 4 5 5 4 6 3 7 10 8 6 10 7 11 8 12
REMARK H PARENT 10 9
REMARK Flexibility Score: inf
ROOT
ATOM      1  C   UNL     1      28.999  46.163  84.952  1.00  0.00     0.044 C 
ATOM      2  C   UNL     1      29.145  46.007  83.467  1.00  0.00    -0.047 A 
ATOM      3  C   UNL     1      29.181  44.730  82.890  1.00  0.00     0.049 A 
ATOM      4  C   UNL     1      29.280  44.575  81.499  1.00  0.00     0.119 A 
ATOM      5  C   UNL     1      29.332  45.715  80.663  1.00  0.00    -0.004 A 
ATOM      6  C   UNL     1      29.275  46.991  81.253  1.00  0.00     0.008 A 
ATOM      7  C   UNL     1      29.175  47.135  82.639  1.00  0.00     0.004 A 
ENDROOT
BRANCH   4   8
ATOM      8  O   UNL     1      29.324  43.291  80.958  1.00  0.00    -0.508 OA
ATOM      9  H   UNL     1      28.631  42.589  81.192  1.00  0.00     0.293 HD
ENDBRANCH   4   8
BRANCH   5  10
ATOM     10  C   UNL     1      29.440  45.611  79.146  1.00  0.00     0.017 C 
ATOM     11  C   UNL     1      30.892  45.738  78.668  1.00  0.00     0.012 C 
ATOM     12  C   UNL     1      28.523  46.617  78.440  1.00  0.00     0.012 C 
ENDBRANCH   5  10
TORSDOF 2
ENDMDL
MODEL 6
REMARK VINA RESULT:    -3.766     10.764     12.085
REMARK INTER + INTRA:          -4.288
REMARK INTER:                  -4.101
REMARK INTRA:                  -0.187
REMARK UNBOUND:                -0.191
REMARK SMILES Cc1ccc(C(C)C)c(O)c1
REMARK SMILES IDX 1 1 2 2 11 3 9 4 5 5 4 6 3 7 10 8 6 10 7 11 8 12
REMARK H PARENT 10 9
REMARK Flexibility Score: inf
ROOT
ATOM      1  C   UNL     1      27.240  44.599  79.343  1.00  0.00     0.044 C 
ATOM      2  C   UNL     1      27.669  44.631  80.780  1.00  0.00    -0.047 A 
ATOM      3  C   UNL     1      26.715  44.559  81.804  1.00  0.00     0.049 A 
ATOM      4  C   UNL     1      27.109  44.551  83.150  1.00  0.00     0.119 A 
ATOM      5  C   UNL     1      28.483  44.604  83.486  1.00  0.00    -0.004 A 
ATOM      6  C   UNL     1      29.431  44.655  82.447  1.00  0.00     0.008 A 
ATOM      7  C   UNL     1      29.029  44.662  81.110  1.00  0.00     0.004 A 
ENDROOT
BRANCH   4   8
ATOM      8  O   UNL     1      26.135  44.489  84.145  1.00  0.00    -0.508 OA
ATOM      9  H   UNL     1      26.154  45.105  84.950  1.00  0.00     0.293 HD
ENDBRANCH   4   8
BRANCH   5  10
ATOM     10  C   UNL     1      28.972  44.598  84.929  1.00  0.00     0.017 C 
ATOM     11  C   UNL     1      28.973  46.006  85.536  1.00  0.00     0.012 C 
ATOM     12  C   UNL     1      30.344  43.925  85.062  1.00  0.00     0.012 C 
ENDBRANCH   5  10
TORSDOF 2
ENDMDL
MODEL 7
REMARK VINA RESULT:    -3.757     10.750     12.134
REMARK INTER + INTRA:          -4.277
REMARK INTER:                  -4.129
REMARK INTRA:                  -0.148
REMARK UNBOUND:                -0.191
REMARK SMILES Cc1ccc(C(C)C)c(O)c1
REMARK SMILES IDX 1 1 2 2 11 3 9 4 5 5 4 6 3 7 10 8 6 10 7 11 8 12
REMARK H PARENT 10 9
REMARK Flexibility Score: inf
ROOT
ATOM      1  C   UNL     1      28.918  44.498  86.638  1.00  0.00     0.044 C 
ATOM      2  C   UNL     1      28.709  44.511  85.152  1.00  0.00    -0.047 A 
ATOM      3  C   UNL     1      27.419  44.635  84.621  1.00  0.00     0.049 A 
ATOM      4  C   UNL     1      27.217  44.686  83.233  1.00  0.00     0.119 A 
ATOM      5  C   UNL     1      28.325  44.622  82.355  1.00  0.00    -0.004 A 
ATOM      6  C   UNL     1      29.617  44.518  82.903  1.00  0.00     0.008 A 
ATOM      7  C   UNL     1      29.808  44.469  84.285  1.00  0.00     0.004 A 
ENDROOT
BRANCH   4   8
ATOM      8  O   UNL     1      25.920  44.800  82.736  1.00  0.00    -0.508 OA
ATOM      9  H   UNL     1      25.692  44.557  81.779  1.00  0.00     0.293 HD
ENDBRANCH   4   8
BRANCH   5  10
ATOM     10  C   UNL     1      28.171  44.672  80.840  1.00  0.00     0.017 C 
ATOM     11  C   UNL     1      27.705  43.327  80.270  1.00  0.00     0.012 C 
ATOM     12  C   UNL     1      29.451  45.163  80.153  1.00  0.00     0.012 C 
ENDBRANCH   5  10
TORSDOF 2
ENDMDL
MODEL 8
REMARK VINA RESULT:    -3.729     16.569     18.411
REMARK INTER + INTRA:          -4.247
REMARK INTER:                  -4.050
REMARK INTRA:                  -0.197
REMARK UNBOUND:                -0.191
REMARK SMILES Cc1ccc(C(C)C)c(O)c1
REMARK SMILES IDX 1 1 2 2 11 3 9 4 5 5 4 6 3 7 10 8 6 10 7 11 8 12
REMARK H PARENT 10 9
REMARK Flexibility Score: inf
ROOT
ATOM      1  C   UNL     1      22.228  34.870  84.654  1.00  0.00     0.044 C 
ATOM      2  C   UNL     1      22.693  35.016  86.073  1.00  0.00    -0.047 A 
ATOM      3  C   UNL     1      23.433  36.141  86.462  1.00  0.00     0.049 A 
ATOM      4  C   UNL     1      23.839  36.305  87.795  1.00  0.00     0.119 A 
ATOM      5  C   UNL     1      23.493  35.334  88.764  1.00  0.00    -0.004 A 
ATOM      6  C   UNL     1      22.733  34.220  88.364  1.00  0.00     0.008 A 
ATOM      7  C   UNL     1      22.332  34.066  87.035  1.00  0.00     0.004 A 
ENDROOT
BRANCH   4   8
ATOM      8  O   UNL     1      24.583  37.430  88.147  1.00  0.00    -0.508 OA
ATOM      9  H   UNL     1      24.428  38.331  87.709  1.00  0.00     0.293 HD
ENDBRANCH   4   8
BRANCH   5  10
ATOM     10  C   UNL     1      23.906  35.456  90.226  1.00  0.00     0.017 C 
ATOM     11  C   UNL     1      24.390  34.117  90.795  1.00  0.00     0.012 C 
ATOM     12  C   UNL     1      22.790  36.064  91.084  1.00  0.00     0.012 C 
ENDBRANCH   5  10
TORSDOF 2
ENDMDL
MODEL 9
REMARK VINA RESULT:    -3.717     16.475     17.344
REMARK INTER + INTRA:          -4.234
REMARK INTER:                  -4.042
REMARK INTRA:                  -0.193
REMARK UNBOUND:                -0.191
REMARK SMILES Cc1ccc(C(C)C)c(O)c1
REMARK SMILES IDX 1 1 2 2 11 3 9 4 5 5 4 6 3 7 10 8 6 10 7 11 8 12
REMARK H PARENT 10 9
REMARK Flexibility Score: inf
ROOT
ATOM      1  C   UNL     1      21.420  34.525  83.617  1.00  0.00     0.044 C 
ATOM      2  C   UNL     1      21.827  35.309  84.830  1.00  0.00    -0.047 A 
ATOM      3  C   UNL     1      23.010  34.992  85.512  1.00  0.00     0.049 A 
ATOM      4  C   UNL     1      23.418  35.743  86.625  1.00  0.00     0.119 A 
ATOM      5  C   UNL     1      22.637  36.839  87.063  1.00  0.00    -0.004 A 
ATOM      6  C   UNL     1      21.462  37.158  86.357  1.00  0.00     0.008 A 
ATOM      7  C   UNL     1      21.065  36.405  85.250  1.00  0.00     0.004 A 
ENDROOT
BRANCH   4   8
ATOM      8  O   UNL     1      24.594  35.396  87.287  1.00  0.00    -0.508 OA
ATOM      9  H   UNL     1      24.772  35.680  88.244  1.00  0.00     0.293 HD
ENDBRANCH   4   8
BRANCH   5  10
ATOM     10  C   UNL     1      23.027  37.691  88.264  1.00  0.00     0.017 C 
ATOM     11  C   UNL     1      22.499  37.100  89.577  1.00  0.00     0.012 C 
ATOM     12  C   UNL     1      22.597  39.153  88.090  1.00  0.00     0.012 C 
ENDBRANCH   5  10
TORSDOF 2
ENDMDL
