MODEL 1
REMARK VINA RESULT:    -4.679      0.000      0.000
REMARK INTER + INTRA:         -11.841
REMARK INTER:                  -9.056
REMARK INTRA:                  -2.785
REMARK UNBOUND:                -2.785
REMARK SMILES CCCCCCCCCCCCCCCCCC(=O)[O-]
REMARK SMILES IDX 10 1 11 2 12 3 13 4 14 5 15 6 16 7 17 8 18 9 19 10 20 11
REMARK SMILES IDX 9 12 8 13 7 14 6 15 5 16 4 17 3 18 2 19 1 20
REMARK H PARENT
REMARK Flexibility Score: inf
ROOT
ATOM      1  C   UNL     1      17.873 -33.775  19.462  1.00  0.00     0.000 C 
ENDROOT
BRANCH   1   2
ATOM      2  C   UNL     1      17.096 -35.102  19.403  1.00  0.00     0.000 C 
BRANCH   2   3
ATOM      3  C   UNL     1      15.910 -35.147  20.379  1.00  0.00     0.000 C 
BRANCH   3   4
ATOM      4  C   UNL     1      15.015 -33.908  20.211  1.00  0.00     0.000 C 
BRANCH   4   5
ATOM      5  C   UNL     1      14.629 -33.271  21.556  1.00  0.00     0.000 C 
BRANCH   5   6
ATOM      6  C   UNL     1      13.847 -31.957  21.382  1.00  0.00     0.000 C 
BRANCH   6   7
ATOM      7  C   UNL     1      13.264 -31.438  22.706  1.00  0.00     0.006 C 
BRANCH   7   8
ATOM      8  C   UNL     1      12.290 -30.268  22.509  1.00  0.00     0.053 C 
BRANCH   8   9
ATOM      9  C   UNL     1      12.717 -29.090  23.328  1.00  0.00     0.041 C 
ATOM     10  O   UNL     1      11.913 -28.556  24.137  1.00  0.00    -0.550 OA
ATOM     11  O   UNL     1      13.987 -28.552  23.162  1.00  0.00    -0.550 OA
ENDBRANCH   8   9
ENDBRANCH   7   8
ENDBRANCH   6   7
ENDBRANCH   5   6
ENDBRANCH   4   5
ENDBRANCH   3   4
ENDBRANCH   2   3
ENDBRANCH   1   2
BRANCH   1  12
ATOM     12  C   UNL     1      18.640 -33.522  20.772  1.00  0.00     0.000 C 
BRANCH  12  13
ATOM     13  C   UNL     1      18.888 -32.028  21.042  1.00  0.00    -0.000 C 
BRANCH  13  14
ATOM     14  C   UNL     1      17.594 -31.199  21.001  1.00  0.00    -0.000 C 
BRANCH  14  15
ATOM     15  C   UNL     1      17.461 -30.251  22.204  1.00  0.00    -0.000 C 
BRANCH  15  16
ATOM     16  C   UNL     1      16.873 -30.987  23.418  1.00  0.00    -0.000 C 
BRANCH  16  17
ATOM     17  C   UNL     1      17.927 -31.304  24.491  1.00  0.00    -0.000 C 
BRANCH  17  18
ATOM     18  C   UNL     1      18.000 -32.804  24.825  1.00  0.00    -0.000 C 
BRANCH  18  19
ATOM     19  C   UNL     1      16.863 -33.608  24.174  1.00  0.00    -0.003 C 
ATOM     20  C   UNL     1      17.244 -35.064  23.905  1.00  0.00     0.004 C 
ENDBRANCH  18  19
ENDBRANCH  17  18
ENDBRANCH  16  17
ENDBRANCH  15  16
ENDBRANCH  14  15
ENDBRANCH  13  14
ENDBRANCH  12  13
ENDBRANCH   1  12
TORSDOF 16
ENDMDL
MODEL 2
REMARK VINA RESULT:    -4.494      2.533      4.754
REMARK INTER + INTRA:         -11.483
REMARK INTER:                  -8.831
REMARK INTRA:                  -2.652
REMARK UNBOUND:                -2.785
REMARK SMILES CCCCCCCCCCCCCCCCCC(=O)[O-]
REMARK SMILES IDX 10 1 11 2 12 3 13 4 14 5 15 6 16 7 17 8 18 9 19 10 20 11
REMARK SMILES IDX 9 12 8 13 7 14 6 15 5 16 4 17 3 18 2 19 1 20
REMARK H PARENT
REMARK Flexibility Score: inf
ROOT
ATOM      1  C   UNL     1      18.701 -33.427  20.766  1.00  0.00     0.000 C 
ENDROOT
BRANCH   1   2
ATOM      2  C   UNL     1      18.021 -33.794  19.435  1.00  0.00     0.000 C 
BRANCH   2   3
ATOM      3  C   UNL     1      16.644 -34.447  19.624  1.00  0.00     0.000 C 
BRANCH   3   4
ATOM      4  C   UNL     1      16.454 -34.917  21.076  1.00  0.00     0.000 C 
BRANCH   4   5
ATOM      5  C   UNL     1      15.207 -34.307  21.736  1.00  0.00     0.000 C 
BRANCH   5   6
ATOM      6  C   UNL     1      15.424 -33.994  23.228  1.00  0.00     0.000 C 
BRANCH   6   7
ATOM      7  C   UNL     1      16.757 -34.545  23.759  1.00  0.00     0.006 C 
BRANCH   7   8
ATOM      8  C   UNL     1      17.077 -34.061  25.179  1.00  0.00     0.053 C 
BRANCH   8   9
ATOM      9  C   UNL     1      18.377 -33.321  25.197  1.00  0.00     0.041 C 
ATOM     10  O   UNL     1      19.246 -33.544  24.314  1.00  0.00    -0.550 OA
ATOM     11  O   UNL     1      18.649 -32.419  26.219  1.00  0.00    -0.550 OA
ENDBRANCH   8   9
ENDBRANCH   7   8
ENDBRANCH   6   7
ENDBRANCH   5   6
ENDBRANCH   4   5
ENDBRANCH   3   4
ENDBRANCH   2   3
ENDBRANCH   1   2
BRANCH   1  12
ATOM     12  C   UNL     1      18.798 -31.919  21.059  1.00  0.00     0.000 C 
BRANCH  12  13
ATOM     13  C   UNL     1      17.423 -31.254  21.242  1.00  0.00    -0.000 C 
BRANCH  13  14
ATOM     14  C   UNL     1      17.173 -30.807  22.691  1.00  0.00    -0.000 C 
BRANCH  14  15
ATOM     15  C   UNL     1      15.948 -29.889  22.823  1.00  0.00    -0.000 C 
BRANCH  15  16
ATOM     16  C   UNL     1      14.923 -30.181  21.715  1.00  0.00    -0.000 C 
BRANCH  16  17
ATOM     17  C   UNL     1      13.688 -30.937  22.229  1.00  0.00    -0.000 C 
BRANCH  17  18
ATOM     18  C   UNL     1      13.178 -30.394  23.576  1.00  0.00    -0.000 C 
BRANCH  18  19
ATOM     19  C   UNL     1      12.302 -29.141  23.411  1.00  0.00    -0.003 C 
ATOM     20  C   UNL     1      12.744 -27.986  24.311  1.00  0.00     0.004 C 
ENDBRANCH  18  19
ENDBRANCH  17  18
ENDBRANCH  16  17
ENDBRANCH  15  16
ENDBRANCH  14  15
ENDBRANCH  13  14
ENDBRANCH  12  13
ENDBRANCH   1  12
TORSDOF 16
ENDMDL
MODEL 3
REMARK VINA RESULT:    -4.447      1.304      2.538
REMARK INTER + INTRA:         -11.392
REMARK INTER:                  -8.741
REMARK INTRA:                  -2.652
REMARK UNBOUND:                -2.785
REMARK SMILES CCCCCCCCCCCCCCCCCC(=O)[O-]
REMARK SMILES IDX 10 1 11 2 12 3 13 4 14 5 15 6 16 7 17 8 18 9 19 10 20 11
REMARK SMILES IDX 9 12 8 13 7 14 6 15 5 16 4 17 3 18 2 19 1 20
REMARK H PARENT
REMARK Flexibility Score: inf
ROOT
ATOM      1  C   UNL     1      18.811 -32.399  20.640  1.00  0.00     0.000 C 
ENDROOT
BRANCH   1   2
ATOM      2  C   UNL     1      18.364 -33.855  20.860  1.00  0.00     0.000 C 
BRANCH   2   3
ATOM      3  C   UNL     1      18.138 -34.619  19.547  1.00  0.00     0.000 C 
BRANCH   3   4
ATOM      4  C   UNL     1      16.691 -35.132  19.453  1.00  0.00     0.000 C 
BRANCH   4   5
ATOM      5  C   UNL     1      15.842 -34.732  20.671  1.00  0.00     0.000 C 
BRANCH   5   6
ATOM      6  C   UNL     1      14.725 -33.737  20.309  1.00  0.00     0.000 C 
BRANCH   6   7
ATOM      7  C   UNL     1      14.392 -32.778  21.464  1.00  0.00     0.006 C 
BRANCH   7   8
ATOM      8  C   UNL     1      13.396 -31.683  21.059  1.00  0.00     0.053 C 
BRANCH   8   9
ATOM      9  C   UNL     1      12.768 -31.075  22.273  1.00  0.00     0.041 C 
ATOM     10  O   UNL     1      13.198 -31.362  23.421  1.00  0.00    -0.550 OA
ATOM     11  O   UNL     1      11.675 -30.227  22.139  1.00  0.00    -0.550 OA
ENDBRANCH   8   9
ENDBRANCH   7   8
ENDBRANCH   6   7
ENDBRANCH   5   6
ENDBRANCH   4   5
ENDBRANCH   3   4
ENDBRANCH   2   3
ENDBRANCH   1   2
BRANCH   1  12
ATOM     12  C   UNL     1      17.707 -31.341  20.813  1.00  0.00     0.000 C 
BRANCH  12  13
ATOM     13  C   UNL     1      17.901 -30.472  22.068  1.00  0.00    -0.000 C 
BRANCH  13  14
ATOM     14  C   UNL     1      16.935 -30.852  23.202  1.00  0.00    -0.000 C 
BRANCH  14  15
ATOM     15  C   UNL     1      17.517 -31.920  24.141  1.00  0.00    -0.000 C 
BRANCH  15  16
ATOM     16  C   UNL     1      16.590 -33.143  24.223  1.00  0.00    -0.000 C 
BRANCH  16  17
ATOM     17  C   UNL     1      17.266 -34.362  24.868  1.00  0.00    -0.000 C 
BRANCH  17  18
ATOM     18  C   UNL     1      17.454 -35.527  23.881  1.00  0.00    -0.000 C 
BRANCH  18  19
ATOM     19  C   UNL     1      18.923 -35.960  23.754  1.00  0.00    -0.003 C 
ATOM     20  C   UNL     1      19.119 -37.113  22.769  1.00  0.00     0.004 C 
ENDBRANCH  18  19
ENDBRANCH  17  18
ENDBRANCH  16  17
ENDBRANCH  15  16
ENDBRANCH  14  15
ENDBRANCH  13  14
ENDBRANCH  12  13
ENDBRANCH   1  12
TORSDOF 16
ENDMDL
MODEL 4
REMARK VINA RESULT:    -4.435      2.521      5.433
REMARK INTER + INTRA:         -11.369
REMARK INTER:                  -8.668
REMARK INTRA:                  -2.701
REMARK UNBOUND:                -2.785
REMARK SMILES CCCCCCCCCCCCCCCCCC(=O)[O-]
REMARK SMILES IDX 10 1 11 2 12 3 13 4 14 5 15 6 16 7 17 8 18 9 19 10 20 11
REMARK SMILES IDX 9 12 8 13 7 14 6 15 5 16 4 17 3 18 2 19 1 20
REMARK H PARENT
REMARK Flexibility Score: inf
ROOT
ATOM      1  C   UNL     1      14.850 -33.629  23.868  1.00  0.00     0.000 C 
ENDROOT
BRANCH   1   2
ATOM      2  C   UNL     1      13.937 -32.497  24.370  1.00  0.00     0.000 C 
BRANCH   2   3
ATOM      3  C   UNL     1      13.440 -31.580  23.242  1.00  0.00     0.000 C 
BRANCH   3   4
ATOM      4  C   UNL     1      13.563 -30.101  23.644  1.00  0.00     0.000 C 
BRANCH   4   5
ATOM      5  C   UNL     1      14.493 -29.310  22.710  1.00  0.00     0.000 C 
BRANCH   5   6
ATOM      6  C   UNL     1      15.267 -30.220  21.740  1.00  0.00     0.000 C 
BRANCH   6   7
ATOM      7  C   UNL     1      16.743 -30.386  22.136  1.00  0.00     0.006 C 
BRANCH   7   8
ATOM      8  C   UNL     1      17.563 -31.137  21.078  1.00  0.00     0.053 C 
BRANCH   8   9
ATOM      9  C   UNL     1      18.966 -31.344  21.555  1.00  0.00     0.041 C 
ATOM     10  O   UNL     1      19.809 -31.917  20.816  1.00  0.00    -0.550 OA
ATOM     11  O   UNL     1      19.330 -30.946  22.836  1.00  0.00    -0.550 OA
ENDBRANCH   8   9
ENDBRANCH   7   8
ENDBRANCH   6   7
ENDBRANCH   5   6
ENDBRANCH   4   5
ENDBRANCH   3   4
ENDBRANCH   2   3
ENDBRANCH   1   2
BRANCH   1  12
ATOM     12  C   UNL     1      16.356 -33.406  24.095  1.00  0.00     0.000 C 
BRANCH  12  13
ATOM     13  C   UNL     1      17.171 -34.709  24.028  1.00  0.00    -0.000 C 
BRANCH  13  14
ATOM     14  C   UNL     1      18.089 -34.767  22.795  1.00  0.00    -0.000 C 
BRANCH  14  15
ATOM     15  C   UNL     1      18.252 -36.192  22.247  1.00  0.00    -0.000 C 
BRANCH  15  16
ATOM     16  C   UNL     1      17.927 -36.242  20.745  1.00  0.00    -0.000 C 
BRANCH  16  17
ATOM     17  C   UNL     1      18.103 -34.883  20.051  1.00  0.00    -0.000 C 
BRANCH  17  18
ATOM     18  C   UNL     1      16.834 -34.425  19.312  1.00  0.00    -0.000 C 
BRANCH  18  19
ATOM     19  C   UNL     1      15.548 -34.787  20.072  1.00  0.00    -0.003 C 
ATOM     20  C   UNL     1      14.627 -33.585  20.286  1.00  0.00     0.004 C 
ENDBRANCH  18  19
ENDBRANCH  17  18
ENDBRANCH  16  17
ENDBRANCH  15  16
ENDBRANCH  14  15
ENDBRANCH  13  14
ENDBRANCH  12  13
ENDBRANCH   1  12
TORSDOF 16
ENDMDL
MODEL 5
REMARK VINA RESULT:    -4.421      1.836      3.799
REMARK INTER + INTRA:         -11.340
REMARK INTER:                  -8.315
REMARK INTRA:                  -3.025
REMARK UNBOUND:                -2.785
REMARK SMILES CCCCCCCCCCCCCCCCCC(=O)[O-]
REMARK SMILES IDX 10 1 11 2 12 3 13 4 14 5 15 6 16 7 17 8 18 9 19 10 20 11
REMARK SMILES IDX 9 12 8 13 7 14 6 15 5 16 4 17 3 18 2 19 1 20
REMARK H PARENT
REMARK Flexibility Score: inf
ROOT
ATOM      1  C   UNL     1      18.540 -33.163  20.410  1.00  0.00     0.000 C 
ENDROOT
BRANCH   1   2
ATOM      2  C   UNL     1      17.991 -31.737  20.600  1.00  0.00     0.000 C 
BRANCH   2   3
ATOM      3  C   UNL     1      17.868 -31.334  22.077  1.00  0.00     0.000 C 
BRANCH   3   4
ATOM      4  C   UNL     1      17.402 -32.523  22.934  1.00  0.00     0.000 C 
BRANCH   4   5
ATOM      5  C   UNL     1      15.978 -32.335  23.483  1.00  0.00     0.000 C 
BRANCH   5   6
ATOM      6  C   UNL     1      14.959 -33.269  22.806  1.00  0.00     0.000 C 
BRANCH   6   7
ATOM      7  C   UNL     1      14.290 -32.625  21.582  1.00  0.00     0.006 C 
BRANCH   7   8
ATOM      8  C   UNL     1      14.193 -31.097  21.691  1.00  0.00     0.053 C 
BRANCH   8   9
ATOM      9  C   UNL     1      12.948 -30.704  22.422  1.00  0.00     0.041 C 
ATOM     10  O   UNL     1      11.833 -30.740  21.840  1.00  0.00    -0.550 OA
ATOM     11  O   UNL     1      13.027 -30.251  23.733  1.00  0.00    -0.550 OA
ENDBRANCH   8   9
ENDBRANCH   7   8
ENDBRANCH   6   7
ENDBRANCH   5   6
ENDBRANCH   4   5
ENDBRANCH   3   4
ENDBRANCH   2   3
ENDBRANCH   1   2
BRANCH   1  12
ATOM     12  C   UNL     1      18.021 -33.904  19.165  1.00  0.00     0.000 C 
BRANCH  12  13
ATOM     13  C   UNL     1      16.580 -34.415  19.328  1.00  0.00    -0.000 C 
BRANCH  13  14
ATOM     14  C   UNL     1      16.461 -35.507  20.404  1.00  0.00    -0.000 C 
BRANCH  14  15
ATOM     15  C   UNL     1      17.381 -36.707  20.133  1.00  0.00    -0.000 C 
BRANCH  15  16
ATOM     16  C   UNL     1      18.283 -36.991  21.344  1.00  0.00    -0.000 C 
BRANCH  16  17
ATOM     17  C   UNL     1      17.991 -36.065  22.535  1.00  0.00    -0.000 C 
BRANCH  17  18
ATOM     18  C   UNL     1      19.236 -35.799  23.399  1.00  0.00    -0.000 C 
BRANCH  18  19
ATOM     19  C   UNL     1      20.453 -35.374  22.562  1.00  0.00    -0.003 C 
ATOM     20  C   UNL     1      20.989 -33.996  22.951  1.00  0.00     0.004 C 
ENDBRANCH  18  19
ENDBRANCH  17  18
ENDBRANCH  16  17
ENDBRANCH  15  16
ENDBRANCH  14  15
ENDBRANCH  13  14
ENDBRANCH  12  13
ENDBRANCH   1  12
TORSDOF 16
ENDMDL
MODEL 6
REMARK VINA RESULT:    -4.415      3.111      5.696
REMARK INTER + INTRA:         -11.330
REMARK INTER:                  -9.173
REMARK INTRA:                  -2.156
REMARK UNBOUND:                -2.785
REMARK SMILES CCCCCCCCCCCCCCCCCC(=O)[O-]
REMARK SMILES IDX 10 1 11 2 12 3 13 4 14 5 15 6 16 7 17 8 18 9 19 10 20 11
REMARK SMILES IDX 9 12 8 13 7 14 6 15 5 16 4 17 3 18 2 19 1 20
REMARK H PARENT
REMARK Flexibility Score: inf
ROOT
ATOM      1  C   UNL     1      13.487 -30.976  22.297  1.00  0.00     0.000 C 
ENDROOT
BRANCH   1   2
ATOM      2  C   UNL     1      14.643 -30.587  21.359  1.00  0.00     0.000 C 
BRANCH   2   3
ATOM      3  C   UNL     1      15.672 -29.661  22.025  1.00  0.00     0.000 C 
BRANCH   3   4
ATOM      4  C   UNL     1      17.093 -30.231  21.888  1.00  0.00     0.000 C 
BRANCH   4   5
ATOM      5  C   UNL     1      17.098 -31.711  21.474  1.00  0.00     0.000 C 
BRANCH   5   6
ATOM      6  C   UNL     1      18.306 -32.070  20.589  1.00  0.00     0.000 C 
BRANCH   6   7
ATOM      7  C   UNL     1      18.440 -33.584  20.359  1.00  0.00     0.006 C 
BRANCH   7   8
ATOM      8  C   UNL     1      17.650 -34.073  19.138  1.00  0.00     0.053 C 
BRANCH   8   9
ATOM      9  C   UNL     1      16.867 -35.301  19.481  1.00  0.00     0.041 C 
ATOM     10  O   UNL     1      15.694 -35.200  19.929  1.00  0.00    -0.550 OA
ATOM     11  O   UNL     1      17.449 -36.555  19.351  1.00  0.00    -0.550 OA
ENDBRANCH   8   9
ENDBRANCH   7   8
ENDBRANCH   6   7
ENDBRANCH   5   6
ENDBRANCH   4   5
ENDBRANCH   3   4
ENDBRANCH   2   3
ENDBRANCH   1   2
BRANCH   1  12
ATOM     12  C   UNL     1      13.862 -31.098  23.784  1.00  0.00     0.000 C 
BRANCH  12  13
ATOM     13  C   UNL     1      13.836 -32.550  24.291  1.00  0.00    -0.000 C 
BRANCH  13  14
ATOM     14  C   UNL     1      15.238 -33.180  24.346  1.00  0.00    -0.000 C 
BRANCH  14  15
ATOM     15  C   UNL     1      15.504 -34.132  23.170  1.00  0.00    -0.000 C 
BRANCH  15  16
ATOM     16  C   UNL     1      16.783 -34.950  23.405  1.00  0.00    -0.000 C 
BRANCH  16  17
ATOM     17  C   UNL     1      17.674 -34.360  24.509  1.00  0.00    -0.000 C 
BRANCH  17  18
ATOM     18  C   UNL     1      18.210 -35.431  25.475  1.00  0.00    -0.000 C 
BRANCH  18  19
ATOM     19  C   UNL     1      17.111 -36.390  25.959  1.00  0.00    -0.003 C 
ATOM     20  C   UNL     1      17.672 -37.677  26.565  1.00  0.00     0.004 C 
ENDBRANCH  18  19
ENDBRANCH  17  18
ENDBRANCH  16  17
ENDBRANCH  15  16
ENDBRANCH  14  15
ENDBRANCH  13  14
ENDBRANCH  12  13
ENDBRANCH   1  12
TORSDOF 16
ENDMDL
MODEL 7
REMARK VINA RESULT:    -4.411      3.060      5.659
REMARK INTER + INTRA:         -11.322
REMARK INTER:                  -8.788
REMARK INTRA:                  -2.534
REMARK UNBOUND:                -2.785
REMARK SMILES CCCCCCCCCCCCCCCCCC(=O)[O-]
REMARK SMILES IDX 10 1 11 2 12 3 13 4 14 5 15 6 16 7 17 8 18 9 19 10 20 11
REMARK SMILES IDX 9 12 8 13 7 14 6 15 5 16 4 17 3 18 2 19 1 20
REMARK H PARENT
REMARK Flexibility Score: inf
ROOT
ATOM      1  C   UNL     1      17.420 -33.567  20.438  1.00  0.00     0.000 C 
ENDROOT
BRANCH   1   2
ATOM      2  C   UNL     1      18.466 -32.534  20.895  1.00  0.00     0.000 C 
BRANCH   2   3
ATOM      3  C   UNL     1      17.936 -31.092  20.870  1.00  0.00     0.000 C 
BRANCH   3   4
ATOM      4  C   UNL     1      17.877 -30.505  22.290  1.00  0.00     0.000 C 
BRANCH   4   5
ATOM      5  C   UNL     1      18.518 -31.429  23.338  1.00  0.00     0.000 C 
BRANCH   5   6
ATOM      6  C   UNL     1      17.488 -31.996  24.332  1.00  0.00     0.000 C 
BRANCH   6   7
ATOM      7  C   UNL     1      17.947 -33.318  24.969  1.00  0.00     0.006 C 
BRANCH   7   8
ATOM      8  C   UNL     1      16.777 -34.242  25.329  1.00  0.00     0.053 C 
BRANCH   8   9
ATOM      9  C   UNL     1      17.220 -35.671  25.324  1.00  0.00     0.041 C 
ATOM     10  O   UNL     1      16.871 -36.447  26.253  1.00  0.00    -0.550 OA
ATOM     11  O   UNL     1      18.059 -36.135  24.319  1.00  0.00    -0.550 OA
ENDBRANCH   8   9
ENDBRANCH   7   8
ENDBRANCH   6   7
ENDBRANCH   5   6
ENDBRANCH   4   5
ENDBRANCH   3   4
ENDBRANCH   2   3
ENDBRANCH   1   2
BRANCH   1  12
ATOM     12  C   UNL     1      16.812 -34.425  21.562  1.00  0.00     0.000 C 
BRANCH  12  13
ATOM     13  C   UNL     1      15.367 -34.026  21.906  1.00  0.00    -0.000 C 
BRANCH  13  14
ATOM     14  C   UNL     1      14.665 -33.298  20.747  1.00  0.00    -0.000 C 
BRANCH  14  15
ATOM     15  C   UNL     1      13.879 -32.063  21.214  1.00  0.00    -0.000 C 
BRANCH  15  16
ATOM     16  C   UNL     1      14.458 -31.510  22.526  1.00  0.00    -0.000 C 
BRANCH  16  17
ATOM     17  C   UNL     1      13.375 -31.202  23.572  1.00  0.00    -0.000 C 
BRANCH  17  18
ATOM     18  C   UNL     1      12.690 -29.844  23.334  1.00  0.00    -0.000 C 
BRANCH  18  19
ATOM     19  C   UNL     1      13.674 -28.667  23.414  1.00  0.00    -0.003 C 
ATOM     20  C   UNL     1      13.038 -27.400  23.987  1.00  0.00     0.004 C 
ENDBRANCH  18  19
ENDBRANCH  17  18
ENDBRANCH  16  17
ENDBRANCH  15  16
ENDBRANCH  14  15
ENDBRANCH  13  14
ENDBRANCH  12  13
ENDBRANCH   1  12
TORSDOF 16
ENDMDL
MODEL 8
REMARK VINA RESULT:    -4.375      1.119      2.677
REMARK INTER + INTRA:         -11.251
REMARK INTER:                  -8.848
REMARK INTRA:                  -2.404
REMARK UNBOUND:                -2.785
REMARK SMILES CCCCCCCCCCCCCCCCCC(=O)[O-]
REMARK SMILES IDX 10 1 11 2 12 3 13 4 14 5 15 6 16 7 17 8 18 9 19 10 20 11
REMARK SMILES IDX 9 12 8 13 7 14 6 15 5 16 4 17 3 18 2 19 1 20
REMARK H PARENT
REMARK Flexibility Score: inf
ROOT
ATOM      1  C   UNL     1      16.908 -34.592  19.884  1.00  0.00     0.000 C 
ENDROOT
BRANCH   1   2
ATOM      2  C   UNL     1      15.523 -34.745  20.537  1.00  0.00     0.000 C 
BRANCH   2   3
ATOM      3  C   UNL     1      14.535 -33.647  20.115  1.00  0.00     0.000 C 
BRANCH   3   4
ATOM      4  C   UNL     1      14.172 -32.748  21.308  1.00  0.00     0.000 C 
BRANCH   4   5
ATOM      5  C   UNL     1      13.286 -31.558  20.904  1.00  0.00     0.000 C 
BRANCH   5   6
ATOM      6  C   UNL     1      12.462 -31.011  22.083  1.00  0.00     0.000 C 
BRANCH   6   7
ATOM      7  C   UNL     1      13.344 -30.500  23.234  1.00  0.00     0.006 C 
BRANCH   7   8
ATOM      8  C   UNL     1      13.664 -29.004  23.119  1.00  0.00     0.053 C 
BRANCH   8   9
ATOM      9  C   UNL     1      12.720 -28.203  23.960  1.00  0.00     0.041 C 
ATOM     10  O   UNL     1      11.478 -28.389  23.872  1.00  0.00    -0.550 OA
ATOM     11  O   UNL     1      13.210 -27.216  24.806  1.00  0.00    -0.550 OA
ENDBRANCH   8   9
ENDBRANCH   7   8
ENDBRANCH   6   7
ENDBRANCH   5   6
ENDBRANCH   4   5
ENDBRANCH   3   4
ENDBRANCH   2   3
ENDBRANCH   1   2
BRANCH   1  12
ATOM     12  C   UNL     1      17.950 -35.645  20.301  1.00  0.00     0.000 C 
BRANCH  12  13
ATOM     13  C   UNL     1      17.969 -35.901  21.818  1.00  0.00    -0.000 C 
BRANCH  13  14
ATOM     14  C   UNL     1      18.626 -34.752  22.601  1.00  0.00    -0.000 C 
BRANCH  14  15
ATOM     15  C   UNL     1      17.859 -34.397  23.884  1.00  0.00    -0.000 C 
BRANCH  15  16
ATOM     16  C   UNL     1      16.859 -33.258  23.627  1.00  0.00    -0.000 C 
BRANCH  16  17
ATOM     17  C   UNL     1      17.446 -31.871  23.927  1.00  0.00    -0.000 C 
BRANCH  17  18
ATOM     18  C   UNL     1      17.061 -30.822  22.868  1.00  0.00    -0.000 C 
BRANCH  18  19
ATOM     19  C   UNL     1      17.340 -31.302  21.436  1.00  0.00    -0.003 C 
ATOM     20  C   UNL     1      18.832 -31.329  21.099  1.00  0.00     0.004 C 
ENDBRANCH  18  19
ENDBRANCH  17  18
ENDBRANCH  16  17
ENDBRANCH  15  16
ENDBRANCH  14  15
ENDBRANCH  13  14
ENDBRANCH  12  13
ENDBRANCH   1  12
TORSDOF 16
ENDMDL
MODEL 9
REMARK VINA RESULT:    -4.340      3.423      5.537
REMARK INTER + INTRA:         -11.184
REMARK INTER:                  -8.429
REMARK INTRA:                  -2.755
REMARK UNBOUND:                -2.785
REMARK SMILES CCCCCCCCCCCCCCCCCC(=O)[O-]
REMARK SMILES IDX 10 1 11 2 12 3 13 4 14 5 15 6 16 7 17 8 18 9 19 10 20 11
REMARK SMILES IDX 9 12 8 13 7 14 6 15 5 16 4 17 3 18 2 19 1 20
REMARK H PARENT
REMARK Flexibility Score: inf
ROOT
ATOM      1  C   UNL     1      15.370 -34.727  20.182  1.00  0.00     0.000 C 
ENDROOT
BRANCH   1   2
ATOM      2  C   UNL     1      16.532 -34.389  19.230  1.00  0.00     0.000 C 
BRANCH   2   3
ATOM      3  C   UNL     1      17.835 -35.117  19.592  1.00  0.00     0.000 C 
BRANCH   3   4
ATOM      4  C   UNL     1      17.590 -36.624  19.770  1.00  0.00     0.000 C 
BRANCH   4   5
ATOM      5  C   UNL     1      18.035 -37.137  21.149  1.00  0.00     0.000 C 
BRANCH   5   6
ATOM      6  C   UNL     1      18.656 -36.028  22.018  1.00  0.00     0.000 C 
BRANCH   6   7
ATOM      7  C   UNL     1      17.720 -35.571  23.149  1.00  0.00     0.006 C 
BRANCH   7   8
ATOM      8  C   UNL     1      18.440 -35.433  24.497  1.00  0.00     0.053 C 
BRANCH   8   9
ATOM      9  C   UNL     1      18.184 -36.636  25.349  1.00  0.00     0.041 C 
ATOM     10  O   UNL     1      18.876 -37.677  25.200  1.00  0.00    -0.550 OA
ATOM     11  O   UNL     1      17.150 -36.624  26.277  1.00  0.00    -0.550 OA
ENDBRANCH   8   9
ENDBRANCH   7   8
ENDBRANCH   6   7
ENDBRANCH   5   6
ENDBRANCH   4   5
ENDBRANCH   3   4
ENDBRANCH   2   3
ENDBRANCH   1   2
BRANCH   1  12
ATOM     12  C   UNL     1      15.169 -33.740  21.346  1.00  0.00     0.000 C 
BRANCH  12  13
ATOM     13  C   UNL     1      14.259 -32.556  20.977  1.00  0.00    -0.000 C 
BRANCH  13  14
ATOM     14  C   UNL     1      13.715 -31.823  22.215  1.00  0.00    -0.000 C 
BRANCH  14  15
ATOM     15  C   UNL     1      14.788 -31.606  23.292  1.00  0.00    -0.000 C 
BRANCH  15  16
ATOM     16  C   UNL     1      15.418 -30.210  23.164  1.00  0.00    -0.000 C 
BRANCH  16  17
ATOM     17  C   UNL     1      16.951 -30.255  23.061  1.00  0.00    -0.000 C 
BRANCH  17  18
ATOM     18  C   UNL     1      17.516 -31.674  23.247  1.00  0.00    -0.000 C 
BRANCH  18  19
ATOM     19  C   UNL     1      18.405 -32.111  22.072  1.00  0.00    -0.003 C 
ATOM     20  C   UNL     1      18.063 -31.389  20.768  1.00  0.00     0.004 C 
ENDBRANCH  18  19
ENDBRANCH  17  18
ENDBRANCH  16  17
ENDBRANCH  15  16
ENDBRANCH  14  15
ENDBRANCH  13  14
ENDBRANCH  12  13
ENDBRANCH   1  12
TORSDOF 16
ENDMDL
