MODEL 1
REMARK VINA RESULT:    -4.321      0.000      0.000
REMARK INTER + INTRA:          -9.914
REMARK INTER:                  -8.110
REMARK INTRA:                  -1.804
REMARK UNBOUND:                -1.804
REMARK SMILES O=C([O-])CCCCCCCCCCCCCCC(=O)[O-]
REMARK SMILES IDX 10 1 9 2 8 3 7 4 6 5 5 6 4 7 2 8 1 9 3 10 11 11 12 12 13 13
REMARK SMILES IDX 14 14 15 15 16 16 17 17 18 18 19 19 20 20
REMARK H PARENT
REMARK Flexibility Score: inf
ROOT
ATOM      1  C   UNL     1     -23.259  -9.263  -4.519  1.00  0.00     0.000 C 
ENDROOT
BRANCH   1   2
ATOM      2  C   UNL     1     -24.502  -9.454  -5.404  1.00  0.00     0.000 C 
BRANCH   2   3
ATOM      3  C   UNL     1     -24.473  -8.584  -6.673  1.00  0.00     0.000 C 
BRANCH   3   4
ATOM      4  C   UNL     1     -23.786  -7.211  -6.516  1.00  0.00     0.000 C 
BRANCH   4   5
ATOM      5  C   UNL     1     -24.708  -5.994  -6.712  1.00  0.00     0.000 C 
BRANCH   5   6
ATOM      6  C   UNL     1     -26.200  -6.361  -6.648  1.00  0.00     0.006 C 
BRANCH   6   7
ATOM      7  C   UNL     1     -26.945  -5.561  -5.572  1.00  0.00     0.053 C 
BRANCH   7   8
ATOM      8  C   UNL     1     -26.386  -5.815  -4.205  1.00  0.00     0.041 C 
ATOM      9  O   UNL     1     -26.082  -4.851  -3.455  1.00  0.00    -0.550 OA
ATOM     10  O   UNL     1     -26.238  -7.118  -3.745  1.00  0.00    -0.550 OA
ENDBRANCH   7   8
ENDBRANCH   6   7
ENDBRANCH   5   6
ENDBRANCH   4   5
ENDBRANCH   3   4
ENDBRANCH   2   3
ENDBRANCH   1   2
BRANCH   1  11
ATOM     11  C   UNL     1     -22.582 -10.593  -4.144  1.00  0.00     0.000 C 
BRANCH  11  12
ATOM     12  C   UNL     1     -21.376 -10.992  -5.020  1.00  0.00     0.000 C 
BRANCH  12  13
ATOM     13  C   UNL     1     -21.693 -11.229  -6.508  1.00  0.00     0.000 C 
BRANCH  13  14
ATOM     14  C   UNL     1     -20.696 -10.530  -7.448  1.00  0.00     0.000 C 
BRANCH  14  15
ATOM     15  C   UNL     1     -20.563  -9.026  -7.155  1.00  0.00     0.000 C 
BRANCH  15  16
ATOM     16  C   UNL     1     -19.204  -8.659  -6.541  1.00  0.00     0.006 C 
BRANCH  16  17
ATOM     17  C   UNL     1     -18.147  -9.716  -6.878  1.00  0.00     0.053 C 
BRANCH  17  18
ATOM     18  C   UNL     1     -17.463 -10.188  -5.636  1.00  0.00     0.041 C 
ATOM     19  O   UNL     1     -17.757 -11.304  -5.134  1.00  0.00    -0.550 OA
ATOM     20  O   UNL     1     -16.532  -9.373  -5.003  1.00  0.00    -0.550 OA
ENDBRANCH  17  18
ENDBRANCH  16  17
ENDBRANCH  15  16
ENDBRANCH  14  15
ENDBRANCH  13  14
ENDBRANCH  12  13
ENDBRANCH  11  12
ENDBRANCH   1  11
TORSDOF 15
ENDMDL
MODEL 2
REMARK VINA RESULT:    -4.264      1.115      7.218
REMARK INTER + INTRA:          -9.807
REMARK INTER:                  -7.742
REMARK INTRA:                  -2.065
REMARK UNBOUND:                -1.804
REMARK SMILES O=C([O-])CCCCCCCCCCCCCCC(=O)[O-]
REMARK SMILES IDX 10 1 9 2 8 3 7 4 6 5 5 6 4 7 2 8 1 9 3 10 11 11 12 12 13 13
REMARK SMILES IDX 14 14 15 15 16 16 17 17 18 18 19 19 20 20
REMARK H PARENT
REMARK Flexibility Score: inf
ROOT
ATOM      1  C   UNL     1     -23.175  -8.974  -4.072  1.00  0.00     0.000 C 
ENDROOT
BRANCH   1   2
ATOM      2  C   UNL     1     -22.123 -10.011  -3.647  1.00  0.00     0.000 C 
BRANCH   2   3
ATOM      3  C   UNL     1     -22.186 -11.302  -4.482  1.00  0.00     0.000 C 
BRANCH   3   4
ATOM      4  C   UNL     1     -21.044 -11.485  -5.503  1.00  0.00     0.000 C 
BRANCH   4   5
ATOM      5  C   UNL     1     -21.410 -11.142  -6.959  1.00  0.00     0.000 C 
BRANCH   5   6
ATOM      6  C   UNL     1     -20.907  -9.753  -7.389  1.00  0.00     0.006 C 
BRANCH   6   7
ATOM      7  C   UNL     1     -19.820  -9.217  -6.449  1.00  0.00     0.053 C 
BRANCH   7   8
ATOM      8  C   UNL     1     -18.466  -9.251  -7.089  1.00  0.00     0.041 C 
ATOM      9  O   UNL     1     -18.245 -10.017  -8.065  1.00  0.00    -0.550 OA
ATOM     10  O   UNL     1     -17.459  -8.409  -6.634  1.00  0.00    -0.550 OA
ENDBRANCH   7   8
ENDBRANCH   6   7
ENDBRANCH   5   6
ENDBRANCH   4   5
ENDBRANCH   3   4
ENDBRANCH   2   3
ENDBRANCH   1   2
BRANCH   1  11
ATOM     11  C   UNL     1     -24.213  -9.543  -5.055  1.00  0.00     0.000 C 
BRANCH  11  12
ATOM     12  C   UNL     1     -24.337  -8.790  -6.396  1.00  0.00     0.000 C 
BRANCH  12  13
ATOM     13  C   UNL     1     -23.644  -7.416  -6.446  1.00  0.00     0.000 C 
BRANCH  13  14
ATOM     14  C   UNL     1     -24.260  -6.476  -7.496  1.00  0.00     0.000 C 
BRANCH  14  15
ATOM     15  C   UNL     1     -25.212  -5.440  -6.877  1.00  0.00     0.000 C 
BRANCH  15  16
ATOM     16  C   UNL     1     -26.626  -5.995  -6.647  1.00  0.00     0.006 C 
BRANCH  16  17
ATOM     17  C   UNL     1     -27.216  -5.460  -5.338  1.00  0.00     0.053 C 
BRANCH  17  18
ATOM     18  C   UNL     1     -26.382  -5.887  -4.173  1.00  0.00     0.041 C 
ATOM     19  O   UNL     1     -26.219  -7.111  -3.925  1.00  0.00    -0.550 OA
ATOM     20  O   UNL     1     -25.823  -4.934  -3.332  1.00  0.00    -0.550 OA
ENDBRANCH  17  18
ENDBRANCH  16  17
ENDBRANCH  15  16
ENDBRANCH  14  15
ENDBRANCH  13  14
ENDBRANCH  12  13
ENDBRANCH  11  12
ENDBRANCH   1  11
TORSDOF 15
ENDMDL
MODEL 3
REMARK VINA RESULT:    -4.187      1.727      2.717
REMARK INTER + INTRA:          -9.663
REMARK INTER:                  -7.716
REMARK INTRA:                  -1.947
REMARK UNBOUND:                -1.804
REMARK SMILES O=C([O-])CCCCCCCCCCCCCCC(=O)[O-]
REMARK SMILES IDX 10 1 9 2 8 3 7 4 6 5 5 6 4 7 2 8 1 9 3 10 11 11 12 12 13 13
REMARK SMILES IDX 14 14 15 15 16 16 17 17 18 18 19 19 20 20
REMARK H PARENT
REMARK Flexibility Score: inf
ROOT
ATOM      1  C   UNL     1     -24.497  -8.843  -6.362  1.00  0.00     0.000 C 
ENDROOT
BRANCH   1   2
ATOM      2  C   UNL     1     -23.750  -7.521  -6.601  1.00  0.00     0.000 C 
BRANCH   2   3
ATOM      3  C   UNL     1     -24.636  -6.442  -7.247  1.00  0.00     0.000 C 
BRANCH   3   4
ATOM      4  C   UNL     1     -26.129  -6.494  -6.859  1.00  0.00     0.000 C 
BRANCH   4   5
ATOM      5  C   UNL     1     -26.561  -5.474  -5.790  1.00  0.00     0.000 C 
BRANCH   5   6
ATOM      6  C   UNL     1     -26.651  -6.088  -4.382  1.00  0.00     0.006 C 
BRANCH   6   7
ATOM      7  C   UNL     1     -25.338  -5.941  -3.603  1.00  0.00     0.053 C 
BRANCH   7   8
ATOM      8  C   UNL     1     -24.908  -4.509  -3.506  1.00  0.00     0.041 C 
ATOM      9  O   UNL     1     -25.544  -3.704  -2.775  1.00  0.00    -0.550 OA
ATOM     10  O   UNL     1     -23.781  -4.073  -4.191  1.00  0.00    -0.550 OA
ENDBRANCH   7   8
ENDBRANCH   6   7
ENDBRANCH   5   6
ENDBRANCH   4   5
ENDBRANCH   3   4
ENDBRANCH   2   3
ENDBRANCH   1   2
BRANCH   1  11
ATOM     11  C   UNL     1     -24.452  -9.297  -4.892  1.00  0.00     0.000 C 
BRANCH  11  12
ATOM     12  C   UNL     1     -23.039  -9.466  -4.295  1.00  0.00     0.000 C 
BRANCH  12  13
ATOM     13  C   UNL     1     -22.535 -10.917  -4.196  1.00  0.00     0.000 C 
BRANCH  13  14
ATOM     14  C   UNL     1     -21.345 -11.199  -5.129  1.00  0.00     0.000 C 
BRANCH  14  15
ATOM     15  C   UNL     1     -21.762 -11.299  -6.606  1.00  0.00     0.000 C 
BRANCH  15  16
ATOM     16  C   UNL     1     -21.094 -10.230  -7.485  1.00  0.00     0.006 C 
BRANCH  16  17
ATOM     17  C   UNL     1     -19.720  -9.845  -6.929  1.00  0.00     0.053 C 
BRANCH  17  18
ATOM     18  C   UNL     1     -18.905  -9.156  -7.976  1.00  0.00     0.041 C 
ATOM     19  O   UNL     1     -19.131  -7.952  -8.266  1.00  0.00    -0.550 OA
ATOM     20  O   UNL     1     -17.926  -9.859  -8.668  1.00  0.00    -0.550 OA
ENDBRANCH  17  18
ENDBRANCH  16  17
ENDBRANCH  15  16
ENDBRANCH  14  15
ENDBRANCH  13  14
ENDBRANCH  12  13
ENDBRANCH  11  12
ENDBRANCH   1  11
TORSDOF 15
ENDMDL
MODEL 4
REMARK VINA RESULT:    -4.179      2.001      7.526
REMARK INTER + INTRA:          -9.648
REMARK INTER:                  -7.519
REMARK INTRA:                  -2.129
REMARK UNBOUND:                -1.804
REMARK SMILES O=C([O-])CCCCCCCCCCCCCCC(=O)[O-]
REMARK SMILES IDX 10 1 9 2 8 3 7 4 6 5 5 6 4 7 2 8 1 9 3 10 11 11 12 12 13 13
REMARK SMILES IDX 14 14 15 15 16 16 17 17 18 18 19 19 20 20
REMARK H PARENT
REMARK Flexibility Score: inf
ROOT
ATOM      1  C   UNL     1     -24.407  -6.486  -7.226  1.00  0.00     0.000 C 
ENDROOT
BRANCH   1   2
ATOM      2  C   UNL     1     -23.578  -7.659  -6.675  1.00  0.00     0.000 C 
BRANCH   2   3
ATOM      3  C   UNL     1     -24.417  -8.929  -6.450  1.00  0.00     0.000 C 
BRANCH   3   4
ATOM      4  C   UNL     1     -24.170  -9.655  -5.111  1.00  0.00     0.000 C 
BRANCH   4   5
ATOM      5  C   UNL     1     -22.774  -9.437  -4.499  1.00  0.00     0.000 C 
BRANCH   5   6
ATOM      6  C   UNL     1     -21.956 -10.736  -4.402  1.00  0.00     0.006 C 
BRANCH   6   7
ATOM      7  C   UNL     1     -21.727 -11.377  -5.777  1.00  0.00     0.053 C 
BRANCH   7   8
ATOM      8  C   UNL     1     -20.864 -10.519  -6.652  1.00  0.00     0.041 C 
ATOM      9  O   UNL     1     -19.719 -10.167  -6.265  1.00  0.00    -0.550 OA
ATOM     10  O   UNL     1     -21.310 -10.142  -7.913  1.00  0.00    -0.550 OA
ENDBRANCH   7   8
ENDBRANCH   6   7
ENDBRANCH   5   6
ENDBRANCH   4   5
ENDBRANCH   3   4
ENDBRANCH   2   3
ENDBRANCH   1   2
BRANCH   1  11
ATOM     11  C   UNL     1     -25.909  -6.620  -6.919  1.00  0.00     0.000 C 
BRANCH  11  12
ATOM     12  C   UNL     1     -26.546  -5.418  -6.190  1.00  0.00     0.000 C 
BRANCH  12  13
ATOM     13  C   UNL     1     -26.987  -5.686  -4.739  1.00  0.00     0.000 C 
BRANCH  13  14
ATOM     14  C   UNL     1     -26.169  -6.801  -4.064  1.00  0.00     0.000 C 
BRANCH  14  15
ATOM     15  C   UNL     1     -25.236  -6.267  -2.966  1.00  0.00     0.000 C 
BRANCH  15  16
ATOM     16  C   UNL     1     -24.252  -5.207  -3.485  1.00  0.00     0.006 C 
BRANCH  16  17
ATOM     17  C   UNL     1     -24.109  -4.056  -2.484  1.00  0.00     0.053 C 
BRANCH  17  18
ATOM     18  C   UNL     1     -25.245  -3.095  -2.625  1.00  0.00     0.041 C 
ATOM     19  O   UNL     1     -25.917  -2.754  -1.616  1.00  0.00    -0.550 OA
ATOM     20  O   UNL     1     -25.594  -2.611  -3.880  1.00  0.00    -0.550 OA
ENDBRANCH  17  18
ENDBRANCH  16  17
ENDBRANCH  15  16
ENDBRANCH  14  15
ENDBRANCH  13  14
ENDBRANCH  12  13
ENDBRANCH  11  12
ENDBRANCH   1  11
TORSDOF 15
ENDMDL
MODEL 5
REMARK VINA RESULT:    -4.161      2.528      3.993
REMARK INTER + INTRA:          -9.614
REMARK INTER:                  -7.888
REMARK INTRA:                  -1.727
REMARK UNBOUND:                -1.804
REMARK SMILES O=C([O-])CCCCCCCCCCCCCCC(=O)[O-]
REMARK SMILES IDX 10 1 9 2 8 3 7 4 6 5 5 6 4 7 2 8 1 9 3 10 11 11 12 12 13 13
REMARK SMILES IDX 14 14 15 15 16 16 17 17 18 18 19 19 20 20
REMARK H PARENT
REMARK Flexibility Score: inf
ROOT
ATOM      1  C   UNL     1     -24.720  -7.109  -6.295  1.00  0.00     0.000 C 
ENDROOT
BRANCH   1   2
ATOM      2  C   UNL     1     -25.999  -6.443  -6.829  1.00  0.00     0.000 C 
BRANCH   2   3
ATOM      3  C   UNL     1     -26.875  -5.849  -5.711  1.00  0.00     0.000 C 
BRANCH   3   4
ATOM      4  C   UNL     1     -26.443  -6.206  -4.274  1.00  0.00     0.000 C 
BRANCH   4   5
ATOM      5  C   UNL     1     -26.083  -5.003  -3.383  1.00  0.00     0.000 C 
BRANCH   5   6
ATOM      6  C   UNL     1     -24.835  -4.250  -3.874  1.00  0.00     0.006 C 
BRANCH   6   7
ATOM      7  C   UNL     1     -25.007  -2.729  -3.785  1.00  0.00     0.053 C 
BRANCH   7   8
ATOM      8  C   UNL     1     -25.731  -2.182  -4.978  1.00  0.00     0.041 C 
ATOM      9  O   UNL     1     -26.546  -1.230  -4.844  1.00  0.00    -0.550 OA
ATOM     10  O   UNL     1     -25.477  -2.696  -6.243  1.00  0.00    -0.550 OA
ENDBRANCH   7   8
ENDBRANCH   6   7
ENDBRANCH   5   6
ENDBRANCH   4   5
ENDBRANCH   3   4
ENDBRANCH   2   3
ENDBRANCH   1   2
BRANCH   1  11
ATOM     11  C   UNL     1     -24.761  -8.644  -6.390  1.00  0.00     0.000 C 
BRANCH  11  12
ATOM     12  C   UNL     1     -24.578  -9.395  -5.054  1.00  0.00     0.000 C 
BRANCH  12  13
ATOM     13  C   UNL     1     -23.357  -8.964  -4.219  1.00  0.00     0.000 C 
BRANCH  13  14
ATOM     14  C   UNL     1     -22.408 -10.133  -3.905  1.00  0.00     0.000 C 
BRANCH  14  15
ATOM     15  C   UNL     1     -22.179 -11.051  -5.116  1.00  0.00     0.000 C 
BRANCH  15  16
ATOM     16  C   UNL     1     -20.796 -10.854  -5.757  1.00  0.00     0.006 C 
BRANCH  16  17
ATOM     17  C   UNL     1     -20.902 -10.818  -7.285  1.00  0.00     0.053 C 
BRANCH  17  18
ATOM     18  C   UNL     1     -21.568  -9.558  -7.735  1.00  0.00     0.041 C 
ATOM     19  O   UNL     1     -22.349  -9.570  -8.723  1.00  0.00    -0.550 OA
ATOM     20  O   UNL     1     -21.289  -8.358  -7.093  1.00  0.00    -0.550 OA
ENDBRANCH  17  18
ENDBRANCH  16  17
ENDBRANCH  15  16
ENDBRANCH  14  15
ENDBRANCH  13  14
ENDBRANCH  12  13
ENDBRANCH  11  12
ENDBRANCH   1  11
TORSDOF 15
ENDMDL
MODEL 6
REMARK VINA RESULT:    -4.111      2.183      3.175
REMARK INTER + INTRA:          -9.519
REMARK INTER:                  -7.668
REMARK INTRA:                  -1.852
REMARK UNBOUND:                -1.804
REMARK SMILES O=C([O-])CCCCCCCCCCCCCCC(=O)[O-]
REMARK SMILES IDX 10 1 9 2 8 3 7 4 6 5 5 6 4 7 2 8 1 9 3 10 11 11 12 12 13 13
REMARK SMILES IDX 14 14 15 15 16 16 17 17 18 18 19 19 20 20
REMARK H PARENT
REMARK Flexibility Score: inf
ROOT
ATOM      1  C   UNL     1     -23.683  -8.180  -4.064  1.00  0.00     0.000 C 
ENDROOT
BRANCH   1   2
ATOM      2  C   UNL     1     -24.739  -7.680  -3.065  1.00  0.00     0.000 C 
BRANCH   2   3
ATOM      3  C   UNL     1     -24.605  -6.178  -2.756  1.00  0.00     0.000 C 
BRANCH   3   4
ATOM      4  C   UNL     1     -25.620  -5.263  -3.474  1.00  0.00     0.000 C 
BRANCH   4   5
ATOM      5  C   UNL     1     -26.780  -5.996  -4.171  1.00  0.00     0.000 C 
BRANCH   5   6
ATOM      6  C   UNL     1     -27.122  -5.398  -5.546  1.00  0.00     0.006 C 
BRANCH   6   7
ATOM      7  C   UNL     1     -26.388  -6.114  -6.686  1.00  0.00     0.053 C 
BRANCH   7   8
ATOM      8  C   UNL     1     -25.335  -5.244  -7.301  1.00  0.00     0.041 C 
ATOM      9  O   UNL     1     -25.105  -4.098  -6.831  1.00  0.00    -0.550 OA
ATOM     10  O   UNL     1     -24.579  -5.714  -8.369  1.00  0.00    -0.550 OA
ENDBRANCH   7   8
ENDBRANCH   6   7
ENDBRANCH   5   6
ENDBRANCH   4   5
ENDBRANCH   3   4
ENDBRANCH   2   3
ENDBRANCH   1   2
BRANCH   1  11
ATOM     11  C   UNL     1     -24.162  -9.392  -4.883  1.00  0.00     0.000 C 
BRANCH  11  12
ATOM     12  C   UNL     1     -24.386  -9.126  -6.387  1.00  0.00     0.000 C 
BRANCH  12  13
ATOM     13  C   UNL     1     -23.135  -8.694  -7.173  1.00  0.00     0.000 C 
BRANCH  13  14
ATOM     14  C   UNL     1     -22.519  -9.842  -7.991  1.00  0.00     0.000 C 
BRANCH  14  15
ATOM     15  C   UNL     1     -21.106 -10.215  -7.515  1.00  0.00     0.000 C 
BRANCH  15  16
ATOM     16  C   UNL     1     -21.116 -11.226  -6.357  1.00  0.00     0.006 C 
BRANCH  16  17
ATOM     17  C   UNL     1     -19.948 -10.972  -5.399  1.00  0.00     0.053 C 
BRANCH  17  18
ATOM     18  C   UNL     1     -20.319  -9.942  -4.381  1.00  0.00     0.041 C 
ATOM     19  O   UNL     1     -20.942 -10.277  -3.339  1.00  0.00    -0.550 OA
ATOM     20  O   UNL     1     -20.020  -8.604  -4.604  1.00  0.00    -0.550 OA
ENDBRANCH  17  18
ENDBRANCH  16  17
ENDBRANCH  15  16
ENDBRANCH  14  15
ENDBRANCH  13  14
ENDBRANCH  12  13
ENDBRANCH  11  12
ENDBRANCH   1  11
TORSDOF 15
ENDMDL
MODEL 7
REMARK VINA RESULT:    -4.109      2.631      3.413
REMARK INTER + INTRA:          -9.516
REMARK INTER:                  -7.375
REMARK INTRA:                  -2.141
REMARK UNBOUND:                -1.804
REMARK SMILES O=C([O-])CCCCCCCCCCCCCCC(=O)[O-]
REMARK SMILES IDX 10 1 9 2 8 3 7 4 6 5 5 6 4 7 2 8 1 9 3 10 11 11 12 12 13 13
REMARK SMILES IDX 14 14 15 15 16 16 17 17 18 18 19 19 20 20
REMARK H PARENT
REMARK Flexibility Score: inf
ROOT
ATOM      1  C   UNL     1     -22.711  -7.821  -5.010  1.00  0.00     0.000 C 
ENDROOT
BRANCH   1   2
ATOM      2  C   UNL     1     -23.451  -6.983  -6.065  1.00  0.00     0.000 C 
BRANCH   2   3
ATOM      3  C   UNL     1     -24.838  -7.552  -6.414  1.00  0.00     0.000 C 
BRANCH   3   4
ATOM      4  C   UNL     1     -25.874  -6.516  -6.898  1.00  0.00     0.000 C 
BRANCH   4   5
ATOM      5  C   UNL     1     -26.133  -5.350  -5.927  1.00  0.00     0.000 C 
BRANCH   5   6
ATOM      6  C   UNL     1     -26.866  -5.791  -4.648  1.00  0.00     0.006 C 
BRANCH   6   7
ATOM      7  C   UNL     1     -25.915  -5.910  -3.450  1.00  0.00     0.053 C 
BRANCH   7   8
ATOM      8  C   UNL     1     -25.103  -4.665  -3.260  1.00  0.00     0.041 C 
ATOM      9  O   UNL     1     -25.649  -3.610  -2.841  1.00  0.00    -0.550 OA
ATOM     10  O   UNL     1     -23.736  -4.682  -3.508  1.00  0.00    -0.550 OA
ENDBRANCH   7   8
ENDBRANCH   6   7
ENDBRANCH   5   6
ENDBRANCH   4   5
ENDBRANCH   3   4
ENDBRANCH   2   3
ENDBRANCH   1   2
BRANCH   1  11
ATOM     11  C   UNL     1     -23.649  -8.747  -4.216  1.00  0.00     0.000 C 
BRANCH  11  12
ATOM     12  C   UNL     1     -23.444 -10.258  -4.454  1.00  0.00     0.000 C 
BRANCH  12  13
ATOM     13  C   UNL     1     -21.993 -10.756  -4.314  1.00  0.00     0.000 C 
BRANCH  13  14
ATOM     14  C   UNL     1     -21.480 -11.459  -5.582  1.00  0.00     0.000 C 
BRANCH  14  15
ATOM     15  C   UNL     1     -22.219 -11.004  -6.851  1.00  0.00     0.000 C 
BRANCH  15  16
ATOM     16  C   UNL     1     -21.404 -10.005  -7.687  1.00  0.00     0.006 C 
BRANCH  16  17
ATOM     17  C   UNL     1     -22.295  -9.294  -8.710  1.00  0.00     0.053 C 
BRANCH  17  18
ATOM     18  C   UNL     1     -21.581  -8.119  -9.300  1.00  0.00     0.041 C 
ATOM     19  O   UNL     1     -20.383  -8.227  -9.672  1.00  0.00    -0.550 OA
ATOM     20  O   UNL     1     -22.224  -6.892  -9.394  1.00  0.00    -0.550 OA
ENDBRANCH  17  18
ENDBRANCH  16  17
ENDBRANCH  15  16
ENDBRANCH  14  15
ENDBRANCH  13  14
ENDBRANCH  12  13
ENDBRANCH  11  12
ENDBRANCH   1  11
TORSDOF 15
ENDMDL
MODEL 8
REMARK VINA RESULT:    -4.106      2.063      3.915
REMARK INTER + INTRA:          -9.510
REMARK INTER:                  -7.414
REMARK INTRA:                  -2.096
REMARK UNBOUND:                -1.804
REMARK SMILES O=C([O-])CCCCCCCCCCCCCCC(=O)[O-]
REMARK SMILES IDX 10 1 9 2 8 3 7 4 6 5 5 6 4 7 2 8 1 9 3 10 11 11 12 12 13 13
REMARK SMILES IDX 14 14 15 15 16 16 17 17 18 18 19 19 20 20
REMARK H PARENT
REMARK Flexibility Score: inf
ROOT
ATOM      1  C   UNL     1     -24.639  -6.248  -6.871  1.00  0.00     0.000 C 
ENDROOT
BRANCH   1   2
ATOM      2  C   UNL     1     -26.132  -6.526  -6.623  1.00  0.00     0.000 C 
BRANCH   2   3
ATOM      3  C   UNL     1     -26.819  -5.416  -5.809  1.00  0.00     0.000 C 
BRANCH   3   4
ATOM      4  C   UNL     1     -26.695  -5.547  -4.277  1.00  0.00     0.000 C 
BRANCH   4   5
ATOM      5  C   UNL     1     -26.092  -6.874  -3.783  1.00  0.00     0.000 C 
BRANCH   5   6
ATOM      6  C   UNL     1     -25.011  -6.673  -2.706  1.00  0.00     0.006 C 
BRANCH   6   7
ATOM      7  C   UNL     1     -23.778  -5.944  -3.256  1.00  0.00     0.053 C 
BRANCH   7   8
ATOM      8  C   UNL     1     -23.603  -4.596  -2.625  1.00  0.00     0.041 C 
ATOM      9  O   UNL     1     -22.714  -3.810  -3.046  1.00  0.00    -0.550 OA
ATOM     10  O   UNL     1     -24.447  -4.194  -1.598  1.00  0.00    -0.550 OA
ENDBRANCH   7   8
ENDBRANCH   6   7
ENDBRANCH   5   6
ENDBRANCH   4   5
ENDBRANCH   3   4
ENDBRANCH   2   3
ENDBRANCH   1   2
BRANCH   1  11
ATOM     11  C   UNL     1     -23.755  -7.486  -6.640  1.00  0.00     0.000 C 
BRANCH  11  12
ATOM     12  C   UNL     1     -24.501  -8.837  -6.617  1.00  0.00     0.000 C 
BRANCH  12  13
ATOM     13  C   UNL     1     -24.469  -9.584  -5.271  1.00  0.00     0.000 C 
BRANCH  13  14
ATOM     14  C   UNL     1     -23.136  -9.409  -4.524  1.00  0.00     0.000 C 
BRANCH  14  15
ATOM     15  C   UNL     1     -22.410 -10.744  -4.290  1.00  0.00     0.000 C 
BRANCH  15  16
ATOM     16  C   UNL     1     -21.099 -10.855  -5.084  1.00  0.00     0.006 C 
BRANCH  16  17
ATOM     17  C   UNL     1     -21.363 -11.365  -6.505  1.00  0.00     0.053 C 
BRANCH  17  18
ATOM     18  C   UNL     1     -20.919 -10.356  -7.514  1.00  0.00     0.041 C 
ATOM     19  O   UNL     1     -21.746  -9.866  -8.328  1.00  0.00    -0.550 OA
ATOM     20  O   UNL     1     -19.581  -9.990  -7.590  1.00  0.00    -0.550 OA
ENDBRANCH  17  18
ENDBRANCH  16  17
ENDBRANCH  15  16
ENDBRANCH  14  15
ENDBRANCH  13  14
ENDBRANCH  12  13
ENDBRANCH  11  12
ENDBRANCH   1  11
TORSDOF 15
ENDMDL
MODEL 9
REMARK VINA RESULT:    -4.102      1.578      2.409
REMARK INTER + INTRA:          -9.502
REMARK INTER:                  -7.052
REMARK INTRA:                  -2.451
REMARK UNBOUND:                -1.804
REMARK SMILES O=C([O-])CCCCCCCCCCCCCCC(=O)[O-]
REMARK SMILES IDX 10 1 9 2 8 3 7 4 6 5 5 6 4 7 2 8 1 9 3 10 11 11 12 12 13 13
REMARK SMILES IDX 14 14 15 15 16 16 17 17 18 18 19 19 20 20
REMARK H PARENT
REMARK Flexibility Score: inf
ROOT
ATOM      1  C   UNL     1     -21.520 -11.237  -6.889  1.00  0.00     0.000 C 
ENDROOT
BRANCH   1   2
ATOM      2  C   UNL     1     -22.836 -10.461  -7.067  1.00  0.00     0.000 C 
BRANCH   2   3
ATOM      3  C   UNL     1     -22.614  -8.985  -7.439  1.00  0.00     0.000 C 
BRANCH   3   4
ATOM      4  C   UNL     1     -23.170  -7.958  -6.430  1.00  0.00     0.000 C 
BRANCH   4   5
ATOM      5  C   UNL     1     -24.570  -8.279  -5.878  1.00  0.00     0.000 C 
BRANCH   5   6
ATOM      6  C   UNL     1     -24.691  -8.013  -4.368  1.00  0.00     0.006 C 
BRANCH   6   7
ATOM      7  C   UNL     1     -25.973  -7.246  -4.017  1.00  0.00     0.053 C 
BRANCH   7   8
ATOM      8  C   UNL     1     -26.070  -5.954  -4.771  1.00  0.00     0.041 C 
ATOM      9  O   UNL     1     -25.177  -5.076  -4.641  1.00  0.00    -0.550 OA
ATOM     10  O   UNL     1     -27.126  -5.738  -5.647  1.00  0.00    -0.550 OA
ENDBRANCH   7   8
ENDBRANCH   6   7
ENDBRANCH   5   6
ENDBRANCH   4   5
ENDBRANCH   3   4
ENDBRANCH   2   3
ENDBRANCH   1   2
BRANCH   1  11
ATOM     11  C   UNL     1     -21.285 -11.689  -5.437  1.00  0.00     0.000 C 
BRANCH  11  12
ATOM     12  C   UNL     1     -22.276 -11.123  -4.399  1.00  0.00     0.000 C 
BRANCH  12  13
ATOM     13  C   UNL     1     -21.710 -10.028  -3.477  1.00  0.00     0.000 C 
BRANCH  13  14
ATOM     14  C   UNL     1     -20.221  -9.742  -3.737  1.00  0.00     0.000 C 
BRANCH  14  15
ATOM     15  C   UNL     1     -19.978  -8.331  -4.296  1.00  0.00     0.000 C 
BRANCH  15  16
ATOM     16  C   UNL     1     -18.718  -8.247  -5.172  1.00  0.00     0.006 C 
BRANCH  16  17
ATOM     17  C   UNL     1     -19.009  -8.733  -6.595  1.00  0.00     0.053 C 
BRANCH  17  18
ATOM     18  C   UNL     1     -18.096  -9.859  -6.961  1.00  0.00     0.041 C 
ATOM     19  O   UNL     1     -17.888 -10.139  -8.171  1.00  0.00    -0.550 OA
ATOM     20  O   UNL     1     -17.512 -10.631  -5.965  1.00  0.00    -0.550 OA
ENDBRANCH  17  18
ENDBRANCH  16  17
ENDBRANCH  15  16
ENDBRANCH  14  15
ENDBRANCH  13  14
ENDBRANCH  12  13
ENDBRANCH  11  12
ENDBRANCH   1  11
TORSDOF 15
ENDMDL
