MODEL 1
REMARK VINA RESULT:    -3.445      0.000      0.000
REMARK INTER + INTRA:          -3.507
REMARK INTER:                  -4.251
REMARK INTRA:                   0.744
REMARK UNBOUND:                 0.744
REMARK SMILES CC1=CC=CC(C)(C)CC1=O
REMARK SMILES IDX 1 1 2 2 3 3 10 4 11 5 9 6 4 8 5 9 6 10 7 11 8 12
REMARK H PARENT
REMARK Flexibility Score: 80.00
ROOT
ATOM      1  C   UNL     1      18.388  19.752  18.701  1.00  0.00     0.048 C 
ATOM      2  C   UNL     1      17.468  19.579  17.515  1.00  0.00    -0.008 C 
ATOM      3  C   UNL     1      17.574  20.470  16.506  1.00  0.00     0.007 C 
ENDROOT
BRANCH   2   4
ATOM      4  C   UNL     1      16.574  18.395  17.521  1.00  0.00     0.159 C 
ATOM      5  O   UNL     1      16.758  17.497  18.388  1.00  0.00    -0.295 OA
BRANCH   4   6
ATOM      6  C   UNL     1      15.445  18.208  16.555  1.00  0.00     0.091 CG0
ATOM      7  G   UNL     1      15.903  18.183  15.079  1.00  0.00     0.000 G0
ENDBRANCH   4   6
ENDBRANCH   2   4
BRANCH   3   8
ATOM      8  C   UNL     1      16.840  20.545  15.220  1.00  0.00    -0.003 C 
ATOM      9  C   UNL     1      16.138  19.592  14.593  1.00  0.00    -0.020 C 
BRANCH   9  10
ATOM     10  C   UNL     1      15.903  18.182  15.081  1.00  0.00    -0.010 CG0
ATOM     11  C   UNL     1      14.752  17.568  14.253  1.00  0.00     0.016 C 
ATOM     12  C   UNL     1      17.169  17.324  14.848  1.00  0.00     0.016 C 
ATOM     13  G   UNL     1      15.468  18.210  16.563  1.00  0.00     0.000 G0
ENDBRANCH   9  10
ENDBRANCH   3   8
TORSDOF 0
ENDMDL
MODEL 2
REMARK VINA RESULT:    -3.250      7.417      9.019
REMARK INTER + INTRA:          -3.266
REMARK INTER:                  -4.010
REMARK INTRA:                   0.744
REMARK UNBOUND:                 0.744
REMARK SMILES CC1=CC=CC(C)(C)CC1=O
REMARK SMILES IDX 1 1 2 2 3 3 10 4 11 5 9 6 4 8 5 9 6 10 7 11 8 12
REMARK H PARENT
REMARK Flexibility Score: 80.00
ROOT
ATOM      1  C   UNL     1      18.352  14.314  13.205  1.00  0.00     0.048 C 
ATOM      2  C   UNL     1      18.031  12.905  12.765  1.00  0.00    -0.008 C 
ATOM      3  C   UNL     1      17.060  12.247  13.433  1.00  0.00     0.007 C 
ENDROOT
BRANCH   2   4
ATOM      4  C   UNL     1      18.759  12.385  11.580  1.00  0.00     0.159 C 
ATOM      5  O   UNL     1      19.439  13.188  10.883  1.00  0.00    -0.295 OA
BRANCH   4   6
ATOM      6  C   UNL     1      18.744  10.946  11.168  1.00  0.00     0.091 CG0
ATOM      7  G   UNL     1      17.325  10.415  10.860  1.00  0.00     0.000 G0
ENDBRANCH   4   6
ENDBRANCH   2   4
BRANCH   3   8
ATOM      8  C   UNL     1      16.514  10.885  13.221  1.00  0.00    -0.003 C 
ATOM      9  C   UNL     1      16.604  10.099  12.140  1.00  0.00    -0.020 C 
BRANCH   9  10
ATOM     10  C   UNL     1      17.332  10.418  10.856  1.00  0.00    -0.010 CG0
ATOM     11  C   UNL     1      17.495   9.108  10.052  1.00  0.00     0.016 C 
ATOM     12  C   UNL     1      16.495  11.400  10.004  1.00  0.00     0.016 C 
ATOM     13  G   UNL     1      18.742  10.962  11.178  1.00  0.00     0.000 G0
ENDBRANCH   9  10
ENDBRANCH   3   8
TORSDOF 0
ENDMDL
MODEL 3
REMARK VINA RESULT:    -3.233      7.050      7.952
REMARK INTER + INTRA:          -3.245
REMARK INTER:                  -3.998
REMARK INTRA:                   0.754
REMARK UNBOUND:                 0.744
REMARK SMILES CC1=CC=CC(C)(C)CC1=O
REMARK SMILES IDX 1 1 2 2 3 3 10 4 11 5 9 6 4 8 5 9 6 10 7 11 8 12
REMARK H PARENT
REMARK Flexibility Score: 80.00
ROOT
ATOM      1  C   UNL     1      18.617  22.602   9.671  1.00  0.00     0.048 C 
ATOM      2  C   UNL     1      19.013  21.236   9.161  1.00  0.00    -0.008 C 
ATOM      3  C   UNL     1      20.183  21.132   8.493  1.00  0.00     0.007 C 
ENDROOT
BRANCH   2   4
ATOM      4  C   UNL     1      18.120  20.102   9.504  1.00  0.00     0.159 C 
ATOM      5  O   UNL     1      17.196  20.287  10.343  1.00  0.00    -0.295 OA
BRANCH   4   6
ATOM      6  C   UNL     1      18.244  18.739   8.895  1.00  0.00     0.091 CG0
ATOM      7  G   UNL     1      19.615  18.076   9.158  1.00  0.00     0.000 G0
ENDBRANCH   4   6
ENDBRANCH   2   4
BRANCH   3   8
ATOM      8  C   UNL     1      20.841  19.941   7.906  1.00  0.00    -0.003 C 
ATOM      9  C   UNL     1      20.633  18.645   8.173  1.00  0.00    -0.020 C 
BRANCH   9  10
ATOM     10  C   UNL     1      19.628  18.078   9.146  1.00  0.00    -0.010 CG0
ATOM     11  C   UNL     1      19.488  16.564   8.874  1.00  0.00     0.016 C 
ATOM     12  C   UNL     1      20.136  18.258  10.595  1.00  0.00     0.016 C 
ATOM     13  G   UNL     1      18.249  18.737   8.914  1.00  0.00     0.000 G0
ENDBRANCH   9  10
ENDBRANCH   3   8
TORSDOF 0
ENDMDL
MODEL 4
REMARK VINA RESULT:    -3.211      1.524      2.476
REMARK INTER + INTRA:          -3.218
REMARK INTER:                  -3.975
REMARK INTRA:                   0.757
REMARK UNBOUND:                 0.744
REMARK SMILES CC1=CC=CC(C)(C)CC1=O
REMARK SMILES IDX 1 1 2 2 3 3 10 4 11 5 9 6 4 8 5 9 6 10 7 11 8 12
REMARK H PARENT
REMARK Flexibility Score: 80.00
ROOT
ATOM      1  C   UNL     1      17.768  17.912  18.876  1.00  0.00     0.048 C 
ATOM      2  C   UNL     1      17.566  18.158  17.400  1.00  0.00    -0.008 C 
ATOM      3  C   UNL     1      17.577  17.085  16.580  1.00  0.00     0.007 C 
ENDROOT
BRANCH   2   4
ATOM      4  C   UNL     1      17.294  19.554  16.978  1.00  0.00     0.159 C 
ATOM      5  O   UNL     1      17.069  20.425  17.864  1.00  0.00    -0.295 OA
BRANCH   4   6
ATOM      6  C   UNL     1      17.283  19.998  15.548  1.00  0.00     0.091 CG0
ATOM      7  G   UNL     1      16.245  19.247  14.683  1.00  0.00     0.000 G0
ENDBRANCH   4   6
ENDBRANCH   2   4
BRANCH   3   8
ATOM      8  C   UNL     1      17.383  17.006  15.112  1.00  0.00    -0.003 C 
ATOM      9  C   UNL     1      16.815  17.896  14.287  1.00  0.00    -0.020 C 
BRANCH   9  10
ATOM     10  C   UNL     1      16.248  19.242  14.671  1.00  0.00    -0.010 CG0
ATOM     11  C   UNL     1      16.028  20.062  13.380  1.00  0.00     0.016 C 
ATOM     12  C   UNL     1      14.877  19.060  15.361  1.00  0.00     0.016 C 
ATOM     13  G   UNL     1      17.263  20.001  15.555  1.00  0.00     0.000 G0
ENDBRANCH   9  10
ENDBRANCH   3   8
TORSDOF 0
ENDMDL
MODEL 5
REMARK VINA RESULT:    -3.162      5.942      6.968
REMARK INTER + INTRA:          -3.158
REMARK INTER:                  -3.917
REMARK INTRA:                   0.759
REMARK UNBOUND:                 0.744
REMARK SMILES CC1=CC=CC(C)(C)CC1=O
REMARK SMILES IDX 1 1 2 2 3 3 10 4 11 5 9 6 4 8 5 9 6 10 7 11 8 12
REMARK H PARENT
REMARK Flexibility Score: 80.00
ROOT
ATOM      1  C   UNL     1      20.107  16.281  11.424  1.00  0.00     0.048 C 
ATOM      2  C   UNL     1      19.466  15.159  12.208  1.00  0.00    -0.008 C 
ATOM      3  C   UNL     1      19.359  15.311  13.545  1.00  0.00     0.007 C 
ENDROOT
BRANCH   2   4
ATOM      4  C   UNL     1      18.933  14.011  11.432  1.00  0.00     0.159 C 
ATOM      5  O   UNL     1      18.870  14.103  10.175  1.00  0.00    -0.295 OA
BRANCH   4   6
ATOM      6  C   UNL     1      18.476  12.731  12.059  1.00  0.00     0.091 CG0
ATOM      7  G   UNL     1      17.312  12.923  13.058  1.00  0.00     0.000 G0
ENDBRANCH   4   6
ENDBRANCH   2   4
BRANCH   3   8
ATOM      8  C   UNL     1      18.764  14.411  14.561  1.00  0.00    -0.003 C 
ATOM      9  C   UNL     1      17.895  13.406  14.393  1.00  0.00    -0.020 C 
BRANCH   9  10
ATOM     10  C   UNL     1      17.324  12.924  13.080  1.00  0.00    -0.010 CG0
ATOM     11  C   UNL     1      16.655  11.551  13.317  1.00  0.00     0.016 C 
ATOM     12  C   UNL     1      16.237  13.905  12.585  1.00  0.00     0.016 C 
ATOM     13  G   UNL     1      18.464  12.732  12.055  1.00  0.00     0.000 G0
ENDBRANCH   9  10
ENDBRANCH   3   8
TORSDOF 0
ENDMDL
MODEL 6
REMARK VINA RESULT:    -3.102      6.914      8.039
REMARK INTER + INTRA:          -3.084
REMARK INTER:                  -3.856
REMARK INTRA:                   0.773
REMARK UNBOUND:                 0.744
REMARK SMILES CC1=CC=CC(C)(C)CC1=O
REMARK SMILES IDX 1 1 2 2 3 3 10 4 11 5 9 6 4 8 5 9 6 10 7 11 8 12
REMARK H PARENT
REMARK Flexibility Score: 80.00
ROOT
ATOM      1  C   UNL     1      17.885  19.137   7.821  1.00  0.00     0.048 C 
ATOM      2  C   UNL     1      18.296  18.165   8.901  1.00  0.00    -0.008 C 
ATOM      3  C   UNL     1      17.315  17.576   9.619  1.00  0.00     0.007 C 
ENDROOT
BRANCH   2   4
ATOM      4  C   UNL     1      19.745  17.876   9.034  1.00  0.00     0.159 C 
ATOM      5  O   UNL     1      20.535  18.306   8.150  1.00  0.00    -0.295 OA
BRANCH   4   6
ATOM      6  C   UNL     1      20.333  17.106  10.177  1.00  0.00     0.091 CG0
ATOM      7  G   UNL     1      19.742  15.685  10.323  1.00  0.00     0.000 G0
ENDBRANCH   4   6
ENDBRANCH   2   4
BRANCH   3   8
ATOM      8  C   UNL     1      17.403  16.576  10.710  1.00  0.00    -0.003 C 
ATOM      9  C   UNL     1      18.413  15.754  11.021  1.00  0.00    -0.020 C 
BRANCH   9  10
ATOM     10  C   UNL     1      19.752  15.674  10.327  1.00  0.00    -0.010 CG0
ATOM     11  C   UNL     1      20.709  14.844  11.212  1.00  0.00     0.016 C 
ATOM     12  C   UNL     1      19.602  14.945   8.972  1.00  0.00     0.016 C 
ATOM     13  G   UNL     1      20.346  17.093  10.176  1.00  0.00     0.000 G0
ENDBRANCH   9  10
ENDBRANCH   3   8
TORSDOF 0
ENDMDL
MODEL 7
REMARK VINA RESULT:    -3.099      8.552     10.535
REMARK INTER + INTRA:          -3.080
REMARK INTER:                  -3.831
REMARK INTRA:                   0.751
REMARK UNBOUND:                 0.744
REMARK SMILES CC1=CC=CC(C)(C)CC1=O
REMARK SMILES IDX 1 1 2 2 3 3 10 4 11 5 9 6 4 8 5 9 6 10 7 11 8 12
REMARK H PARENT
REMARK Flexibility Score: 80.00
ROOT
ATOM      1  C   UNL     1      14.809   7.873   9.748  1.00  0.00     0.048 C 
ATOM      2  C   UNL     1      15.875   8.756  10.354  1.00  0.00    -0.008 C 
ATOM      3  C   UNL     1      17.155   8.532   9.988  1.00  0.00     0.007 C 
ENDROOT
BRANCH   2   4
ATOM      4  C   UNL     1      15.418   9.852  11.244  1.00  0.00     0.159 C 
ATOM      5  O   UNL     1      14.188  10.129  11.288  1.00  0.00    -0.295 OA
BRANCH   4   6
ATOM      6  C   UNL     1      16.341  10.649  12.114  1.00  0.00     0.091 CG0
ATOM      7  G   UNL     1      17.419  11.417  11.317  1.00  0.00     0.000 G0
ENDBRANCH   4   6
ENDBRANCH   2   4
BRANCH   3   8
ATOM      8  C   UNL     1      18.396   9.239  10.385  1.00  0.00    -0.003 C 
ATOM      9  C   UNL     1      18.537  10.453  10.932  1.00  0.00    -0.020 C 
BRANCH   9  10
ATOM     10  C   UNL     1      17.425  11.403  11.309  1.00  0.00    -0.010 CG0
ATOM     11  C   UNL     1      18.013  12.499  12.227  1.00  0.00     0.016 C 
ATOM     12  C   UNL     1      16.866  12.091  10.042  1.00  0.00     0.016 C 
ATOM     13  G   UNL     1      16.338  10.643  12.103  1.00  0.00     0.000 G0
ENDBRANCH   9  10
ENDBRANCH   3   8
TORSDOF 0
ENDMDL
MODEL 8
REMARK VINA RESULT:    -3.077      5.676      7.153
REMARK INTER + INTRA:          -3.053
REMARK INTER:                  -3.809
REMARK INTRA:                   0.757
REMARK UNBOUND:                 0.744
REMARK SMILES CC1=CC=CC(C)(C)CC1=O
REMARK SMILES IDX 1 1 2 2 3 3 10 4 11 5 9 6 4 8 5 9 6 10 7 11 8 12
REMARK H PARENT
REMARK Flexibility Score: 80.00
ROOT
ATOM      1  C   UNL     1      18.448  14.551  15.164  1.00  0.00     0.048 C 
ATOM      2  C   UNL     1      18.024  13.762  13.948  1.00  0.00    -0.008 C 
ATOM      3  C   UNL     1      17.245  12.676  14.147  1.00  0.00     0.007 C 
ENDROOT
BRANCH   2   4
ATOM      4  C   UNL     1      18.433  14.289  12.623  1.00  0.00     0.159 C 
ATOM      5  O   UNL     1      18.908  15.456  12.552  1.00  0.00    -0.295 OA
BRANCH   4   6
ATOM      6  C   UNL     1      18.327  13.504  11.352  1.00  0.00     0.091 CG0
ATOM      7  G   UNL     1      16.877  13.090  11.010  1.00  0.00     0.000 G0
ENDBRANCH   4   6
ENDBRANCH   2   4
BRANCH   3   8
ATOM      8  C   UNL     1      16.658  11.733  13.166  1.00  0.00    -0.003 C 
ATOM      9  C   UNL     1      16.481  11.888  11.848  1.00  0.00    -0.020 C 
BRANCH   9  10
ATOM     10  C   UNL     1      16.878  13.090  11.025  1.00  0.00    -0.010 CG0
ATOM     11  C   UNL     1      16.835  12.692   9.532  1.00  0.00     0.016 C 
ATOM     12  C   UNL     1      15.866  14.238  11.242  1.00  0.00     0.016 C 
ATOM     13  G   UNL     1      18.327  13.502  11.370  1.00  0.00     0.000 G0
ENDBRANCH   9  10
ENDBRANCH   3   8
TORSDOF 0
ENDMDL
MODEL 9
REMARK VINA RESULT:    -3.021      7.189      8.528
REMARK INTER + INTRA:          -2.983
REMARK INTER:                  -3.744
REMARK INTRA:                   0.761
REMARK UNBOUND:                 0.744
REMARK SMILES CC1=CC=CC(C)(C)CC1=O
REMARK SMILES IDX 1 1 2 2 3 3 10 4 11 5 9 6 4 8 5 9 6 10 7 11 8 12
REMARK H PARENT
REMARK Flexibility Score: 80.00
ROOT
ATOM      1  C   UNL     1      15.998   9.683  13.304  1.00  0.00     0.048 C 
ATOM      2  C   UNL     1      16.525  11.000  12.785  1.00  0.00    -0.008 C 
ATOM      3  C   UNL     1      16.983  11.891  13.690  1.00  0.00     0.007 C 
ENDROOT
BRANCH   2   4
ATOM      4  C   UNL     1      16.566  11.178  11.312  1.00  0.00     0.159 C 
ATOM      5  O   UNL     1      16.361  10.177  10.572  1.00  0.00    -0.295 OA
BRANCH   4   6
ATOM      6  C   UNL     1      16.828  12.493  10.645  1.00  0.00     0.091 CG0
ATOM      7  G   UNL     1      18.199  13.102  11.015  1.00  0.00     0.000 G0
ENDBRANCH   4   6
ENDBRANCH   2   4
BRANCH   3   8
ATOM      8  C   UNL     1      17.575  13.236  13.487  1.00  0.00    -0.003 C 
ATOM      9  C   UNL     1      18.105  13.765  12.377  1.00  0.00    -0.020 C 
BRANCH   9  10
ATOM     10  C   UNL     1      18.201  13.103  11.024  1.00  0.00    -0.010 CG0
ATOM     11  C   UNL     1      18.544  14.186   9.976  1.00  0.00     0.016 C 
ATOM     12  C   UNL     1      19.342  12.061  11.024  1.00  0.00     0.016 C 
ATOM     13  G   UNL     1      16.834  12.488  10.647  1.00  0.00     0.000 G0
ENDBRANCH   9  10
ENDBRANCH   3   8
TORSDOF 0
ENDMDL
