MODEL 1
REMARK VINA RESULT:    -4.806      0.000      0.000
REMARK INTER + INTRA:          -5.321
REMARK INTER:                  -5.227
REMARK INTRA:                  -0.094
REMARK UNBOUND:                -0.094
REMARK SMILES C=C(C)[C@@H]1CC=C(C)[C@H](O)C1
REMARK SMILES IDX 8 1 7 2 6 3 5 4 4 5 11 6 9 7 10 8 2 10 1 11 3 12
REMARK H PARENT 10 9
REMARK Flexibility Score: inf
ROOT
ATOM      1  C   UNL     1       8.543  -6.376  26.761  1.00  0.00     0.042 C 
ATOM      2  C   UNL     1       9.502  -7.527  26.602  1.00  0.00    -0.049 C 
ATOM      3  C   UNL     1       9.752  -8.310  27.674  1.00  0.00    -0.025 C 
ATOM      4  C   UNL     1      10.690  -9.490  27.630  1.00  0.00     0.035 C 
ATOM      5  C   UNL     1      11.733  -9.351  26.508  1.00  0.00     0.021 C 
ATOM      6  C   UNL     1      11.025  -9.021  25.185  1.00  0.00     0.044 C 
ATOM      7  C   UNL     1      10.275  -7.680  25.296  1.00  0.00     0.140 C 
ENDROOT
BRANCH   7   8
ATOM      8  O   UNL     1       9.428  -7.512  24.186  1.00  0.00    -0.389 OA
ATOM      9  H   UNL     1       9.671  -8.207  23.520  1.00  0.00     0.211 HD
ENDBRANCH   7   8
BRANCH   5  10
ATOM     10  C   UNL     1      12.599 -10.600  26.390  1.00  0.00    -0.077 C 
ATOM     11  C   UNL     1      12.088 -11.827  26.588  1.00  0.00     0.008 C 
ATOM     12  C   UNL     1      14.059 -10.475  26.041  1.00  0.00     0.039 C 
ENDBRANCH   5  10
TORSDOF 2
ENDMDL
MODEL 2
REMARK VINA RESULT:    -4.795      1.768      4.803
REMARK INTER + INTRA:          -5.309
REMARK INTER:                  -5.214
REMARK INTRA:                  -0.095
REMARK UNBOUND:                -0.094
REMARK SMILES C=C(C)[C@@H]1CC=C(C)[C@H](O)C1
REMARK SMILES IDX 8 1 7 2 6 3 5 4 4 5 11 6 9 7 10 8 2 10 1 11 3 12
REMARK H PARENT 10 9
REMARK Flexibility Score: inf
ROOT
ATOM      1  C   UNL     1      12.492 -10.720  26.807  1.00  0.00     0.042 C 
ATOM      2  C   UNL     1      11.430  -9.658  26.672  1.00  0.00    -0.049 C 
ATOM      3  C   UNL     1      11.334  -8.988  25.503  1.00  0.00    -0.025 C 
ATOM      4  C   UNL     1      10.309  -7.910  25.255  1.00  0.00     0.035 C 
ATOM      5  C   UNL     1       9.831  -7.261  26.565  1.00  0.00     0.021 C 
ATOM      6  C   UNL     1       9.411  -8.355  27.559  1.00  0.00     0.044 C 
ATOM      7  C   UNL     1      10.608  -9.265  27.895  1.00  0.00     0.140 C 
ENDROOT
BRANCH   7   8
ATOM      8  O   UNL     1      10.163 -10.403  28.591  1.00  0.00    -0.389 OA
ATOM      9  H   UNL     1       9.416 -10.797  28.068  1.00  0.00     0.211 HD
ENDBRANCH   7   8
BRANCH   5  10
ATOM     10  C   UNL     1       8.709  -6.259  26.319  1.00  0.00    -0.077 C 
ATOM     11  C   UNL     1       7.578  -6.283  27.044  1.00  0.00     0.008 C 
ATOM     12  C   UNL     1       8.855  -5.212  25.246  1.00  0.00     0.039 C 
ENDBRANCH   5  10
TORSDOF 2
ENDMDL
MODEL 3
REMARK VINA RESULT:    -4.660      1.955      2.942
REMARK INTER + INTRA:          -5.163
REMARK INTER:                  -5.071
REMARK INTRA:                  -0.092
REMARK UNBOUND:                -0.094
REMARK SMILES C=C(C)[C@@H]1CC=C(C)[C@H](O)C1
REMARK SMILES IDX 8 1 7 2 6 3 5 4 4 5 11 6 9 7 10 8 2 10 1 11 3 12
REMARK H PARENT 10 9
REMARK Flexibility Score: inf
ROOT
ATOM      1  C   UNL     1       9.759  -3.968  24.856  1.00  0.00     0.042 C 
ATOM      2  C   UNL     1       9.948  -5.238  25.644  1.00  0.00    -0.049 C 
ATOM      3  C   UNL     1      11.177  -5.517  26.132  1.00  0.00    -0.025 C 
ATOM      4  C   UNL     1      11.481  -6.755  26.937  1.00  0.00     0.035 C 
ATOM      5  C   UNL     1      10.486  -7.890  26.641  1.00  0.00     0.021 C 
ATOM      6  C   UNL     1       9.049  -7.360  26.762  1.00  0.00     0.044 C 
ATOM      7  C   UNL     1       8.801  -6.238  25.736  1.00  0.00     0.140 C 
ENDROOT
BRANCH   7   8
ATOM      8  O   UNL     1       7.587  -5.589  26.022  1.00  0.00    -0.389 OA
ATOM      9  H   UNL     1       7.700  -4.631  25.786  1.00  0.00     0.211 HD
ENDBRANCH   7   8
BRANCH   5  10
ATOM     10  C   UNL     1      10.723  -9.094  27.544  1.00  0.00    -0.077 C 
ATOM     11  C   UNL     1      10.087  -9.222  28.722  1.00  0.00     0.008 C 
ATOM     12  C   UNL     1      11.684 -10.176  27.124  1.00  0.00     0.039 C 
ENDBRANCH   5  10
TORSDOF 2
ENDMDL
MODEL 4
REMARK VINA RESULT:    -4.624      4.081      6.786
REMARK INTER + INTRA:          -5.124
REMARK INTER:                  -5.028
REMARK INTRA:                  -0.096
REMARK UNBOUND:                -0.094
REMARK SMILES C=C(C)[C@@H]1CC=C(C)[C@H](O)C1
REMARK SMILES IDX 8 1 7 2 6 3 5 4 4 5 11 6 9 7 10 8 2 10 1 11 3 12
REMARK H PARENT 10 9
REMARK Flexibility Score: inf
ROOT
ATOM      1  C   UNL     1      14.411 -16.112  25.898  1.00  0.00     0.042 C 
ATOM      2  C   UNL     1      13.581 -14.979  25.352  1.00  0.00    -0.049 C 
ATOM      3  C   UNL     1      13.498 -14.829  24.012  1.00  0.00    -0.025 C 
ATOM      4  C   UNL     1      12.693 -13.735  23.356  1.00  0.00     0.035 C 
ATOM      5  C   UNL     1      12.504 -12.525  24.286  1.00  0.00     0.021 C 
ATOM      6  C   UNL     1      11.979 -13.002  25.649  1.00  0.00     0.044 C 
ATOM      7  C   UNL     1      12.994 -13.951  26.315  1.00  0.00     0.140 C 
ENDROOT
BRANCH   7   8
ATOM      8  O   UNL     1      12.404 -14.580  27.425  1.00  0.00    -0.389 OA
ATOM      9  H   UNL     1      11.430 -14.393  27.390  1.00  0.00     0.211 HD
ENDBRANCH   7   8
BRANCH   5  10
ATOM     10  C   UNL     1      11.590 -11.477  23.664  1.00  0.00    -0.077 C 
ATOM     11  C   UNL     1      11.422 -10.270  24.231  1.00  0.00     0.008 C 
ATOM     12  C   UNL     1      10.855 -11.780  22.385  1.00  0.00     0.039 C 
ENDBRANCH   5  10
TORSDOF 2
ENDMDL
MODEL 5
REMARK VINA RESULT:    -4.565      1.264      2.044
REMARK INTER + INTRA:          -5.060
REMARK INTER:                  -4.968
REMARK INTRA:                  -0.092
REMARK UNBOUND:                -0.094
REMARK SMILES C=C(C)[C@@H]1CC=C(C)[C@H](O)C1
REMARK SMILES IDX 8 1 7 2 6 3 5 4 4 5 11 6 9 7 10 8 2 10 1 11 3 12
REMARK H PARENT 10 9
REMARK Flexibility Score: inf
ROOT
ATOM      1  C   UNL     1       9.994  -7.474  26.947  1.00  0.00     0.042 C 
ATOM      2  C   UNL     1      10.707  -8.755  26.598  1.00  0.00    -0.049 C 
ATOM      3  C   UNL     1      10.924  -9.659  27.578  1.00  0.00    -0.025 C 
ATOM      4  C   UNL     1      11.624 -10.975  27.342  1.00  0.00     0.035 C 
ATOM      5  C   UNL     1      12.550 -10.920  26.116  1.00  0.00     0.021 C 
ATOM      6  C   UNL     1      11.777 -10.360  24.912  1.00  0.00     0.044 C 
ATOM      7  C   UNL     1      11.297  -8.925  25.202  1.00  0.00     0.140 C 
ENDROOT
BRANCH   7   8
ATOM      8  O   UNL     1      10.381  -8.518  24.215  1.00  0.00    -0.389 OA
ATOM      9  H   UNL     1      10.299  -7.531  24.274  1.00  0.00     0.211 HD
ENDBRANCH   7   8
BRANCH   5  10
ATOM     10  C   UNL     1      13.159 -12.284  25.812  1.00  0.00    -0.077 C 
ATOM     11  C   UNL     1      14.402 -12.400  25.314  1.00  0.00     0.008 C 
ATOM     12  C   UNL     1      12.367 -13.539  26.070  1.00  0.00     0.039 C 
ENDBRANCH   5  10
TORSDOF 2
ENDMDL
MODEL 6
REMARK VINA RESULT:    -4.514      2.200      4.745
REMARK INTER + INTRA:          -5.004
REMARK INTER:                  -4.913
REMARK INTRA:                  -0.091
REMARK UNBOUND:                -0.094
REMARK SMILES C=C(C)[C@@H]1CC=C(C)[C@H](O)C1
REMARK SMILES IDX 8 1 7 2 6 3 5 4 4 5 11 6 9 7 10 8 2 10 1 11 3 12
REMARK H PARENT 10 9
REMARK Flexibility Score: inf
ROOT
ATOM      1  C   UNL     1      10.303  -9.834  28.393  1.00  0.00     0.042 C 
ATOM      2  C   UNL     1      10.011  -8.654  27.503  1.00  0.00    -0.049 C 
ATOM      3  C   UNL     1       8.963  -7.858  27.812  1.00  0.00    -0.025 C 
ATOM      4  C   UNL     1       8.580  -6.649  26.996  1.00  0.00     0.035 C 
ATOM      5  C   UNL     1       9.070  -6.760  25.542  1.00  0.00     0.021 C 
ATOM      6  C   UNL     1      10.564  -7.118  25.529  1.00  0.00     0.044 C 
ATOM      7  C   UNL     1      10.796  -8.482  26.207  1.00  0.00     0.140 C 
ENDROOT
BRANCH   7   8
ATOM      8  O   UNL     1      12.172  -8.682  26.421  1.00  0.00    -0.389 OA
ATOM      9  H   UNL     1      12.659  -8.117  25.766  1.00  0.00     0.211 HD
ENDBRANCH   7   8
BRANCH   5  10
ATOM     10  C   UNL     1       8.788  -5.485  24.756  1.00  0.00    -0.077 C 
ATOM     11  C   UNL     1       9.517  -4.372  24.943  1.00  0.00     0.008 C 
ATOM     12  C   UNL     1       7.673  -5.454  23.743  1.00  0.00     0.039 C 
ENDBRANCH   5  10
TORSDOF 2
ENDMDL
MODEL 7
REMARK VINA RESULT:    -4.490      4.500      6.238
REMARK INTER + INTRA:          -4.977
REMARK INTER:                  -4.883
REMARK INTRA:                  -0.094
REMARK UNBOUND:                -0.094
REMARK SMILES C=C(C)[C@@H]1CC=C(C)[C@H](O)C1
REMARK SMILES IDX 8 1 7 2 6 3 5 4 4 5 11 6 9 7 10 8 2 10 1 11 3 12
REMARK H PARENT 10 9
REMARK Flexibility Score: inf
ROOT
ATOM      1  C   UNL     1       9.580  -6.950  25.557  1.00  0.00     0.042 C 
ATOM      2  C   UNL     1      10.413  -5.701  25.684  1.00  0.00    -0.049 C 
ATOM      3  C   UNL     1       9.977  -4.572  25.083  1.00  0.00    -0.025 C 
ATOM      4  C   UNL     1      10.727  -3.265  25.146  1.00  0.00     0.035 C 
ATOM      5  C   UNL     1      12.228  -3.477  25.407  1.00  0.00     0.021 C 
ATOM      6  C   UNL     1      12.413  -4.403  26.619  1.00  0.00     0.044 C 
ATOM      7  C   UNL     1      11.786  -5.783  26.343  1.00  0.00     0.140 C 
ENDROOT
BRANCH   7   8
ATOM      8  O   UNL     1      11.730  -6.529  27.533  1.00  0.00    -0.389 OA
ATOM      9  H   UNL     1      10.834  -6.380  27.935  1.00  0.00     0.211 HD
ENDBRANCH   7   8
BRANCH   5  10
ATOM     10  C   UNL     1      12.957  -2.151  25.591  1.00  0.00    -0.077 C 
ATOM     11  C   UNL     1      14.287  -2.055  25.417  1.00  0.00     0.008 C 
ATOM     12  C   UNL     1      12.189  -0.913  25.972  1.00  0.00     0.039 C 
ENDBRANCH   5  10
TORSDOF 2
ENDMDL
MODEL 8
REMARK VINA RESULT:    -4.465      2.490      3.367
REMARK INTER + INTRA:          -4.950
REMARK INTER:                  -4.863
REMARK INTRA:                  -0.087
REMARK UNBOUND:                -0.094
REMARK SMILES C=C(C)[C@@H]1CC=C(C)[C@H](O)C1
REMARK SMILES IDX 8 1 7 2 6 3 5 4 4 5 11 6 9 7 10 8 2 10 1 11 3 12
REMARK H PARENT 10 9
REMARK Flexibility Score: inf
ROOT
ATOM      1  C   UNL     1      10.184  -3.330  24.880  1.00  0.00     0.042 C 
ATOM      2  C   UNL     1      10.414  -4.723  25.407  1.00  0.00    -0.049 C 
ATOM      3  C   UNL     1       9.402  -5.615  25.333  1.00  0.00    -0.025 C 
ATOM      4  C   UNL     1       9.521  -7.036  25.824  1.00  0.00     0.035 C 
ATOM      5  C   UNL     1      10.606  -7.180  26.904  1.00  0.00     0.021 C 
ATOM      6  C   UNL     1      11.913  -6.542  26.408  1.00  0.00     0.044 C 
ATOM      7  C   UNL     1      11.711  -5.038  26.144  1.00  0.00     0.140 C 
ENDROOT
BRANCH   7   8
ATOM      8  O   UNL     1      12.822  -4.521  25.454  1.00  0.00    -0.389 OA
ATOM      9  H   UNL     1      13.333  -5.292  25.093  1.00  0.00     0.211 HD
ENDBRANCH   7   8
BRANCH   5  10
ATOM     10  C   UNL     1      10.806  -8.636  27.309  1.00  0.00    -0.077 C 
ATOM     11  C   UNL     1      10.322  -9.112  28.469  1.00  0.00     0.008 C 
ATOM     12  C   UNL     1      11.554  -9.576  26.401  1.00  0.00     0.039 C 
ENDBRANCH   5  10
TORSDOF 2
ENDMDL
MODEL 9
REMARK VINA RESULT:    -4.448      1.751      4.214
REMARK INTER + INTRA:          -4.932
REMARK INTER:                  -4.838
REMARK INTRA:                  -0.095
REMARK UNBOUND:                -0.094
REMARK SMILES C=C(C)[C@@H]1CC=C(C)[C@H](O)C1
REMARK SMILES IDX 8 1 7 2 6 3 5 4 4 5 11 6 9 7 10 8 2 10 1 11 3 12
REMARK H PARENT 10 9
REMARK Flexibility Score: inf
ROOT
ATOM      1  C   UNL     1      13.113 -10.193  25.152  1.00  0.00     0.042 C 
ATOM      2  C   UNL     1      12.118  -9.697  26.169  1.00  0.00    -0.049 C 
ATOM      3  C   UNL     1      11.690 -10.552  27.123  1.00  0.00    -0.025 C 
ATOM      4  C   UNL     1      10.700 -10.164  28.193  1.00  0.00     0.035 C 
ATOM      5  C   UNL     1       9.816  -8.984  27.754  1.00  0.00     0.021 C 
ATOM      6  C   UNL     1      10.703  -7.843  27.231  1.00  0.00     0.044 C 
ATOM      7  C   UNL     1      11.508  -8.308  26.002  1.00  0.00     0.140 C 
ENDROOT
BRANCH   7   8
ATOM      8  O   UNL     1      12.496  -7.358  25.690  1.00  0.00    -0.389 OA
ATOM      9  H   UNL     1      12.628  -7.379  24.706  1.00  0.00     0.211 HD
ENDBRANCH   7   8
BRANCH   5  10
ATOM     10  C   UNL     1       8.903  -8.518  28.882  1.00  0.00    -0.077 C 
ATOM     11  C   UNL     1       9.285  -8.593  30.168  1.00  0.00     0.008 C 
ATOM     12  C   UNL     1       7.542  -7.955  28.567  1.00  0.00     0.039 C 
ENDBRANCH   5  10
TORSDOF 2
ENDMDL
