MODEL 1
REMARK VINA RESULT:    -3.267      0.000      0.000
REMARK INTER + INTRA:          -3.936
REMARK INTER:                  -3.840
REMARK INTRA:                  -0.096
REMARK UNBOUND:                -0.096
REMARK SMILES CCCCC(=O)[O-]
REMARK SMILES IDX 4 1 5 2 6 3 7 4 3 5 2 6 1 7
REMARK H PARENT
REMARK Flexibility Score: inf
ROOT
ATOM      1  C   UNL     1     -21.924 -62.325   0.732  1.00  0.00     0.053 C 
ENDROOT
BRANCH   1   2
ATOM      2  C   UNL     1     -22.973 -62.710   1.728  1.00  0.00     0.041 C 
ATOM      3  O   UNL     1     -23.857 -61.881   2.069  1.00  0.00    -0.550 OA
ATOM      4  O   UNL     1     -23.001 -64.000   2.243  1.00  0.00    -0.550 OA
ENDBRANCH   1   2
BRANCH   1   5
ATOM      5  C   UNL     1     -21.875 -60.804   0.566  1.00  0.00     0.006 C 
BRANCH   5   6
ATOM      6  C   UNL     1     -22.066 -60.404  -0.901  1.00  0.00    -0.003 C 
ATOM      7  C   UNL     1     -23.476 -59.878  -1.152  1.00  0.00     0.004 C 
ENDBRANCH   5   6
ENDBRANCH   1   5
TORSDOF 3
ENDMDL
MODEL 2
REMARK VINA RESULT:    -3.252      3.049      4.399
REMARK INTER + INTRA:          -3.918
REMARK INTER:                  -3.893
REMARK INTRA:                  -0.025
REMARK UNBOUND:                -0.096
REMARK SMILES CCCCC(=O)[O-]
REMARK SMILES IDX 4 1 5 2 6 3 7 4 3 5 2 6 1 7
REMARK H PARENT
REMARK Flexibility Score: inf
ROOT
ATOM      1  C   UNL     1     -23.893 -58.971  -1.294  1.00  0.00     0.053 C 
ENDROOT
BRANCH   1   2
ATOM      2  C   UNL     1     -25.287 -59.328  -1.701  1.00  0.00     0.041 C 
ATOM      3  O   UNL     1     -25.568 -59.505  -2.915  1.00  0.00    -0.550 OA
ATOM      4  O   UNL     1     -26.267 -59.512  -0.734  1.00  0.00    -0.550 OA
ENDBRANCH   1   2
BRANCH   1   5
ATOM      5  C   UNL     1     -23.023 -60.228  -1.204  1.00  0.00     0.006 C 
BRANCH   5   6
ATOM      6  C   UNL     1     -22.315 -60.311   0.154  1.00  0.00    -0.003 C 
ATOM      7  C   UNL     1     -21.875 -61.739   0.461  1.00  0.00     0.004 C 
ENDBRANCH   5   6
ENDBRANCH   1   5
TORSDOF 3
ENDMDL
MODEL 3
REMARK VINA RESULT:    -3.196      1.150      1.728
REMARK INTER + INTRA:          -3.853
REMARK INTER:                  -3.767
REMARK INTRA:                  -0.086
REMARK UNBOUND:                -0.096
REMARK SMILES CCCCC(=O)[O-]
REMARK SMILES IDX 4 1 5 2 6 3 7 4 3 5 2 6 1 7
REMARK H PARENT
REMARK Flexibility Score: inf
ROOT
ATOM      1  C   UNL     1     -23.937 -61.641   1.993  1.00  0.00     0.053 C 
ENDROOT
BRANCH   1   2
ATOM      2  C   UNL     1     -23.312 -62.892   2.523  1.00  0.00     0.041 C 
ATOM      3  O   UNL     1     -23.558 -64.002   1.983  1.00  0.00    -0.550 OA
ATOM      4  O   UNL     1     -22.419 -62.826   3.585  1.00  0.00    -0.550 OA
ENDBRANCH   1   2
BRANCH   1   5
ATOM      5  C   UNL     1     -22.858 -60.656   1.532  1.00  0.00     0.006 C 
BRANCH   5   6
ATOM      6  C   UNL     1     -22.076 -61.216   0.338  1.00  0.00    -0.003 C 
ATOM      7  C   UNL     1     -22.243 -60.333  -0.894  1.00  0.00     0.004 C 
ENDBRANCH   5   6
ENDBRANCH   1   5
TORSDOF 3
ENDMDL
MODEL 4
REMARK VINA RESULT:    -3.103     10.853     11.713
REMARK INTER + INTRA:          -3.743
REMARK INTER:                  -3.663
REMARK INTRA:                  -0.080
REMARK UNBOUND:                -0.096
REMARK SMILES CCCCC(=O)[O-]
REMARK SMILES IDX 4 1 5 2 6 3 7 4 3 5 2 6 1 7
REMARK H PARENT
REMARK Flexibility Score: inf
ROOT
ATOM      1  C   UNL     1     -34.192 -62.406   0.656  1.00  0.00     0.053 C 
ENDROOT
BRANCH   1   2
ATOM      2  C   UNL     1     -34.482 -60.975   0.331  1.00  0.00     0.041 C 
ATOM      3  O   UNL     1     -33.864 -60.398  -0.601  1.00  0.00    -0.550 OA
ATOM      4  O   UNL     1     -35.472 -60.292   1.028  1.00  0.00    -0.550 OA
ENDBRANCH   1   2
BRANCH   1   5
ATOM      5  C   UNL     1     -34.318 -63.277  -0.598  1.00  0.00     0.006 C 
BRANCH   5   6
ATOM      6  C   UNL     1     -33.197 -64.321  -0.658  1.00  0.00    -0.003 C 
ATOM      7  C   UNL     1     -32.002 -63.898   0.190  1.00  0.00     0.004 C 
ENDBRANCH   5   6
ENDBRANCH   1   5
TORSDOF 3
ENDMDL
MODEL 5
REMARK VINA RESULT:    -3.048     12.532     14.155
REMARK INTER + INTRA:          -3.678
REMARK INTER:                  -3.580
REMARK INTRA:                  -0.099
REMARK UNBOUND:                -0.096
REMARK SMILES CCCCC(=O)[O-]
REMARK SMILES IDX 4 1 5 2 6 3 7 4 3 5 2 6 1 7
REMARK H PARENT
REMARK Flexibility Score: inf
ROOT
ATOM      1  C   UNL     1     -22.370 -48.469  -5.053  1.00  0.00     0.053 C 
ENDROOT
BRANCH   1   2
ATOM      2  C   UNL     1     -22.415 -47.826  -3.704  1.00  0.00     0.041 C 
ATOM      3  O   UNL     1     -22.633 -48.520  -2.677  1.00  0.00    -0.550 OA
ATOM      4  O   UNL     1     -22.168 -46.465  -3.575  1.00  0.00    -0.550 OA
ENDBRANCH   1   2
BRANCH   1   5
ATOM      5  C   UNL     1     -23.712 -49.131  -5.377  1.00  0.00     0.006 C 
BRANCH   5   6
ATOM      6  C   UNL     1     -23.519 -50.595  -5.790  1.00  0.00    -0.003 C 
ATOM      7  C   UNL     1     -22.963 -51.425  -4.637  1.00  0.00     0.004 C 
ENDBRANCH   5   6
ENDBRANCH   1   5
TORSDOF 3
ENDMDL
MODEL 6
REMARK VINA RESULT:    -3.008      1.976      2.621
REMARK INTER + INTRA:          -3.632
REMARK INTER:                  -3.571
REMARK INTRA:                  -0.060
REMARK UNBOUND:                -0.096
REMARK SMILES CCCCC(=O)[O-]
REMARK SMILES IDX 4 1 5 2 6 3 7 4 3 5 2 6 1 7
REMARK H PARENT
REMARK Flexibility Score: inf
ROOT
ATOM      1  C   UNL     1     -23.910 -62.040   2.167  1.00  0.00     0.053 C 
ENDROOT
BRANCH   1   2
ATOM      2  C   UNL     1     -23.143 -63.322   2.086  1.00  0.00     0.041 C 
ATOM      3  O   UNL     1     -22.363 -63.534   1.121  1.00  0.00    -0.550 OA
ATOM      4  O   UNL     1     -23.253 -64.263   3.102  1.00  0.00    -0.550 OA
ENDBRANCH   1   2
BRANCH   1   5
ATOM      5  C   UNL     1     -23.263 -60.972   1.281  1.00  0.00     0.006 C 
BRANCH   5   6
ATOM      6  C   UNL     1     -23.133 -59.640   2.030  1.00  0.00    -0.003 C 
ATOM      7  C   UNL     1     -23.331 -59.829   3.530  1.00  0.00     0.004 C 
ENDBRANCH   5   6
ENDBRANCH   1   5
TORSDOF 3
ENDMDL
MODEL 7
REMARK VINA RESULT:    -3.005     12.894     13.774
REMARK INTER + INTRA:          -3.629
REMARK INTER:                  -3.600
REMARK INTRA:                  -0.029
REMARK UNBOUND:                -0.096
REMARK SMILES CCCCC(=O)[O-]
REMARK SMILES IDX 4 1 5 2 6 3 7 4 3 5 2 6 1 7
REMARK H PARENT
REMARK Flexibility Score: inf
ROOT
ATOM      1  C   UNL     1     -35.428 -60.470   1.440  1.00  0.00     0.053 C 
ENDROOT
BRANCH   1   2
ATOM      2  C   UNL     1     -34.627 -59.634   0.493  1.00  0.00     0.041 C 
ATOM      3  O   UNL     1     -34.598 -58.382   0.622  1.00  0.00    -0.550 OA
ATOM      4  O   UNL     1     -33.872 -60.242  -0.502  1.00  0.00    -0.550 OA
ENDBRANCH   1   2
BRANCH   1   5
ATOM      5  C   UNL     1     -36.500 -59.621   2.129  1.00  0.00     0.006 C 
BRANCH   5   6
ATOM      6  C   UNL     1     -37.854 -60.342   2.134  1.00  0.00    -0.003 C 
ATOM      7  C   UNL     1     -38.985 -59.394   1.747  1.00  0.00     0.004 C 
ENDBRANCH   5   6
ENDBRANCH   1   5
TORSDOF 3
ENDMDL
MODEL 8
REMARK VINA RESULT:    -2.925      2.901      4.039
REMARK INTER + INTRA:          -3.535
REMARK INTER:                  -3.483
REMARK INTRA:                  -0.052
REMARK UNBOUND:                -0.096
REMARK SMILES CCCCC(=O)[O-]
REMARK SMILES IDX 4 1 5 2 6 3 7 4 3 5 2 6 1 7
REMARK H PARENT
REMARK Flexibility Score: inf
ROOT
ATOM      1  C   UNL     1     -22.145 -60.211   0.353  1.00  0.00     0.053 C 
ENDROOT
BRANCH   1   2
ATOM      2  C   UNL     1     -22.114 -59.653  -1.035  1.00  0.00     0.041 C 
ATOM      3  O   UNL     1     -21.875 -60.405  -2.015  1.00  0.00    -0.550 OA
ATOM      4  O   UNL     1     -22.398 -58.310  -1.250  1.00  0.00    -0.550 OA
ENDBRANCH   1   2
BRANCH   1   5
ATOM      5  C   UNL     1     -21.875 -61.718   0.331  1.00  0.00     0.006 C 
BRANCH   5   6
ATOM      6  C   UNL     1     -22.539 -62.413   1.526  1.00  0.00    -0.003 C 
ATOM      7  C   UNL     1     -23.805 -61.680   1.958  1.00  0.00     0.004 C 
ENDBRANCH   5   6
ENDBRANCH   1   5
TORSDOF 3
ENDMDL
MODEL 9
REMARK VINA RESULT:    -2.414      2.900      3.845
REMARK INTER + INTRA:          -2.933
REMARK INTER:                  -2.877
REMARK INTRA:                  -0.057
REMARK UNBOUND:                -0.096
REMARK SMILES CCCCC(=O)[O-]
REMARK SMILES IDX 4 1 5 2 6 3 7 4 3 5 2 6 1 7
REMARK H PARENT
REMARK Flexibility Score: inf
ROOT
ATOM      1  C   UNL     1     -22.031 -60.099   0.446  1.00  0.00     0.053 C 
ENDROOT
BRANCH   1   2
ATOM      2  C   UNL     1     -22.107 -59.588  -0.958  1.00  0.00     0.041 C 
ATOM      3  O   UNL     1     -22.337 -58.371  -1.178  1.00  0.00    -0.550 OA
ATOM      4  O   UNL     1     -21.875 -60.449  -2.023  1.00  0.00    -0.550 OA
ENDBRANCH   1   2
BRANCH   1   5
ATOM      5  C   UNL     1     -21.875 -61.622   0.455  1.00  0.00     0.006 C 
BRANCH   5   6
ATOM      6  C   UNL     1     -22.711 -62.255   1.574  1.00  0.00    -0.003 C 
ATOM      7  C   UNL     1     -23.717 -61.259   2.141  1.00  0.00     0.004 C 
ENDBRANCH   5   6
ENDBRANCH   1   5
TORSDOF 3
ENDMDL
