MODEL 1
REMARK VINA RESULT:    -3.913      0.000      0.000
REMARK INTER + INTRA:          -7.222
REMARK INTER:                  -6.200
REMARK INTRA:                  -1.022
REMARK UNBOUND:                -1.022
REMARK SMILES CCCCCCCCCCCC(=O)[O-]
REMARK SMILES IDX 7 1 8 2 9 3 10 4 11 5 12 6 13 7 14 8 6 9 5 10 4 11 3 12 2 13
REMARK SMILES IDX 1 14
REMARK H PARENT
REMARK Flexibility Score: inf
ROOT
ATOM      1  C   UNL     1     -22.889   8.085  20.581  1.00  0.00     0.000 C 
ENDROOT
BRANCH   1   2
ATOM      2  C   UNL     1     -24.202   7.369  20.945  1.00  0.00     0.000 C 
BRANCH   2   3
ATOM      3  C   UNL     1     -23.972   5.971  21.546  1.00  0.00     0.000 C 
BRANCH   3   4
ATOM      4  C   UNL     1     -22.541   5.458  21.314  1.00  0.00     0.006 C 
BRANCH   4   5
ATOM      5  C   UNL     1     -22.465   4.394  20.211  1.00  0.00     0.053 C 
BRANCH   5   6
ATOM      6  C   UNL     1     -21.049   3.961  20.002  1.00  0.00     0.041 C 
ATOM      7  O   UNL     1     -20.218   4.745  19.473  1.00  0.00    -0.550 OA
ATOM      8  O   UNL     1     -20.657   2.673  20.346  1.00  0.00    -0.550 OA
ENDBRANCH   5   6
ENDBRANCH   4   5
ENDBRANCH   3   4
ENDBRANCH   2   3
ENDBRANCH   1   2
BRANCH   1   9
ATOM      9  C   UNL     1     -22.829   8.663  19.153  1.00  0.00     0.000 C 
BRANCH   9  10
ATOM     10  C   UNL     1     -21.812   7.991  18.204  1.00  0.00    -0.000 C 
BRANCH  10  11
ATOM     11  C   UNL     1     -22.321   6.711  17.511  1.00  0.00    -0.000 C 
BRANCH  11  12
ATOM     12  C   UNL     1     -21.345   6.149  16.453  1.00  0.00    -0.000 C 
BRANCH  12  13
ATOM     13  C   UNL     1     -20.223   7.129  16.074  1.00  0.00    -0.003 C 
ATOM     14  C   UNL     1     -18.831   6.586  16.388  1.00  0.00     0.004 C 
ENDBRANCH  12  13
ENDBRANCH  11  12
ENDBRANCH  10  11
ENDBRANCH   9  10
ENDBRANCH   1   9
TORSDOF 10
ENDMDL
MODEL 2
REMARK VINA RESULT:    -3.902      1.473      4.398
REMARK INTER + INTRA:          -7.205
REMARK INTER:                  -5.955
REMARK INTRA:                  -1.250
REMARK UNBOUND:                -1.022
REMARK SMILES CCCCCCCCCCCC(=O)[O-]
REMARK SMILES IDX 7 1 8 2 9 3 10 4 11 5 12 6 13 7 14 8 6 9 5 10 4 11 3 12 2 13
REMARK SMILES IDX 1 14
REMARK H PARENT
REMARK Flexibility Score: inf
ROOT
ATOM      1  C   UNL     1     -22.014   8.284  18.431  1.00  0.00     0.000 C 
ENDROOT
BRANCH   1   2
ATOM      2  C   UNL     1     -22.582   7.088  17.646  1.00  0.00     0.000 C 
BRANCH   2   3
ATOM      3  C   UNL     1     -21.489   6.264  16.942  1.00  0.00     0.000 C 
BRANCH   3   4
ATOM      4  C   UNL     1     -20.465   7.147  16.210  1.00  0.00     0.006 C 
BRANCH   4   5
ATOM      5  C   UNL     1     -19.053   6.548  16.219  1.00  0.00     0.053 C 
BRANCH   5   6
ATOM      6  C   UNL     1     -18.527   6.476  17.617  1.00  0.00     0.041 C 
ATOM      7  O   UNL     1     -18.515   7.506  18.344  1.00  0.00    -0.550 OA
ATOM      8  O   UNL     1     -18.003   5.285  18.104  1.00  0.00    -0.550 OA
ENDBRANCH   5   6
ENDBRANCH   4   5
ENDBRANCH   3   4
ENDBRANCH   2   3
ENDBRANCH   1   2
BRANCH   1   9
ATOM      9  C   UNL     1     -21.986   8.114  19.963  1.00  0.00     0.000 C 
BRANCH   9  10
ATOM     10  C   UNL     1     -23.361   8.170  20.664  1.00  0.00    -0.000 C 
BRANCH  10  11
ATOM     11  C   UNL     1     -23.975   6.795  20.996  1.00  0.00    -0.000 C 
BRANCH  11  12
ATOM     12  C   UNL     1     -22.930   5.732  21.407  1.00  0.00    -0.000 C 
BRANCH  12  13
ATOM     13  C   UNL     1     -22.834   4.555  20.424  1.00  0.00    -0.003 C 
ATOM     14  C   UNL     1     -21.398   4.239  20.014  1.00  0.00     0.004 C 
ENDBRANCH  12  13
ENDBRANCH  11  12
ENDBRANCH  10  11
ENDBRANCH   9  10
ENDBRANCH   1   9
TORSDOF 10
ENDMDL
MODEL 3
REMARK VINA RESULT:    -3.847      1.514      4.822
REMARK INTER + INTRA:          -7.117
REMARK INTER:                  -5.955
REMARK INTRA:                  -1.162
REMARK UNBOUND:                -1.022
REMARK SMILES CCCCCCCCCCCC(=O)[O-]
REMARK SMILES IDX 7 1 8 2 9 3 10 4 11 5 12 6 13 7 14 8 6 9 5 10 4 11 3 12 2 13
REMARK SMILES IDX 1 14
REMARK H PARENT
REMARK Flexibility Score: inf
ROOT
ATOM      1  C   UNL     1     -22.166   6.481  17.708  1.00  0.00     0.000 C 
ENDROOT
BRANCH   1   2
ATOM      2  C   UNL     1     -21.529   6.057  16.372  1.00  0.00     0.000 C 
BRANCH   2   3
ATOM      3  C   UNL     1     -20.390   6.994  15.932  1.00  0.00     0.000 C 
BRANCH   3   4
ATOM      4  C   UNL     1     -18.999   6.394  16.190  1.00  0.00     0.006 C 
BRANCH   4   5
ATOM      5  C   UNL     1     -18.351   6.931  17.473  1.00  0.00     0.053 C 
BRANCH   5   6
ATOM      6  C   UNL     1     -18.133   5.821  18.450  1.00  0.00     0.041 C 
ATOM      7  O   UNL     1     -16.963   5.480  18.772  1.00  0.00    -0.550 OA
ATOM      8  O   UNL     1     -19.219   5.128  18.971  1.00  0.00    -0.550 OA
ENDBRANCH   5   6
ENDBRANCH   4   5
ENDBRANCH   3   4
ENDBRANCH   2   3
ENDBRANCH   1   2
BRANCH   1   9
ATOM      9  C   UNL     1     -22.040   7.979  18.052  1.00  0.00     0.000 C 
BRANCH   9  10
ATOM     10  C   UNL     1     -21.268   8.303  19.350  1.00  0.00    -0.000 C 
BRANCH  10  11
ATOM     11  C   UNL     1     -21.977   7.872  20.649  1.00  0.00    -0.000 C 
BRANCH  11  12
ATOM     12  C   UNL     1     -23.490   8.192  20.665  1.00  0.00    -0.000 C 
BRANCH  12  13
ATOM     13  C   UNL     1     -24.364   6.998  21.080  1.00  0.00    -0.003 C 
ATOM     14  C   UNL     1     -23.546   5.761  21.441  1.00  0.00     0.004 C 
ENDBRANCH  12  13
ENDBRANCH  11  12
ENDBRANCH  10  11
ENDBRANCH   9  10
ENDBRANCH   1   9
TORSDOF 10
ENDMDL
MODEL 4
REMARK VINA RESULT:    -3.825      2.176      4.160
REMARK INTER + INTRA:          -7.083
REMARK INTER:                  -5.613
REMARK INTRA:                  -1.469
REMARK UNBOUND:                -1.022
REMARK SMILES CCCCCCCCCCCC(=O)[O-]
REMARK SMILES IDX 7 1 8 2 9 3 10 4 11 5 12 6 13 7 14 8 6 9 5 10 4 11 3 12 2 13
REMARK SMILES IDX 1 14
REMARK H PARENT
REMARK Flexibility Score: inf
ROOT
ATOM      1  C   UNL     1     -21.380   6.108  16.679  1.00  0.00     0.000 C 
ENDROOT
BRANCH   1   2
ATOM      2  C   UNL     1     -22.447   6.869  17.488  1.00  0.00     0.000 C 
BRANCH   2   3
ATOM      3  C   UNL     1     -21.891   8.136  18.162  1.00  0.00     0.000 C 
BRANCH   3   4
ATOM      4  C   UNL     1     -22.828   8.684  19.251  1.00  0.00     0.006 C 
BRANCH   4   5
ATOM      5  C   UNL     1     -22.474   8.166  20.651  1.00  0.00     0.053 C 
BRANCH   5   6
ATOM      6  C   UNL     1     -23.400   7.061  21.047  1.00  0.00     0.041 C 
ATOM      7  O   UNL     1     -24.639   7.271  21.132  1.00  0.00    -0.550 OA
ATOM      8  O   UNL     1     -22.891   5.809  21.371  1.00  0.00    -0.550 OA
ENDBRANCH   5   6
ENDBRANCH   4   5
ENDBRANCH   3   4
ENDBRANCH   2   3
ENDBRANCH   1   2
BRANCH   1   9
ATOM      9  C   UNL     1     -20.369   6.994  15.925  1.00  0.00     0.000 C 
BRANCH   9  10
ATOM     10  C   UNL     1     -18.883   6.622  16.118  1.00  0.00    -0.000 C 
BRANCH  10  11
ATOM     11  C   UNL     1     -18.520   6.116  17.528  1.00  0.00    -0.000 C 
BRANCH  11  12
ATOM     12  C   UNL     1     -18.305   7.250  18.557  1.00  0.00    -0.000 C 
BRANCH  12  13
ATOM     13  C   UNL     1     -18.866   6.925  19.951  1.00  0.00    -0.003 C 
ATOM     14  C   UNL     1     -19.674   5.631  19.979  1.00  0.00     0.004 C 
ENDBRANCH  12  13
ENDBRANCH  11  12
ENDBRANCH  10  11
ENDBRANCH   9  10
ENDBRANCH   1   9
TORSDOF 10
ENDMDL
MODEL 5
REMARK VINA RESULT:    -3.765      2.001      4.701
REMARK INTER + INTRA:          -6.988
REMARK INTER:                  -5.645
REMARK INTRA:                  -1.344
REMARK UNBOUND:                -1.022
REMARK SMILES CCCCCCCCCCCC(=O)[O-]
REMARK SMILES IDX 7 1 8 2 9 3 10 4 11 5 12 6 13 7 14 8 6 9 5 10 4 11 3 12 2 13
REMARK SMILES IDX 1 14
REMARK H PARENT
REMARK Flexibility Score: inf
ROOT
ATOM      1  C   UNL     1     -20.374   7.096  15.979  1.00  0.00     0.000 C 
ENDROOT
BRANCH   1   2
ATOM      2  C   UNL     1     -21.485   6.130  16.428  1.00  0.00     0.000 C 
BRANCH   2   3
ATOM      3  C   UNL     1     -22.347   6.701  17.568  1.00  0.00     0.000 C 
BRANCH   3   4
ATOM      4  C   UNL     1     -21.758   7.991  18.162  1.00  0.00     0.006 C 
BRANCH   4   5
ATOM      5  C   UNL     1     -22.746   8.725  19.079  1.00  0.00     0.053 C 
BRANCH   5   6
ATOM      6  C   UNL     1     -23.014   7.918  20.308  1.00  0.00     0.041 C 
ATOM      7  O   UNL     1     -22.072   7.625  21.092  1.00  0.00    -0.550 OA
ATOM      8  O   UNL     1     -24.295   7.446  20.566  1.00  0.00    -0.550 OA
ENDBRANCH   5   6
ENDBRANCH   4   5
ENDBRANCH   3   4
ENDBRANCH   2   3
ENDBRANCH   1   2
BRANCH   1   9
ATOM      9  C   UNL     1     -18.935   6.569  16.148  1.00  0.00     0.000 C 
BRANCH   9  10
ATOM     10  C   UNL     1     -18.359   6.650  17.579  1.00  0.00    -0.000 C 
BRANCH  10  11
ATOM     11  C   UNL     1     -18.505   5.359  18.409  1.00  0.00    -0.000 C 
BRANCH  11  12
ATOM     12  C   UNL     1     -19.402   5.523  19.658  1.00  0.00    -0.000 C 
BRANCH  12  13
ATOM     13  C   UNL     1     -20.010   4.201  20.152  1.00  0.00    -0.003 C 
ATOM     14  C   UNL     1     -21.519   4.123  19.935  1.00  0.00     0.004 C 
ENDBRANCH  12  13
ENDBRANCH  11  12
ENDBRANCH  10  11
ENDBRANCH   9  10
ENDBRANCH   1   9
TORSDOF 10
ENDMDL
MODEL 6
REMARK VINA RESULT:    -3.733      2.233      4.183
REMARK INTER + INTRA:          -6.937
REMARK INTER:                  -5.774
REMARK INTRA:                  -1.162
REMARK UNBOUND:                -1.022
REMARK SMILES CCCCCCCCCCCC(=O)[O-]
REMARK SMILES IDX 7 1 8 2 9 3 10 4 11 5 12 6 13 7 14 8 6 9 5 10 4 11 3 12 2 13
REMARK SMILES IDX 1 14
REMARK H PARENT
REMARK Flexibility Score: inf
ROOT
ATOM      1  C   UNL     1     -20.480   5.576  18.690  1.00  0.00     0.000 C 
ENDROOT
BRANCH   1   2
ATOM      2  C   UNL     1     -20.889   5.029  20.070  1.00  0.00     0.000 C 
BRANCH   2   3
ATOM      3  C   UNL     1     -22.257   4.325  20.050  1.00  0.00     0.000 C 
BRANCH   3   4
ATOM      4  C   UNL     1     -22.438   3.353  21.228  1.00  0.00     0.006 C 
BRANCH   4   5
ATOM      5  C   UNL     1     -23.880   3.317  21.749  1.00  0.00     0.053 C 
BRANCH   5   6
ATOM      6  C   UNL     1     -24.391   1.912  21.770  1.00  0.00     0.041 C 
ATOM      7  O   UNL     1     -25.346   1.595  22.528  1.00  0.00    -0.550 OA
ATOM      8  O   UNL     1     -23.782   0.938  20.988  1.00  0.00    -0.550 OA
ENDBRANCH   5   6
ENDBRANCH   4   5
ENDBRANCH   3   4
ENDBRANCH   2   3
ENDBRANCH   1   2
BRANCH   1   9
ATOM      9  C   UNL     1     -21.643   6.071  17.807  1.00  0.00     0.000 C 
BRANCH   9  10
ATOM     10  C   UNL     1     -21.601   7.567  17.427  1.00  0.00    -0.000 C 
BRANCH  10  11
ATOM     11  C   UNL     1     -21.893   8.538  18.588  1.00  0.00    -0.000 C 
BRANCH  11  12
ATOM     12  C   UNL     1     -23.286   8.337  19.228  1.00  0.00    -0.000 C 
BRANCH  12  13
ATOM     13  C   UNL     1     -23.226   7.907  20.703  1.00  0.00    -0.003 C 
ATOM     14  C   UNL     1     -24.438   7.081  21.129  1.00  0.00     0.004 C 
ENDBRANCH  12  13
ENDBRANCH  11  12
ENDBRANCH  10  11
ENDBRANCH   9  10
ENDBRANCH   1   9
TORSDOF 10
ENDMDL
MODEL 7
REMARK VINA RESULT:    -3.695      1.617      3.238
REMARK INTER + INTRA:          -6.878
REMARK INTER:                  -5.687
REMARK INTRA:                  -1.191
REMARK UNBOUND:                -1.022
REMARK SMILES CCCCCCCCCCCC(=O)[O-]
REMARK SMILES IDX 7 1 8 2 9 3 10 4 11 5 12 6 13 7 14 8 6 9 5 10 4 11 3 12 2 13
REMARK SMILES IDX 1 14
REMARK H PARENT
REMARK Flexibility Score: inf
ROOT
ATOM      1  C   UNL     1     -22.169   7.653  17.741  1.00  0.00     0.000 C 
ENDROOT
BRANCH   1   2
ATOM      2  C   UNL     1     -21.398   8.417  18.833  1.00  0.00     0.000 C 
BRANCH   2   3
ATOM      3  C   UNL     1     -22.132   8.425  20.185  1.00  0.00     0.000 C 
BRANCH   3   4
ATOM      4  C   UNL     1     -23.593   7.964  20.066  1.00  0.00     0.006 C 
BRANCH   4   5
ATOM      5  C   UNL     1     -23.952   6.865  21.074  1.00  0.00     0.053 C 
BRANCH   5   6
ATOM      6  C   UNL     1     -23.015   5.707  20.937  1.00  0.00     0.041 C 
ATOM      7  O   UNL     1     -23.010   5.016  19.884  1.00  0.00    -0.550 OA
ATOM      8  O   UNL     1     -22.180   5.359  21.992  1.00  0.00    -0.550 OA
ENDBRANCH   5   6
ENDBRANCH   4   5
ENDBRANCH   3   4
ENDBRANCH   2   3
ENDBRANCH   1   2
BRANCH   1   9
ATOM      9  C   UNL     1     -21.394   6.500  17.073  1.00  0.00     0.000 C 
BRANCH   9  10
ATOM     10  C   UNL     1     -20.412   6.915  15.956  1.00  0.00    -0.000 C 
BRANCH  10  11
ATOM     11  C   UNL     1     -18.960   6.440  16.162  1.00  0.00    -0.000 C 
BRANCH  11  12
ATOM     12  C   UNL     1     -18.403   6.740  17.572  1.00  0.00    -0.000 C 
BRANCH  12  13
ATOM     13  C   UNL     1     -18.206   5.482  18.433  1.00  0.00    -0.003 C 
ATOM     14  C   UNL     1     -19.077   5.479  19.688  1.00  0.00     0.004 C 
ENDBRANCH  12  13
ENDBRANCH  11  12
ENDBRANCH  10  11
ENDBRANCH   9  10
ENDBRANCH   1   9
TORSDOF 10
ENDMDL
MODEL 8
REMARK VINA RESULT:    -3.663      1.771      4.174
REMARK INTER + INTRA:          -6.827
REMARK INTER:                  -5.541
REMARK INTRA:                  -1.285
REMARK UNBOUND:                -1.022
REMARK SMILES CCCCCCCCCCCC(=O)[O-]
REMARK SMILES IDX 7 1 8 2 9 3 10 4 11 5 12 6 13 7 14 8 6 9 5 10 4 11 3 12 2 13
REMARK SMILES IDX 1 14
REMARK H PARENT
REMARK Flexibility Score: inf
ROOT
ATOM      1  C   UNL     1     -22.172   8.214  21.101  1.00  0.00     0.000 C 
ENDROOT
BRANCH   1   2
ATOM      2  C   UNL     1     -21.207   8.154  19.903  1.00  0.00     0.000 C 
BRANCH   2   3
ATOM      3  C   UNL     1     -21.861   8.611  18.588  1.00  0.00     0.000 C 
BRANCH   3   4
ATOM      4  C   UNL     1     -22.005   7.467  17.571  1.00  0.00     0.006 C 
BRANCH   4   5
ATOM      5  C   UNL     1     -20.997   6.334  17.809  1.00  0.00     0.053 C 
BRANCH   5   6
ATOM      6  C   UNL     1     -19.772   6.545  16.979  1.00  0.00     0.041 C 
ATOM      7  O   UNL     1     -19.849   7.149  15.876  1.00  0.00    -0.550 OA
ATOM      8  O   UNL     1     -18.550   6.032  17.398  1.00  0.00    -0.550 OA
ENDBRANCH   5   6
ENDBRANCH   4   5
ENDBRANCH   3   4
ENDBRANCH   2   3
ENDBRANCH   1   2
BRANCH   1   9
ATOM      9  C   UNL     1     -23.661   8.006  20.758  1.00  0.00     0.000 C 
BRANCH   9  10
ATOM     10  C   UNL     1     -24.264   6.655  21.201  1.00  0.00    -0.000 C 
BRANCH  10  11
ATOM     11  C   UNL     1     -23.229   5.563  21.537  1.00  0.00    -0.000 C 
BRANCH  11  12
ATOM     12  C   UNL     1     -22.886   4.644  20.342  1.00  0.00    -0.000 C 
BRANCH  12  13
ATOM     13  C   UNL     1     -21.762   3.641  20.644  1.00  0.00    -0.003 C 
ATOM     14  C   UNL     1     -20.405   4.312  20.840  1.00  0.00     0.004 C 
ENDBRANCH  12  13
ENDBRANCH  11  12
ENDBRANCH  10  11
ENDBRANCH   9  10
ENDBRANCH   1   9
TORSDOF 10
ENDMDL
MODEL 9
REMARK VINA RESULT:    -3.644      1.184      4.453
REMARK INTER + INTRA:          -6.796
REMARK INTER:                  -5.554
REMARK INTRA:                  -1.242
REMARK UNBOUND:                -1.022
REMARK SMILES CCCCCCCCCCCC(=O)[O-]
REMARK SMILES IDX 7 1 8 2 9 3 10 4 11 5 12 6 13 7 14 8 6 9 5 10 4 11 3 12 2 13
REMARK SMILES IDX 1 14
REMARK H PARENT
REMARK Flexibility Score: inf
ROOT
ATOM      1  C   UNL     1     -20.333   7.146  16.076  1.00  0.00     0.000 C 
ENDROOT
BRANCH   1   2
ATOM      2  C   UNL     1     -18.946   6.493  16.221  1.00  0.00     0.000 C 
BRANCH   2   3
ATOM      3  C   UNL     1     -18.354   6.660  17.632  1.00  0.00     0.000 C 
BRANCH   3   4
ATOM      4  C   UNL     1     -18.462   5.377  18.472  1.00  0.00     0.006 C 
BRANCH   4   5
ATOM      5  C   UNL     1     -19.358   5.551  19.706  1.00  0.00     0.053 C 
BRANCH   5   6
ATOM      6  C   UNL     1     -20.221   4.345  19.897  1.00  0.00     0.041 C 
ATOM      7  O   UNL     1     -21.446   4.389  19.607  1.00  0.00    -0.550 OA
ATOM      8  O   UNL     1     -19.685   3.184  20.442  1.00  0.00    -0.550 OA
ENDBRANCH   5   6
ENDBRANCH   4   5
ENDBRANCH   3   4
ENDBRANCH   2   3
ENDBRANCH   1   2
BRANCH   1   9
ATOM      9  C   UNL     1     -21.504   6.344  16.676  1.00  0.00     0.000 C 
BRANCH   9  10
ATOM     10  C   UNL     1     -22.426   7.128  17.635  1.00  0.00    -0.000 C 
BRANCH  10  11
ATOM     11  C   UNL     1     -21.721   8.225  18.458  1.00  0.00    -0.000 C 
BRANCH  11  12
ATOM     12  C   UNL     1     -22.127   8.238  19.950  1.00  0.00    -0.000 C 
BRANCH  12  13
ATOM     13  C   UNL     1     -23.622   7.964  20.180  1.00  0.00    -0.003 C 
ATOM     14  C   UNL     1     -23.872   6.766  21.093  1.00  0.00     0.004 C 
ENDBRANCH  12  13
ENDBRANCH  11  12
ENDBRANCH  10  11
ENDBRANCH   9  10
ENDBRANCH   1   9
TORSDOF 10
ENDMDL
