MODEL 1
REMARK VINA RESULT:    -7.202      0.000      0.000
REMARK INTER + INTRA:          -9.546
REMARK INTER:                  -9.097
REMARK INTRA:                  -0.449
REMARK UNBOUND:                -0.449
REMARK SMILES Oc1ccc(CCc2cc(O)cc(O)c2)cc1
REMARK SMILES IDX 6 1 5 2 4 3 3 4 2 5 16 6 17 7 1 8 7 10 8 11 15 12 9 13 13 14
REMARK SMILES IDX 10 15 12 16 14 17 11 19
REMARK H PARENT 1 9 14 18 11 20
REMARK Flexibility Score: inf
ROOT
ATOM      1  C   UNL     1     -12.382  -0.644 -10.388  1.00  0.00     0.040 C 
ENDROOT
BRANCH   1   2
ATOM      2  C   UNL     1     -12.945   0.635  -9.822  1.00  0.00    -0.047 A 
ATOM      3  C   UNL     1     -14.335   0.829  -9.752  1.00  0.00     0.007 A 
ATOM      4  C   UNL     1     -14.854   2.035  -9.273  1.00  0.00     0.046 A 
ATOM      5  C   UNL     1     -13.991   3.060  -8.864  1.00  0.00     0.115 A 
ATOM      6  C   UNL     1     -12.084   1.669  -9.418  1.00  0.00     0.007 A 
ATOM      7  C   UNL     1     -12.607   2.873  -8.939  1.00  0.00     0.046 A 
BRANCH   5   8
ATOM      8  O   UNL     1     -14.498   4.267  -8.387  1.00  0.00    -0.508 OA
ATOM      9  H   UNL     1     -14.538   4.469  -7.395  1.00  0.00     0.293 HD
ENDBRANCH   5   8
ENDBRANCH   1   2
BRANCH   1  10
ATOM     10  C   UNL     1     -10.923  -0.863  -9.960  1.00  0.00     0.040 C 
BRANCH  10  11
ATOM     11  C   UNL     1     -10.707  -2.246  -9.401  1.00  0.00    -0.040 A 
ATOM     12  C   UNL     1      -9.841  -2.441  -8.314  1.00  0.00     0.050 A 
ATOM     13  C   UNL     1     -11.419  -3.340  -9.921  1.00  0.00     0.050 A 
ATOM     14  C   UNL     1      -9.675  -3.719  -7.762  1.00  0.00     0.119 A 
ATOM     15  C   UNL     1     -11.257  -4.614  -9.371  1.00  0.00     0.119 A 
ATOM     16  C   UNL     1     -10.382  -4.803  -8.292  1.00  0.00     0.092 A 
BRANCH  14  17
ATOM     17  O   UNL     1      -8.814  -3.921  -6.686  1.00  0.00    -0.508 OA
ATOM     18  H   UNL     1      -7.999  -4.519  -6.764  1.00  0.00     0.293 HD
ENDBRANCH  14  17
BRANCH  15  19
ATOM     19  O   UNL     1     -11.972  -5.687  -9.900  1.00  0.00    -0.508 OA
ATOM     20  H   UNL     1     -12.970  -5.783  -9.752  1.00  0.00     0.293 HD
ENDBRANCH  15  19
ENDBRANCH  10  11
ENDBRANCH   1  10
TORSDOF 6
ENDMDL
MODEL 2
REMARK VINA RESULT:    -7.183      0.093      2.037
REMARK INTER + INTRA:          -9.522
REMARK INTER:                  -9.079
REMARK INTRA:                  -0.443
REMARK UNBOUND:                -0.449
REMARK SMILES Oc1ccc(CCc2cc(O)cc(O)c2)cc1
REMARK SMILES IDX 6 1 5 2 4 3 3 4 2 5 16 6 17 7 1 8 7 10 8 11 15 12 9 13 13 14
REMARK SMILES IDX 10 15 12 16 14 17 11 19
REMARK H PARENT 1 9 14 18 11 20
REMARK Flexibility Score: inf
ROOT
ATOM      1  C   UNL     1     -12.362  -0.674 -10.381  1.00  0.00     0.040 C 
ENDROOT
BRANCH   1   2
ATOM      2  C   UNL     1     -12.927   0.607  -9.823  1.00  0.00    -0.047 A 
ATOM      3  C   UNL     1     -14.318   0.798  -9.751  1.00  0.00     0.007 A 
ATOM      4  C   UNL     1     -14.840   2.006  -9.279  1.00  0.00     0.046 A 
ATOM      5  C   UNL     1     -13.979   3.036  -8.879  1.00  0.00     0.115 A 
ATOM      6  C   UNL     1     -12.069   1.646  -9.428  1.00  0.00     0.007 A 
ATOM      7  C   UNL     1     -12.594   2.852  -8.955  1.00  0.00     0.046 A 
BRANCH   5   8
ATOM      8  O   UNL     1     -14.487   4.245  -8.409  1.00  0.00    -0.508 OA
ATOM      9  H   UNL     1     -13.926   4.873  -7.846  1.00  0.00     0.293 HD
ENDBRANCH   5   8
ENDBRANCH   1   2
BRANCH   1  10
ATOM     10  C   UNL     1     -10.905  -0.891  -9.946  1.00  0.00     0.040 C 
BRANCH  10  11
ATOM     11  C   UNL     1     -10.697  -2.262  -9.356  1.00  0.00    -0.040 A 
ATOM     12  C   UNL     1     -11.347  -3.376  -9.910  1.00  0.00     0.050 A 
ATOM     13  C   UNL     1      -9.803  -2.446  -8.288  1.00  0.00     0.050 A 
ATOM     14  C   UNL     1     -11.119  -4.659  -9.393  1.00  0.00     0.119 A 
ATOM     15  C   UNL     1      -9.571  -3.725  -7.772  1.00  0.00     0.119 A 
ATOM     16  C   UNL     1     -10.233  -4.830  -8.324  1.00  0.00     0.092 A 
BRANCH  14  17
ATOM     17  O   UNL     1     -11.764  -5.767  -9.935  1.00  0.00    -0.508 OA
ATOM     18  H   UNL     1     -12.596  -5.670 -10.505  1.00  0.00     0.293 HD
ENDBRANCH  14  17
BRANCH  15  19
ATOM     19  O   UNL     1      -8.681  -3.888  -6.714  1.00  0.00    -0.508 OA
ATOM     20  H   UNL     1      -8.763  -3.344  -5.863  1.00  0.00     0.293 HD
ENDBRANCH  15  19
ENDBRANCH  10  11
ENDBRANCH   1  10
TORSDOF 6
ENDMDL
MODEL 3
REMARK VINA RESULT:    -6.758      1.318      6.842
REMARK INTER + INTRA:          -8.985
REMARK INTER:                  -8.495
REMARK INTRA:                  -0.490
REMARK UNBOUND:                -0.449
REMARK SMILES Oc1ccc(CCc2cc(O)cc(O)c2)cc1
REMARK SMILES IDX 6 1 5 2 4 3 3 4 2 5 16 6 17 7 1 8 7 10 8 11 15 12 9 13 13 14
REMARK SMILES IDX 10 15 12 16 14 17 11 19
REMARK H PARENT 1 9 14 18 11 20
REMARK Flexibility Score: inf
ROOT
ATOM      1  C   UNL     1     -10.847  -1.122 -10.100  1.00  0.00     0.040 C 
ENDROOT
BRANCH   1   2
ATOM      2  C   UNL     1     -10.614  -2.360  -9.273  1.00  0.00    -0.047 A 
ATOM      3  C   UNL     1      -9.827  -2.299  -8.110  1.00  0.00     0.007 A 
ATOM      4  C   UNL     1      -9.572  -3.458  -7.371  1.00  0.00     0.046 A 
ATOM      5  C   UNL     1     -10.095  -4.689  -7.789  1.00  0.00     0.115 A 
ATOM      6  C   UNL     1     -11.130  -3.597  -9.691  1.00  0.00     0.007 A 
ATOM      7  C   UNL     1     -10.873  -4.754  -8.949  1.00  0.00     0.046 A 
BRANCH   5   8
ATOM      8  O   UNL     1      -9.846  -5.850  -7.061  1.00  0.00    -0.508 OA
ATOM      9  H   UNL     1     -10.577  -6.313  -6.535  1.00  0.00     0.293 HD
ENDBRANCH   5   8
ENDBRANCH   1   2
BRANCH   1  10
ATOM     10  C   UNL     1     -12.319  -0.684 -10.069  1.00  0.00     0.040 C 
BRANCH  10  11
ATOM     11  C   UNL     1     -12.469   0.735  -9.582  1.00  0.00    -0.040 A 
ATOM     12  C   UNL     1     -11.340   1.472  -9.193  1.00  0.00     0.050 A 
ATOM     13  C   UNL     1     -13.732   1.351  -9.573  1.00  0.00     0.050 A 
ATOM     14  C   UNL     1     -11.471   2.807  -8.785  1.00  0.00     0.119 A 
ATOM     15  C   UNL     1     -13.865   2.683  -9.169  1.00  0.00     0.119 A 
ATOM     16  C   UNL     1     -12.734   3.409  -8.772  1.00  0.00     0.092 A 
BRANCH  14  17
ATOM     17  O   UNL     1     -10.355   3.542  -8.394  1.00  0.00    -0.508 OA
ATOM     18  H   UNL     1     -10.256   4.522  -8.633  1.00  0.00     0.293 HD
ENDBRANCH  14  17
BRANCH  15  19
ATOM     19  O   UNL     1     -15.125   3.278  -9.167  1.00  0.00    -0.508 OA
ATOM     20  H   UNL     1     -15.960   2.750  -8.942  1.00  0.00     0.293 HD
ENDBRANCH  15  19
ENDBRANCH  10  11
ENDBRANCH   1  10
TORSDOF 6
ENDMDL
MODEL 4
REMARK VINA RESULT:    -6.746      1.369      7.028
REMARK INTER + INTRA:          -8.970
REMARK INTER:                  -8.497
REMARK INTRA:                  -0.473
REMARK UNBOUND:                -0.449
REMARK SMILES Oc1ccc(CCc2cc(O)cc(O)c2)cc1
REMARK SMILES IDX 6 1 5 2 4 3 3 4 2 5 16 6 17 7 1 8 7 10 8 11 15 12 9 13 13 14
REMARK SMILES IDX 10 15 12 16 14 17 11 19
REMARK H PARENT 1 9 14 18 11 20
REMARK Flexibility Score: inf
ROOT
ATOM      1  C   UNL     1     -10.634  -1.188  -9.964  1.00  0.00     0.040 C 
ENDROOT
BRANCH   1   2
ATOM      2  C   UNL     1     -10.411  -2.487  -9.234  1.00  0.00    -0.047 A 
ATOM      3  C   UNL     1     -10.963  -3.682  -9.728  1.00  0.00     0.007 A 
ATOM      4  C   UNL     1     -10.796  -4.878  -9.023  1.00  0.00     0.046 A 
ATOM      5  C   UNL     1     -10.082  -4.892  -7.818  1.00  0.00     0.115 A 
ATOM      6  C   UNL     1      -9.703  -2.505  -8.021  1.00  0.00     0.007 A 
ATOM      7  C   UNL     1      -9.538  -3.703  -7.321  1.00  0.00     0.046 A 
BRANCH   5   8
ATOM      8  O   UNL     1      -9.912  -6.078  -7.107  1.00  0.00    -0.508 OA
ATOM      9  H   UNL     1     -10.015  -6.110  -6.099  1.00  0.00     0.293 HD
ENDBRANCH   5   8
ENDBRANCH   1   2
BRANCH   1  10
ATOM     10  C   UNL     1     -12.121  -0.808 -10.010  1.00  0.00     0.040 C 
BRANCH  10  11
ATOM     11  C   UNL     1     -12.342   0.632  -9.621  1.00  0.00    -0.040 A 
ATOM     12  C   UNL     1     -13.631   1.185  -9.662  1.00  0.00     0.050 A 
ATOM     13  C   UNL     1     -11.271   1.412  -9.155  1.00  0.00     0.050 A 
ATOM     14  C   UNL     1     -13.847   2.510  -9.256  1.00  0.00     0.119 A 
ATOM     15  C   UNL     1     -11.483   2.732  -8.747  1.00  0.00     0.119 A 
ATOM     16  C   UNL     1     -12.772   3.281  -8.801  1.00  0.00     0.092 A 
BRANCH  14  17
ATOM     17  O   UNL     1     -15.123   3.066  -9.298  1.00  0.00    -0.508 OA
ATOM     18  H   UNL     1     -15.272   4.061  -9.172  1.00  0.00     0.293 HD
ENDBRANCH  14  17
BRANCH  15  19
ATOM     19  O   UNL     1     -10.409   3.491  -8.287  1.00  0.00    -0.508 OA
ATOM     20  H   UNL     1      -9.592   3.057  -7.875  1.00  0.00     0.293 HD
ENDBRANCH  15  19
ENDBRANCH  10  11
ENDBRANCH   1  10
TORSDOF 6
ENDMDL
MODEL 5
REMARK VINA RESULT:    -6.073     14.998     16.402
REMARK INTER + INTRA:          -8.120
REMARK INTER:                  -7.531
REMARK INTRA:                  -0.589
REMARK UNBOUND:                -0.449
REMARK SMILES Oc1ccc(CCc2cc(O)cc(O)c2)cc1
REMARK SMILES IDX 6 1 5 2 4 3 3 4 2 5 16 6 17 7 1 8 7 10 8 11 15 12 9 13 13 14
REMARK SMILES IDX 10 15 12 16 14 17 11 19
REMARK H PARENT 1 9 14 18 11 20
REMARK Flexibility Score: inf
ROOT
ATOM      1  C   UNL     1     -13.942   5.033   4.569  1.00  0.00     0.040 C 
ENDROOT
BRANCH   1   2
ATOM      2  C   UNL     1     -14.069   6.433   4.023  1.00  0.00    -0.047 A 
ATOM      3  C   UNL     1     -14.181   6.647   2.638  1.00  0.00     0.007 A 
ATOM      4  C   UNL     1     -14.248   7.948   2.130  1.00  0.00     0.046 A 
ATOM      5  C   UNL     1     -14.200   9.046   2.999  1.00  0.00     0.115 A 
ATOM      6  C   UNL     1     -14.013   7.537   4.888  1.00  0.00     0.007 A 
ATOM      7  C   UNL     1     -14.082   8.836   4.377  1.00  0.00     0.046 A 
BRANCH   5   8
ATOM      8  O   UNL     1     -14.264  10.347   2.504  1.00  0.00    -0.508 OA
ATOM      9  H   UNL     1     -14.862  11.046   2.928  1.00  0.00     0.293 HD
ENDBRANCH   5   8
ENDBRANCH   1   2
BRANCH   1  10
ATOM     10  C   UNL     1     -12.494   4.526   4.507  1.00  0.00     0.040 C 
BRANCH  10  11
ATOM     11  C   UNL     1     -11.838   4.545   5.864  1.00  0.00    -0.040 A 
ATOM     12  C   UNL     1     -12.273   3.671   6.872  1.00  0.00     0.050 A 
ATOM     13  C   UNL     1     -10.744   5.393   6.111  1.00  0.00     0.050 A 
ATOM     14  C   UNL     1     -11.634   3.653   8.119  1.00  0.00     0.119 A 
ATOM     15  C   UNL     1     -10.103   5.375   7.353  1.00  0.00     0.119 A 
ATOM     16  C   UNL     1     -10.551   4.506   8.357  1.00  0.00     0.092 A 
BRANCH  14  17
ATOM     17  O   UNL     1     -12.064   2.791   9.125  1.00  0.00    -0.508 OA
ATOM     18  H   UNL     1     -11.410   2.354   9.764  1.00  0.00     0.293 HD
ENDBRANCH  14  17
BRANCH  15  19
ATOM     19  O   UNL     1      -9.020   6.222   7.579  1.00  0.00    -0.508 OA
ATOM     20  H   UNL     1      -8.277   6.325   6.898  1.00  0.00     0.293 HD
ENDBRANCH  15  19
ENDBRANCH  10  11
ENDBRANCH   1  10
TORSDOF 6
ENDMDL
MODEL 6
REMARK VINA RESULT:    -6.037     14.977     16.358
REMARK INTER + INTRA:          -8.074
REMARK INTER:                  -7.534
REMARK INTRA:                  -0.540
REMARK UNBOUND:                -0.449
REMARK SMILES Oc1ccc(CCc2cc(O)cc(O)c2)cc1
REMARK SMILES IDX 6 1 5 2 4 3 3 4 2 5 16 6 17 7 1 8 7 10 8 11 15 12 9 13 13 14
REMARK SMILES IDX 10 15 12 16 14 17 11 19
REMARK H PARENT 1 9 14 18 11 20
REMARK Flexibility Score: inf
ROOT
ATOM      1  C   UNL     1     -13.987   5.215   4.712  1.00  0.00     0.040 C 
ENDROOT
BRANCH   1   2
ATOM      2  C   UNL     1     -14.097   6.561   4.042  1.00  0.00    -0.047 A 
ATOM      3  C   UNL     1     -14.176   6.653   2.642  1.00  0.00     0.007 A 
ATOM      4  C   UNL     1     -14.227   7.903   2.020  1.00  0.00     0.046 A 
ATOM      5  C   UNL     1     -14.196   9.074   2.789  1.00  0.00     0.115 A 
ATOM      6  C   UNL     1     -14.057   7.738   4.808  1.00  0.00     0.007 A 
ATOM      7  C   UNL     1     -14.110   8.986   4.182  1.00  0.00     0.046 A 
BRANCH   5   8
ATOM      8  O   UNL     1     -14.245  10.326   2.179  1.00  0.00    -0.508 OA
ATOM      9  H   UNL     1     -15.061  10.921   2.256  1.00  0.00     0.293 HD
ENDBRANCH   5   8
ENDBRANCH   1   2
BRANCH   1  10
ATOM     10  C   UNL     1     -12.577   4.623   4.575  1.00  0.00     0.040 C 
BRANCH  10  11
ATOM     11  C   UNL     1     -11.869   4.554   5.904  1.00  0.00    -0.040 A 
ATOM     12  C   UNL     1     -10.798   5.419   6.180  1.00  0.00     0.050 A 
ATOM     13  C   UNL     1     -12.315   3.668   6.899  1.00  0.00     0.050 A 
ATOM     14  C   UNL     1     -10.169   5.389   7.432  1.00  0.00     0.119 A 
ATOM     15  C   UNL     1     -11.690   3.638   8.150  1.00  0.00     0.119 A 
ATOM     16  C   UNL     1     -10.615   4.498   8.414  1.00  0.00     0.092 A 
BRANCH  14  17
ATOM     17  O   UNL     1      -9.103   6.241   7.712  1.00  0.00    -0.508 OA
ATOM     18  H   UNL     1      -8.267   5.909   8.178  1.00  0.00     0.293 HD
ENDBRANCH  14  17
BRANCH  15  19
ATOM     19  O   UNL     1     -12.147   2.754   9.124  1.00  0.00    -0.508 OA
ATOM     20  H   UNL     1     -11.783   1.811   9.196  1.00  0.00     0.293 HD
ENDBRANCH  15  19
ENDBRANCH  10  11
ENDBRANCH   1  10
TORSDOF 6
ENDMDL
MODEL 7
REMARK VINA RESULT:    -6.035     16.464     17.924
REMARK INTER + INTRA:          -8.072
REMARK INTER:                  -7.698
REMARK INTRA:                  -0.374
REMARK UNBOUND:                -0.449
REMARK SMILES Oc1ccc(CCc2cc(O)cc(O)c2)cc1
REMARK SMILES IDX 6 1 5 2 4 3 3 4 2 5 16 6 17 7 1 8 7 10 8 11 15 12 9 13 13 14
REMARK SMILES IDX 10 15 12 16 14 17 11 19
REMARK H PARENT 1 9 14 18 11 20
REMARK Flexibility Score: inf
ROOT
ATOM      1  C   UNL     1      -9.699   7.859   6.117  1.00  0.00     0.040 C 
ENDROOT
BRANCH   1   2
ATOM      2  C   UNL     1      -8.672   8.961   6.072  1.00  0.00    -0.047 A 
ATOM      3  C   UNL     1      -7.364   8.731   6.535  1.00  0.00     0.007 A 
ATOM      4  C   UNL     1      -6.426   9.768   6.538  1.00  0.00     0.046 A 
ATOM      5  C   UNL     1      -6.786  11.044   6.084  1.00  0.00     0.115 A 
ATOM      6  C   UNL     1      -9.028  10.243   5.625  1.00  0.00     0.007 A 
ATOM      7  C   UNL     1      -8.087  11.277   5.628  1.00  0.00     0.046 A 
BRANCH   5   8
ATOM      8  O   UNL     1      -5.860  12.084   6.084  1.00  0.00    -0.508 OA
ATOM      9  H   UNL     1      -5.718  12.666   6.901  1.00  0.00     0.293 HD
ENDBRANCH   5   8
ENDBRANCH   1   2
BRANCH   1  10
ATOM     10  C   UNL     1      -9.093   6.534   6.601  1.00  0.00     0.040 C 
BRANCH  10  11
ATOM     11  C   UNL     1     -10.094   5.408   6.543  1.00  0.00    -0.040 A 
ATOM     12  C   UNL     1     -10.299   4.586   7.662  1.00  0.00     0.050 A 
ATOM     13  C   UNL     1     -10.874   5.212   5.390  1.00  0.00     0.050 A 
ATOM     14  C   UNL     1     -11.263   3.569   7.626  1.00  0.00     0.119 A 
ATOM     15  C   UNL     1     -11.838   4.200   5.354  1.00  0.00     0.119 A 
ATOM     16  C   UNL     1     -12.029   3.377   6.472  1.00  0.00     0.092 A 
BRANCH  14  17
ATOM     17  O   UNL     1     -11.469   2.747   8.732  1.00  0.00    -0.508 OA
ATOM     18  H   UNL     1     -10.708   2.488   9.349  1.00  0.00     0.293 HD
ENDBRANCH  14  17
BRANCH  15  19
ATOM     19  O   UNL     1     -12.602   4.021   4.203  1.00  0.00    -0.508 OA
ATOM     20  H   UNL     1     -12.189   3.693   3.337  1.00  0.00     0.293 HD
ENDBRANCH  15  19
ENDBRANCH  10  11
ENDBRANCH   1  10
TORSDOF 6
ENDMDL
MODEL 8
REMARK VINA RESULT:    -6.000     16.465     18.014
REMARK INTER + INTRA:          -8.028
REMARK INTER:                  -7.659
REMARK INTRA:                  -0.369
REMARK UNBOUND:                -0.449
REMARK SMILES Oc1ccc(CCc2cc(O)cc(O)c2)cc1
REMARK SMILES IDX 6 1 5 2 4 3 3 4 2 5 16 6 17 7 1 8 7 10 8 11 15 12 9 13 13 14
REMARK SMILES IDX 10 15 12 16 14 17 11 19
REMARK H PARENT 1 9 14 18 11 20
REMARK Flexibility Score: inf
ROOT
ATOM      1  C   UNL     1      -9.665   7.936   6.121  1.00  0.00     0.040 C 
ENDROOT
BRANCH   1   2
ATOM      2  C   UNL     1      -8.601   9.002   6.071  1.00  0.00    -0.047 A 
ATOM      3  C   UNL     1      -7.296   8.725   6.514  1.00  0.00     0.007 A 
ATOM      4  C   UNL     1      -6.324   9.729   6.513  1.00  0.00     0.046 A 
ATOM      5  C   UNL     1      -6.646  11.020   6.075  1.00  0.00     0.115 A 
ATOM      6  C   UNL     1      -8.920  10.300   5.641  1.00  0.00     0.007 A 
ATOM      7  C   UNL     1      -7.945  11.301   5.640  1.00  0.00     0.046 A 
BRANCH   5   8
ATOM      8  O   UNL     1      -5.685  12.029   6.072  1.00  0.00    -0.508 OA
ATOM      9  H   UNL     1      -4.696  11.818   6.013  1.00  0.00     0.293 HD
ENDBRANCH   5   8
ENDBRANCH   1   2
BRANCH   1  10
ATOM     10  C   UNL     1      -9.102   6.591   6.604  1.00  0.00     0.040 C 
BRANCH  10  11
ATOM     11  C   UNL     1     -10.139   5.499   6.548  1.00  0.00    -0.040 A 
ATOM     12  C   UNL     1     -10.902   5.307   5.386  1.00  0.00     0.050 A 
ATOM     13  C   UNL     1     -10.307   4.624   7.635  1.00  0.00     0.050 A 
ATOM     14  C   UNL     1     -11.834   4.263   5.314  1.00  0.00     0.119 A 
ATOM     15  C   UNL     1     -11.233   3.580   7.565  1.00  0.00     0.119 A 
ATOM     16  C   UNL     1     -11.999   3.402   6.404  1.00  0.00     0.092 A 
BRANCH  14  17
ATOM     17  O   UNL     1     -12.597   4.070   4.165  1.00  0.00    -0.508 OA
ATOM     18  H   UNL     1     -12.526   3.219   3.619  1.00  0.00     0.293 HD
ENDBRANCH  14  17
BRANCH  15  19
ATOM     19  O   UNL     1     -11.385   2.722   8.652  1.00  0.00    -0.508 OA
ATOM     20  H   UNL     1     -10.885   1.842   8.707  1.00  0.00     0.293 HD
ENDBRANCH  15  19
ENDBRANCH  10  11
ENDBRANCH   1  10
TORSDOF 6
ENDMDL
MODEL 9
REMARK VINA RESULT:    -5.777     16.912     19.113
REMARK INTER + INTRA:          -7.745
REMARK INTER:                  -7.304
REMARK INTRA:                  -0.441
REMARK UNBOUND:                -0.449
REMARK SMILES Oc1ccc(CCc2cc(O)cc(O)c2)cc1
REMARK SMILES IDX 6 1 5 2 4 3 3 4 2 5 16 6 17 7 1 8 7 10 8 11 15 12 9 13 13 14
REMARK SMILES IDX 10 15 12 16 14 17 11 19
REMARK H PARENT 1 9 14 18 11 20
REMARK Flexibility Score: inf
ROOT
ATOM      1  C   UNL     1      -9.502   6.557   5.774  1.00  0.00     0.040 C 
ENDROOT
BRANCH   1   2
ATOM      2  C   UNL     1     -10.164   5.525   6.649  1.00  0.00    -0.047 A 
ATOM      3  C   UNL     1     -11.046   4.582   6.093  1.00  0.00     0.007 A 
ATOM      4  C   UNL     1     -11.697   3.656   6.913  1.00  0.00     0.046 A 
ATOM      5  C   UNL     1     -11.478   3.666   8.297  1.00  0.00     0.115 A 
ATOM      6  C   UNL     1      -9.954   5.535   8.037  1.00  0.00     0.007 A 
ATOM      7  C   UNL     1     -10.606   4.607   8.855  1.00  0.00     0.046 A 
BRANCH   5   8
ATOM      8  O   UNL     1     -12.123   2.750   9.125  1.00  0.00    -0.508 OA
ATOM      9  H   UNL     1     -12.387   1.830   8.792  1.00  0.00     0.293 HD
ENDBRANCH   5   8
ENDBRANCH   1   2
BRANCH   1  10
ATOM     10  C   UNL     1      -8.453   7.371   6.546  1.00  0.00     0.040 C 
BRANCH  10  11
ATOM     11  C   UNL     1      -8.431   8.813   6.107  1.00  0.00    -0.040 A 
ATOM     12  C   UNL     1      -9.615   9.566   6.096  1.00  0.00     0.050 A 
ATOM     13  C   UNL     1      -7.216   9.432   5.766  1.00  0.00     0.050 A 
ATOM     14  C   UNL     1      -9.590  10.920   5.733  1.00  0.00     0.119 A 
ATOM     15  C   UNL     1      -7.188  10.783   5.407  1.00  0.00     0.119 A 
ATOM     16  C   UNL     1      -8.377  11.525   5.388  1.00  0.00     0.092 A 
BRANCH  14  17
ATOM     17  O   UNL     1     -10.762  11.672   5.716  1.00  0.00    -0.508 OA
ATOM     18  H   UNL     1     -11.344  11.727   4.889  1.00  0.00     0.293 HD
ENDBRANCH  14  17
BRANCH  15  19
ATOM     19  O   UNL     1      -5.974  11.380   5.074  1.00  0.00    -0.508 OA
ATOM     20  H   UNL     1      -5.929  12.172   4.444  1.00  0.00     0.293 HD
ENDBRANCH  15  19
ENDBRANCH  10  11
ENDBRANCH   1  10
TORSDOF 6
ENDMDL
