MODEL 1
REMARK VINA RESULT:    -6.360      0.000      0.000
REMARK INTER + INTRA:          -7.222
REMARK INTER:                  -7.103
REMARK INTRA:                  -0.118
REMARK UNBOUND:                -0.118
REMARK SMILES COc1cc2ccc(=O)oc2cc1OC
REMARK SMILES IDX 3 1 13 2 12 3 11 4 5 5 4 6 6 7 7 8 8 9 9 10 10 11 2 12 1 13
REMARK SMILES IDX 14 14 15 15
REMARK H PARENT
REMARK Flexibility Score: inf
ROOT
ATOM      1  C   UNL     1       5.200  47.515   9.225  1.00  0.00     0.161 A 
ATOM      2  C   UNL     1       3.987  47.773   8.565  1.00  0.00     0.164 A 
ATOM      3  C   UNL     1       2.813  47.109   8.975  1.00  0.00     0.098 A 
ATOM      4  C   UNL     1       2.849  46.196  10.032  1.00  0.00     0.142 A 
ATOM      5  C   UNL     1       4.067  45.938  10.695  1.00  0.00     0.022 A 
ATOM      6  C   UNL     1       5.235  46.595  10.292  1.00  0.00     0.062 A 
ATOM      7  C   UNL     1       4.070  45.019  11.750  1.00  0.00     0.019 A 
ATOM      8  C   UNL     1       2.880  44.391  12.114  1.00  0.00     0.094 A 
ATOM      9  C   UNL     1       1.709  44.697  11.411  1.00  0.00     0.336 A 
ATOM     10  O   UNL     1       0.624  44.141  11.724  1.00  0.00    -0.246 OA
ATOM     11  O   UNL     1       1.734  45.575  10.412  1.00  0.00    -0.423 OA
ENDROOT
BRANCH   1  12
ATOM     12  O   UNL     1       6.350  48.194   8.790  1.00  0.00    -0.493 OA
ATOM     13  C   UNL     1       7.573  48.259   9.516  1.00  0.00     0.278 C 
ENDBRANCH   1  12
BRANCH   2  14
ATOM     14  O   UNL     1       3.988  48.696   7.507  1.00  0.00    -0.493 OA
ATOM     15  C   UNL     1       3.440  50.008   7.580  1.00  0.00     0.278 C 
ENDBRANCH   2  14
TORSDOF 2
ENDMDL
MODEL 2
REMARK VINA RESULT:    -6.320      0.968      2.751
REMARK INTER + INTRA:          -7.177
REMARK INTER:                  -7.059
REMARK INTRA:                  -0.118
REMARK UNBOUND:                -0.118
REMARK SMILES COc1cc2ccc(=O)oc2cc1OC
REMARK SMILES IDX 3 1 13 2 12 3 11 4 5 5 4 6 6 7 7 8 8 9 9 10 10 11 2 12 1 13
REMARK SMILES IDX 14 14 15 15
REMARK H PARENT
REMARK Flexibility Score: inf
ROOT
ATOM      1  C   UNL     1       3.762  47.897   8.399  1.00  0.00     0.161 A 
ATOM      2  C   UNL     1       4.915  47.501   9.099  1.00  0.00     0.164 A 
ATOM      3  C   UNL     1       4.826  46.492  10.078  1.00  0.00     0.098 A 
ATOM      4  C   UNL     1       3.600  45.884  10.359  1.00  0.00     0.142 A 
ATOM      5  C   UNL     1       2.444  46.280   9.656  1.00  0.00     0.022 A 
ATOM      6  C   UNL     1       2.526  47.281   8.681  1.00  0.00     0.062 A 
ATOM      7  C   UNL     1       1.231  45.652   9.959  1.00  0.00     0.019 A 
ATOM      8  C   UNL     1       1.200  44.660  10.938  1.00  0.00     0.094 A 
ATOM      9  C   UNL     1       2.387  44.318  11.594  1.00  0.00     0.336 A 
ATOM     10  O   UNL     1       2.381  43.425  12.481  1.00  0.00    -0.246 OA
ATOM     11  O   UNL     1       3.527  44.931  11.286  1.00  0.00    -0.423 OA
ENDROOT
BRANCH   1  12
ATOM     12  O   UNL     1       3.888  48.905   7.429  1.00  0.00    -0.493 OA
ATOM     13  C   UNL     1       3.343  50.214   7.550  1.00  0.00     0.278 C 
ENDBRANCH   1  12
BRANCH   2  14
ATOM     14  O   UNL     1       6.130  48.134   8.791  1.00  0.00    -0.493 OA
ATOM     15  C   UNL     1       7.325  48.001   9.554  1.00  0.00     0.278 C 
ENDBRANCH   2  14
TORSDOF 2
ENDMDL
MODEL 3
REMARK VINA RESULT:    -5.721      1.621      2.541
REMARK INTER + INTRA:          -6.508
REMARK INTER:                  -6.368
REMARK INTRA:                  -0.140
REMARK UNBOUND:                -0.118
REMARK SMILES COc1cc2ccc(=O)oc2cc1OC
REMARK SMILES IDX 3 1 13 2 12 3 11 4 5 5 4 6 6 7 7 8 8 9 9 10 10 11 2 12 1 13
REMARK SMILES IDX 14 14 15 15
REMARK H PARENT
REMARK Flexibility Score: inf
ROOT
ATOM      1  C   UNL     1       2.976  47.919   8.217  1.00  0.00     0.161 A 
ATOM      2  C   UNL     1       1.660  47.428   8.259  1.00  0.00     0.164 A 
ATOM      3  C   UNL     1       1.317  46.427   9.189  1.00  0.00     0.098 A 
ATOM      4  C   UNL     1       2.276  45.919  10.069  1.00  0.00     0.142 A 
ATOM      5  C   UNL     1       3.596  46.413  10.027  1.00  0.00     0.022 A 
ATOM      6  C   UNL     1       3.943  47.407   9.106  1.00  0.00     0.062 A 
ATOM      7  C   UNL     1       4.534  45.884  10.921  1.00  0.00     0.019 A 
ATOM      8  C   UNL     1       4.140  44.894  11.820  1.00  0.00     0.094 A 
ATOM      9  C   UNL     1       2.812  44.454  11.805  1.00  0.00     0.336 A 
ATOM     10  O   UNL     1       2.436  43.561  12.608  1.00  0.00    -0.246 OA
ATOM     11  O   UNL     1       1.941  44.974  10.944  1.00  0.00    -0.423 OA
ENDROOT
BRANCH   1  12
ATOM     12  O   UNL     1       3.283  48.917   7.277  1.00  0.00    -0.493 OA
ATOM     13  C   UNL     1       3.318  50.312   7.562  1.00  0.00     0.278 C 
ENDBRANCH   1  12
BRANCH   2  14
ATOM     14  O   UNL     1       0.722  47.961   7.360  1.00  0.00    -0.493 OA
ATOM     15  C   UNL     1      -0.503  48.577   7.743  1.00  0.00     0.278 C 
ENDBRANCH   2  14
TORSDOF 2
ENDMDL
MODEL 4
REMARK VINA RESULT:    -5.633      1.524      5.502
REMARK INTER + INTRA:          -6.410
REMARK INTER:                  -6.293
REMARK INTRA:                  -0.117
REMARK UNBOUND:                -0.118
REMARK SMILES COc1cc2ccc(=O)oc2cc1OC
REMARK SMILES IDX 3 1 13 2 12 3 11 4 5 5 4 6 6 7 7 8 8 9 9 10 10 11 2 12 1 13
REMARK SMILES IDX 14 14 15 15
REMARK H PARENT
REMARK Flexibility Score: inf
ROOT
ATOM      1  C   UNL     1       1.543  46.126   9.840  1.00  0.00     0.161 A 
ATOM      2  C   UNL     1       2.295  45.502  10.850  1.00  0.00     0.164 A 
ATOM      3  C   UNL     1       3.671  45.779  10.970  1.00  0.00     0.098 A 
ATOM      4  C   UNL     1       4.293  46.670  10.091  1.00  0.00     0.142 A 
ATOM      5  C   UNL     1       3.539  47.297   9.078  1.00  0.00     0.022 A 
ATOM      6  C   UNL     1       2.171  47.025   8.955  1.00  0.00     0.062 A 
ATOM      7  C   UNL     1       4.190  48.184   8.214  1.00  0.00     0.019 A 
ATOM      8  C   UNL     1       5.554  48.421   8.377  1.00  0.00     0.094 A 
ATOM      9  C   UNL     1       6.238  47.763   9.405  1.00  0.00     0.336 A 
ATOM     10  O   UNL     1       7.470  47.963   9.569  1.00  0.00    -0.246 OA
ATOM     11  O   UNL     1       5.594  46.925  10.213  1.00  0.00    -0.423 OA
ENDROOT
BRANCH   1  12
ATOM     12  O   UNL     1       0.174  45.827   9.751  1.00  0.00    -0.493 OA
ATOM     13  C   UNL     1      -0.787  46.637   9.082  1.00  0.00     0.278 C 
ENDBRANCH   1  12
BRANCH   2  14
ATOM     14  O   UNL     1       1.638  44.613  11.715  1.00  0.00    -0.493 OA
ATOM     15  C   UNL     1       1.903  43.216  11.791  1.00  0.00     0.278 C 
ENDBRANCH   2  14
TORSDOF 2
ENDMDL
MODEL 5
REMARK VINA RESULT:    -5.623      2.150      3.730
REMARK INTER + INTRA:          -6.398
REMARK INTER:                  -6.297
REMARK INTRA:                  -0.101
REMARK UNBOUND:                -0.118
REMARK SMILES COc1cc2ccc(=O)oc2cc1OC
REMARK SMILES IDX 3 1 13 2 12 3 11 4 5 5 4 6 6 7 7 8 8 9 9 10 10 11 2 12 1 13
REMARK SMILES IDX 14 14 15 15
REMARK H PARENT
REMARK Flexibility Score: inf
ROOT
ATOM      1  C   UNL     1       1.074  46.897   8.311  1.00  0.00     0.161 A 
ATOM      2  C   UNL     1       2.318  47.540   8.415  1.00  0.00     0.164 A 
ATOM      3  C   UNL     1       3.236  47.132   9.402  1.00  0.00     0.098 A 
ATOM      4  C   UNL     1       2.917  46.092  10.279  1.00  0.00     0.142 A 
ATOM      5  C   UNL     1       1.669  45.445  10.174  1.00  0.00     0.022 A 
ATOM      6  C   UNL     1       0.753  45.847   9.195  1.00  0.00     0.062 A 
ATOM      7  C   UNL     1       1.379  44.408  11.067  1.00  0.00     0.019 A 
ATOM      8  C   UNL     1       2.324  44.045  12.025  1.00  0.00     0.094 A 
ATOM      9  C   UNL     1       3.542  44.731  12.069  1.00  0.00     0.336 A 
ATOM     10  O   UNL     1       4.409  44.419  12.927  1.00  0.00    -0.246 OA
ATOM     11  O   UNL     1       3.792  45.714  11.209  1.00  0.00    -0.423 OA
ENDROOT
BRANCH   1  12
ATOM     12  O   UNL     1       0.183  47.329   7.315  1.00  0.00    -0.493 OA
ATOM     13  C   UNL     1      -0.969  46.607   6.893  1.00  0.00     0.278 C 
ENDBRANCH   1  12
BRANCH   2  14
ATOM     14  O   UNL     1       2.605  48.581   7.517  1.00  0.00    -0.493 OA
ATOM     15  C   UNL     1       3.768  49.402   7.578  1.00  0.00     0.278 C 
ENDBRANCH   2  14
TORSDOF 2
ENDMDL
MODEL 6
REMARK VINA RESULT:    -5.386      2.033      5.066
REMARK INTER + INTRA:          -6.134
REMARK INTER:                  -6.181
REMARK INTRA:                   0.046
REMARK UNBOUND:                -0.118
REMARK SMILES COc1cc2ccc(=O)oc2cc1OC
REMARK SMILES IDX 3 1 13 2 12 3 11 4 5 5 4 6 6 7 7 8 8 9 9 10 10 11 2 12 1 13
REMARK SMILES IDX 14 14 15 15
REMARK H PARENT
REMARK Flexibility Score: inf
ROOT
ATOM      1  C   UNL     1       3.478  45.541   9.664  1.00  0.00     0.161 A 
ATOM      2  C   UNL     1       2.075  45.628   9.669  1.00  0.00     0.164 A 
ATOM      3  C   UNL     1       1.443  46.764   9.126  1.00  0.00     0.098 A 
ATOM      4  C   UNL     1       2.201  47.804   8.583  1.00  0.00     0.142 A 
ATOM      5  C   UNL     1       3.608  47.717   8.576  1.00  0.00     0.022 A 
ATOM      6  C   UNL     1       4.242  46.590   9.114  1.00  0.00     0.062 A 
ATOM      7  C   UNL     1       4.339  48.775   8.025  1.00  0.00     0.019 A 
ATOM      8  C   UNL     1       3.663  49.875   7.501  1.00  0.00     0.094 A 
ATOM      9  C   UNL     1       2.264  49.892   7.541  1.00  0.00     0.336 A 
ATOM     10  O   UNL     1       1.634  50.876   7.074  1.00  0.00    -0.246 OA
ATOM     11  O   UNL     1       1.593  48.873   8.071  1.00  0.00    -0.423 OA
ENDROOT
BRANCH   1  12
ATOM     12  O   UNL     1       4.075  44.395  10.213  1.00  0.00    -0.493 OA
ATOM     13  C   UNL     1       4.122  43.123   9.574  1.00  0.00     0.278 C 
ENDBRANCH   1  12
BRANCH   2  14
ATOM     14  O   UNL     1       1.345  44.565  10.223  1.00  0.00    -0.493 OA
ATOM     15  C   UNL     1       1.025  44.438  11.605  1.00  0.00     0.278 C 
ENDBRANCH   2  14
TORSDOF 2
ENDMDL
MODEL 7
REMARK VINA RESULT:    -4.897      2.560      4.347
REMARK INTER + INTRA:          -5.588
REMARK INTER:                  -5.482
REMARK INTRA:                  -0.105
REMARK UNBOUND:                -0.118
REMARK SMILES COc1cc2ccc(=O)oc2cc1OC
REMARK SMILES IDX 3 1 13 2 12 3 11 4 5 5 4 6 6 7 7 8 8 9 9 10 10 11 2 12 1 13
REMARK SMILES IDX 14 14 15 15
REMARK H PARENT
REMARK Flexibility Score: inf
ROOT
ATOM      1  C   UNL     1       3.259  45.399   9.876  1.00  0.00     0.161 A 
ATOM      2  C   UNL     1       3.904  46.562   9.422  1.00  0.00     0.164 A 
ATOM      3  C   UNL     1       3.145  47.613   8.870  1.00  0.00     0.098 A 
ATOM      4  C   UNL     1       1.756  47.506   8.769  1.00  0.00     0.142 A 
ATOM      5  C   UNL     1       1.108  46.339   9.226  1.00  0.00     0.022 A 
ATOM      6  C   UNL     1       1.857  45.293   9.776  1.00  0.00     0.062 A 
ATOM      7  C   UNL     1      -0.285  46.263   9.112  1.00  0.00     0.019 A 
ATOM      8  C   UNL     1      -0.986  47.332   8.557  1.00  0.00     0.094 A 
ATOM      9  C   UNL     1      -0.276  48.458   8.126  1.00  0.00     0.336 A 
ATOM     10  O   UNL     1      -0.890  49.434   7.622  1.00  0.00    -0.246 OA
ATOM     11  O   UNL     1       1.048  48.505   8.246  1.00  0.00    -0.423 OA
ENDROOT
BRANCH   1  12
ATOM     12  O   UNL     1       4.046  44.372  10.421  1.00  0.00    -0.493 OA
ATOM     13  C   UNL     1       3.798  42.982  10.240  1.00  0.00     0.278 C 
ENDBRANCH   1  12
BRANCH   2  14
ATOM     14  O   UNL     1       5.301  46.635   9.538  1.00  0.00    -0.493 OA
ATOM     15  C   UNL     1       6.085  47.761   9.156  1.00  0.00     0.278 C 
ENDBRANCH   2  14
TORSDOF 2
ENDMDL
MODEL 8
REMARK VINA RESULT:    -4.882      1.832      5.525
REMARK INTER + INTRA:          -5.571
REMARK INTER:                  -5.712
REMARK INTRA:                   0.140
REMARK UNBOUND:                -0.118
REMARK SMILES COc1cc2ccc(=O)oc2cc1OC
REMARK SMILES IDX 3 1 13 2 12 3 11 4 5 5 4 6 6 7 7 8 8 9 9 10 10 11 2 12 1 13
REMARK SMILES IDX 14 14 15 15
REMARK H PARENT
REMARK Flexibility Score: inf
ROOT
ATOM      1  C   UNL     1       1.883  45.424   9.803  1.00  0.00     0.161 A 
ATOM      2  C   UNL     1       3.276  45.576   9.699  1.00  0.00     0.164 A 
ATOM      3  C   UNL     1       3.812  46.765   9.166  1.00  0.00     0.098 A 
ATOM      4  C   UNL     1       2.968  47.793   8.739  1.00  0.00     0.142 A 
ATOM      5  C   UNL     1       1.570  47.641   8.843  1.00  0.00     0.022 A 
ATOM      6  C   UNL     1       1.032  46.463   9.373  1.00  0.00     0.062 A 
ATOM      7  C   UNL     1       0.751  48.689   8.407  1.00  0.00     0.019 A 
ATOM      8  C   UNL     1       1.335  49.843   7.888  1.00  0.00     0.094 A 
ATOM      9  C   UNL     1       2.730  49.923   7.815  1.00  0.00     0.336 A 
ATOM     10  O   UNL     1       3.277  50.957   7.349  1.00  0.00    -0.246 OA
ATOM     11  O   UNL     1       3.485  48.912   8.237  1.00  0.00    -0.423 OA
ENDROOT
BRANCH   1  12
ATOM     12  O   UNL     1       1.383  44.227  10.339  1.00  0.00    -0.493 OA
ATOM     13  C   UNL     1       1.223  43.970  11.731  1.00  0.00     0.278 C 
ENDBRANCH   1  12
BRANCH   2  14
ATOM     14  O   UNL     1       4.094  44.523  10.138  1.00  0.00    -0.493 OA
ATOM     15  C   UNL     1       4.200  43.259   9.490  1.00  0.00     0.278 C 
ENDBRANCH   2  14
TORSDOF 2
ENDMDL
MODEL 9
REMARK VINA RESULT:    -4.819      2.108      4.858
REMARK INTER + INTRA:          -5.500
REMARK INTER:                  -5.356
REMARK INTRA:                  -0.145
REMARK UNBOUND:                -0.118
REMARK SMILES COc1cc2ccc(=O)oc2cc1OC
REMARK SMILES IDX 3 1 13 2 12 3 11 4 5 5 4 6 6 7 7 8 8 9 9 10 10 11 2 12 1 13
REMARK SMILES IDX 14 14 15 15
REMARK H PARENT
REMARK Flexibility Score: inf
ROOT
ATOM      1  C   UNL     1       1.043  46.469   8.971  1.00  0.00     0.161 A 
ATOM      2  C   UNL     1       1.188  47.474   7.999  1.00  0.00     0.164 A 
ATOM      3  C   UNL     1       2.446  48.076   7.797  1.00  0.00     0.098 A 
ATOM      4  C   UNL     1       3.550  47.680   8.557  1.00  0.00     0.142 A 
ATOM      5  C   UNL     1       3.405  46.671   9.531  1.00  0.00     0.022 A 
ATOM      6  C   UNL     1       2.157  46.070   9.735  1.00  0.00     0.062 A 
ATOM      7  C   UNL     1       4.529  46.296  10.275  1.00  0.00     0.019 A 
ATOM      8  C   UNL     1       5.750  46.925  10.035  1.00  0.00     0.094 A 
ATOM      9  C   UNL     1       5.819  47.918   9.051  1.00  0.00     0.336 A 
ATOM     10  O   UNL     1       6.911  48.498   8.818  1.00  0.00    -0.246 OA
ATOM     11  O   UNL     1       4.734  48.255   8.358  1.00  0.00    -0.423 OA
ENDROOT
BRANCH   1  12
ATOM     12  O   UNL     1      -0.225  45.891   9.145  1.00  0.00    -0.493 OA
ATOM     13  C   UNL     1      -1.124  46.219  10.199  1.00  0.00     0.278 C 
ENDBRANCH   1  12
BRANCH   2  14
ATOM     14  O   UNL     1       0.057  47.847   7.255  1.00  0.00    -0.493 OA
ATOM     15  C   UNL     1      -0.818  48.917   7.597  1.00  0.00     0.278 C 
ENDBRANCH   2  14
TORSDOF 2
ENDMDL
