MODEL 1
REMARK VINA RESULT:    -5.249      0.000      0.000
REMARK INTER + INTRA:         -10.482
REMARK INTER:                  -9.545
REMARK INTRA:                  -0.937
REMARK UNBOUND:                -0.937
REMARK SMILES CCCCCCCCCCCCCC[C@@H](C)C(=O)[O-]
REMARK SMILES IDX 9 1 10 2 11 3 12 4 13 5 14 6 15 7 16 8 17 9 18 10 19 11 8 12
REMARK SMILES IDX 7 13 6 14 5 15 4 16 3 17 2 18 1 19
REMARK H PARENT
REMARK Flexibility Score: inf
ROOT
ATOM      1  C   UNL     1      -7.569  33.534   5.679  1.00  0.00     0.000 C 
ENDROOT
BRANCH   1   2
ATOM      2  C   UNL     1      -8.520  32.713   6.567  1.00  0.00     0.000 C 
BRANCH   2   3
ATOM      3  C   UNL     1      -9.730  33.524   7.055  1.00  0.00     0.000 C 
BRANCH   3   4
ATOM      4  C   UNL     1      -9.544  35.038   6.865  1.00  0.00     0.000 C 
BRANCH   4   5
ATOM      5  C   UNL     1     -10.306  35.585   5.644  1.00  0.00     0.001 C 
BRANCH   5   6
ATOM      6  C   UNL     1      -9.945  37.058   5.341  1.00  0.00     0.009 C 
BRANCH   6   7
ATOM      7  C   UNL     1      -9.703  37.948   6.583  1.00  0.00     0.032 C 
ATOM      8  C   UNL     1      -8.500  38.889   6.408  1.00  0.00     0.014 C 
BRANCH   7   9
ATOM      9  C   UNL     1     -10.942  38.695   7.001  1.00  0.00     0.044 C 
ATOM     10  O   UNL     1     -11.425  38.551   8.157  1.00  0.00    -0.550 OA
ATOM     11  O   UNL     1     -11.532  39.595   6.123  1.00  0.00    -0.550 OA
ENDBRANCH   7   9
ENDBRANCH   6   7
ENDBRANCH   5   6
ENDBRANCH   4   5
ENDBRANCH   3   4
ENDBRANCH   2   3
ENDBRANCH   1   2
BRANCH   1  12
ATOM     12  C   UNL     1      -6.075  33.269   5.961  1.00  0.00     0.000 C 
BRANCH  12  13
ATOM     13  C   UNL     1      -5.871  32.125   6.971  1.00  0.00    -0.000 C 
BRANCH  13  14
ATOM     14  C   UNL     1      -4.851  31.080   6.489  1.00  0.00    -0.000 C 
BRANCH  14  15
ATOM     15  C   UNL     1      -5.511  29.916   5.731  1.00  0.00    -0.000 C 
BRANCH  15  16
ATOM     16  C   UNL     1      -4.538  28.756   5.454  1.00  0.00    -0.000 C 
BRANCH  16  17
ATOM     17  C   UNL     1      -3.285  28.718   6.353  1.00  0.00    -0.000 C 
BRANCH  17  18
ATOM     18  C   UNL     1      -3.317  27.659   7.470  1.00  0.00    -0.003 C 
ATOM     19  C   UNL     1      -2.498  28.061   8.696  1.00  0.00     0.004 C 
ENDBRANCH  17  18
ENDBRANCH  16  17
ENDBRANCH  15  16
ENDBRANCH  14  15
ENDBRANCH  13  14
ENDBRANCH  12  13
ENDBRANCH   1  12
TORSDOF 14
ENDMDL
MODEL 2
REMARK VINA RESULT:    -5.187      1.501      2.829
REMARK INTER + INTRA:         -10.368
REMARK INTER:                  -9.704
REMARK INTRA:                  -0.664
REMARK UNBOUND:                -0.937
REMARK SMILES CCCCCCCCCCCCCC[C@@H](C)C(=O)[O-]
REMARK SMILES IDX 9 1 10 2 11 3 12 4 13 5 14 6 15 7 16 8 17 9 18 10 19 11 8 12
REMARK SMILES IDX 7 13 6 14 5 15 4 16 3 17 2 18 1 19
REMARK H PARENT
REMARK Flexibility Score: inf
ROOT
ATOM      1  C   UNL     1      -7.999  34.956   5.641  1.00  0.00     0.000 C 
ENDROOT
BRANCH   1   2
ATOM      2  C   UNL     1      -8.909  36.171   5.894  1.00  0.00     0.000 C 
BRANCH   2   3
ATOM      3  C   UNL     1      -8.144  37.503   5.873  1.00  0.00     0.000 C 
BRANCH   3   4
ATOM      4  C   UNL     1      -9.058  38.714   6.122  1.00  0.00     0.000 C 
BRANCH   4   5
ATOM      5  C   UNL     1     -10.492  38.494   5.609  1.00  0.00     0.001 C 
BRANCH   5   6
ATOM      6  C   UNL     1     -11.485  39.528   6.189  1.00  0.00     0.009 C 
BRANCH   6   7
ATOM      7  C   UNL     1     -12.333  39.032   7.386  1.00  0.00     0.032 C 
ATOM      8  C   UNL     1     -11.962  37.604   7.818  1.00  0.00     0.014 C 
BRANCH   7   9
ATOM      9  C   UNL     1     -12.305  39.993   8.544  1.00  0.00     0.044 C 
ATOM     10  O   UNL     1     -11.995  39.603   9.702  1.00  0.00    -0.550 OA
ATOM     11  O   UNL     1     -12.571  41.339   8.327  1.00  0.00    -0.550 OA
ENDBRANCH   7   9
ENDBRANCH   6   7
ENDBRANCH   5   6
ENDBRANCH   4   5
ENDBRANCH   3   4
ENDBRANCH   2   3
ENDBRANCH   1   2
BRANCH   1  12
ATOM     12  C   UNL     1      -8.741  33.741   5.043  1.00  0.00     0.000 C 
BRANCH  12  13
ATOM     13  C   UNL     1      -7.990  32.421   5.302  1.00  0.00    -0.000 C 
BRANCH  13  14
ATOM     14  C   UNL     1      -7.254  32.410   6.651  1.00  0.00    -0.000 C 
BRANCH  14  15
ATOM     15  C   UNL     1      -5.726  32.330   6.491  1.00  0.00    -0.000 C 
BRANCH  15  16
ATOM     16  C   UNL     1      -5.223  30.893   6.267  1.00  0.00    -0.000 C 
BRANCH  16  17
ATOM     17  C   UNL     1      -3.937  30.519   7.032  1.00  0.00    -0.000 C 
BRANCH  17  18
ATOM     18  C   UNL     1      -3.531  29.037   6.938  1.00  0.00    -0.003 C 
ATOM     19  C   UNL     1      -2.514  28.630   8.004  1.00  0.00     0.004 C 
ENDBRANCH  17  18
ENDBRANCH  16  17
ENDBRANCH  15  16
ENDBRANCH  14  15
ENDBRANCH  13  14
ENDBRANCH  12  13
ENDBRANCH   1  12
TORSDOF 14
ENDMDL
MODEL 3
REMARK VINA RESULT:    -5.110      3.885      8.812
REMARK INTER + INTRA:         -10.229
REMARK INTER:                  -8.613
REMARK INTRA:                  -1.616
REMARK UNBOUND:                -0.937
REMARK SMILES CCCCCCCCCCCCCC[C@@H](C)C(=O)[O-]
REMARK SMILES IDX 9 1 10 2 11 3 12 4 13 5 14 6 15 7 16 8 17 9 18 10 19 11 8 12
REMARK SMILES IDX 7 13 6 14 5 15 4 16 3 17 2 18 1 19
REMARK H PARENT
REMARK Flexibility Score: inf
ROOT
ATOM      1  C   UNL     1      -8.253  38.122   5.871  1.00  0.00     0.000 C 
ENDROOT
BRANCH   1   2
ATOM      2  C   UNL     1      -8.562  36.646   5.571  1.00  0.00     0.000 C 
BRANCH   2   3
ATOM      3  C   UNL     1      -9.033  35.870   6.811  1.00  0.00     0.000 C 
BRANCH   3   4
ATOM      4  C   UNL     1      -9.308  34.388   6.513  1.00  0.00     0.000 C 
BRANCH   4   5
ATOM      5  C   UNL     1      -8.518  33.867   5.298  1.00  0.00     0.001 C 
BRANCH   5   6
ATOM      6  C   UNL     1      -7.174  33.221   5.708  1.00  0.00     0.009 C 
BRANCH   6   7
ATOM      7  C   UNL     1      -7.264  31.747   6.171  1.00  0.00     0.032 C 
ATOM      8  C   UNL     1      -8.291  30.937   5.363  1.00  0.00     0.014 C 
BRANCH   7   9
ATOM      9  C   UNL     1      -5.918  31.073   6.199  1.00  0.00     0.044 C 
ATOM     10  O   UNL     1      -5.714  30.006   5.560  1.00  0.00    -0.550 OA
ATOM     11  O   UNL     1      -4.869  31.662   6.894  1.00  0.00    -0.550 OA
ENDBRANCH   7   9
ENDBRANCH   6   7
ENDBRANCH   5   6
ENDBRANCH   4   5
ENDBRANCH   3   4
ENDBRANCH   2   3
ENDBRANCH   1   2
BRANCH   1  12
ATOM     12  C   UNL     1      -9.404  38.863   6.587  1.00  0.00     0.000 C 
BRANCH  12  13
ATOM     13  C   UNL     1     -10.664  38.958   5.709  1.00  0.00    -0.000 C 
BRANCH  13  14
ATOM     14  C   UNL     1     -11.872  39.539   6.462  1.00  0.00    -0.000 C 
BRANCH  14  15
ATOM     15  C   UNL     1     -11.664  39.561   7.986  1.00  0.00    -0.000 C 
BRANCH  15  16
ATOM     16  C   UNL     1     -12.365  38.392   8.701  1.00  0.00    -0.000 C 
BRANCH  16  17
ATOM     17  C   UNL     1     -11.424  37.374   9.377  1.00  0.00    -0.000 C 
BRANCH  17  18
ATOM     18  C   UNL     1     -11.844  35.901   9.227  1.00  0.00    -0.003 C 
ATOM     19  C   UNL     1     -12.574  35.621   7.914  1.00  0.00     0.004 C 
ENDBRANCH  17  18
ENDBRANCH  16  17
ENDBRANCH  15  16
ENDBRANCH  14  15
ENDBRANCH  13  14
ENDBRANCH  12  13
ENDBRANCH   1  12
TORSDOF 14
ENDMDL
MODEL 4
REMARK VINA RESULT:    -5.110      3.602      6.416
REMARK INTER + INTRA:         -10.229
REMARK INTER:                  -8.025
REMARK INTRA:                  -2.203
REMARK UNBOUND:                -0.937
REMARK SMILES CCCCCCCCCCCCCC[C@@H](C)C(=O)[O-]
REMARK SMILES IDX 9 1 10 2 11 3 12 4 13 5 14 6 15 7 16 8 17 9 18 10 19 11 8 12
REMARK SMILES IDX 7 13 6 14 5 15 4 16 3 17 2 18 1 19
REMARK H PARENT
REMARK Flexibility Score: inf
ROOT
ATOM      1  C   UNL     1     -11.660  39.117   6.632  1.00  0.00     0.000 C 
ENDROOT
BRANCH   1   2
ATOM      2  C   UNL     1     -11.314  39.719   8.004  1.00  0.00     0.000 C 
BRANCH   2   3
ATOM      3  C   UNL     1     -12.360  39.392   9.081  1.00  0.00     0.000 C 
BRANCH   3   4
ATOM      4  C   UNL     1     -12.523  37.880   9.307  1.00  0.00     0.000 C 
BRANCH   4   5
ATOM      5  C   UNL     1     -11.232  37.210   9.810  1.00  0.00     0.001 C 
BRANCH   5   6
ATOM      6  C   UNL     1     -10.709  36.137   8.826  1.00  0.00     0.009 C 
BRANCH   6   7
ATOM      7  C   UNL     1     -11.716  35.017   8.473  1.00  0.00     0.032 C 
ATOM      8  C   UNL     1     -12.045  34.973   6.971  1.00  0.00     0.014 C 
BRANCH   7   9
ATOM      9  C   UNL     1     -11.282  33.672   8.991  1.00  0.00     0.044 C 
ATOM     10  O   UNL     1     -10.875  33.536  10.176  1.00  0.00    -0.550 OA
ATOM     11  O   UNL     1     -11.381  32.555   8.172  1.00  0.00    -0.550 OA
ENDBRANCH   7   9
ENDBRANCH   6   7
ENDBRANCH   5   6
ENDBRANCH   4   5
ENDBRANCH   3   4
ENDBRANCH   2   3
ENDBRANCH   1   2
BRANCH   1  12
ATOM     12  C   UNL     1     -10.430  38.892   5.725  1.00  0.00     0.000 C 
BRANCH  12  13
ATOM     13  C   UNL     1      -9.139  38.700   6.541  1.00  0.00    -0.000 C 
BRANCH  13  14
ATOM     14  C   UNL     1      -8.189  37.666   5.915  1.00  0.00    -0.000 C 
BRANCH  14  15
ATOM     15  C   UNL     1      -8.915  36.381   5.483  1.00  0.00    -0.000 C 
BRANCH  15  16
ATOM     16  C   UNL     1      -8.034  35.125   5.610  1.00  0.00    -0.000 C 
BRANCH  16  17
ATOM     17  C   UNL     1      -8.727  33.894   6.229  1.00  0.00    -0.000 C 
BRANCH  17  18
ATOM     18  C   UNL     1      -7.790  32.722   6.570  1.00  0.00    -0.003 C 
ATOM     19  C   UNL     1      -6.370  32.922   6.041  1.00  0.00     0.004 C 
ENDBRANCH  17  18
ENDBRANCH  16  17
ENDBRANCH  15  16
ENDBRANCH  14  15
ENDBRANCH  13  14
ENDBRANCH  12  13
ENDBRANCH   1  12
TORSDOF 14
ENDMDL
MODEL 5
REMARK VINA RESULT:    -5.068      3.892      8.488
REMARK INTER + INTRA:         -10.153
REMARK INTER:                  -8.154
REMARK INTRA:                  -1.998
REMARK UNBOUND:                -0.937
REMARK SMILES CCCCCCCCCCCCCC[C@@H](C)C(=O)[O-]
REMARK SMILES IDX 9 1 10 2 11 3 12 4 13 5 14 6 15 7 16 8 17 9 18 10 19 11 8 12
REMARK SMILES IDX 7 13 6 14 5 15 4 16 3 17 2 18 1 19
REMARK H PARENT
REMARK Flexibility Score: inf
ROOT
ATOM      1  C   UNL     1     -12.950  35.995   8.181  1.00  0.00     0.000 C 
ENDROOT
BRANCH   1   2
ATOM      2  C   UNL     1     -12.061  35.013   7.398  1.00  0.00     0.000 C 
BRANCH   2   3
ATOM      3  C   UNL     1     -10.685  34.805   8.049  1.00  0.00     0.000 C 
BRANCH   3   4
ATOM      4  C   UNL     1      -9.530  35.302   7.165  1.00  0.00     0.000 C 
BRANCH   4   5
ATOM      5  C   UNL     1      -9.685  34.885   5.691  1.00  0.00     0.001 C 
BRANCH   5   6
ATOM      6  C   UNL     1      -8.548  33.945   5.227  1.00  0.00     0.009 C 
BRANCH   6   7
ATOM      7  C   UNL     1      -8.066  32.920   6.282  1.00  0.00     0.032 C 
ATOM      8  C   UNL     1      -8.946  31.660   6.323  1.00  0.00     0.014 C 
BRANCH   7   9
ATOM      9  C   UNL     1      -6.608  32.581   6.124  1.00  0.00     0.044 C 
ATOM     10  O   UNL     1      -6.199  31.398   6.271  1.00  0.00    -0.550 OA
ATOM     11  O   UNL     1      -5.706  33.572   5.759  1.00  0.00    -0.550 OA
ENDBRANCH   7   9
ENDBRANCH   6   7
ENDBRANCH   5   6
ENDBRANCH   4   5
ENDBRANCH   3   4
ENDBRANCH   2   3
ENDBRANCH   1   2
BRANCH   1  12
ATOM     12  C   UNL     1     -12.478  36.237   9.631  1.00  0.00     0.000 C 
BRANCH  12  13
ATOM     13  C   UNL     1     -12.022  37.690   9.856  1.00  0.00    -0.000 C 
BRANCH  13  14
ATOM     14  C   UNL     1     -12.582  38.659   8.802  1.00  0.00    -0.000 C 
BRANCH  14  15
ATOM     15  C   UNL     1     -11.475  39.402   8.035  1.00  0.00    -0.000 C 
BRANCH  15  16
ATOM     16  C   UNL     1     -11.570  39.207   6.511  1.00  0.00    -0.000 C 
BRANCH  16  17
ATOM     17  C   UNL     1     -10.236  38.892   5.804  1.00  0.00    -0.000 C 
BRANCH  17  18
ATOM     18  C   UNL     1      -8.996  38.907   6.716  1.00  0.00    -0.003 C 
ATOM     19  C   UNL     1      -7.785  38.220   6.086  1.00  0.00     0.004 C 
ENDBRANCH  17  18
ENDBRANCH  16  17
ENDBRANCH  15  16
ENDBRANCH  14  15
ENDBRANCH  13  14
ENDBRANCH  12  13
ENDBRANCH   1  12
TORSDOF 14
ENDMDL
MODEL 6
REMARK VINA RESULT:    -4.976     14.096     16.444
REMARK INTER + INTRA:          -9.986
REMARK INTER:                  -7.686
REMARK INTRA:                  -2.300
REMARK UNBOUND:                -0.937
REMARK SMILES CCCCCCCCCCCCCC[C@@H](C)C(=O)[O-]
REMARK SMILES IDX 9 1 10 2 11 3 12 4 13 5 14 6 15 7 16 8 17 9 18 10 19 11 8 12
REMARK SMILES IDX 7 13 6 14 5 15 4 16 3 17 2 18 1 19
REMARK H PARENT
REMARK Flexibility Score: inf
ROOT
ATOM      1  C   UNL     1       0.724  45.137  -1.522  1.00  0.00     0.000 C 
ENDROOT
BRANCH   1   2
ATOM      2  C   UNL     1       0.910  46.028  -0.282  1.00  0.00     0.000 C 
BRANCH   2   3
ATOM      3  C   UNL     1       2.227  45.750   0.460  1.00  0.00     0.000 C 
BRANCH   3   4
ATOM      4  C   UNL     1       2.827  44.379   0.108  1.00  0.00     0.000 C 
BRANCH   4   5
ATOM      5  C   UNL     1       3.747  43.829   1.213  1.00  0.00     0.001 C 
BRANCH   5   6
ATOM      6  C   UNL     1       3.748  42.283   1.256  1.00  0.00     0.009 C 
BRANCH   6   7
ATOM      7  C   UNL     1       5.090  41.634   1.673  1.00  0.00     0.032 C 
ATOM      8  C   UNL     1       4.897  40.440   2.622  1.00  0.00     0.014 C 
BRANCH   7   9
ATOM      9  C   UNL     1       5.945  41.275   0.487  1.00  0.00     0.044 C 
ATOM     10  O   UNL     1       6.044  40.080   0.098  1.00  0.00    -0.550 OA
ATOM     11  O   UNL     1       6.592  42.278  -0.224  1.00  0.00    -0.550 OA
ENDBRANCH   7   9
ENDBRANCH   6   7
ENDBRANCH   5   6
ENDBRANCH   4   5
ENDBRANCH   3   4
ENDBRANCH   2   3
ENDBRANCH   1   2
BRANCH   1  12
ATOM     12  C   UNL     1      -0.753  44.832  -1.850  1.00  0.00     0.000 C 
BRANCH  12  13
ATOM     13  C   UNL     1      -1.241  43.540  -1.168  1.00  0.00    -0.000 C 
BRANCH  13  14
ATOM     14  C   UNL     1      -0.134  42.482  -1.036  1.00  0.00    -0.000 C 
BRANCH  14  15
ATOM     15  C   UNL     1       0.024  41.969   0.405  1.00  0.00    -0.000 C 
BRANCH  15  16
ATOM     16  C   UNL     1      -0.414  43.002   1.459  1.00  0.00    -0.000 C 
BRANCH  16  17
ATOM     17  C   UNL     1       0.410  43.003   2.763  1.00  0.00    -0.000 C 
BRANCH  17  18
ATOM     18  C   UNL     1       0.262  44.268   3.626  1.00  0.00    -0.003 C 
ATOM     19  C   UNL     1      -0.134  43.961   5.070  1.00  0.00     0.004 C 
ENDBRANCH  17  18
ENDBRANCH  16  17
ENDBRANCH  15  16
ENDBRANCH  14  15
ENDBRANCH  13  14
ENDBRANCH  12  13
ENDBRANCH   1  12
TORSDOF 14
ENDMDL
MODEL 7
REMARK VINA RESULT:    -4.976      1.758      2.654
REMARK INTER + INTRA:          -9.985
REMARK INTER:                  -8.837
REMARK INTRA:                  -1.148
REMARK UNBOUND:                -0.937
REMARK SMILES CCCCCCCCCCCCCC[C@@H](C)C(=O)[O-]
REMARK SMILES IDX 9 1 10 2 11 3 12 4 13 5 14 6 15 7 16 8 17 9 18 10 19 11 8 12
REMARK SMILES IDX 7 13 6 14 5 15 4 16 3 17 2 18 1 19
REMARK H PARENT
REMARK Flexibility Score: inf
ROOT
ATOM      1  C   UNL     1      -8.445  30.878   5.871  1.00  0.00     0.000 C 
ENDROOT
BRANCH   1   2
ATOM      2  C   UNL     1      -7.833  31.936   6.806  1.00  0.00     0.000 C 
BRANCH   2   3
ATOM      3  C   UNL     1      -6.540  32.550   6.247  1.00  0.00     0.000 C 
BRANCH   3   4
ATOM      4  C   UNL     1      -6.753  33.964   5.682  1.00  0.00     0.000 C 
BRANCH   4   5
ATOM      5  C   UNL     1      -8.166  34.509   5.956  1.00  0.00     0.001 C 
BRANCH   5   6
ATOM      6  C   UNL     1      -8.375  35.920   5.357  1.00  0.00     0.009 C 
BRANCH   6   7
ATOM      7  C   UNL     1      -9.399  36.810   6.102  1.00  0.00     0.032 C 
ATOM      8  C   UNL     1      -9.669  36.323   7.535  1.00  0.00     0.014 C 
BRANCH   7   9
ATOM      9  C   UNL     1      -9.022  38.267   6.067  1.00  0.00     0.044 C 
ATOM     10  O   UNL     1      -7.840  38.636   6.303  1.00  0.00    -0.550 OA
ATOM     11  O   UNL     1      -9.975  39.215   5.718  1.00  0.00    -0.550 OA
ENDBRANCH   7   9
ENDBRANCH   6   7
ENDBRANCH   5   6
ENDBRANCH   4   5
ENDBRANCH   3   4
ENDBRANCH   2   3
ENDBRANCH   1   2
BRANCH   1  12
ATOM     12  C   UNL     1      -8.566  29.479   6.512  1.00  0.00     0.000 C 
BRANCH  12  13
ATOM     13  C   UNL     1      -7.662  28.445   5.818  1.00  0.00    -0.000 C 
BRANCH  13  14
ATOM     14  C   UNL     1      -6.953  29.011   4.577  1.00  0.00    -0.000 C 
BRANCH  14  15
ATOM     15  C   UNL     1      -5.501  28.519   4.449  1.00  0.00    -0.000 C 
BRANCH  15  16
ATOM     16  C   UNL     1      -4.867  28.167   5.807  1.00  0.00    -0.000 C 
BRANCH  16  17
ATOM     17  C   UNL     1      -4.035  29.292   6.455  1.00  0.00    -0.000 C 
BRANCH  17  18
ATOM     18  C   UNL     1      -2.707  28.837   7.087  1.00  0.00    -0.003 C 
ATOM     19  C   UNL     1      -2.889  28.218   8.473  1.00  0.00     0.004 C 
ENDBRANCH  17  18
ENDBRANCH  16  17
ENDBRANCH  15  16
ENDBRANCH  14  15
ENDBRANCH  13  14
ENDBRANCH  12  13
ENDBRANCH   1  12
TORSDOF 14
ENDMDL
MODEL 8
REMARK VINA RESULT:    -4.939     14.279     17.061
REMARK INTER + INTRA:          -9.919
REMARK INTER:                  -7.868
REMARK INTRA:                  -2.050
REMARK UNBOUND:                -0.937
REMARK SMILES CCCCCCCCCCCCCC[C@@H](C)C(=O)[O-]
REMARK SMILES IDX 9 1 10 2 11 3 12 4 13 5 14 6 15 7 16 8 17 9 18 10 19 11 8 12
REMARK SMILES IDX 7 13 6 14 5 15 4 16 3 17 2 18 1 19
REMARK H PARENT
REMARK Flexibility Score: inf
ROOT
ATOM      1  C   UNL     1      -0.223  41.860   0.179  1.00  0.00     0.000 C 
ENDROOT
BRANCH   1   2
ATOM      2  C   UNL     1       0.632  42.395   1.340  1.00  0.00     0.000 C 
BRANCH   2   3
ATOM      3  C   UNL     1       1.567  41.328   1.933  1.00  0.00     0.000 C 
BRANCH   3   4
ATOM      4  C   UNL     1       3.016  41.823   2.071  1.00  0.00     0.000 C 
BRANCH   4   5
ATOM      5  C   UNL     1       4.015  40.678   2.320  1.00  0.00     0.001 C 
BRANCH   5   6
ATOM      6  C   UNL     1       5.467  41.085   1.976  1.00  0.00     0.009 C 
BRANCH   6   7
ATOM      7  C   UNL     1       5.744  41.337   0.474  1.00  0.00     0.032 C 
ATOM      8  C   UNL     1       6.681  42.534   0.241  1.00  0.00     0.014 C 
BRANCH   7   9
ATOM      9  C   UNL     1       6.230  40.100  -0.233  1.00  0.00     0.044 C 
ATOM     10  O   UNL     1       6.595  39.084   0.417  1.00  0.00    -0.550 OA
ATOM     11  O   UNL     1       6.226  40.056  -1.621  1.00  0.00    -0.550 OA
ENDBRANCH   7   9
ENDBRANCH   6   7
ENDBRANCH   5   6
ENDBRANCH   4   5
ENDBRANCH   3   4
ENDBRANCH   2   3
ENDBRANCH   1   2
BRANCH   1  12
ATOM     12  C   UNL     1      -0.025  42.633  -1.143  1.00  0.00     0.000 C 
BRANCH  12  13
ATOM     13  C   UNL     1      -0.841  43.937  -1.178  1.00  0.00    -0.000 C 
BRANCH  13  14
ATOM     14  C   UNL     1      -0.223  45.001  -2.099  1.00  0.00    -0.000 C 
BRANCH  14  15
ATOM     15  C   UNL     1       0.231  46.256  -1.333  1.00  0.00    -0.000 C 
BRANCH  15  16
ATOM     16  C   UNL     1       0.933  45.923  -0.004  1.00  0.00    -0.000 C 
BRANCH  16  17
ATOM     17  C   UNL     1       2.465  46.097  -0.007  1.00  0.00    -0.000 C 
BRANCH  17  18
ATOM     18  C   UNL     1       3.267  44.811   0.264  1.00  0.00    -0.003 C 
ATOM     19  C   UNL     1       3.424  43.934  -0.978  1.00  0.00     0.004 C 
ENDBRANCH  17  18
ENDBRANCH  16  17
ENDBRANCH  15  16
ENDBRANCH  14  15
ENDBRANCH  13  14
ENDBRANCH  12  13
ENDBRANCH   1  12
TORSDOF 14
ENDMDL
MODEL 9
REMARK VINA RESULT:    -4.923     14.258     17.110
REMARK INTER + INTRA:          -9.889
REMARK INTER:                  -7.659
REMARK INTRA:                  -2.230
REMARK UNBOUND:                -0.937
REMARK SMILES CCCCCCCCCCCCCC[C@@H](C)C(=O)[O-]
REMARK SMILES IDX 9 1 10 2 11 3 12 4 13 5 14 6 15 7 16 8 17 9 18 10 19 11 8 12
REMARK SMILES IDX 7 13 6 14 5 15 4 16 3 17 2 18 1 19
REMARK H PARENT
REMARK Flexibility Score: inf
ROOT
ATOM      1  C   UNL     1       1.785  46.232   0.462  1.00  0.00     0.000 C 
ENDROOT
BRANCH   1   2
ATOM      2  C   UNL     1       2.793  45.339  -0.281  1.00  0.00     0.000 C 
BRANCH   2   3
ATOM      3  C   UNL     1       3.367  44.222   0.604  1.00  0.00     0.000 C 
BRANCH   3   4
ATOM      4  C   UNL     1       3.899  43.034  -0.213  1.00  0.00     0.000 C 
BRANCH   4   5
ATOM      5  C   UNL     1       5.343  43.245  -0.703  1.00  0.00     0.001 C 
BRANCH   5   6
ATOM      6  C   UNL     1       6.329  42.236  -0.069  1.00  0.00     0.009 C 
BRANCH   6   7
ATOM      7  C   UNL     1       5.861  40.761  -0.078  1.00  0.00     0.032 C 
ATOM      8  C   UNL     1       6.459  39.960  -1.246  1.00  0.00     0.014 C 
BRANCH   7   9
ATOM      9  C   UNL     1       6.091  40.080   1.244  1.00  0.00     0.044 C 
ATOM     10  O   UNL     1       5.328  40.295   2.225  1.00  0.00    -0.550 OA
ATOM     11  O   UNL     1       7.123  39.160   1.374  1.00  0.00    -0.550 OA
ENDBRANCH   7   9
ENDBRANCH   6   7
ENDBRANCH   5   6
ENDBRANCH   4   5
ENDBRANCH   3   4
ENDBRANCH   2   3
ENDBRANCH   1   2
BRANCH   1  12
ATOM     12  C   UNL     1       0.364  46.197  -0.142  1.00  0.00     0.000 C 
BRANCH  12  13
ATOM     13  C   UNL     1       0.317  45.411  -1.465  1.00  0.00    -0.000 C 
BRANCH  13  14
ATOM     14  C   UNL     1      -0.613  44.189  -1.399  1.00  0.00    -0.000 C 
BRANCH  14  15
ATOM     15  C   UNL     1       0.154  42.858  -1.475  1.00  0.00    -0.000 C 
BRANCH  15  16
ATOM     16  C   UNL     1       0.251  42.145  -0.114  1.00  0.00    -0.000 C 
BRANCH  16  17
ATOM     17  C   UNL     1      -0.370  42.908   1.074  1.00  0.00    -0.000 C 
BRANCH  17  18
ATOM     18  C   UNL     1       0.442  42.849   2.380  1.00  0.00    -0.003 C 
ATOM     19  C   UNL     1       0.275  44.100   3.241  1.00  0.00     0.004 C 
ENDBRANCH  17  18
ENDBRANCH  16  17
ENDBRANCH  15  16
ENDBRANCH  14  15
ENDBRANCH  13  14
ENDBRANCH  12  13
ENDBRANCH   1  12
TORSDOF 14
ENDMDL
