MODEL 1
REMARK VINA RESULT:    -3.412      0.000      0.000
REMARK INTER + INTRA:         -14.009
REMARK INTER:                  -8.599
REMARK INTRA:                  -5.410
REMARK UNBOUND:                -5.410
REMARK SMILES CCCCCCCCCCCCCCCCCCCCCCCCCCCC(=O)[O-]
REMARK SMILES IDX 15 1 16 2 17 3 18 4 19 5 20 6 21 7 22 8 23 9 24 10 25 11
REMARK SMILES IDX 26 12 27 13 28 14 29 15 30 16 14 17 13 18 12 19 11 20 10 21
REMARK SMILES IDX 9 22 8 23 7 24 6 25 5 26 4 27 3 28 2 29 1 30
REMARK H PARENT
REMARK Flexibility Score: inf
ROOT
ATOM      1  C   UNL     1      10.428 -11.672  18.353  1.00  0.00     0.000 C 
ENDROOT
BRANCH   1   2
ATOM      2  C   UNL     1      11.101 -12.733  19.244  1.00  0.00     0.000 C 
BRANCH   2   3
ATOM      3  C   UNL     1      10.195 -13.347  20.330  1.00  0.00     0.000 C 
BRANCH   3   4
ATOM      4  C   UNL     1      10.886 -14.352  21.273  1.00  0.00     0.000 C 
BRANCH   4   5
ATOM      5  C   UNL     1      10.956 -13.923  22.750  1.00  0.00     0.000 C 
BRANCH   5   6
ATOM      6  C   UNL     1      12.254 -14.376  23.442  1.00  0.00     0.000 C 
BRANCH   6   7
ATOM      7  C   UNL     1      13.341 -14.822  22.445  1.00  0.00     0.000 C 
BRANCH   7   8
ATOM      8  C   UNL     1      14.401 -13.756  22.111  1.00  0.00     0.000 C 
BRANCH   8   9
ATOM      9  C   UNL     1      14.666 -13.624  20.601  1.00  0.00     0.000 C 
BRANCH   9  10
ATOM     10  C   UNL     1      14.747 -14.993  19.893  1.00  0.00     0.000 C 
BRANCH  10  11
ATOM     11  C   UNL     1      13.698 -15.183  18.781  1.00  0.00     0.000 C 
BRANCH  11  12
ATOM     12  C   UNL     1      13.901 -14.296  17.536  1.00  0.00     0.006 C 
BRANCH  12  13
ATOM     13  C   UNL     1      13.046 -14.699  16.324  1.00  0.00     0.053 C 
BRANCH  13  14
ATOM     14  C   UNL     1      13.705 -15.766  15.505  1.00  0.00     0.041 C 
ATOM     15  O   UNL     1      13.011 -16.528  14.780  1.00  0.00    -0.550 OA
ATOM     16  O   UNL     1      15.080 -15.948  15.576  1.00  0.00    -0.550 OA
ENDBRANCH  13  14
ENDBRANCH  12  13
ENDBRANCH  11  12
ENDBRANCH  10  11
ENDBRANCH   9  10
ENDBRANCH   8   9
ENDBRANCH   7   8
ENDBRANCH   6   7
ENDBRANCH   5   6
ENDBRANCH   4   5
ENDBRANCH   3   4
ENDBRANCH   2   3
ENDBRANCH   1   2
BRANCH   1  17
ATOM     17  C   UNL     1      10.885 -11.748  16.887  1.00  0.00     0.000 C 
BRANCH  17  18
ATOM     18  C   UNL     1      11.588 -10.463  16.410  1.00  0.00     0.000 C 
BRANCH  18  19
ATOM     19  C   UNL     1      12.401  -9.723  17.487  1.00  0.00     0.000 C 
BRANCH  19  20
ATOM     20  C   UNL     1      13.852 -10.218  17.591  1.00  0.00     0.000 C 
BRANCH  20  21
ATOM     21  C   UNL     1      14.233 -10.489  19.055  1.00  0.00     0.000 C 
BRANCH  21  22
ATOM     22  C   UNL     1      13.437  -9.625  20.046  1.00  0.00    -0.000 C 
BRANCH  22  23
ATOM     23  C   UNL     1      13.520 -10.152  21.489  1.00  0.00    -0.000 C 
BRANCH  23  24
ATOM     24  C   UNL     1      12.154 -10.602  22.032  1.00  0.00    -0.000 C 
BRANCH  24  25
ATOM     25  C   UNL     1      11.147  -9.446  22.141  1.00  0.00    -0.000 C 
BRANCH  25  26
ATOM     26  C   UNL     1       9.797  -9.838  21.521  1.00  0.00    -0.000 C 
BRANCH  26  27
ATOM     27  C   UNL     1       8.957 -10.734  22.445  1.00  0.00    -0.000 C 
BRANCH  27  28
ATOM     28  C   UNL     1       7.582 -11.076  21.844  1.00  0.00    -0.000 C 
BRANCH  28  29
ATOM     29  C   UNL     1       6.673  -9.845  21.713  1.00  0.00    -0.003 C 
ATOM     30  C   UNL     1       6.396  -9.462  20.260  1.00  0.00     0.004 C 
ENDBRANCH  28  29
ENDBRANCH  27  28
ENDBRANCH  26  27
ENDBRANCH  25  26
ENDBRANCH  24  25
ENDBRANCH  23  24
ENDBRANCH  22  23
ENDBRANCH  21  22
ENDBRANCH  20  21
ENDBRANCH  19  20
ENDBRANCH  18  19
ENDBRANCH  17  18
ENDBRANCH   1  17
TORSDOF 26
ENDMDL
MODEL 2
REMARK VINA RESULT:    -3.412      2.840      5.865
REMARK INTER + INTRA:         -14.008
REMARK INTER:                  -8.148
REMARK INTRA:                  -5.860
REMARK UNBOUND:                -5.410
REMARK SMILES CCCCCCCCCCCCCCCCCCCCCCCCCCCC(=O)[O-]
REMARK SMILES IDX 15 1 16 2 17 3 18 4 19 5 20 6 21 7 22 8 23 9 24 10 25 11
REMARK SMILES IDX 26 12 27 13 28 14 29 15 30 16 14 17 13 18 12 19 11 20 10 21
REMARK SMILES IDX 9 22 8 23 7 24 6 25 5 26 4 27 3 28 2 29 1 30
REMARK H PARENT
REMARK Flexibility Score: inf
ROOT
ATOM      1  C   UNL     1      13.345 -10.904  17.185  1.00  0.00     0.000 C 
ENDROOT
BRANCH   1   2
ATOM      2  C   UNL     1      12.209 -11.182  16.184  1.00  0.00     0.000 C 
BRANCH   2   3
ATOM      3  C   UNL     1      10.874 -11.625  16.814  1.00  0.00     0.000 C 
BRANCH   3   4
ATOM      4  C   UNL     1      10.669 -11.209  18.284  1.00  0.00     0.000 C 
BRANCH   4   5
ATOM      5  C   UNL     1      10.328 -12.359  19.250  1.00  0.00     0.000 C 
BRANCH   5   6
ATOM      6  C   UNL     1      11.371 -13.490  19.222  1.00  0.00     0.000 C 
BRANCH   6   7
ATOM      7  C   UNL     1      11.093 -14.588  20.266  1.00  0.00     0.000 C 
BRANCH   7   8
ATOM      8  C   UNL     1      10.215 -14.156  21.455  1.00  0.00     0.000 C 
BRANCH   8   9
ATOM      9  C   UNL     1      11.033 -13.784  22.703  1.00  0.00     0.000 C 
BRANCH   9  10
ATOM     10  C   UNL     1      10.791 -12.328  23.157  1.00  0.00     0.000 C 
BRANCH  10  11
ATOM     11  C   UNL     1       9.314 -12.006  23.452  1.00  0.00     0.000 C 
BRANCH  11  12
ATOM     12  C   UNL     1       8.782 -10.719  22.789  1.00  0.00     0.006 C 
BRANCH  12  13
ATOM     13  C   UNL     1       7.684 -10.953  21.739  1.00  0.00     0.053 C 
BRANCH  13  14
ATOM     14  C   UNL     1       7.842 -10.052  20.553  1.00  0.00     0.041 C 
ATOM     15  O   UNL     1       8.417  -8.937  20.676  1.00  0.00    -0.550 OA
ATOM     16  O   UNL     1       7.317 -10.423  19.322  1.00  0.00    -0.550 OA
ENDBRANCH  13  14
ENDBRANCH  12  13
ENDBRANCH  11  12
ENDBRANCH  10  11
ENDBRANCH   9  10
ENDBRANCH   8   9
ENDBRANCH   7   8
ENDBRANCH   6   7
ENDBRANCH   5   6
ENDBRANCH   4   5
ENDBRANCH   3   4
ENDBRANCH   2   3
ENDBRANCH   1   2
BRANCH   1  17
ATOM     17  C   UNL     1      14.256 -12.123  17.407  1.00  0.00     0.000 C 
BRANCH  17  18
ATOM     18  C   UNL     1      14.148 -13.166  16.279  1.00  0.00     0.000 C 
BRANCH  18  19
ATOM     19  C   UNL     1      13.693 -14.568  16.723  1.00  0.00     0.000 C 
BRANCH  19  20
ATOM     20  C   UNL     1      14.723 -15.282  17.611  1.00  0.00     0.000 C 
BRANCH  20  21
ATOM     21  C   UNL     1      14.026 -16.178  18.646  1.00  0.00     0.000 C 
BRANCH  21  22
ATOM     22  C   UNL     1      14.458 -15.867  20.088  1.00  0.00    -0.000 C 
BRANCH  22  23
ATOM     23  C   UNL     1      15.002 -14.436  20.246  1.00  0.00    -0.000 C 
BRANCH  23  24
ATOM     24  C   UNL     1      14.503 -13.753  21.530  1.00  0.00    -0.000 C 
BRANCH  24  25
ATOM     25  C   UNL     1      14.847 -12.256  21.579  1.00  0.00    -0.000 C 
BRANCH  25  26
ATOM     26  C   UNL     1      13.786 -11.428  20.838  1.00  0.00    -0.000 C 
BRANCH  26  27
ATOM     27  C   UNL     1      13.424 -10.129  21.576  1.00  0.00    -0.000 C 
BRANCH  27  28
ATOM     28  C   UNL     1      12.033  -9.598  21.188  1.00  0.00    -0.000 C 
BRANCH  28  29
ATOM     29  C   UNL     1      12.106  -8.336  20.315  1.00  0.00    -0.003 C 
ATOM     30  C   UNL     1      13.537  -7.963  19.927  1.00  0.00     0.004 C 
ENDBRANCH  28  29
ENDBRANCH  27  28
ENDBRANCH  26  27
ENDBRANCH  25  26
ENDBRANCH  24  25
ENDBRANCH  23  24
ENDBRANCH  22  23
ENDBRANCH  21  22
ENDBRANCH  20  21
ENDBRANCH  19  20
ENDBRANCH  18  19
ENDBRANCH  17  18
ENDBRANCH   1  17
TORSDOF 26
ENDMDL
MODEL 3
REMARK VINA RESULT:    -3.376      3.544      6.888
REMARK INTER + INTRA:         -13.918
REMARK INTER:                  -8.062
REMARK INTRA:                  -5.857
REMARK UNBOUND:                -5.410
REMARK SMILES CCCCCCCCCCCCCCCCCCCCCCCCCCCC(=O)[O-]
REMARK SMILES IDX 15 1 16 2 17 3 18 4 19 5 20 6 21 7 22 8 23 9 24 10 25 11
REMARK SMILES IDX 26 12 27 13 28 14 29 15 30 16 14 17 13 18 12 19 11 20 10 21
REMARK SMILES IDX 9 22 8 23 7 24 6 25 5 26 4 27 3 28 2 29 1 30
REMARK H PARENT
REMARK Flexibility Score: inf
ROOT
ATOM      1  C   UNL     1      10.522 -12.868  19.861  1.00  0.00     0.000 C 
ENDROOT
BRANCH   1   2
ATOM      2  C   UNL     1       9.735 -11.605  19.466  1.00  0.00     0.000 C 
BRANCH   2   3
ATOM      3  C   UNL     1       8.563 -11.244  20.401  1.00  0.00     0.000 C 
BRANCH   3   4
ATOM      4  C   UNL     1       8.218 -12.305  21.465  1.00  0.00     0.000 C 
BRANCH   4   5
ATOM      5  C   UNL     1       8.381 -11.846  22.925  1.00  0.00     0.000 C 
BRANCH   5   6
ATOM      6  C   UNL     1       9.761 -12.194  23.510  1.00  0.00     0.000 C 
BRANCH   6   7
ATOM      7  C   UNL     1      10.722 -10.990  23.537  1.00  0.00     0.000 C 
BRANCH   7   8
ATOM      8  C   UNL     1      10.048  -9.610  23.429  1.00  0.00     0.000 C 
BRANCH   8   9
ATOM      9  C   UNL     1      11.009  -8.506  22.956  1.00  0.00     0.000 C 
BRANCH   9  10
ATOM     10  C   UNL     1      10.478  -7.752  21.717  1.00  0.00     0.000 C 
BRANCH  10  11
ATOM     11  C   UNL     1      11.542  -7.514  20.629  1.00  0.00     0.000 C 
BRANCH  11  12
ATOM     12  C   UNL     1      13.002  -7.570  21.122  1.00  0.00     0.006 C 
BRANCH  12  13
ATOM     13  C   UNL     1      14.028  -6.992  20.134  1.00  0.00     0.053 C 
BRANCH  13  14
ATOM     14  C   UNL     1      14.530  -5.650  20.570  1.00  0.00     0.041 C 
ATOM     15  O   UNL     1      15.761  -5.385  20.521  1.00  0.00    -0.550 OA
ATOM     16  O   UNL     1      13.643  -4.706  21.072  1.00  0.00    -0.550 OA
ENDBRANCH  13  14
ENDBRANCH  12  13
ENDBRANCH  11  12
ENDBRANCH  10  11
ENDBRANCH   9  10
ENDBRANCH   8   9
ENDBRANCH   7   8
ENDBRANCH   6   7
ENDBRANCH   5   6
ENDBRANCH   4   5
ENDBRANCH   3   4
ENDBRANCH   2   3
ENDBRANCH   1   2
BRANCH   1  17
ATOM     17  C   UNL     1      11.911 -12.550  20.438  1.00  0.00     0.000 C 
BRANCH  17  18
ATOM     18  C   UNL     1      12.344 -11.093  20.190  1.00  0.00     0.000 C 
BRANCH  18  19
ATOM     19  C   UNL     1      13.798 -10.912  19.719  1.00  0.00     0.000 C 
BRANCH  19  20
ATOM     20  C   UNL     1      13.907 -10.216  18.354  1.00  0.00     0.000 C 
BRANCH  20  21
ATOM     21  C   UNL     1      12.539  -9.681  17.902  1.00  0.00     0.000 C 
BRANCH  21  22
ATOM     22  C   UNL     1      12.055 -10.321  16.591  1.00  0.00    -0.000 C 
BRANCH  22  23
ATOM     23  C   UNL     1      12.789 -11.634  16.267  1.00  0.00    -0.000 C 
BRANCH  23  24
ATOM     24  C   UNL     1      11.981 -12.878  16.671  1.00  0.00    -0.000 C 
BRANCH  24  25
ATOM     25  C   UNL     1      12.822 -14.164  16.653  1.00  0.00    -0.000 C 
BRANCH  25  26
ATOM     26  C   UNL     1      14.148 -13.961  17.402  1.00  0.00    -0.000 C 
BRANCH  26  27
ATOM     27  C   UNL     1      14.376 -15.010  18.502  1.00  0.00    -0.000 C 
BRANCH  27  28
ATOM     28  C   UNL     1      14.944 -14.397  19.794  1.00  0.00    -0.000 C 
BRANCH  28  29
ATOM     29  C   UNL     1      14.470 -15.136  21.055  1.00  0.00    -0.003 C 
ATOM     30  C   UNL     1      13.309 -16.091  20.784  1.00  0.00     0.004 C 
ENDBRANCH  28  29
ENDBRANCH  27  28
ENDBRANCH  26  27
ENDBRANCH  25  26
ENDBRANCH  24  25
ENDBRANCH  23  24
ENDBRANCH  22  23
ENDBRANCH  21  22
ENDBRANCH  20  21
ENDBRANCH  19  20
ENDBRANCH  18  19
ENDBRANCH  17  18
ENDBRANCH   1  17
TORSDOF 26
ENDMDL
MODEL 4
REMARK VINA RESULT:    -3.372      3.170      6.225
REMARK INTER + INTRA:         -13.907
REMARK INTER:                  -8.839
REMARK INTRA:                  -5.068
REMARK UNBOUND:                -5.410
REMARK SMILES CCCCCCCCCCCCCCCCCCCCCCCCCCCC(=O)[O-]
REMARK SMILES IDX 15 1 16 2 17 3 18 4 19 5 20 6 21 7 22 8 23 9 24 10 25 11
REMARK SMILES IDX 26 12 27 13 28 14 29 15 30 16 14 17 13 18 12 19 11 20 10 21
REMARK SMILES IDX 9 22 8 23 7 24 6 25 5 26 4 27 3 28 2 29 1 30
REMARK H PARENT
REMARK Flexibility Score: inf
ROOT
ATOM      1  C   UNL     1      14.546 -14.249  17.938  1.00  0.00     0.000 C 
ENDROOT
BRANCH   1   2
ATOM      2  C   UNL     1      13.271 -14.665  17.182  1.00  0.00     0.000 C 
BRANCH   2   3
ATOM      3  C   UNL     1      13.171 -16.166  16.841  1.00  0.00     0.000 C 
BRANCH   3   4
ATOM      4  C   UNL     1      12.320 -17.007  17.814  1.00  0.00     0.000 C 
BRANCH   4   5
ATOM      5  C   UNL     1      12.992 -17.330  19.161  1.00  0.00     0.000 C 
BRANCH   5   6
ATOM      6  C   UNL     1      12.431 -16.492  20.323  1.00  0.00     0.000 C 
BRANCH   6   7
ATOM      7  C   UNL     1      11.055 -15.874  20.008  1.00  0.00     0.000 C 
BRANCH   7   8
ATOM      8  C   UNL     1      10.741 -14.561  20.749  1.00  0.00     0.000 C 
BRANCH   8   9
ATOM      9  C   UNL     1      10.792 -13.326  19.833  1.00  0.00     0.000 C 
BRANCH   9  10
ATOM     10  C   UNL     1       9.743 -12.261  20.220  1.00  0.00     0.000 C 
BRANCH  10  11
ATOM     11  C   UNL     1       9.183 -12.427  21.645  1.00  0.00     0.000 C 
BRANCH  11  12
ATOM     12  C   UNL     1       7.797 -11.792  21.879  1.00  0.00     0.006 C 
BRANCH  12  13
ATOM     13  C   UNL     1       7.784 -10.256  21.812  1.00  0.00     0.053 C 
BRANCH  13  14
ATOM     14  C   UNL     1       6.837  -9.750  20.767  1.00  0.00     0.041 C 
ATOM     15  O   UNL     1       7.144  -9.818  19.546  1.00  0.00    -0.550 OA
ATOM     16  O   UNL     1       5.635  -9.163  21.142  1.00  0.00    -0.550 OA
ENDBRANCH  13  14
ENDBRANCH  12  13
ENDBRANCH  11  12
ENDBRANCH  10  11
ENDBRANCH   9  10
ENDBRANCH   8   9
ENDBRANCH   7   8
ENDBRANCH   6   7
ENDBRANCH   5   6
ENDBRANCH   4   5
ENDBRANCH   3   4
ENDBRANCH   2   3
ENDBRANCH   1   2
BRANCH   1  17
ATOM     17  C   UNL     1      14.252 -13.385  19.175  1.00  0.00     0.000 C 
BRANCH  17  18
ATOM     18  C   UNL     1      14.820 -13.985  20.475  1.00  0.00     0.000 C 
BRANCH  18  19
ATOM     19  C   UNL     1      14.169 -13.474  21.773  1.00  0.00     0.000 C 
BRANCH  19  20
ATOM     20  C   UNL     1      14.088 -11.942  21.843  1.00  0.00     0.000 C 
BRANCH  20  21
ATOM     21  C   UNL     1      12.777 -11.493  22.506  1.00  0.00     0.000 C 
BRANCH  21  22
ATOM     22  C   UNL     1      12.172 -10.245  21.842  1.00  0.00    -0.000 C 
BRANCH  22  23
ATOM     23  C   UNL     1      13.226  -9.396  21.109  1.00  0.00    -0.000 C 
BRANCH  23  24
ATOM     24  C   UNL     1      12.984  -9.335  19.592  1.00  0.00    -0.000 C 
BRANCH  24  25
ATOM     25  C   UNL     1      14.198  -9.806  18.777  1.00  0.00    -0.000 C 
BRANCH  25  26
ATOM     26  C   UNL     1      13.774 -10.229  17.362  1.00  0.00    -0.000 C 
BRANCH  26  27
ATOM     27  C   UNL     1      12.249 -10.237  17.175  1.00  0.00    -0.000 C 
BRANCH  27  28
ATOM     28  C   UNL     1      11.738 -11.542  16.540  1.00  0.00    -0.000 C 
BRANCH  28  29
ATOM     29  C   UNL     1      10.683 -11.295  15.451  1.00  0.00    -0.003 C 
ATOM     30  C   UNL     1      11.239 -10.534  14.247  1.00  0.00     0.004 C 
ENDBRANCH  28  29
ENDBRANCH  27  28
ENDBRANCH  26  27
ENDBRANCH  25  26
ENDBRANCH  24  25
ENDBRANCH  23  24
ENDBRANCH  22  23
ENDBRANCH  21  22
ENDBRANCH  20  21
ENDBRANCH  19  20
ENDBRANCH  18  19
ENDBRANCH  17  18
ENDBRANCH   1  17
TORSDOF 26
ENDMDL
MODEL 5
REMARK VINA RESULT:    -3.371      1.621      4.841
REMARK INTER + INTRA:         -13.905
REMARK INTER:                  -8.016
REMARK INTRA:                  -5.890
REMARK UNBOUND:                -5.410
REMARK SMILES CCCCCCCCCCCCCCCCCCCCCCCCCCCC(=O)[O-]
REMARK SMILES IDX 15 1 16 2 17 3 18 4 19 5 20 6 21 7 22 8 23 9 24 10 25 11
REMARK SMILES IDX 26 12 27 13 28 14 29 15 30 16 14 17 13 18 12 19 11 20 10 21
REMARK SMILES IDX 9 22 8 23 7 24 6 25 5 26 4 27 3 28 2 29 1 30
REMARK H PARENT
REMARK Flexibility Score: inf
ROOT
ATOM      1  C   UNL     1       9.882 -11.735  18.869  1.00  0.00     0.000 C 
ENDROOT
BRANCH   1   2
ATOM      2  C   UNL     1      10.540 -11.575  17.486  1.00  0.00     0.000 C 
BRANCH   2   3
ATOM      3  C   UNL     1      11.536 -10.403  17.366  1.00  0.00     0.000 C 
BRANCH   3   4
ATOM      4  C   UNL     1      12.905 -10.763  16.757  1.00  0.00     0.000 C 
BRANCH   4   5
ATOM      5  C   UNL     1      14.125 -10.389  17.619  1.00  0.00     0.000 C 
BRANCH   5   6
ATOM      6  C   UNL     1      13.735  -9.673  18.924  1.00  0.00     0.000 C 
BRANCH   6   7
ATOM      7  C   UNL     1      14.341 -10.336  20.176  1.00  0.00     0.000 C 
BRANCH   7   8
ATOM      8  C   UNL     1      13.327 -11.014  21.115  1.00  0.00     0.000 C 
BRANCH   8   9
ATOM      9  C   UNL     1      13.693 -12.471  21.445  1.00  0.00     0.000 C 
BRANCH   9  10
ATOM     10  C   UNL     1      14.279 -13.222  20.229  1.00  0.00     0.000 C 
BRANCH  10  11
ATOM     11  C   UNL     1      13.856 -14.701  20.147  1.00  0.00     0.000 C 
BRANCH  11  12
ATOM     12  C   UNL     1      13.272 -15.137  18.789  1.00  0.00     0.006 C 
BRANCH  12  13
ATOM     13  C   UNL     1      13.420 -14.094  17.670  1.00  0.00     0.053 C 
BRANCH  13  14
ATOM     14  C   UNL     1      14.566 -14.408  16.759  1.00  0.00     0.041 C 
ATOM     15  O   UNL     1      14.822 -13.659  15.779  1.00  0.00    -0.550 OA
ATOM     16  O   UNL     1      15.326 -15.553  16.967  1.00  0.00    -0.550 OA
ENDBRANCH  13  14
ENDBRANCH  12  13
ENDBRANCH  11  12
ENDBRANCH  10  11
ENDBRANCH   9  10
ENDBRANCH   8   9
ENDBRANCH   7   8
ENDBRANCH   6   7
ENDBRANCH   5   6
ENDBRANCH   4   5
ENDBRANCH   3   4
ENDBRANCH   2   3
ENDBRANCH   1   2
BRANCH   1  17
ATOM     17  C   UNL     1      10.519 -12.857  19.706  1.00  0.00     0.000 C 
BRANCH  17  18
ATOM     18  C   UNL     1       9.814 -13.070  21.059  1.00  0.00     0.000 C 
BRANCH  18  19
ATOM     19  C   UNL     1      10.021 -11.945  22.089  1.00  0.00     0.000 C 
BRANCH  19  20
ATOM     20  C   UNL     1       8.838 -11.790  23.057  1.00  0.00     0.000 C 
BRANCH  20  21
ATOM     21  C   UNL     1       7.513 -11.681  22.287  1.00  0.00     0.000 C 
BRANCH  21  22
ATOM     22  C   UNL     1       7.152 -10.231  21.928  1.00  0.00    -0.000 C 
BRANCH  22  23
ATOM     23  C   UNL     1       7.175  -9.974  20.411  1.00  0.00    -0.000 C 
BRANCH  23  24
ATOM     24  C   UNL     1       8.039  -8.760  20.032  1.00  0.00    -0.000 C 
BRANCH  24  25
ATOM     25  C   UNL     1       9.106  -8.436  21.089  1.00  0.00    -0.000 C 
BRANCH  25  26
ATOM     26  C   UNL     1      10.518  -8.546  20.492  1.00  0.00    -0.000 C 
BRANCH  26  27
ATOM     27  C   UNL     1      10.787  -7.492  19.406  1.00  0.00    -0.000 C 
BRANCH  27  28
ATOM     28  C   UNL     1      11.940  -6.543  19.776  1.00  0.00    -0.000 C 
BRANCH  28  29
ATOM     29  C   UNL     1      12.367  -6.680  21.246  1.00  0.00    -0.003 C 
ATOM     30  C   UNL     1      13.869  -6.909  21.411  1.00  0.00     0.004 C 
ENDBRANCH  28  29
ENDBRANCH  27  28
ENDBRANCH  26  27
ENDBRANCH  25  26
ENDBRANCH  24  25
ENDBRANCH  23  24
ENDBRANCH  22  23
ENDBRANCH  21  22
ENDBRANCH  20  21
ENDBRANCH  19  20
ENDBRANCH  18  19
ENDBRANCH  17  18
ENDBRANCH   1  17
TORSDOF 26
ENDMDL
MODEL 6
REMARK VINA RESULT:    -3.367      1.974      6.135
REMARK INTER + INTRA:         -13.894
REMARK INTER:                  -8.165
REMARK INTRA:                  -5.729
REMARK UNBOUND:                -5.410
REMARK SMILES CCCCCCCCCCCCCCCCCCCCCCCCCCCC(=O)[O-]
REMARK SMILES IDX 15 1 16 2 17 3 18 4 19 5 20 6 21 7 22 8 23 9 24 10 25 11
REMARK SMILES IDX 26 12 27 13 28 14 29 15 30 16 14 17 13 18 12 19 11 20 10 21
REMARK SMILES IDX 9 22 8 23 7 24 6 25 5 26 4 27 3 28 2 29 1 30
REMARK H PARENT
REMARK Flexibility Score: inf
ROOT
ATOM      1  C   UNL     1       8.244 -11.245  23.168  1.00  0.00     0.000 C 
ENDROOT
BRANCH   1   2
ATOM      2  C   UNL     1       7.818 -12.100  21.960  1.00  0.00     0.000 C 
BRANCH   2   3
ATOM      3  C   UNL     1       8.201 -11.524  20.581  1.00  0.00     0.000 C 
BRANCH   3   4
ATOM      4  C   UNL     1       9.497 -12.091  19.968  1.00  0.00     0.000 C 
BRANCH   4   5
ATOM      5  C   UNL     1      10.685 -11.113  19.926  1.00  0.00     0.000 C 
BRANCH   5   6
ATOM      6  C   UNL     1      10.332  -9.722  20.482  1.00  0.00     0.000 C 
BRANCH   6   7
ATOM      7  C   UNL     1      10.333  -8.626  19.400  1.00  0.00     0.000 C 
BRANCH   7   8
ATOM      8  C   UNL     1      11.391  -7.522  19.586  1.00  0.00     0.000 C 
BRANCH   8   9
ATOM      9  C   UNL     1      12.575  -7.964  20.461  1.00  0.00     0.000 C 
BRANCH   9  10
ATOM     10  C   UNL     1      13.823  -8.327  19.627  1.00  0.00     0.000 C 
BRANCH  10  11
ATOM     11  C   UNL     1      14.069  -9.843  19.502  1.00  0.00     0.000 C 
BRANCH  11  12
ATOM     12  C   UNL     1      14.178 -10.368  18.057  1.00  0.00     0.006 C 
BRANCH  12  13
ATOM     13  C   UNL     1      12.913 -10.159  17.208  1.00  0.00     0.053 C 
BRANCH  13  14
ATOM     14  C   UNL     1      12.602 -11.357  16.365  1.00  0.00     0.041 C 
ATOM     15  O   UNL     1      13.497 -12.209  16.118  1.00  0.00    -0.550 OA
ATOM     16  O   UNL     1      11.336 -11.510  15.814  1.00  0.00    -0.550 OA
ENDBRANCH  13  14
ENDBRANCH  12  13
ENDBRANCH  11  12
ENDBRANCH  10  11
ENDBRANCH   9  10
ENDBRANCH   8   9
ENDBRANCH   7   8
ENDBRANCH   6   7
ENDBRANCH   5   6
ENDBRANCH   4   5
ENDBRANCH   3   4
ENDBRANCH   2   3
ENDBRANCH   1   2
BRANCH   1  17
ATOM     17  C   UNL     1       9.284 -11.947  24.057  1.00  0.00     0.000 C 
BRANCH  17  18
ATOM     18  C   UNL     1      10.700 -11.363  23.899  1.00  0.00     0.000 C 
BRANCH  18  19
ATOM     19  C   UNL     1      11.727 -12.304  23.243  1.00  0.00     0.000 C 
BRANCH  19  20
ATOM     20  C   UNL     1      11.128 -13.658  22.834  1.00  0.00     0.000 C 
BRANCH  20  21
ATOM     21  C   UNL     1      12.226 -14.724  22.700  1.00  0.00     0.000 C 
BRANCH  21  22
ATOM     22  C   UNL     1      13.611 -14.206  23.121  1.00  0.00    -0.000 C 
BRANCH  22  23
ATOM     23  C   UNL     1      14.656 -14.333  21.999  1.00  0.00    -0.000 C 
BRANCH  23  24
ATOM     24  C   UNL     1      14.572 -13.184  20.981  1.00  0.00    -0.000 C 
BRANCH  24  25
ATOM     25  C   UNL     1      14.436 -13.681  19.534  1.00  0.00    -0.000 C 
BRANCH  25  26
ATOM     26  C   UNL     1      12.958 -13.759  19.120  1.00  0.00    -0.000 C 
BRANCH  26  27
ATOM     27  C   UNL     1      12.597 -15.097  18.456  1.00  0.00    -0.000 C 
BRANCH  27  28
ATOM     28  C   UNL     1      11.951 -16.088  19.440  1.00  0.00    -0.000 C 
BRANCH  28  29
ATOM     29  C   UNL     1      12.942 -17.147  19.947  1.00  0.00    -0.003 C 
ATOM     30  C   UNL     1      14.116 -17.367  18.993  1.00  0.00     0.004 C 
ENDBRANCH  28  29
ENDBRANCH  27  28
ENDBRANCH  26  27
ENDBRANCH  25  26
ENDBRANCH  24  25
ENDBRANCH  23  24
ENDBRANCH  22  23
ENDBRANCH  21  22
ENDBRANCH  20  21
ENDBRANCH  19  20
ENDBRANCH  18  19
ENDBRANCH  17  18
ENDBRANCH   1  17
TORSDOF 26
ENDMDL
MODEL 7
REMARK VINA RESULT:    -3.355      1.660      2.505
REMARK INTER + INTRA:         -13.865
REMARK INTER:                  -7.852
REMARK INTRA:                  -6.013
REMARK UNBOUND:                -5.410
REMARK SMILES CCCCCCCCCCCCCCCCCCCCCCCCCCCC(=O)[O-]
REMARK SMILES IDX 15 1 16 2 17 3 18 4 19 5 20 6 21 7 22 8 23 9 24 10 25 11
REMARK SMILES IDX 26 12 27 13 28 14 29 15 30 16 14 17 13 18 12 19 11 20 10 21
REMARK SMILES IDX 9 22 8 23 7 24 6 25 5 26 4 27 3 28 2 29 1 30
REMARK H PARENT
REMARK Flexibility Score: inf
ROOT
ATOM      1  C   UNL     1      10.300 -11.854  18.933  1.00  0.00     0.000 C 
ENDROOT
BRANCH   1   2
ATOM      2  C   UNL     1      10.918 -13.134  19.525  1.00  0.00     0.000 C 
BRANCH   2   3
ATOM      3  C   UNL     1      10.233 -13.663  20.801  1.00  0.00     0.000 C 
BRANCH   3   4
ATOM      4  C   UNL     1       9.518 -12.597  21.655  1.00  0.00     0.000 C 
BRANCH   4   5
ATOM      5  C   UNL     1      10.049 -12.445  23.093  1.00  0.00     0.000 C 
BRANCH   5   6
ATOM      6  C   UNL     1      10.915 -13.637  23.538  1.00  0.00     0.000 C 
BRANCH   6   7
ATOM      7  C   UNL     1      12.274 -13.206  24.120  1.00  0.00     0.000 C 
BRANCH   7   8
ATOM      8  C   UNL     1      13.506 -13.837  23.445  1.00  0.00     0.000 C 
BRANCH   8   9
ATOM      9  C   UNL     1      13.147 -14.993  22.496  1.00  0.00     0.000 C 
BRANCH   9  10
ATOM     10  C   UNL     1      14.309 -15.360  21.547  1.00  0.00     0.000 C 
BRANCH  10  11
ATOM     11  C   UNL     1      13.921 -15.352  20.057  1.00  0.00     0.000 C 
BRANCH  11  12
ATOM     12  C   UNL     1      14.711 -14.357  19.183  1.00  0.00     0.006 C 
BRANCH  12  13
ATOM     13  C   UNL     1      13.976 -13.909  17.909  1.00  0.00     0.053 C 
BRANCH  13  14
ATOM     14  C   UNL     1      14.706 -14.320  16.668  1.00  0.00     0.041 C 
ATOM     15  O   UNL     1      14.759 -13.545  15.676  1.00  0.00    -0.550 OA
ATOM     16  O   UNL     1      15.291 -15.578  16.590  1.00  0.00    -0.550 OA
ENDBRANCH  13  14
ENDBRANCH  12  13
ENDBRANCH  11  12
ENDBRANCH  10  11
ENDBRANCH   9  10
ENDBRANCH   8   9
ENDBRANCH   7   8
ENDBRANCH   6   7
ENDBRANCH   5   6
ENDBRANCH   4   5
ENDBRANCH   3   4
ENDBRANCH   2   3
ENDBRANCH   1   2
BRANCH   1  17
ATOM     17  C   UNL     1      10.850 -11.515  17.538  1.00  0.00     0.000 C 
BRANCH  17  18
ATOM     18  C   UNL     1      11.631 -10.188  17.508  1.00  0.00     0.000 C 
BRANCH  18  19
ATOM     19  C   UNL     1      13.008 -10.253  16.823  1.00  0.00     0.000 C 
BRANCH  19  20
ATOM     20  C   UNL     1      14.176 -10.289  17.820  1.00  0.00     0.000 C 
BRANCH  20  21
ATOM     21  C   UNL     1      13.710  -9.870  19.223  1.00  0.00     0.000 C 
BRANCH  21  22
ATOM     22  C   UNL     1      13.976 -10.950  20.284  1.00  0.00    -0.000 C 
BRANCH  22  23
ATOM     23  C   UNL     1      12.956 -10.911  21.436  1.00  0.00    -0.000 C 
BRANCH  23  24
ATOM     24  C   UNL     1      13.206  -9.745  22.406  1.00  0.00    -0.000 C 
BRANCH  24  25
ATOM     25  C   UNL     1      12.051  -8.731  22.427  1.00  0.00    -0.000 C 
BRANCH  25  26
ATOM     26  C   UNL     1      10.860  -9.243  21.602  1.00  0.00    -0.000 C 
BRANCH  26  27
ATOM     27  C   UNL     1      10.394  -8.232  20.541  1.00  0.00    -0.000 C 
BRANCH  27  28
ATOM     28  C   UNL     1      11.317  -7.005  20.450  1.00  0.00    -0.000 C 
BRANCH  28  29
ATOM     29  C   UNL     1      11.711  -6.670  19.003  1.00  0.00    -0.003 C 
ATOM     30  C   UNL     1      10.504  -6.498  18.083  1.00  0.00     0.004 C 
ENDBRANCH  28  29
ENDBRANCH  27  28
ENDBRANCH  26  27
ENDBRANCH  25  26
ENDBRANCH  24  25
ENDBRANCH  23  24
ENDBRANCH  22  23
ENDBRANCH  21  22
ENDBRANCH  20  21
ENDBRANCH  19  20
ENDBRANCH  18  19
ENDBRANCH  17  18
ENDBRANCH   1  17
TORSDOF 26
ENDMDL
MODEL 8
REMARK VINA RESULT:    -3.354      3.330      5.581
REMARK INTER + INTRA:         -13.863
REMARK INTER:                  -9.028
REMARK INTRA:                  -4.835
REMARK UNBOUND:                -5.410
REMARK SMILES CCCCCCCCCCCCCCCCCCCCCCCCCCCC(=O)[O-]
REMARK SMILES IDX 15 1 16 2 17 3 18 4 19 5 20 6 21 7 22 8 23 9 24 10 25 11
REMARK SMILES IDX 26 12 27 13 28 14 29 15 30 16 14 17 13 18 12 19 11 20 10 21
REMARK SMILES IDX 9 22 8 23 7 24 6 25 5 26 4 27 3 28 2 29 1 30
REMARK H PARENT
REMARK Flexibility Score: inf
ROOT
ATOM      1  C   UNL     1      12.979 -10.264  17.252  1.00  0.00     0.000 C 
ENDROOT
BRANCH   1   2
ATOM      2  C   UNL     1      12.562 -11.718  16.968  1.00  0.00     0.000 C 
BRANCH   2   3
ATOM      3  C   UNL     1      11.222 -12.151  17.597  1.00  0.00     0.000 C 
BRANCH   3   4
ATOM      4  C   UNL     1      10.440 -11.033  18.315  1.00  0.00     0.000 C 
BRANCH   4   5
ATOM      5  C   UNL     1       9.014 -11.409  18.756  1.00  0.00     0.000 C 
BRANCH   5   6
ATOM      6  C   UNL     1       8.349 -10.320  19.616  1.00  0.00     0.000 C 
BRANCH   6   7
ATOM      7  C   UNL     1       8.255 -10.706  21.105  1.00  0.00     0.000 C 
BRANCH   7   8
ATOM      8  C   UNL     1       8.471 -12.199  21.411  1.00  0.00     0.000 C 
BRANCH   8   9
ATOM      9  C   UNL     1       9.813 -12.484  22.107  1.00  0.00     0.000 C 
BRANCH   9  10
ATOM     10  C   UNL     1      10.617 -13.599  21.405  1.00  0.00     0.000 C 
BRANCH  10  11
ATOM     11  C   UNL     1      12.122 -13.297  21.277  1.00  0.00     0.000 C 
BRANCH  11  12
ATOM     12  C   UNL     1      12.846 -14.059  20.149  1.00  0.00     0.006 C 
BRANCH  12  13
ATOM     13  C   UNL     1      12.546 -15.566  20.107  1.00  0.00     0.053 C 
BRANCH  13  14
ATOM     14  C   UNL     1      12.506 -16.089  18.704  1.00  0.00     0.041 C 
ATOM     15  O   UNL     1      12.037 -17.235  18.467  1.00  0.00    -0.550 OA
ATOM     16  O   UNL     1      13.028 -15.331  17.664  1.00  0.00    -0.550 OA
ENDBRANCH  13  14
ENDBRANCH  12  13
ENDBRANCH  11  12
ENDBRANCH  10  11
ENDBRANCH   9  10
ENDBRANCH   8   9
ENDBRANCH   7   8
ENDBRANCH   6   7
ENDBRANCH   5   6
ENDBRANCH   4   5
ENDBRANCH   3   4
ENDBRANCH   2   3
ENDBRANCH   1   2
BRANCH   1  17
ATOM     17  C   UNL     1      14.243 -10.165  18.122  1.00  0.00     0.000 C 
BRANCH  17  18
ATOM     18  C   UNL     1      13.984 -10.520  19.598  1.00  0.00     0.000 C 
BRANCH  18  19
ATOM     19  C   UNL     1      13.577  -9.337  20.495  1.00  0.00     0.000 C 
BRANCH  19  20
ATOM     20  C   UNL     1      12.184  -9.508  21.120  1.00  0.00     0.000 C 
BRANCH  20  21
ATOM     21  C   UNL     1      11.262  -8.343  20.728  1.00  0.00     0.000 C 
BRANCH  21  22
ATOM     22  C   UNL     1      11.861  -7.459  19.622  1.00  0.00    -0.000 C 
BRANCH  22  23
ATOM     23  C   UNL     1      10.944  -7.351  18.390  1.00  0.00    -0.000 C 
BRANCH  23  24
ATOM     24  C   UNL     1       9.700  -6.488  18.654  1.00  0.00    -0.000 C 
BRANCH  24  25
ATOM     25  C   UNL     1      10.020  -4.987  18.720  1.00  0.00    -0.000 C 
BRANCH  25  26
ATOM     26  C   UNL     1       9.598  -4.280  17.423  1.00  0.00    -0.000 C 
BRANCH  26  27
ATOM     27  C   UNL     1      10.796  -3.876  16.549  1.00  0.00    -0.000 C 
BRANCH  27  28
ATOM     28  C   UNL     1      11.685  -2.815  17.221  1.00  0.00    -0.000 C 
BRANCH  28  29
ATOM     29  C   UNL     1      13.180  -3.163  17.144  1.00  0.00    -0.003 C 
ATOM     30  C   UNL     1      13.761  -3.588  18.492  1.00  0.00     0.004 C 
ENDBRANCH  28  29
ENDBRANCH  27  28
ENDBRANCH  26  27
ENDBRANCH  25  26
ENDBRANCH  24  25
ENDBRANCH  23  24
ENDBRANCH  22  23
ENDBRANCH  21  22
ENDBRANCH  20  21
ENDBRANCH  19  20
ENDBRANCH  18  19
ENDBRANCH  17  18
ENDBRANCH   1  17
TORSDOF 26
ENDMDL
MODEL 9
REMARK VINA RESULT:    -3.340      3.834      7.147
REMARK INTER + INTRA:         -13.827
REMARK INTER:                  -8.321
REMARK INTRA:                  -5.505
REMARK UNBOUND:                -5.410
REMARK SMILES CCCCCCCCCCCCCCCCCCCCCCCCCCCC(=O)[O-]
REMARK SMILES IDX 15 1 16 2 17 3 18 4 19 5 20 6 21 7 22 8 23 9 24 10 25 11
REMARK SMILES IDX 26 12 27 13 28 14 29 15 30 16 14 17 13 18 12 19 11 20 10 21
REMARK SMILES IDX 9 22 8 23 7 24 6 25 5 26 4 27 3 28 2 29 1 30
REMARK H PARENT
REMARK Flexibility Score: inf
ROOT
ATOM      1  C   UNL     1      11.577 -12.862  21.094  1.00  0.00     0.000 C 
ENDROOT
BRANCH   1   2
ATOM      2  C   UNL     1      11.305 -12.235  22.474  1.00  0.00     0.000 C 
BRANCH   2   3
ATOM      3  C   UNL     1      10.118 -12.842  23.248  1.00  0.00     0.000 C 
BRANCH   3   4
ATOM      4  C   UNL     1       8.911 -11.903  23.446  1.00  0.00     0.000 C 
BRANCH   4   5
ATOM      5  C   UNL     1       7.764 -12.089  22.436  1.00  0.00     0.000 C 
BRANCH   5   6
ATOM      6  C   UNL     1       7.600 -10.884  21.493  1.00  0.00     0.000 C 
BRANCH   6   7
ATOM      7  C   UNL     1       8.220 -11.121  20.102  1.00  0.00     0.000 C 
BRANCH   7   8
ATOM      8  C   UNL     1       9.346 -10.146  19.711  1.00  0.00     0.000 C 
BRANCH   8   9
ATOM      9  C   UNL     1       9.851  -9.304  20.895  1.00  0.00     0.000 C 
BRANCH   9  10
ATOM     10  C   UNL     1      10.409  -7.935  20.449  1.00  0.00     0.000 C 
BRANCH  10  11
ATOM     11  C   UNL     1       9.699  -7.344  19.217  1.00  0.00     0.000 C 
BRANCH  11  12
ATOM     12  C   UNL     1      10.596  -6.495  18.293  1.00  0.00     0.006 C 
BRANCH  12  13
ATOM     13  C   UNL     1      11.853  -5.929  18.974  1.00  0.00     0.053 C 
BRANCH  13  14
ATOM     14  C   UNL     1      12.130  -4.519  18.552  1.00  0.00     0.041 C 
ATOM     15  O   UNL     1      11.924  -4.160  17.362  1.00  0.00    -0.550 OA
ATOM     16  O   UNL     1      12.657  -3.612  19.463  1.00  0.00    -0.550 OA
ENDBRANCH  13  14
ENDBRANCH  12  13
ENDBRANCH  11  12
ENDBRANCH  10  11
ENDBRANCH   9  10
ENDBRANCH   8   9
ENDBRANCH   7   8
ENDBRANCH   6   7
ENDBRANCH   5   6
ENDBRANCH   4   5
ENDBRANCH   3   4
ENDBRANCH   2   3
ENDBRANCH   1   2
BRANCH   1  17
ATOM     17  C   UNL     1      10.515 -13.897  20.690  1.00  0.00     0.000 C 
BRANCH  17  18
ATOM     18  C   UNL     1      11.120 -15.263  20.317  1.00  0.00     0.000 C 
BRANCH  18  19
ATOM     19  C   UNL     1      12.552 -15.507  20.826  1.00  0.00     0.000 C 
BRANCH  19  20
ATOM     20  C   UNL     1      13.338 -16.501  19.958  1.00  0.00     0.000 C 
BRANCH  20  21
ATOM     21  C   UNL     1      14.412 -15.775  19.133  1.00  0.00     0.000 C 
BRANCH  21  22
ATOM     22  C   UNL     1      14.606 -14.313  19.565  1.00  0.00    -0.000 C 
BRANCH  22  23
ATOM     23  C   UNL     1      14.243 -13.314  18.452  1.00  0.00    -0.000 C 
BRANCH  23  24
ATOM     24  C   UNL     1      13.732 -14.009  17.179  1.00  0.00    -0.000 C 
BRANCH  24  25
ATOM     25  C   UNL     1      12.312 -13.569  16.791  1.00  0.00    -0.000 C 
BRANCH  25  26
ATOM     26  C   UNL     1      11.903 -12.304  17.561  1.00  0.00    -0.000 C 
BRANCH  26  27
ATOM     27  C   UNL     1      11.640 -11.105  16.637  1.00  0.00    -0.000 C 
BRANCH  27  28
ATOM     28  C   UNL     1      12.062  -9.767  17.271  1.00  0.00    -0.000 C 
BRANCH  28  29
ATOM     29  C   UNL     1      12.856  -9.957  18.572  1.00  0.00    -0.003 C 
ATOM     30  C   UNL     1      14.353  -9.703  18.397  1.00  0.00     0.004 C 
ENDBRANCH  28  29
ENDBRANCH  27  28
ENDBRANCH  26  27
ENDBRANCH  25  26
ENDBRANCH  24  25
ENDBRANCH  23  24
ENDBRANCH  22  23
ENDBRANCH  21  22
ENDBRANCH  20  21
ENDBRANCH  19  20
ENDBRANCH  18  19
ENDBRANCH  17  18
ENDBRANCH   1  17
TORSDOF 26
ENDMDL
