MODEL 1
REMARK VINA RESULT:    -3.682      0.000      0.000
REMARK INTER + INTRA:          -4.023
REMARK INTER:                  -4.005
REMARK INTRA:                  -0.018
REMARK UNBOUND:                -0.018
REMARK SMILES OCc1ccco1
REMARK SMILES IDX 2 1 3 2 5 3 6 4 4 5 7 6 1 7
REMARK H PARENT 1 8
REMARK Flexibility Score: inf
ROOT
ATOM      1  C   UNL     1      -5.598   9.567 -27.273  1.00  0.00     0.231 C 
ENDROOT
BRANCH   1   2
ATOM      2  C   UNL     1      -4.932   8.543 -28.130  1.00  0.00     0.129 A 
ATOM      3  C   UNL     1      -3.854   7.557 -29.771  1.00  0.00     0.042 A 
ATOM      4  C   UNL     1      -4.126   6.669 -28.749  1.00  0.00     0.195 A 
ATOM      5  C   UNL     1      -4.372   8.770 -29.371  1.00  0.00     0.048 A 
ATOM      6  O   UNL     1      -4.766   7.288 -27.784  1.00  0.00    -0.467 OA
ENDBRANCH   1   2
BRANCH   1   7
ATOM      7  O   UNL     1      -6.821   9.063 -26.817  1.00  0.00    -0.388 OA
ATOM      8  H   UNL     1      -7.156   9.718 -26.150  1.00  0.00     0.211 HD
ENDBRANCH   1   7
TORSDOF 2
ENDMDL
MODEL 2
REMARK VINA RESULT:    -3.680      1.399      3.466
REMARK INTER + INTRA:          -4.021
REMARK INTER:                  -4.006
REMARK INTRA:                  -0.015
REMARK UNBOUND:                -0.018
REMARK SMILES OCc1ccco1
REMARK SMILES IDX 2 1 3 2 5 3 6 4 4 5 7 6 1 7
REMARK H PARENT 1 8
REMARK Flexibility Score: inf
ROOT
ATOM      1  C   UNL     1      -4.511   7.968 -28.567  1.00  0.00     0.231 C 
ENDROOT
BRANCH   1   2
ATOM      2  C   UNL     1      -5.107   9.039 -27.716  1.00  0.00     0.129 A 
ATOM      3  C   UNL     1      -6.433  10.153 -26.365  1.00  0.00     0.042 A 
ATOM      4  C   UNL     1      -5.310  10.892 -26.682  1.00  0.00     0.195 A 
ATOM      5  C   UNL     1      -6.302   8.953 -27.030  1.00  0.00     0.048 A 
ATOM      6  O   UNL     1      -4.537  10.199 -27.486  1.00  0.00    -0.467 OA
ENDBRANCH   1   2
BRANCH   1   7
ATOM      7  O   UNL     1      -4.457   6.775 -27.838  1.00  0.00    -0.388 OA
ATOM      8  H   UNL     1      -3.846   6.174 -28.340  1.00  0.00     0.211 HD
ENDBRANCH   1   7
TORSDOF 2
ENDMDL
MODEL 3
REMARK VINA RESULT:    -3.663      1.483      3.081
REMARK INTER + INTRA:          -4.003
REMARK INTER:                  -3.989
REMARK INTRA:                  -0.013
REMARK UNBOUND:                -0.018
REMARK SMILES OCc1ccco1
REMARK SMILES IDX 2 1 3 2 5 3 6 4 4 5 7 6 1 7
REMARK H PARENT 1 8
REMARK Flexibility Score: inf
ROOT
ATOM      1  C   UNL     1      -3.453   7.422 -29.880  1.00  0.00     0.231 C 
ENDROOT
BRANCH   1   2
ATOM      2  C   UNL     1      -4.331   7.882 -28.764  1.00  0.00     0.129 A 
ATOM      3  C   UNL     1      -5.625   9.104 -27.478  1.00  0.00     0.042 A 
ATOM      4  C   UNL     1      -5.511   7.818 -26.989  1.00  0.00     0.195 A 
ATOM      5  C   UNL     1      -4.866   9.147 -28.627  1.00  0.00     0.048 A 
ATOM      6  O   UNL     1      -4.735   7.112 -27.780  1.00  0.00    -0.467 OA
ENDBRANCH   1   2
BRANCH   1   7
ATOM      7  O   UNL     1      -2.187   8.000 -29.739  1.00  0.00    -0.388 OA
ATOM      8  H   UNL     1      -2.330   8.983 -29.756  1.00  0.00     0.211 HD
ENDBRANCH   1   7
TORSDOF 2
ENDMDL
MODEL 4
REMARK VINA RESULT:    -3.374     10.010     10.580
REMARK INTER + INTRA:          -3.689
REMARK INTER:                  -3.674
REMARK INTRA:                  -0.015
REMARK UNBOUND:                -0.018
REMARK SMILES OCc1ccco1
REMARK SMILES IDX 2 1 3 2 5 3 6 4 4 5 7 6 1 7
REMARK H PARENT 1 8
REMARK Flexibility Score: inf
ROOT
ATOM      1  C   UNL     1      -9.765   9.843 -19.479  1.00  0.00     0.231 C 
ENDROOT
BRANCH   1   2
ATOM      2  C   UNL     1     -10.691   8.678 -19.594  1.00  0.00     0.129 A 
ATOM      3  C   UNL     1     -12.471   7.436 -19.929  1.00  0.00     0.042 A 
ATOM      4  C   UNL     1     -11.370   6.657 -19.635  1.00  0.00     0.195 A 
ATOM      5  C   UNL     1     -12.034   8.743 -19.906  1.00  0.00     0.048 A 
ATOM      6  O   UNL     1     -10.323   7.427 -19.444  1.00  0.00    -0.467 OA
ENDBRANCH   1   2
BRANCH   1   7
ATOM      7  O   UNL     1      -9.212  10.119 -20.733  1.00  0.00    -0.388 OA
ATOM      8  H   UNL     1      -8.272  10.394 -20.565  1.00  0.00     0.211 HD
ENDBRANCH   1   7
TORSDOF 2
ENDMDL
MODEL 5
REMARK VINA RESULT:    -3.302      1.745      2.224
REMARK INTER + INTRA:          -3.609
REMARK INTER:                  -3.591
REMARK INTRA:                  -0.018
REMARK UNBOUND:                -0.018
REMARK SMILES OCc1ccco1
REMARK SMILES IDX 2 1 3 2 5 3 6 4 4 5 7 6 1 7
REMARK H PARENT 1 8
REMARK Flexibility Score: inf
ROOT
ATOM      1  C   UNL     1      -6.035   8.636 -27.076  1.00  0.00     0.231 C 
ENDROOT
BRANCH   1   2
ATOM      2  C   UNL     1      -4.976   9.330 -27.866  1.00  0.00     0.129 A 
ATOM      3  C   UNL     1      -3.664   9.981 -29.504  1.00  0.00     0.042 A 
ATOM      4  C   UNL     1      -3.408  10.692 -28.348  1.00  0.00     0.195 A 
ATOM      5  C   UNL     1      -4.680   9.102 -29.195  1.00  0.00     0.048 A 
ATOM      6  O   UNL     1      -4.209  10.284 -27.391  1.00  0.00    -0.467 OA
ENDBRANCH   1   2
BRANCH   1   7
ATOM      7  O   UNL     1      -6.977   9.575 -26.642  1.00  0.00    -0.388 OA
ATOM      8  H   UNL     1      -6.456  10.344 -26.291  1.00  0.00     0.211 HD
ENDBRANCH   1   7
TORSDOF 2
ENDMDL
MODEL 6
REMARK VINA RESULT:    -3.295      1.371      3.058
REMARK INTER + INTRA:          -3.602
REMARK INTER:                  -3.584
REMARK INTRA:                  -0.019
REMARK UNBOUND:                -0.018
REMARK SMILES OCc1ccco1
REMARK SMILES IDX 2 1 3 2 5 3 6 4 4 5 7 6 1 7
REMARK H PARENT 1 8
REMARK Flexibility Score: inf
ROOT
ATOM      1  C   UNL     1      -3.888   7.142 -29.711  1.00  0.00     0.231 C 
ENDROOT
BRANCH   1   2
ATOM      2  C   UNL     1      -4.031   8.500 -29.108  1.00  0.00     0.129 A 
ATOM      3  C   UNL     1      -3.870  10.657 -28.731  1.00  0.00     0.042 A 
ATOM      4  C   UNL     1      -4.701  10.052 -27.809  1.00  0.00     0.195 A 
ATOM      5  C   UNL     1      -3.438   9.656 -29.574  1.00  0.00     0.048 A 
ATOM      6  O   UNL     1      -4.779   8.766 -28.063  1.00  0.00    -0.467 OA
ENDBRANCH   1   2
BRANCH   1   7
ATOM      7  O   UNL     1      -3.667   6.206 -28.696  1.00  0.00    -0.388 OA
ATOM      8  H   UNL     1      -3.337   5.385 -29.146  1.00  0.00     0.211 HD
ENDBRANCH   1   7
TORSDOF 2
ENDMDL
MODEL 7
REMARK VINA RESULT:    -3.283      2.326      3.378
REMARK INTER + INTRA:          -3.590
REMARK INTER:                  -3.575
REMARK INTRA:                  -0.015
REMARK UNBOUND:                -0.018
REMARK SMILES OCc1ccco1
REMARK SMILES IDX 2 1 3 2 5 3 6 4 4 5 7 6 1 7
REMARK H PARENT 1 8
REMARK Flexibility Score: inf
ROOT
ATOM      1  C   UNL     1      -3.613  11.213 -27.914  1.00  0.00     0.231 C 
ENDROOT
BRANCH   1   2
ATOM      2  C   UNL     1      -4.714  10.316 -27.455  1.00  0.00     0.129 A 
ATOM      3  C   UNL     1      -6.578   9.562 -26.571  1.00  0.00     0.042 A 
ATOM      4  C   UNL     1      -5.872   8.546 -27.185  1.00  0.00     0.195 A 
ATOM      5  C   UNL     1      -5.832  10.707 -26.747  1.00  0.00     0.048 A 
ATOM      6  O   UNL     1      -4.767   9.028 -27.706  1.00  0.00    -0.467 OA
ENDBRANCH   1   2
BRANCH   1   7
ATOM      7  O   UNL     1      -2.496  11.031 -27.092  1.00  0.00    -0.388 OA
ATOM      8  H   UNL     1      -1.807  11.666 -27.419  1.00  0.00     0.211 HD
ENDBRANCH   1   7
TORSDOF 2
ENDMDL
MODEL 8
REMARK VINA RESULT:    -3.245     10.912     11.858
REMARK INTER + INTRA:          -3.548
REMARK INTER:                  -3.534
REMARK INTRA:                  -0.014
REMARK UNBOUND:                -0.018
REMARK SMILES OCc1ccco1
REMARK SMILES IDX 2 1 3 2 5 3 6 4 4 5 7 6 1 7
REMARK H PARENT 1 8
REMARK Flexibility Score: inf
ROOT
ATOM      1  C   UNL     1     -10.761   6.062 -18.776  1.00  0.00     0.231 C 
ENDROOT
BRANCH   1   2
ATOM      2  C   UNL     1     -11.590   7.300 -18.869  1.00  0.00     0.129 A 
ATOM      3  C   UNL     1     -12.860   8.924 -19.625  1.00  0.00     0.042 A 
ATOM      4  C   UNL     1     -12.650   9.048 -18.266  1.00  0.00     0.195 A 
ATOM      5  C   UNL     1     -12.178   7.792 -20.016  1.00  0.00     0.048 A 
ATOM      6  O   UNL     1     -11.892   8.063 -17.844  1.00  0.00    -0.467 OA
ENDBRANCH   1   2
BRANCH   1   7
ATOM      7  O   UNL     1      -9.686   6.157 -19.667  1.00  0.00    -0.388 OA
ATOM      8  H   UNL     1      -9.310   5.242 -19.741  1.00  0.00     0.211 HD
ENDBRANCH   1   7
TORSDOF 2
ENDMDL
MODEL 9
REMARK VINA RESULT:    -3.135     13.769     14.705
REMARK INTER + INTRA:          -3.428
REMARK INTER:                  -3.407
REMARK INTRA:                  -0.021
REMARK UNBOUND:                -0.018
REMARK SMILES OCc1ccco1
REMARK SMILES IDX 2 1 3 2 5 3 6 4 4 5 7 6 1 7
REMARK H PARENT 1 8
REMARK Flexibility Score: inf
ROOT
ATOM      1  C   UNL     1     -12.479   8.745 -14.897  1.00  0.00     0.231 C 
ENDROOT
BRANCH   1   2
ATOM      2  C   UNL     1     -11.986   9.920 -15.676  1.00  0.00     0.129 A 
ATOM      3  C   UNL     1     -11.602  11.355 -17.294  1.00  0.00     0.042 A 
ATOM      4  C   UNL     1     -11.044  11.783 -16.105  1.00  0.00     0.195 A 
ATOM      5  C   UNL     1     -12.214  10.152 -17.017  1.00  0.00     0.048 A 
ATOM      6  O   UNL     1     -11.293  10.907 -15.159  1.00  0.00    -0.467 OA
ENDBRANCH   1   2
BRANCH   1   7
ATOM      7  O   UNL     1     -12.823   9.159 -13.606  1.00  0.00    -0.388 OA
ATOM      8  H   UNL     1     -12.175   9.872 -13.364  1.00  0.00     0.211 HD
ENDBRANCH   1   7
TORSDOF 2
ENDMDL
