MODEL 1
REMARK VINA RESULT:    -4.030      0.000      0.000
REMARK INTER + INTRA:          -5.676
REMARK INTER:                  -5.444
REMARK INTRA:                  -0.232
REMARK UNBOUND:                -0.232
REMARK SMILES CCCCCCCC(=O)[O-]
REMARK SMILES IDX 5 1 6 2 7 3 8 4 9 5 10 6 4 7 3 8 2 9 1 10
REMARK H PARENT
REMARK Flexibility Score: inf
ROOT
ATOM      1  C   UNL     1     124.586 122.701 129.839  1.00  0.00     0.000 C 
ENDROOT
BRANCH   1   2
ATOM      2  C   UNL     1     125.199 122.721 128.429  1.00  0.00     0.006 C 
BRANCH   2   3
ATOM      3  C   UNL     1     126.001 124.005 128.199  1.00  0.00     0.053 C 
BRANCH   3   4
ATOM      4  C   UNL     1     127.242 123.714 127.416  1.00  0.00     0.041 C 
ATOM      5  O   UNL     1     128.071 122.863 127.834  1.00  0.00    -0.550 OA
ATOM      6  O   UNL     1     127.508 124.417 126.248  1.00  0.00    -0.550 OA
ENDBRANCH   3   4
ENDBRANCH   2   3
ENDBRANCH   1   2
BRANCH   1   7
ATOM      7  C   UNL     1     124.427 121.279 130.398  1.00  0.00     0.000 C 
BRANCH   7   8
ATOM      8  C   UNL     1     125.748 120.489 130.392  1.00  0.00    -0.000 C 
BRANCH   8   9
ATOM      9  C   UNL     1     125.532 118.984 130.174  1.00  0.00    -0.003 C 
ATOM     10  C   UNL     1     124.638 118.352 131.241  1.00  0.00     0.004 C 
ENDBRANCH   8   9
ENDBRANCH   7   8
ENDBRANCH   1   7
TORSDOF 6
ENDMDL
MODEL 2
REMARK VINA RESULT:    -4.007     11.785     13.265
REMARK INTER + INTRA:          -5.645
REMARK INTER:                  -5.263
REMARK INTRA:                  -0.381
REMARK UNBOUND:                -0.232
REMARK SMILES CCCCCCCC(=O)[O-]
REMARK SMILES IDX 5 1 6 2 7 3 8 4 9 5 10 6 4 7 3 8 2 9 1 10
REMARK H PARENT
REMARK Flexibility Score: inf
ROOT
ATOM      1  C   UNL     1     131.367 132.574 129.368  1.00  0.00     0.000 C 
ENDROOT
BRANCH   1   2
ATOM      2  C   UNL     1     131.394 133.674 130.442  1.00  0.00     0.006 C 
BRANCH   2   3
ATOM      3  C   UNL     1     130.378 134.775 130.122  1.00  0.00     0.053 C 
BRANCH   3   4
ATOM      4  C   UNL     1     130.894 136.107 130.566  1.00  0.00     0.041 C 
ATOM      5  O   UNL     1     131.905 136.179 131.313  1.00  0.00    -0.550 OA
ATOM      6  O   UNL     1     130.229 137.269 130.194  1.00  0.00    -0.550 OA
ENDBRANCH   3   4
ENDBRANCH   2   3
ENDBRANCH   1   2
BRANCH   1   7
ATOM      7  C   UNL     1     130.367 132.869 128.240  1.00  0.00     0.000 C 
BRANCH   7   8
ATOM      8  C   UNL     1     129.556 131.626 127.828  1.00  0.00    -0.000 C 
BRANCH   8   9
ATOM      9  C   UNL     1     128.068 131.940 127.612  1.00  0.00    -0.003 C 
ATOM     10  C   UNL     1     127.700 133.370 128.007  1.00  0.00     0.004 C 
ENDBRANCH   8   9
ENDBRANCH   7   8
ENDBRANCH   1   7
TORSDOF 6
ENDMDL
MODEL 3
REMARK VINA RESULT:    -3.981      2.770      4.899
REMARK INTER + INTRA:          -5.609
REMARK INTER:                  -5.248
REMARK INTRA:                  -0.360
REMARK UNBOUND:                -0.232
REMARK SMILES CCCCCCCC(=O)[O-]
REMARK SMILES IDX 5 1 6 2 7 3 8 4 9 5 10 6 4 7 3 8 2 9 1 10
REMARK H PARENT
REMARK Flexibility Score: inf
ROOT
ATOM      1  C   UNL     1     124.461 122.750 129.785  1.00  0.00     0.000 C 
ENDROOT
BRANCH   1   2
ATOM      2  C   UNL     1     124.448 121.331 130.376  1.00  0.00     0.006 C 
BRANCH   2   3
ATOM      3  C   UNL     1     125.852 120.718 130.357  1.00  0.00     0.053 C 
BRANCH   3   4
ATOM      4  C   UNL     1     125.772 119.229 130.248  1.00  0.00     0.041 C 
ATOM      5  O   UNL     1     124.708 118.628 130.551  1.00  0.00    -0.550 OA
ATOM      6  O   UNL     1     126.887 118.499 129.857  1.00  0.00    -0.550 OA
ENDBRANCH   3   4
ENDBRANCH   2   3
ENDBRANCH   1   2
BRANCH   1   7
ATOM      7  C   UNL     1     125.337 122.863 128.528  1.00  0.00     0.000 C 
BRANCH   7   8
ATOM      8  C   UNL     1     126.020 124.237 128.405  1.00  0.00    -0.000 C 
BRANCH   8   9
ATOM      9  C   UNL     1     127.420 124.144 127.779  1.00  0.00    -0.003 C 
ATOM     10  C   UNL     1     128.033 122.749 127.903  1.00  0.00     0.004 C 
ENDBRANCH   8   9
ENDBRANCH   7   8
ENDBRANCH   1   7
TORSDOF 6
ENDMDL
MODEL 4
REMARK VINA RESULT:    -3.915     10.594     12.963
REMARK INTER + INTRA:          -5.519
REMARK INTER:                  -5.281
REMARK INTRA:                  -0.239
REMARK UNBOUND:                -0.232
REMARK SMILES CCCCCCCC(=O)[O-]
REMARK SMILES IDX 5 1 6 2 7 3 8 4 9 5 10 6 4 7 3 8 2 9 1 10
REMARK H PARENT
REMARK Flexibility Score: inf
ROOT
ATOM      1  C   UNL     1     131.589 132.576 129.529  1.00  0.00     0.000 C 
ENDROOT
BRANCH   1   2
ATOM      2  C   UNL     1     130.621 132.707 128.342  1.00  0.00     0.006 C 
BRANCH   2   3
ATOM      3  C   UNL     1     129.667 131.511 128.278  1.00  0.00     0.053 C 
BRANCH   3   4
ATOM      4  C   UNL     1     128.441 131.860 127.497  1.00  0.00     0.041 C 
ATOM      5  O   UNL     1     127.520 132.534 128.030  1.00  0.00    -0.550 OA
ATOM      6  O   UNL     1     128.292 131.401 126.194  1.00  0.00    -0.550 OA
ENDBRANCH   3   4
ENDBRANCH   2   3
ENDBRANCH   1   2
BRANCH   1   7
ATOM      7  C   UNL     1     131.364 133.652 130.602  1.00  0.00     0.000 C 
BRANCH   7   8
ATOM      8  C   UNL     1     130.317 134.699 130.180  1.00  0.00    -0.000 C 
BRANCH   8   9
ATOM      9  C   UNL     1     130.714 136.126 130.587  1.00  0.00    -0.003 C 
ATOM     10  C   UNL     1     129.604 137.146 130.331  1.00  0.00     0.004 C 
ENDBRANCH   8   9
ENDBRANCH   7   8
ENDBRANCH   1   7
TORSDOF 6
ENDMDL
MODEL 5
REMARK VINA RESULT:    -3.856      0.420      1.103
REMARK INTER + INTRA:          -5.441
REMARK INTER:                  -5.212
REMARK INTRA:                  -0.229
REMARK UNBOUND:                -0.232
REMARK SMILES CCCCCCCC(=O)[O-]
REMARK SMILES IDX 5 1 6 2 7 3 8 4 9 5 10 6 4 7 3 8 2 9 1 10
REMARK H PARENT
REMARK Flexibility Score: inf
ROOT
ATOM      1  C   UNL     1     124.626 122.465 129.958  1.00  0.00     0.000 C 
ENDROOT
BRANCH   1   2
ATOM      2  C   UNL     1     125.395 122.442 128.627  1.00  0.00     0.006 C 
BRANCH   2   3
ATOM      3  C   UNL     1     125.869 123.847 128.243  1.00  0.00     0.053 C 
BRANCH   3   4
ATOM      4  C   UNL     1     127.165 123.778 127.500  1.00  0.00     0.041 C 
ATOM      5  O   UNL     1     127.352 124.500 126.485  1.00  0.00    -0.550 OA
ATOM      6  O   UNL     1     128.147 122.880 127.897  1.00  0.00    -0.550 OA
ENDBRANCH   3   4
ENDBRANCH   2   3
ENDBRANCH   1   2
BRANCH   1   7
ATOM      7  C   UNL     1     124.381 121.060 130.528  1.00  0.00     0.000 C 
BRANCH   7   8
ATOM      8  C   UNL     1     125.541 120.092 130.234  1.00  0.00    -0.000 C 
BRANCH   8   9
ATOM      9  C   UNL     1     125.264 118.670 130.745  1.00  0.00    -0.003 C 
ATOM     10  C   UNL     1     124.009 118.586 131.614  1.00  0.00     0.004 C 
ENDBRANCH   8   9
ENDBRANCH   7   8
ENDBRANCH   1   7
TORSDOF 6
ENDMDL
MODEL 6
REMARK VINA RESULT:    -3.737     11.281     13.790
REMARK INTER + INTRA:          -5.280
REMARK INTER:                  -4.988
REMARK INTRA:                  -0.292
REMARK UNBOUND:                -0.232
REMARK SMILES CCCCCCCC(=O)[O-]
REMARK SMILES IDX 5 1 6 2 7 3 8 4 9 5 10 6 4 7 3 8 2 9 1 10
REMARK H PARENT
REMARK Flexibility Score: inf
ROOT
ATOM      1  C   UNL     1     131.207 133.744 130.553  1.00  0.00     0.000 C 
ENDROOT
BRANCH   1   2
ATOM      2  C   UNL     1     131.369 132.550 129.598  1.00  0.00     0.006 C 
BRANCH   2   3
ATOM      3  C   UNL     1     130.870 132.901 128.193  1.00  0.00     0.053 C 
BRANCH   3   4
ATOM      4  C   UNL     1     129.541 132.265 127.935  1.00  0.00     0.041 C 
ATOM      5  O   UNL     1     128.507 132.976 127.840  1.00  0.00    -0.550 OA
ATOM      6  O   UNL     1     129.437 130.883 127.849  1.00  0.00    -0.550 OA
ENDBRANCH   3   4
ENDBRANCH   2   3
ENDBRANCH   1   2
BRANCH   1   7
ATOM      7  C   UNL     1     131.090 135.085 129.813  1.00  0.00     0.000 C 
BRANCH   7   8
ATOM      8  C   UNL     1     130.066 136.033 130.463  1.00  0.00    -0.000 C 
BRANCH   8   9
ATOM      9  C   UNL     1     130.699 137.355 130.924  1.00  0.00    -0.003 C 
ATOM     10  C   UNL     1     131.946 137.148 131.783  1.00  0.00     0.004 C 
ENDBRANCH   8   9
ENDBRANCH   7   8
ENDBRANCH   1   7
TORSDOF 6
ENDMDL
MODEL 7
REMARK VINA RESULT:    -3.711      3.411      5.435
REMARK INTER + INTRA:          -5.244
REMARK INTER:                  -4.974
REMARK INTRA:                  -0.270
REMARK UNBOUND:                -0.232
REMARK SMILES CCCCCCCC(=O)[O-]
REMARK SMILES IDX 5 1 6 2 7 3 8 4 9 5 10 6 4 7 3 8 2 9 1 10
REMARK H PARENT
REMARK Flexibility Score: inf
ROOT
ATOM      1  C   UNL     1     124.598 123.362 129.549  1.00  0.00     0.000 C 
ENDROOT
BRANCH   1   2
ATOM      2  C   UNL     1     124.176 122.538 130.776  1.00  0.00     0.006 C 
BRANCH   2   3
ATOM      3  C   UNL     1     124.910 121.194 130.810  1.00  0.00     0.053 C 
BRANCH   3   4
ATOM      4  C   UNL     1     123.961 120.087 131.142  1.00  0.00     0.041 C 
ATOM      5  O   UNL     1     124.331 118.887 131.055  1.00  0.00    -0.550 OA
ATOM      6  O   UNL     1     122.651 120.378 131.500  1.00  0.00    -0.550 OA
ENDBRANCH   3   4
ENDBRANCH   2   3
ENDBRANCH   1   2
BRANCH   1   7
ATOM      7  C   UNL     1     125.278 122.511 128.466  1.00  0.00     0.000 C 
BRANCH   7   8
ATOM      8  C   UNL     1     126.695 123.008 128.126  1.00  0.00    -0.000 C 
BRANCH   8   9
ATOM      9  C   UNL     1     126.725 124.502 127.767  1.00  0.00    -0.003 C 
ATOM     10  C   UNL     1     126.947 124.748 126.275  1.00  0.00     0.004 C 
ENDBRANCH   8   9
ENDBRANCH   7   8
ENDBRANCH   1   7
TORSDOF 6
ENDMDL
MODEL 8
REMARK VINA RESULT:    -3.600     11.378     13.394
REMARK INTER + INTRA:          -5.095
REMARK INTER:                  -4.810
REMARK INTRA:                  -0.284
REMARK UNBOUND:                -0.232
REMARK SMILES CCCCCCCC(=O)[O-]
REMARK SMILES IDX 5 1 6 2 7 3 8 4 9 5 10 6 4 7 3 8 2 9 1 10
REMARK H PARENT
REMARK Flexibility Score: inf
ROOT
ATOM      1  C   UNL     1     131.351 133.212 130.430  1.00  0.00     0.000 C 
ENDROOT
BRANCH   1   2
ATOM      2  C   UNL     1     131.267 134.700 130.055  1.00  0.00     0.006 C 
BRANCH   2   3
ATOM      3  C   UNL     1     131.374 135.585 131.301  1.00  0.00     0.053 C 
BRANCH   3   4
ATOM      4  C   UNL     1     132.625 135.273 132.059  1.00  0.00     0.041 C 
ATOM      5  O   UNL     1     133.751 135.501 131.545  1.00  0.00    -0.550 OA
ATOM      6  O   UNL     1     132.548 134.684 133.315  1.00  0.00    -0.550 OA
ENDBRANCH   3   4
ENDBRANCH   2   3
ENDBRANCH   1   2
BRANCH   1   7
ATOM      7  C   UNL     1     131.310 132.287 129.204  1.00  0.00     0.000 C 
BRANCH   7   8
ATOM      8  C   UNL     1     130.375 132.811 128.099  1.00  0.00    -0.000 C 
BRANCH   8   9
ATOM      9  C   UNL     1     129.523 131.696 127.472  1.00  0.00    -0.003 C 
ATOM     10  C   UNL     1     129.202 130.571 128.456  1.00  0.00     0.004 C 
ENDBRANCH   8   9
ENDBRANCH   7   8
ENDBRANCH   1   7
TORSDOF 6
ENDMDL
MODEL 9
REMARK VINA RESULT:    -3.580      1.248      1.642
REMARK INTER + INTRA:          -5.067
REMARK INTER:                  -4.763
REMARK INTRA:                  -0.305
REMARK UNBOUND:                -0.232
REMARK SMILES CCCCCCCC(=O)[O-]
REMARK SMILES IDX 5 1 6 2 7 3 8 4 9 5 10 6 4 7 3 8 2 9 1 10
REMARK H PARENT
REMARK Flexibility Score: inf
ROOT
ATOM      1  C   UNL     1     124.657 122.398 129.937  1.00  0.00     0.000 C 
ENDROOT
BRANCH   1   2
ATOM      2  C   UNL     1     124.836 122.990 128.530  1.00  0.00     0.006 C 
BRANCH   2   3
ATOM      3  C   UNL     1     125.957 124.033 128.513  1.00  0.00     0.053 C 
BRANCH   3   4
ATOM      4  C   UNL     1     127.105 123.555 127.682  1.00  0.00     0.041 C 
ATOM      5  O   UNL     1     127.760 122.538 128.032  1.00  0.00    -0.550 OA
ATOM      6  O   UNL     1     127.483 124.260 126.546  1.00  0.00    -0.550 OA
ENDBRANCH   3   4
ENDBRANCH   2   3
ENDBRANCH   1   2
BRANCH   1   7
ATOM      7  C   UNL     1     125.252 120.987 130.069  1.00  0.00     0.000 C 
BRANCH   7   8
ATOM      8  C   UNL     1     124.521 120.132 131.120  1.00  0.00    -0.000 C 
BRANCH   8   9
ATOM      9  C   UNL     1     123.198 120.766 131.577  1.00  0.00    -0.003 C 
ATOM     10  C   UNL     1     123.119 120.943 133.093  1.00  0.00     0.004 C 
ENDBRANCH   8   9
ENDBRANCH   7   8
ENDBRANCH   1   7
TORSDOF 6
ENDMDL
