MODEL 1
REMARK VINA RESULT:    -4.710      0.000      0.000
REMARK INTER + INTRA:         -10.389
REMARK INTER:                  -8.290
REMARK INTRA:                  -2.099
REMARK UNBOUND:                -2.099
REMARK SMILES CCCCCCCCCCCCCCC(=O)[O-]
REMARK SMILES IDX 9 1 10 2 11 3 12 4 13 5 14 6 15 7 16 8 17 9 8 10 7 11 6 12
REMARK SMILES IDX 5 13 4 14 3 15 2 16 1 17
REMARK H PARENT
REMARK Flexibility Score: inf
ROOT
ATOM      1  C   UNL     1      63.331  29.390  12.884  1.00  0.00     0.000 C 
ENDROOT
BRANCH   1   2
ATOM      2  C   UNL     1      64.121  30.575  13.474  1.00  0.00     0.000 C 
BRANCH   2   3
ATOM      3  C   UNL     1      64.141  31.846  12.606  1.00  0.00     0.000 C 
BRANCH   3   4
ATOM      4  C   UNL     1      63.591  33.079  13.342  1.00  0.00     0.000 C 
BRANCH   4   5
ATOM      5  C   UNL     1      62.051  33.137  13.336  1.00  0.00     0.006 C 
BRANCH   5   6
ATOM      6  C   UNL     1      61.430  33.654  14.644  1.00  0.00     0.053 C 
BRANCH   6   7
ATOM      7  C   UNL     1      61.925  32.896  15.837  1.00  0.00     0.041 C 
ATOM      8  O   UNL     1      61.717  31.658  15.933  1.00  0.00    -0.550 OA
ATOM      9  O   UNL     1      62.589  33.564  16.857  1.00  0.00    -0.550 OA
ENDBRANCH   6   7
ENDBRANCH   5   6
ENDBRANCH   4   5
ENDBRANCH   3   4
ENDBRANCH   2   3
ENDBRANCH   1   2
BRANCH   1  10
ATOM     10  C   UNL     1      61.925  29.175  13.480  1.00  0.00     0.000 C 
BRANCH  10  11
ATOM     11  C   UNL     1      60.765  29.676  12.602  1.00  0.00    -0.000 C 
BRANCH  11  12
ATOM     12  C   UNL     1      61.223  30.119  11.205  1.00  0.00    -0.000 C 
BRANCH  12  13
ATOM     13  C   UNL     1      60.861  29.067  10.149  1.00  0.00    -0.000 C 
BRANCH  13  14
ATOM     14  C   UNL     1      62.099  28.650   9.340  1.00  0.00    -0.000 C 
BRANCH  14  15
ATOM     15  C   UNL     1      63.134  29.779   9.216  1.00  0.00    -0.000 C 
BRANCH  15  16
ATOM     16  C   UNL     1      64.573  29.288   9.435  1.00  0.00    -0.003 C 
ATOM     17  C   UNL     1      65.560  30.452   9.404  1.00  0.00     0.004 C 
ENDBRANCH  15  16
ENDBRANCH  14  15
ENDBRANCH  13  14
ENDBRANCH  12  13
ENDBRANCH  11  12
ENDBRANCH  10  11
ENDBRANCH   1  10
TORSDOF 13
ENDMDL
MODEL 2
REMARK VINA RESULT:    -4.565      2.872      5.472
REMARK INTER + INTRA:         -10.133
REMARK INTER:                  -8.129
REMARK INTRA:                  -2.004
REMARK UNBOUND:                -2.099
REMARK SMILES CCCCCCCCCCCCCCC(=O)[O-]
REMARK SMILES IDX 9 1 10 2 11 3 12 4 13 5 14 6 15 7 16 8 17 9 8 10 7 11 6 12
REMARK SMILES IDX 5 13 4 14 3 15 2 16 1 17
REMARK H PARENT
REMARK Flexibility Score: inf
ROOT
ATOM      1  C   UNL     1      61.888  29.222  13.733  1.00  0.00     0.000 C 
ENDROOT
BRANCH   1   2
ATOM      2  C   UNL     1      63.157  30.038  14.050  1.00  0.00     0.000 C 
BRANCH   2   3
ATOM      3  C   UNL     1      64.382  29.709  13.177  1.00  0.00     0.000 C 
BRANCH   3   4
ATOM      4  C   UNL     1      64.392  30.483  11.848  1.00  0.00     0.000 C 
BRANCH   4   5
ATOM      5  C   UNL     1      63.991  29.607  10.646  1.00  0.00     0.006 C 
BRANCH   5   6
ATOM      6  C   UNL     1      63.033  30.287   9.655  1.00  0.00     0.053 C 
BRANCH   6   7
ATOM      7  C   UNL     1      61.740  29.542   9.526  1.00  0.00     0.041 C 
ATOM      8  O   UNL     1      60.665  30.167   9.330  1.00  0.00    -0.550 OA
ATOM      9  O   UNL     1      61.718  28.159   9.653  1.00  0.00    -0.550 OA
ENDBRANCH   6   7
ENDBRANCH   5   6
ENDBRANCH   4   5
ENDBRANCH   3   4
ENDBRANCH   2   3
ENDBRANCH   1   2
BRANCH   1  10
ATOM     10  C   UNL     1      60.767  30.003  13.018  1.00  0.00     0.000 C 
BRANCH  10  11
ATOM     11  C   UNL     1      61.054  31.500  12.804  1.00  0.00    -0.000 C 
BRANCH  11  12
ATOM     12  C   UNL     1      60.563  32.374  13.967  1.00  0.00    -0.000 C 
BRANCH  12  13
ATOM     13  C   UNL     1      61.456  33.608  14.143  1.00  0.00    -0.000 C 
BRANCH  13  14
ATOM     14  C   UNL     1      62.030  33.674  15.566  1.00  0.00    -0.000 C 
BRANCH  14  15
ATOM     15  C   UNL     1      63.566  33.734  15.584  1.00  0.00    -0.000 C 
BRANCH  15  16
ATOM     16  C   UNL     1      64.178  33.610  14.181  1.00  0.00    -0.003 C 
ATOM     17  C   UNL     1      65.606  33.074  14.252  1.00  0.00     0.004 C 
ENDBRANCH  15  16
ENDBRANCH  14  15
ENDBRANCH  13  14
ENDBRANCH  12  13
ENDBRANCH  11  12
ENDBRANCH  10  11
ENDBRANCH   1  10
TORSDOF 13
ENDMDL
MODEL 3
REMARK VINA RESULT:    -4.540      1.339      2.437
REMARK INTER + INTRA:         -10.090
REMARK INTER:                  -8.086
REMARK INTRA:                  -2.004
REMARK UNBOUND:                -2.099
REMARK SMILES CCCCCCCCCCCCCCC(=O)[O-]
REMARK SMILES IDX 9 1 10 2 11 3 12 4 13 5 14 6 15 7 16 8 17 9 8 10 7 11 6 12
REMARK SMILES IDX 5 13 4 14 3 15 2 16 1 17
REMARK H PARENT
REMARK Flexibility Score: inf
ROOT
ATOM      1  C   UNL     1      60.551  29.526  12.684  1.00  0.00     0.000 C 
ENDROOT
BRANCH   1   2
ATOM      2  C   UNL     1      61.644  28.783  13.478  1.00  0.00     0.000 C 
BRANCH   2   3
ATOM      3  C   UNL     1      63.031  29.452  13.465  1.00  0.00     0.000 C 
BRANCH   3   4
ATOM      4  C   UNL     1      63.111  30.675  14.394  1.00  0.00     0.000 C 
BRANCH   4   5
ATOM      5  C   UNL     1      63.395  31.984  13.631  1.00  0.00     0.006 C 
BRANCH   5   6
ATOM      6  C   UNL     1      62.139  32.711  13.126  1.00  0.00     0.053 C 
BRANCH   6   7
ATOM      7  C   UNL     1      61.217  33.081  14.247  1.00  0.00     0.041 C 
ATOM      8  O   UNL     1      60.155  32.432  14.436  1.00  0.00    -0.550 OA
ATOM      9  O   UNL     1      61.517  34.163  15.065  1.00  0.00    -0.550 OA
ENDBRANCH   6   7
ENDBRANCH   5   6
ENDBRANCH   4   5
ENDBRANCH   3   4
ENDBRANCH   2   3
ENDBRANCH   1   2
BRANCH   1  10
ATOM     10  C   UNL     1      60.561  29.277  11.161  1.00  0.00     0.000 C 
BRANCH  10  11
ATOM     11  C   UNL     1      61.092  30.448  10.317  1.00  0.00    -0.000 C 
BRANCH  11  12
ATOM     12  C   UNL     1      62.062  29.997   9.214  1.00  0.00    -0.000 C 
BRANCH  12  13
ATOM     13  C   UNL     1      63.027  28.926   9.736  1.00  0.00    -0.000 C 
BRANCH  13  14
ATOM     14  C   UNL     1      64.485  29.397   9.624  1.00  0.00    -0.000 C 
BRANCH  14  15
ATOM     15  C   UNL     1      64.803  30.572  10.562  1.00  0.00    -0.000 C 
BRANCH  15  16
ATOM     16  C   UNL     1      65.298  31.814   9.807  1.00  0.00    -0.003 C 
ATOM     17  C   UNL     1      65.898  32.837  10.768  1.00  0.00     0.004 C 
ENDBRANCH  15  16
ENDBRANCH  14  15
ENDBRANCH  13  14
ENDBRANCH  12  13
ENDBRANCH  11  12
ENDBRANCH  10  11
ENDBRANCH   1  10
TORSDOF 13
ENDMDL
MODEL 4
REMARK VINA RESULT:    -4.507      1.480      2.889
REMARK INTER + INTRA:         -10.032
REMARK INTER:                  -8.141
REMARK INTRA:                  -1.891
REMARK UNBOUND:                -2.099
REMARK SMILES CCCCCCCCCCCCCCC(=O)[O-]
REMARK SMILES IDX 9 1 10 2 11 3 12 4 13 5 14 6 15 7 16 8 17 9 8 10 7 11 6 12
REMARK SMILES IDX 5 13 4 14 3 15 2 16 1 17
REMARK H PARENT
REMARK Flexibility Score: inf
ROOT
ATOM      1  C   UNL     1      60.908  30.613  13.521  1.00  0.00     0.000 C 
ENDROOT
BRANCH   1   2
ATOM      2  C   UNL     1      61.184  31.889  12.702  1.00  0.00     0.000 C 
BRANCH   2   3
ATOM      3  C   UNL     1      61.867  33.030  13.478  1.00  0.00     0.000 C 
BRANCH   3   4
ATOM      4  C   UNL     1      61.281  33.227  14.886  1.00  0.00     0.000 C 
BRANCH   4   5
ATOM      5  C   UNL     1      62.332  33.044  15.998  1.00  0.00     0.006 C 
BRANCH   5   6
ATOM      6  C   UNL     1      63.294  34.231  16.166  1.00  0.00     0.053 C 
BRANCH   6   7
ATOM      7  C   UNL     1      63.255  34.792  17.554  1.00  0.00     0.041 C 
ATOM      8  O   UNL     1      62.291  34.528  18.318  1.00  0.00    -0.550 OA
ATOM      9  O   UNL     1      64.271  35.632  17.992  1.00  0.00    -0.550 OA
ENDBRANCH   6   7
ENDBRANCH   5   6
ENDBRANCH   4   5
ENDBRANCH   3   4
ENDBRANCH   2   3
ENDBRANCH   1   2
BRANCH   1  10
ATOM     10  C   UNL     1      60.621  29.347  12.688  1.00  0.00     0.000 C 
BRANCH  10  11
ATOM     11  C   UNL     1      60.553  29.573  11.167  1.00  0.00    -0.000 C 
BRANCH  11  12
ATOM     12  C   UNL     1      61.718  28.915  10.413  1.00  0.00    -0.000 C 
BRANCH  12  13
ATOM     13  C   UNL     1      62.737  29.964   9.953  1.00  0.00    -0.000 C 
BRANCH  13  14
ATOM     14  C   UNL     1      64.137  29.647  10.499  1.00  0.00    -0.000 C 
BRANCH  14  15
ATOM     15  C   UNL     1      64.507  30.506  11.718  1.00  0.00    -0.000 C 
BRANCH  15  16
ATOM     16  C   UNL     1      64.367  29.742  13.043  1.00  0.00    -0.003 C 
ATOM     17  C   UNL     1      64.630  30.659  14.235  1.00  0.00     0.004 C 
ENDBRANCH  15  16
ENDBRANCH  14  15
ENDBRANCH  13  14
ENDBRANCH  12  13
ENDBRANCH  11  12
ENDBRANCH  10  11
ENDBRANCH   1  10
TORSDOF 13
ENDMDL
MODEL 5
REMARK VINA RESULT:    -4.480      1.021      3.030
REMARK INTER + INTRA:          -9.983
REMARK INTER:                  -8.094
REMARK INTRA:                  -1.889
REMARK UNBOUND:                -2.099
REMARK SMILES CCCCCCCCCCCCCCC(=O)[O-]
REMARK SMILES IDX 9 1 10 2 11 3 12 4 13 5 14 6 15 7 16 8 17 9 8 10 7 11 6 12
REMARK SMILES IDX 5 13 4 14 3 15 2 16 1 17
REMARK H PARENT
REMARK Flexibility Score: inf
ROOT
ATOM      1  C   UNL     1      64.459  30.869  10.190  1.00  0.00     0.000 C 
ENDROOT
BRANCH   1   2
ATOM      2  C   UNL     1      64.820  31.164  11.660  1.00  0.00     0.000 C 
BRANCH   2   3
ATOM      3  C   UNL     1      64.342  32.528  12.190  1.00  0.00     0.000 C 
BRANCH   3   4
ATOM      4  C   UNL     1      64.442  32.640  13.721  1.00  0.00     0.000 C 
BRANCH   4   5
ATOM      5  C   UNL     1      63.353  33.548  14.324  1.00  0.00     0.006 C 
BRANCH   5   6
ATOM      6  C   UNL     1      61.938  33.287  13.784  1.00  0.00     0.053 C 
BRANCH   6   7
ATOM      7  C   UNL     1      61.091  32.541  14.768  1.00  0.00     0.041 C 
ATOM      8  O   UNL     1      59.890  32.276  14.500  1.00  0.00    -0.550 OA
ATOM      9  O   UNL     1      61.620  32.166  15.997  1.00  0.00    -0.550 OA
ENDBRANCH   6   7
ENDBRANCH   5   6
ENDBRANCH   4   5
ENDBRANCH   3   4
ENDBRANCH   2   3
ENDBRANCH   1   2
BRANCH   1  10
ATOM     10  C   UNL     1      64.210  29.383   9.860  1.00  0.00     0.000 C 
BRANCH  10  11
ATOM     11  C   UNL     1      62.968  29.110   8.994  1.00  0.00    -0.000 C 
BRANCH  11  12
ATOM     12  C   UNL     1      61.779  28.580   9.808  1.00  0.00    -0.000 C 
BRANCH  12  13
ATOM     13  C   UNL     1      60.809  29.712  10.167  1.00  0.00    -0.000 C 
BRANCH  13  14
ATOM     14  C   UNL     1      61.058  30.218  11.595  1.00  0.00    -0.000 C 
BRANCH  14  15
ATOM     15  C   UNL     1      60.458  29.293  12.666  1.00  0.00    -0.000 C 
BRANCH  15  16
ATOM     16  C   UNL     1      61.409  29.066  13.851  1.00  0.00    -0.003 C 
ATOM     17  C   UNL     1      62.866  29.100  13.398  1.00  0.00     0.004 C 
ENDBRANCH  15  16
ENDBRANCH  14  15
ENDBRANCH  13  14
ENDBRANCH  12  13
ENDBRANCH  11  12
ENDBRANCH  10  11
ENDBRANCH   1  10
TORSDOF 13
ENDMDL
MODEL 6
REMARK VINA RESULT:    -4.446     11.275     14.263
REMARK INTER + INTRA:          -9.923
REMARK INTER:                  -7.909
REMARK INTRA:                  -2.014
REMARK UNBOUND:                -2.099
REMARK SMILES CCCCCCCCCCCCCCC(=O)[O-]
REMARK SMILES IDX 9 1 10 2 11 3 12 4 13 5 14 6 15 7 16 8 17 9 8 10 7 11 6 12
REMARK SMILES IDX 5 13 4 14 3 15 2 16 1 17
REMARK H PARENT
REMARK Flexibility Score: inf
ROOT
ATOM      1  C   UNL     1      65.634  29.673  27.266  1.00  0.00     0.000 C 
ENDROOT
BRANCH   1   2
ATOM      2  C   UNL     1      66.724  29.786  26.182  1.00  0.00     0.000 C 
BRANCH   2   3
ATOM      3  C   UNL     1      66.994  28.496  25.387  1.00  0.00     0.000 C 
BRANCH   3   4
ATOM      4  C   UNL     1      66.024  27.359  25.750  1.00  0.00     0.000 C 
BRANCH   4   5
ATOM      5  C   UNL     1      65.778  26.390  24.577  1.00  0.00     0.006 C 
BRANCH   5   6
ATOM      6  C   UNL     1      66.699  26.610  23.367  1.00  0.00     0.053 C 
BRANCH   6   7
ATOM      7  C   UNL     1      65.931  26.994  22.140  1.00  0.00     0.041 C 
ATOM      8  O   UNL     1      66.519  27.115  21.034  1.00  0.00    -0.550 OA
ATOM      9  O   UNL     1      64.568  27.250  22.226  1.00  0.00    -0.550 OA
ENDBRANCH   6   7
ENDBRANCH   5   6
ENDBRANCH   4   5
ENDBRANCH   3   4
ENDBRANCH   2   3
ENDBRANCH   1   2
BRANCH   1  10
ATOM     10  C   UNL     1      64.384  30.546  27.035  1.00  0.00     0.000 C 
BRANCH  10  11
ATOM     11  C   UNL     1      63.942  30.670  25.567  1.00  0.00    -0.000 C 
BRANCH  11  12
ATOM     12  C   UNL     1      62.556  30.061  25.308  1.00  0.00    -0.000 C 
BRANCH  12  13
ATOM     13  C   UNL     1      62.676  28.673  24.667  1.00  0.00    -0.000 C 
BRANCH  13  14
ATOM     14  C   UNL     1      62.425  27.566  25.701  1.00  0.00    -0.000 C 
BRANCH  14  15
ATOM     15  C   UNL     1      61.374  27.960  26.750  1.00  0.00    -0.000 C 
BRANCH  15  16
ATOM     16  C   UNL     1      61.917  27.888  28.185  1.00  0.00    -0.003 C 
ATOM     17  C   UNL     1      61.548  29.141  28.974  1.00  0.00     0.004 C 
ENDBRANCH  15  16
ENDBRANCH  14  15
ENDBRANCH  13  14
ENDBRANCH  12  13
ENDBRANCH  11  12
ENDBRANCH  10  11
ENDBRANCH   1  10
TORSDOF 13
ENDMDL
MODEL 7
REMARK VINA RESULT:    -4.417      1.173      3.037
REMARK INTER + INTRA:          -9.872
REMARK INTER:                  -8.261
REMARK INTRA:                  -1.612
REMARK UNBOUND:                -2.099
REMARK SMILES CCCCCCCCCCCCCCC(=O)[O-]
REMARK SMILES IDX 9 1 10 2 11 3 12 4 13 5 14 6 15 7 16 8 17 9 8 10 7 11 6 12
REMARK SMILES IDX 5 13 4 14 3 15 2 16 1 17
REMARK H PARENT
REMARK Flexibility Score: inf
ROOT
ATOM      1  C   UNL     1      65.011  31.727  11.176  1.00  0.00     0.000 C 
ENDROOT
BRANCH   1   2
ATOM      2  C   UNL     1      64.624  32.740  12.272  1.00  0.00     0.000 C 
BRANCH   2   3
ATOM      3  C   UNL     1      63.563  32.248  13.273  1.00  0.00     0.000 C 
BRANCH   3   4
ATOM      4  C   UNL     1      62.205  32.949  13.093  1.00  0.00     0.000 C 
BRANCH   4   5
ATOM      5  C   UNL     1      61.662  33.539  14.409  1.00  0.00     0.006 C 
BRANCH   5   6
ATOM      6  C   UNL     1      62.120  32.799  15.675  1.00  0.00     0.053 C 
BRANCH   6   7
ATOM      7  C   UNL     1      62.825  33.709  16.633  1.00  0.00     0.041 C 
ATOM      8  O   UNL     1      62.327  33.947  17.765  1.00  0.00    -0.550 OA
ATOM      9  O   UNL     1      64.016  34.320  16.263  1.00  0.00    -0.550 OA
ENDBRANCH   6   7
ENDBRANCH   5   6
ENDBRANCH   4   5
ENDBRANCH   3   4
ENDBRANCH   2   3
ENDBRANCH   1   2
BRANCH   1  10
ATOM     10  C   UNL     1      64.278  30.372  11.245  1.00  0.00     0.000 C 
BRANCH  10  11
ATOM     11  C   UNL     1      64.363  29.523   9.965  1.00  0.00    -0.000 C 
BRANCH  11  12
ATOM     12  C   UNL     1      63.014  29.402   9.240  1.00  0.00    -0.000 C 
BRANCH  12  13
ATOM     13  C   UNL     1      62.019  28.577  10.066  1.00  0.00    -0.000 C 
BRANCH  13  14
ATOM     14  C   UNL     1      60.713  29.353  10.289  1.00  0.00    -0.000 C 
BRANCH  14  15
ATOM     15  C   UNL     1      60.627  29.979  11.690  1.00  0.00    -0.000 C 
BRANCH  15  16
ATOM     16  C   UNL     1      60.642  28.927  12.809  1.00  0.00    -0.003 C 
ATOM     17  C   UNL     1      61.811  29.158  13.763  1.00  0.00     0.004 C 
ENDBRANCH  15  16
ENDBRANCH  14  15
ENDBRANCH  13  14
ENDBRANCH  12  13
ENDBRANCH  11  12
ENDBRANCH  10  11
ENDBRANCH   1  10
TORSDOF 13
ENDMDL
MODEL 8
REMARK VINA RESULT:    -4.397      1.576      2.206
REMARK INTER + INTRA:          -9.837
REMARK INTER:                  -8.441
REMARK INTRA:                  -1.396
REMARK UNBOUND:                -2.099
REMARK SMILES CCCCCCCCCCCCCCC(=O)[O-]
REMARK SMILES IDX 9 1 10 2 11 3 12 4 13 5 14 6 15 7 16 8 17 9 8 10 7 11 6 12
REMARK SMILES IDX 5 13 4 14 3 15 2 16 1 17
REMARK H PARENT
REMARK Flexibility Score: inf
ROOT
ATOM      1  C   UNL     1      63.466  30.374  13.938  1.00  0.00     0.000 C 
ENDROOT
BRANCH   1   2
ATOM      2  C   UNL     1      63.741  31.635  13.095  1.00  0.00     0.000 C 
BRANCH   2   3
ATOM      3  C   UNL     1      63.092  32.928  13.621  1.00  0.00     0.000 C 
BRANCH   3   4
ATOM      4  C   UNL     1      63.676  33.383  14.969  1.00  0.00     0.000 C 
BRANCH   4   5
ATOM      5  C   UNL     1      62.663  33.270  16.124  1.00  0.00     0.006 C 
BRANCH   5   6
ATOM      6  C   UNL     1      62.177  34.619  16.678  1.00  0.00     0.053 C 
BRANCH   6   7
ATOM      7  C   UNL     1      62.860  34.975  17.963  1.00  0.00     0.041 C 
ATOM      8  O   UNL     1      62.259  34.837  19.060  1.00  0.00    -0.550 OA
ATOM      9  O   UNL     1      64.150  35.490  17.945  1.00  0.00    -0.550 OA
ENDBRANCH   6   7
ENDBRANCH   5   6
ENDBRANCH   4   5
ENDBRANCH   3   4
ENDBRANCH   2   3
ENDBRANCH   1   2
BRANCH   1  10
ATOM     10  C   UNL     1      61.976  30.023  14.129  1.00  0.00     0.000 C 
BRANCH  10  11
ATOM     11  C   UNL     1      61.512  28.749  13.403  1.00  0.00    -0.000 C 
BRANCH  11  12
ATOM     12  C   UNL     1      60.304  28.991  12.486  1.00  0.00    -0.000 C 
BRANCH  12  13
ATOM     13  C   UNL     1      60.618  30.061  11.434  1.00  0.00    -0.000 C 
BRANCH  13  14
ATOM     14  C   UNL     1      60.564  29.472  10.017  1.00  0.00    -0.000 C 
BRANCH  14  15
ATOM     15  C   UNL     1      61.857  28.736   9.631  1.00  0.00    -0.000 C 
BRANCH  15  16
ATOM     16  C   UNL     1      63.013  29.698   9.316  1.00  0.00    -0.003 C 
ATOM     17  C   UNL     1      64.238  29.380  10.169  1.00  0.00     0.004 C 
ENDBRANCH  15  16
ENDBRANCH  14  15
ENDBRANCH  13  14
ENDBRANCH  12  13
ENDBRANCH  11  12
ENDBRANCH  10  11
ENDBRANCH   1  10
TORSDOF 13
ENDMDL
MODEL 9
REMARK VINA RESULT:    -4.378     12.503     14.876
REMARK INTER + INTRA:          -9.803
REMARK INTER:                  -7.782
REMARK INTRA:                  -2.021
REMARK UNBOUND:                -2.099
REMARK SMILES CCCCCCCCCCCCCCC(=O)[O-]
REMARK SMILES IDX 9 1 10 2 11 3 12 4 13 5 14 6 15 7 16 8 17 9 8 10 7 11 6 12
REMARK SMILES IDX 5 13 4 14 3 15 2 16 1 17
REMARK H PARENT
REMARK Flexibility Score: inf
ROOT
ATOM      1  C   UNL     1      64.582  29.936  28.820  1.00  0.00     0.000 C 
ENDROOT
BRANCH   1   2
ATOM      2  C   UNL     1      65.493  30.789  27.915  1.00  0.00     0.000 C 
BRANCH   2   3
ATOM      3  C   UNL     1      66.430  29.992  26.990  1.00  0.00     0.000 C 
BRANCH   3   4
ATOM      4  C   UNL     1      65.834  28.640  26.561  1.00  0.00     0.000 C 
BRANCH   4   5
ATOM      5  C   UNL     1      66.508  28.066  25.300  1.00  0.00     0.006 C 
BRANCH   5   6
ATOM      6  C   UNL     1      66.186  26.589  25.022  1.00  0.00     0.053 C 
BRANCH   6   7
ATOM      7  C   UNL     1      65.945  26.332  23.567  1.00  0.00     0.041 C 
ATOM      8  O   UNL     1      66.852  25.832  22.852  1.00  0.00    -0.550 OA
ATOM      9  O   UNL     1      64.727  26.675  22.993  1.00  0.00    -0.550 OA
ENDBRANCH   6   7
ENDBRANCH   5   6
ENDBRANCH   4   5
ENDBRANCH   3   4
ENDBRANCH   2   3
ENDBRANCH   1   2
BRANCH   1  10
ATOM     10  C   UNL     1      63.104  30.375  28.865  1.00  0.00     0.000 C 
BRANCH  10  11
ATOM     11  C   UNL     1      62.084  29.226  28.777  1.00  0.00    -0.000 C 
BRANCH  11  12
ATOM     12  C   UNL     1      62.749  27.844  28.694  1.00  0.00    -0.000 C 
BRANCH  12  13
ATOM     13  C   UNL     1      62.528  27.210  27.314  1.00  0.00    -0.000 C 
BRANCH  13  14
ATOM     14  C   UNL     1      61.123  27.526  26.782  1.00  0.00    -0.000 C 
BRANCH  14  15
ATOM     15  C   UNL     1      61.151  28.341  25.480  1.00  0.00    -0.000 C 
BRANCH  15  16
ATOM     16  C   UNL     1      62.580  28.654  25.009  1.00  0.00    -0.003 C 
ATOM     17  C   UNL     1      62.873  30.149  25.104  1.00  0.00     0.004 C 
ENDBRANCH  15  16
ENDBRANCH  14  15
ENDBRANCH  13  14
ENDBRANCH  12  13
ENDBRANCH  11  12
ENDBRANCH  10  11
ENDBRANCH   1  10
TORSDOF 13
ENDMDL
