MODEL 1
REMARK VINA RESULT:    -3.598      0.000      0.000
REMARK INTER + INTRA:          -9.330
REMARK INTER:                  -6.754
REMARK INTRA:                  -2.577
REMARK UNBOUND:                -2.577
REMARK SMILES CCCCCCCCC=CCCCCCCCC(=O)[O-]
REMARK SMILES IDX 10 1 9 2 11 3 12 4 13 5 14 6 15 7 16 8 17 9 18 10 19 11
REMARK SMILES IDX 20 12 8 13 7 14 6 15 5 16 4 17 3 18 2 19 1 20
REMARK H PARENT
REMARK Flexibility Score: inf
ROOT
ATOM      1  C   UNL     1      62.626  33.024  58.895  1.00  0.00    -0.031 C 
ATOM      2  C   UNL     1      63.949  33.031  58.673  1.00  0.00    -0.031 C 
ENDROOT
BRANCH   1   3
ATOM      3  C   UNL     1      61.717  32.057  58.188  1.00  0.00     0.027 C 
BRANCH   3   4
ATOM      4  C   UNL     1      60.698  31.451  59.165  1.00  0.00     0.004 C 
BRANCH   4   5
ATOM      5  C   UNL     1      61.044  31.732  60.639  1.00  0.00     0.000 C 
BRANCH   5   6
ATOM      6  C   UNL     1      61.007  30.500  61.566  1.00  0.00     0.000 C 
BRANCH   6   7
ATOM      7  C   UNL     1      62.192  29.530  61.416  1.00  0.00     0.000 C 
BRANCH   7   8
ATOM      8  C   UNL     1      63.535  30.254  61.216  1.00  0.00     0.006 C 
BRANCH   8   9
ATOM      9  C   UNL     1      64.325  29.687  60.029  1.00  0.00     0.053 C 
BRANCH   9  10
ATOM     10  C   UNL     1      65.209  28.549  60.440  1.00  0.00     0.041 C 
ATOM     11  O   UNL     1      66.385  28.769  60.833  1.00  0.00    -0.550 OA
ATOM     12  O   UNL     1      64.746  27.242  60.352  1.00  0.00    -0.550 OA
ENDBRANCH   9  10
ENDBRANCH   8   9
ENDBRANCH   7   8
ENDBRANCH   6   7
ENDBRANCH   5   6
ENDBRANCH   4   5
ENDBRANCH   3   4
ENDBRANCH   1   3
BRANCH   2  13
ATOM     13  C   UNL     1      64.870  33.957  59.423  1.00  0.00     0.027 C 
BRANCH  13  14
ATOM     14  C   UNL     1      64.423  34.133  60.881  1.00  0.00     0.004 C 
BRANCH  14  15
ATOM     15  C   UNL     1      64.721  35.547  61.413  1.00  0.00     0.000 C 
BRANCH  15  16
ATOM     16  C   UNL     1      63.572  36.537  61.149  1.00  0.00     0.000 C 
BRANCH  16  17
ATOM     17  C   UNL     1      62.209  35.885  60.842  1.00  0.00    -0.000 C 
BRANCH  17  18
ATOM     18  C   UNL     1      61.423  36.522  59.678  1.00  0.00    -0.000 C 
BRANCH  18  19
ATOM     19  C   UNL     1      59.986  36.000  59.503  1.00  0.00    -0.003 C 
ATOM     20  C   UNL     1      59.776  35.265  58.180  1.00  0.00     0.004 C 
ENDBRANCH  18  19
ENDBRANCH  17  18
ENDBRANCH  16  17
ENDBRANCH  15  16
ENDBRANCH  14  15
ENDBRANCH  13  14
ENDBRANCH   2  13
TORSDOF 15
ENDMDL
MODEL 2
REMARK VINA RESULT:    -3.429     11.094     13.003
REMARK INTER + INTRA:          -9.013
REMARK INTER:                  -6.445
REMARK INTRA:                  -2.569
REMARK UNBOUND:                -2.577
REMARK SMILES CCCCCCCCC=CCCCCCCCC(=O)[O-]
REMARK SMILES IDX 10 1 9 2 11 3 12 4 13 5 14 6 15 7 16 8 17 9 18 10 19 11
REMARK SMILES IDX 20 12 8 13 7 14 6 15 5 16 4 17 3 18 2 19 1 20
REMARK H PARENT
REMARK Flexibility Score: inf
ROOT
ATOM      1  C   UNL     1      57.468  28.226  50.115  1.00  0.00    -0.031 C 
ATOM      2  C   UNL     1      57.004  27.238  50.895  1.00  0.00    -0.031 C 
ENDROOT
BRANCH   1   3
ATOM      3  C   UNL     1      58.176  29.419  50.696  1.00  0.00     0.027 C 
BRANCH   3   4
ATOM      4  C   UNL     1      59.467  29.719  49.921  1.00  0.00     0.004 C 
BRANCH   4   5
ATOM      5  C   UNL     1      59.880  28.573  48.981  1.00  0.00     0.000 C 
BRANCH   5   6
ATOM      6  C   UNL     1      61.315  28.046  49.182  1.00  0.00     0.000 C 
BRANCH   6   7
ATOM      7  C   UNL     1      61.418  26.583  49.650  1.00  0.00     0.000 C 
BRANCH   7   8
ATOM      8  C   UNL     1      60.091  25.817  49.509  1.00  0.00     0.006 C 
BRANCH   8   9
ATOM      9  C   UNL     1      59.889  24.798  50.638  1.00  0.00     0.053 C 
BRANCH   9  10
ATOM     10  C   UNL     1      60.926  23.717  50.607  1.00  0.00     0.041 C 
ATOM     11  O   UNL     1      60.974  22.912  49.639  1.00  0.00    -0.550 OA
ATOM     12  O   UNL     1      61.814  23.574  51.665  1.00  0.00    -0.550 OA
ENDBRANCH   9  10
ENDBRANCH   8   9
ENDBRANCH   7   8
ENDBRANCH   6   7
ENDBRANCH   5   6
ENDBRANCH   4   5
ENDBRANCH   3   4
ENDBRANCH   1   3
BRANCH   2  13
ATOM     13  C   UNL     1      56.348  26.014  50.312  1.00  0.00     0.027 C 
BRANCH  13  14
ATOM     14  C   UNL     1      55.147  26.388  49.430  1.00  0.00     0.004 C 
BRANCH  14  15
ATOM     15  C   UNL     1      53.808  26.211  50.169  1.00  0.00     0.000 C 
BRANCH  15  16
ATOM     16  C   UNL     1      53.165  27.552  50.566  1.00  0.00     0.000 C 
BRANCH  16  17
ATOM     17  C   UNL     1      53.586  28.757  49.701  1.00  0.00    -0.000 C 
BRANCH  17  18
ATOM     18  C   UNL     1      54.263  29.912  50.467  1.00  0.00    -0.000 C 
BRANCH  18  19
ATOM     19  C   UNL     1      53.945  29.964  51.972  1.00  0.00    -0.003 C 
ATOM     20  C   UNL     1      55.188  29.814  52.849  1.00  0.00     0.004 C 
ENDBRANCH  18  19
ENDBRANCH  17  18
ENDBRANCH  16  17
ENDBRANCH  15  16
ENDBRANCH  14  15
ENDBRANCH  13  14
ENDBRANCH   2  13
TORSDOF 15
ENDMDL
MODEL 3
REMARK VINA RESULT:    -3.378     10.684     13.340
REMARK INTER + INTRA:          -8.918
REMARK INTER:                  -6.623
REMARK INTRA:                  -2.294
REMARK UNBOUND:                -2.577
REMARK SMILES CCCCCCCCC=CCCCCCCCC(=O)[O-]
REMARK SMILES IDX 10 1 9 2 11 3 12 4 13 5 14 6 15 7 16 8 17 9 18 10 19 11
REMARK SMILES IDX 20 12 8 13 7 14 6 15 5 16 4 17 3 18 2 19 1 20
REMARK H PARENT
REMARK Flexibility Score: inf
ROOT
ATOM      1  C   UNL     1      55.409  29.343  51.061  1.00  0.00    -0.031 C 
ATOM      2  C   UNL     1      54.185  29.758  50.703  1.00  0.00    -0.031 C 
ENDROOT
BRANCH   1   3
ATOM      3  C   UNL     1      56.238  30.106  52.057  1.00  0.00     0.027 C 
BRANCH   3   4
ATOM      4  C   UNL     1      57.736  29.856  51.827  1.00  0.00     0.004 C 
BRANCH   4   5
ATOM      5  C   UNL     1      58.031  29.212  50.461  1.00  0.00     0.000 C 
BRANCH   5   6
ATOM      6  C   UNL     1      59.423  29.527  49.875  1.00  0.00     0.000 C 
BRANCH   6   7
ATOM      7  C   UNL     1      59.979  28.472  48.902  1.00  0.00     0.000 C 
BRANCH   7   8
ATOM      8  C   UNL     1      59.888  27.041  49.457  1.00  0.00     0.006 C 
BRANCH   8   9
ATOM      9  C   UNL     1      61.273  26.419  49.684  1.00  0.00     0.053 C 
BRANCH   9  10
ATOM     10  C   UNL     1      61.183  24.963  50.023  1.00  0.00     0.041 C 
ATOM     11  O   UNL     1      62.176  24.209  49.849  1.00  0.00    -0.550 OA
ATOM     12  O   UNL     1      59.990  24.432  50.496  1.00  0.00    -0.550 OA
ENDBRANCH   9  10
ENDBRANCH   8   9
ENDBRANCH   7   8
ENDBRANCH   6   7
ENDBRANCH   5   6
ENDBRANCH   4   5
ENDBRANCH   3   4
ENDBRANCH   1   3
BRANCH   2  13
ATOM     13  C   UNL     1      53.329  28.964  49.752  1.00  0.00     0.027 C 
BRANCH  13  14
ATOM     14  C   UNL     1      53.199  27.502  50.201  1.00  0.00     0.004 C 
BRANCH  14  15
ATOM     15  C   UNL     1      53.408  26.517  49.037  1.00  0.00     0.000 C 
BRANCH  15  16
ATOM     16  C   UNL     1      54.625  25.597  49.247  1.00  0.00     0.000 C 
BRANCH  16  17
ATOM     17  C   UNL     1      55.933  26.323  49.620  1.00  0.00    -0.000 C 
BRANCH  17  18
ATOM     18  C   UNL     1      56.681  25.746  50.839  1.00  0.00    -0.000 C 
BRANCH  18  19
ATOM     19  C   UNL     1      56.002  26.001  52.196  1.00  0.00    -0.003 C 
ATOM     20  C   UNL     1      56.966  26.542  53.251  1.00  0.00     0.004 C 
ENDBRANCH  18  19
ENDBRANCH  17  18
ENDBRANCH  16  17
ENDBRANCH  15  16
ENDBRANCH  14  15
ENDBRANCH  13  14
ENDBRANCH   2  13
TORSDOF 15
ENDMDL
MODEL 4
REMARK VINA RESULT:    -3.246     10.872     12.655
REMARK INTER + INTRA:          -8.670
REMARK INTER:                  -5.942
REMARK INTRA:                  -2.728
REMARK UNBOUND:                -2.577
REMARK SMILES CCCCCCCCC=CCCCCCCCC(=O)[O-]
REMARK SMILES IDX 10 1 9 2 11 3 12 4 13 5 14 6 15 7 16 8 17 9 18 10 19 11
REMARK SMILES IDX 20 12 8 13 7 14 6 15 5 16 4 17 3 18 2 19 1 20
REMARK H PARENT
REMARK Flexibility Score: inf
ROOT
ATOM      1  C   UNL     1      55.589  26.262  49.956  1.00  0.00    -0.031 C 
ATOM      2  C   UNL     1      55.052  27.458  49.669  1.00  0.00    -0.031 C 
ENDROOT
BRANCH   1   3
ATOM      3  C   UNL     1      57.077  26.078  50.073  1.00  0.00     0.027 C 
BRANCH   3   4
ATOM      4  C   UNL     1      57.553  26.372  51.503  1.00  0.00     0.004 C 
BRANCH   4   5
ATOM      5  C   UNL     1      58.820  27.244  51.543  1.00  0.00     0.000 C 
BRANCH   5   6
ATOM      6  C   UNL     1      58.571  28.765  51.503  1.00  0.00     0.000 C 
BRANCH   6   7
ATOM      7  C   UNL     1      58.208  29.334  50.119  1.00  0.00     0.000 C 
BRANCH   7   8
ATOM      8  C   UNL     1      59.400  29.347  49.148  1.00  0.00     0.006 C 
BRANCH   8   9
ATOM      9  C   UNL     1      60.713  29.723  49.848  1.00  0.00     0.053 C 
BRANCH   9  10
ATOM     10  C   UNL     1      61.805  28.740  49.554  1.00  0.00     0.041 C 
ATOM     11  O   UNL     1      61.521  27.560  49.215  1.00  0.00    -0.550 OA
ATOM     12  O   UNL     1      63.135  29.116  49.690  1.00  0.00    -0.550 OA
ENDBRANCH   9  10
ENDBRANCH   8   9
ENDBRANCH   7   8
ENDBRANCH   6   7
ENDBRANCH   5   6
ENDBRANCH   4   5
ENDBRANCH   3   4
ENDBRANCH   1   3
BRANCH   2  13
ATOM     13  C   UNL     1      53.560  27.660  49.610  1.00  0.00     0.027 C 
BRANCH  13  14
ATOM     14  C   UNL     1      53.188  29.138  49.789  1.00  0.00     0.004 C 
BRANCH  14  15
ATOM     15  C   UNL     1      54.364  29.971  50.333  1.00  0.00     0.000 C 
BRANCH  15  16
ATOM     16  C   UNL     1      53.958  30.879  51.507  1.00  0.00     0.000 C 
BRANCH  16  17
ATOM     17  C   UNL     1      54.168  30.266  52.907  1.00  0.00    -0.000 C 
BRANCH  17  18
ATOM     18  C   UNL     1      55.288  29.210  53.000  1.00  0.00    -0.000 C 
BRANCH  18  19
ATOM     19  C   UNL     1      54.809  27.784  53.325  1.00  0.00    -0.003 C 
ATOM     20  C   UNL     1      53.286  27.659  53.352  1.00  0.00     0.004 C 
ENDBRANCH  18  19
ENDBRANCH  17  18
ENDBRANCH  16  17
ENDBRANCH  15  16
ENDBRANCH  14  15
ENDBRANCH  13  14
ENDBRANCH   2  13
TORSDOF 15
ENDMDL
MODEL 5
REMARK VINA RESULT:    -3.241      0.972      2.868
REMARK INTER + INTRA:          -8.659
REMARK INTER:                  -6.352
REMARK INTRA:                  -2.307
REMARK UNBOUND:                -2.577
REMARK SMILES CCCCCCCCC=CCCCCCCCC(=O)[O-]
REMARK SMILES IDX 10 1 9 2 11 3 12 4 13 5 14 6 15 7 16 8 17 9 18 10 19 11
REMARK SMILES IDX 20 12 8 13 7 14 6 15 5 16 4 17 3 18 2 19 1 20
REMARK H PARENT
REMARK Flexibility Score: inf
ROOT
ATOM      1  C   UNL     1      60.449  33.167  58.457  1.00  0.00    -0.031 C 
ATOM      2  C   UNL     1      60.036  34.237  57.762  1.00  0.00    -0.031 C 
ENDROOT
BRANCH   1   3
ATOM      3  C   UNL     1      60.168  31.767  57.984  1.00  0.00     0.027 C 
BRANCH   3   4
ATOM      4  C   UNL     1      60.537  30.742  59.066  1.00  0.00     0.004 C 
BRANCH   4   5
ATOM      5  C   UNL     1      60.903  31.396  60.410  1.00  0.00     0.000 C 
BRANCH   5   6
ATOM      6  C   UNL     1      61.208  30.411  61.557  1.00  0.00     0.000 C 
BRANCH   6   7
ATOM      7  C   UNL     1      62.457  29.534  61.353  1.00  0.00     0.000 C 
BRANCH   7   8
ATOM      8  C   UNL     1      63.724  30.357  61.066  1.00  0.00     0.006 C 
BRANCH   8   9
ATOM      9  C   UNL     1      64.331  30.025  59.696  1.00  0.00     0.053 C 
BRANCH   9  10
ATOM     10  C   UNL     1      65.709  29.449  59.821  1.00  0.00     0.041 C 
ATOM     11  O   UNL     1      65.990  28.681  60.778  1.00  0.00    -0.550 OA
ATOM     12  O   UNL     1      66.691  29.791  58.900  1.00  0.00    -0.550 OA
ENDBRANCH   9  10
ENDBRANCH   8   9
ENDBRANCH   7   8
ENDBRANCH   6   7
ENDBRANCH   5   6
ENDBRANCH   4   5
ENDBRANCH   3   4
ENDBRANCH   1   3
BRANCH   2  13
ATOM     13  C   UNL     1      60.367  35.640  58.200  1.00  0.00     0.027 C 
BRANCH  13  14
ATOM     14  C   UNL     1      60.279  35.785  59.726  1.00  0.00     0.004 C 
BRANCH  14  15
ATOM     15  C   UNL     1      61.249  36.853  60.264  1.00  0.00     0.000 C 
BRANCH  15  16
ATOM     16  C   UNL     1      62.572  36.252  60.773  1.00  0.00     0.000 C 
BRANCH  16  17
ATOM     17  C   UNL     1      62.647  34.712  60.730  1.00  0.00    -0.000 C 
BRANCH  17  18
ATOM     18  C   UNL     1      64.064  34.119  60.871  1.00  0.00    -0.000 C 
BRANCH  18  19
ATOM     19  C   UNL     1      64.681  33.598  59.561  1.00  0.00    -0.003 C 
ATOM     20  C   UNL     1      63.900  34.031  58.321  1.00  0.00     0.004 C 
ENDBRANCH  18  19
ENDBRANCH  17  18
ENDBRANCH  16  17
ENDBRANCH  15  16
ENDBRANCH  14  15
ENDBRANCH  13  14
ENDBRANCH   2  13
TORSDOF 15
ENDMDL
MODEL 6
REMARK VINA RESULT:    -3.223     11.529     13.559
REMARK INTER + INTRA:          -8.626
REMARK INTER:                  -6.307
REMARK INTRA:                  -2.319
REMARK UNBOUND:                -2.577
REMARK SMILES CCCCCCCCC=CCCCCCCCC(=O)[O-]
REMARK SMILES IDX 10 1 9 2 11 3 12 4 13 5 14 6 15 7 16 8 17 9 18 10 19 11
REMARK SMILES IDX 20 12 8 13 7 14 6 15 5 16 4 17 3 18 2 19 1 20
REMARK H PARENT
REMARK Flexibility Score: inf
ROOT
ATOM      1  C   UNL     1      57.107  27.115  51.047  1.00  0.00    -0.031 C 
ATOM      2  C   UNL     1      57.341  28.087  50.152  1.00  0.00    -0.031 C 
ENDROOT
BRANCH   1   3
ATOM      3  C   UNL     1      56.304  25.895  50.689  1.00  0.00     0.027 C 
BRANCH   3   4
ATOM      4  C   UNL     1      55.521  26.119  49.387  1.00  0.00     0.004 C 
BRANCH   4   5
ATOM      5  C   UNL     1      54.034  25.743  49.512  1.00  0.00     0.000 C 
BRANCH   5   6
ATOM      6  C   UNL     1      53.057  26.936  49.538  1.00  0.00     0.000 C 
BRANCH   6   7
ATOM      7  C   UNL     1      53.718  28.326  49.544  1.00  0.00     0.000 C 
BRANCH   7   8
ATOM      8  C   UNL     1      53.234  29.213  50.704  1.00  0.00     0.006 C 
BRANCH   8   9
ATOM      9  C   UNL     1      54.223  30.343  51.019  1.00  0.00     0.053 C 
BRANCH   9  10
ATOM     10  C   UNL     1      54.828  30.191  52.381  1.00  0.00     0.041 C 
ATOM     11  O   UNL     1      55.311  31.192  52.976  1.00  0.00    -0.550 OA
ATOM     12  O   UNL     1      54.894  28.939  52.978  1.00  0.00    -0.550 OA
ENDBRANCH   9  10
ENDBRANCH   8   9
ENDBRANCH   7   8
ENDBRANCH   6   7
ENDBRANCH   5   6
ENDBRANCH   4   5
ENDBRANCH   3   4
ENDBRANCH   1   3
BRANCH   2  13
ATOM     13  C   UNL     1      58.194  29.282  50.489  1.00  0.00     0.027 C 
BRANCH  13  14
ATOM     14  C   UNL     1      59.173  29.610  49.353  1.00  0.00     0.004 C 
BRANCH  14  15
ATOM     15  C   UNL     1      59.931  28.362  48.862  1.00  0.00     0.000 C 
BRANCH  15  16
ATOM     16  C   UNL     1      60.875  27.782  49.930  1.00  0.00     0.000 C 
BRANCH  16  17
ATOM     17  C   UNL     1      61.245  26.297  49.734  1.00  0.00    -0.000 C 
BRANCH  17  18
ATOM     18  C   UNL     1      60.118  25.293  50.047  1.00  0.00    -0.000 C 
BRANCH  18  19
ATOM     19  C   UNL     1      60.399  24.351  51.231  1.00  0.00    -0.003 C 
ATOM     20  C   UNL     1      59.190  24.174  52.150  1.00  0.00     0.004 C 
ENDBRANCH  18  19
ENDBRANCH  17  18
ENDBRANCH  16  17
ENDBRANCH  15  16
ENDBRANCH  14  15
ENDBRANCH  13  14
ENDBRANCH   2  13
TORSDOF 15
ENDMDL
MODEL 7
REMARK VINA RESULT:    -3.183      1.315      2.068
REMARK INTER + INTRA:          -8.551
REMARK INTER:                  -5.801
REMARK INTRA:                  -2.750
REMARK UNBOUND:                -2.577
REMARK SMILES CCCCCCCCC=CCCCCCCCC(=O)[O-]
REMARK SMILES IDX 10 1 9 2 11 3 12 4 13 5 14 6 15 7 16 8 17 9 18 10 19 11
REMARK SMILES IDX 20 12 8 13 7 14 6 15 5 16 4 17 3 18 2 19 1 20
REMARK H PARENT
REMARK Flexibility Score: inf
ROOT
ATOM      1  C   UNL     1      61.592  33.552  57.230  1.00  0.00    -0.031 C 
ATOM      2  C   UNL     1      62.901  33.268  57.298  1.00  0.00    -0.031 C 
ENDROOT
BRANCH   1   3
ATOM      3  C   UNL     1      60.548  32.476  57.339  1.00  0.00     0.027 C 
BRANCH   3   4
ATOM      4  C   UNL     1      61.057  31.306  58.194  1.00  0.00     0.004 C 
BRANCH   4   5
ATOM      5  C   UNL     1      60.850  31.534  59.703  1.00  0.00     0.000 C 
BRANCH   5   6
ATOM      6  C   UNL     1      60.564  30.261  60.524  1.00  0.00     0.000 C 
BRANCH   6   7
ATOM      7  C   UNL     1      61.526  30.009  61.699  1.00  0.00     0.000 C 
BRANCH   7   8
ATOM      8  C   UNL     1      63.005  30.140  61.299  1.00  0.00     0.006 C 
BRANCH   8   9
ATOM      9  C   UNL     1      63.479  28.957  60.444  1.00  0.00     0.053 C 
BRANCH   9  10
ATOM     10  C   UNL     1      64.477  29.381  59.409  1.00  0.00     0.041 C 
ATOM     11  O   UNL     1      64.127  29.506  58.206  1.00  0.00    -0.550 OA
ATOM     12  O   UNL     1      65.800  29.601  59.768  1.00  0.00    -0.550 OA
ENDBRANCH   9  10
ENDBRANCH   8   9
ENDBRANCH   7   8
ENDBRANCH   6   7
ENDBRANCH   5   6
ENDBRANCH   4   5
ENDBRANCH   3   4
ENDBRANCH   1   3
BRANCH   2  13
ATOM     13  C   UNL     1      63.948  34.349  57.249  1.00  0.00     0.027 C 
BRANCH  13  14
ATOM     14  C   UNL     1      64.969  34.193  58.385  1.00  0.00     0.004 C 
BRANCH  14  15
ATOM     15  C   UNL     1      64.574  33.078  59.370  1.00  0.00     0.000 C 
BRANCH  15  16
ATOM     16  C   UNL     1      64.066  33.624  60.716  1.00  0.00     0.000 C 
BRANCH  16  17
ATOM     17  C   UNL     1      64.217  35.148  60.899  1.00  0.00    -0.000 C 
BRANCH  17  18
ATOM     18  C   UNL     1      62.900  35.949  60.859  1.00  0.00    -0.000 C 
BRANCH  18  19
ATOM     19  C   UNL     1      61.646  35.118  60.531  1.00  0.00    -0.003 C 
ATOM     20  C   UNL     1      60.550  35.937  59.852  1.00  0.00     0.004 C 
ENDBRANCH  18  19
ENDBRANCH  17  18
ENDBRANCH  16  17
ENDBRANCH  15  16
ENDBRANCH  14  15
ENDBRANCH  13  14
ENDBRANCH   2  13
TORSDOF 15
ENDMDL
MODEL 8
REMARK VINA RESULT:    -3.161     10.702     12.950
REMARK INTER + INTRA:          -8.509
REMARK INTER:                  -6.013
REMARK INTRA:                  -2.496
REMARK UNBOUND:                -2.577
REMARK SMILES CCCCCCCCC=CCCCCCCCC(=O)[O-]
REMARK SMILES IDX 10 1 9 2 11 3 12 4 13 5 14 6 15 7 16 8 17 9 18 10 19 11
REMARK SMILES IDX 20 12 8 13 7 14 6 15 5 16 4 17 3 18 2 19 1 20
REMARK H PARENT
REMARK Flexibility Score: inf
ROOT
ATOM      1  C   UNL     1      57.987  29.024  50.077  1.00  0.00    -0.031 C 
ATOM      2  C   UNL     1      57.354  29.186  51.248  1.00  0.00    -0.031 C 
ENDROOT
BRANCH   1   3
ATOM      3  C   UNL     1      59.398  29.503  49.874  1.00  0.00     0.027 C 
BRANCH   3   4
ATOM      4  C   UNL     1      60.108  28.670  48.797  1.00  0.00     0.004 C 
BRANCH   4   5
ATOM      5  C   UNL     1      60.913  27.496  49.383  1.00  0.00     0.000 C 
BRANCH   5   6
ATOM      6  C   UNL     1      60.150  26.160  49.475  1.00  0.00     0.000 C 
BRANCH   6   7
ATOM      7  C   UNL     1      59.806  25.697  50.902  1.00  0.00     0.000 C 
BRANCH   7   8
ATOM      8  C   UNL     1      58.292  25.546  51.132  1.00  0.00     0.006 C 
BRANCH   8   9
ATOM      9  C   UNL     1      57.976  24.880  52.478  1.00  0.00     0.053 C 
BRANCH   9  10
ATOM     10  C   UNL     1      58.554  25.645  53.629  1.00  0.00     0.041 C 
ATOM     11  O   UNL     1      59.367  25.090  54.415  1.00  0.00    -0.550 OA
ATOM     12  O   UNL     1      58.165  26.959  53.855  1.00  0.00    -0.550 OA
ENDBRANCH   9  10
ENDBRANCH   8   9
ENDBRANCH   7   8
ENDBRANCH   6   7
ENDBRANCH   5   6
ENDBRANCH   4   5
ENDBRANCH   3   4
ENDBRANCH   1   3
BRANCH   2  13
ATOM     13  C   UNL     1      55.963  28.655  51.473  1.00  0.00     0.027 C 
BRANCH  13  14
ATOM     14  C   UNL     1      54.994  29.142  50.386  1.00  0.00     0.004 C 
BRANCH  14  15
ATOM     15  C   UNL     1      54.308  27.973  49.654  1.00  0.00     0.000 C 
BRANCH  15  16
ATOM     16  C   UNL     1      55.189  26.712  49.591  1.00  0.00     0.000 C 
BRANCH  16  17
ATOM     17  C   UNL     1      54.414  25.382  49.494  1.00  0.00    -0.000 C 
BRANCH  17  18
ATOM     18  C   UNL     1      53.563  25.026  50.729  1.00  0.00    -0.000 C 
BRANCH  18  19
ATOM     19  C   UNL     1      54.326  25.030  52.065  1.00  0.00    -0.003 C 
ATOM     20  C   UNL     1      53.813  26.090  53.040  1.00  0.00     0.004 C 
ENDBRANCH  18  19
ENDBRANCH  17  18
ENDBRANCH  16  17
ENDBRANCH  15  16
ENDBRANCH  14  15
ENDBRANCH  13  14
ENDBRANCH   2  13
TORSDOF 15
ENDMDL
MODEL 9
REMARK VINA RESULT:    -3.118      3.264      4.592
REMARK INTER + INTRA:          -8.429
REMARK INTER:                  -6.109
REMARK INTRA:                  -2.319
REMARK UNBOUND:                -2.577
REMARK SMILES CCCCCCCCC=CCCCCCCCC(=O)[O-]
REMARK SMILES IDX 10 1 9 2 11 3 12 4 13 5 14 6 15 7 16 8 17 9 18 10 19 11
REMARK SMILES IDX 20 12 8 13 7 14 6 15 5 16 4 17 3 18 2 19 1 20
REMARK H PARENT
REMARK Flexibility Score: inf
ROOT
ATOM      1  C   UNL     1      64.086  32.152  60.588  1.00  0.00    -0.031 C 
ATOM      2  C   UNL     1      64.616  32.961  59.658  1.00  0.00    -0.031 C 
ENDROOT
BRANCH   1   3
ATOM      3  C   UNL     1      64.096  30.657  60.426  1.00  0.00     0.027 C 
BRANCH   3   4
ATOM      4  C   UNL     1      62.970  30.012  61.248  1.00  0.00     0.004 C 
BRANCH   4   5
ATOM      5  C   UNL     1      61.681  30.852  61.259  1.00  0.00     0.000 C 
BRANCH   5   6
ATOM      6  C   UNL     1      60.370  30.041  61.202  1.00  0.00     0.000 C 
BRANCH   6   7
ATOM      7  C   UNL     1      60.319  28.952  60.115  1.00  0.00     0.000 C 
BRANCH   7   8
ATOM      8  C   UNL     1      59.483  27.730  60.533  1.00  0.00     0.006 C 
BRANCH   8   9
ATOM      9  C   UNL     1      57.978  27.972  60.359  1.00  0.00     0.053 C 
BRANCH   9  10
ATOM     10  C   UNL     1      57.180  27.345  61.461  1.00  0.00     0.041 C 
ATOM     11  O   UNL     1      57.387  26.147  61.790  1.00  0.00    -0.550 OA
ATOM     12  O   UNL     1      56.183  28.072  62.098  1.00  0.00    -0.550 OA
ENDBRANCH   9  10
ENDBRANCH   8   9
ENDBRANCH   7   8
ENDBRANCH   6   7
ENDBRANCH   5   6
ENDBRANCH   4   5
ENDBRANCH   3   4
ENDBRANCH   1   3
BRANCH   2  13
ATOM     13  C   UNL     1      64.661  34.455  59.845  1.00  0.00     0.027 C 
BRANCH  13  14
ATOM     14  C   UNL     1      63.772  34.901  61.014  1.00  0.00     0.004 C 
BRANCH  14  15
ATOM     15  C   UNL     1      62.535  35.684  60.536  1.00  0.00     0.000 C 
BRANCH  15  16
ATOM     16  C   UNL     1      61.328  34.773  60.251  1.00  0.00     0.000 C 
BRANCH  16  17
ATOM     17  C   UNL     1      61.199  34.301  58.788  1.00  0.00    -0.000 C 
BRANCH  17  18
ATOM     18  C   UNL     1      60.777  32.828  58.608  1.00  0.00    -0.000 C 
BRANCH  18  19
ATOM     19  C   UNL     1      61.700  31.996  57.700  1.00  0.00    -0.003 C 
ATOM     20  C   UNL     1      60.957  30.893  56.947  1.00  0.00     0.004 C 
ENDBRANCH  18  19
ENDBRANCH  17  18
ENDBRANCH  16  17
ENDBRANCH  15  16
ENDBRANCH  14  15
ENDBRANCH  13  14
ENDBRANCH   2  13
TORSDOF 15
ENDMDL
