MODEL 1
REMARK VINA RESULT:    -4.960      0.000      0.000
REMARK INTER + INTRA:          -5.981
REMARK INTER:                  -5.830
REMARK INTRA:                  -0.152
REMARK UNBOUND:                -0.152
REMARK SMILES O=C([O-])C=Cc1ccc(O)c(O)c1
REMARK SMILES IDX 6 1 13 2 7 3 11 4 8 5 9 6 5 7 4 8 2 9 1 10 3 11 12 12 10 14
REMARK H PARENT 12 13 10 15
REMARK Flexibility Score: inf
ROOT
ATOM      1  C   UNL     1      16.934 -13.219   1.173  1.00  0.00    -0.022 A 
ATOM      2  C   UNL     1      17.601 -14.017   0.221  1.00  0.00     0.058 A 
ATOM      3  C   UNL     1      17.274 -11.860   1.277  1.00  0.00     0.012 A 
ATOM      4  C   UNL     1      18.571 -13.456  -0.623  1.00  0.00     0.157 A 
ATOM      5  C   UNL     1      18.239 -11.303   0.434  1.00  0.00     0.051 A 
ATOM      6  C   UNL     1      18.887 -12.096  -0.518  1.00  0.00     0.157 A 
ENDROOT
BRANCH   1   7
ATOM      7  C   UNL     1      15.909 -13.766   2.097  1.00  0.00     0.010 C 
ATOM      8  C   UNL     1      15.397 -13.082   3.130  1.00  0.00     0.025 C 
BRANCH   8   9
ATOM      9  C   UNL     1      14.389 -13.663   4.034  1.00  0.00     0.064 C 
ATOM     10  O   UNL     1      14.573 -14.782   4.583  1.00  0.00    -0.545 OA
ATOM     11  O   UNL     1      13.215 -12.966   4.283  1.00  0.00    -0.545 OA
ENDBRANCH   8   9
ENDBRANCH   1   7
BRANCH   4  12
ATOM     12  O   UNL     1      19.228 -14.246  -1.565  1.00  0.00    -0.504 OA
ATOM     13  H   UNL     1      18.901 -14.312  -2.523  1.00  0.00     0.293 HD
ENDBRANCH   4  12
BRANCH   6  14
ATOM     14  O   UNL     1      19.849 -11.543  -1.363  1.00  0.00    -0.504 OA
ATOM     15  H   UNL     1      19.659 -10.711  -1.909  1.00  0.00     0.293 HD
ENDBRANCH   6  14
TORSDOF 4
ENDMDL
MODEL 2
REMARK VINA RESULT:    -4.848      2.269      2.865
REMARK INTER + INTRA:          -5.849
REMARK INTER:                  -5.726
REMARK INTRA:                  -0.123
REMARK UNBOUND:                -0.152
REMARK SMILES O=C([O-])C=Cc1ccc(O)c(O)c1
REMARK SMILES IDX 6 1 13 2 7 3 11 4 8 5 9 6 5 7 4 8 2 9 1 10 3 11 12 12 10 14
REMARK H PARENT 12 13 10 15
REMARK Flexibility Score: inf
ROOT
ATOM      1  C   UNL     1      16.777 -13.736   1.357  1.00  0.00    -0.022 A 
ATOM      2  C   UNL     1      15.827 -14.683   0.920  1.00  0.00     0.058 A 
ATOM      3  C   UNL     1      17.714 -13.242   0.434  1.00  0.00     0.012 A 
ATOM      4  C   UNL     1      15.805 -15.105  -0.417  1.00  0.00     0.157 A 
ATOM      5  C   UNL     1      17.689 -13.661  -0.898  1.00  0.00     0.051 A 
ATOM      6  C   UNL     1      16.735 -14.590  -1.328  1.00  0.00     0.157 A 
ENDROOT
BRANCH   1   7
ATOM      7  C   UNL     1      16.849 -13.267   2.762  1.00  0.00     0.010 C 
ATOM      8  C   UNL     1      16.116 -13.785   3.759  1.00  0.00     0.025 C 
BRANCH   8   9
ATOM      9  C   UNL     1      16.206 -13.285   5.141  1.00  0.00     0.064 C 
ATOM     10  O   UNL     1      16.685 -13.998   6.063  1.00  0.00    -0.545 OA
ATOM     11  O   UNL     1      15.753 -12.006   5.435  1.00  0.00    -0.545 OA
ENDBRANCH   8   9
ENDBRANCH   1   7
BRANCH   4  12
ATOM     12  O   UNL     1      14.864 -16.039  -0.847  1.00  0.00    -0.504 OA
ATOM     13  H   UNL     1      13.880 -15.944  -0.621  1.00  0.00     0.293 HD
ENDBRANCH   4  12
BRANCH   6  14
ATOM     14  O   UNL     1      16.706 -15.009  -2.658  1.00  0.00    -0.504 OA
ATOM     15  H   UNL     1      15.840 -15.278  -3.110  1.00  0.00     0.293 HD
ENDBRANCH   6  14
TORSDOF 4
ENDMDL
MODEL 3
REMARK VINA RESULT:    -4.833      1.210      2.218
REMARK INTER + INTRA:          -5.832
REMARK INTER:                  -5.709
REMARK INTRA:                  -0.123
REMARK UNBOUND:                -0.152
REMARK SMILES O=C([O-])C=Cc1ccc(O)c(O)c1
REMARK SMILES IDX 6 1 13 2 7 3 11 4 8 5 9 6 5 7 4 8 2 9 1 10 3 11 12 12 10 14
REMARK H PARENT 12 13 10 15
REMARK Flexibility Score: inf
ROOT
ATOM      1  C   UNL     1      16.418 -13.502   1.616  1.00  0.00    -0.022 A 
ATOM      2  C   UNL     1      17.442 -12.567   1.356  1.00  0.00     0.058 A 
ATOM      3  C   UNL     1      16.290 -14.618   0.773  1.00  0.00     0.012 A 
ATOM      4  C   UNL     1      18.331 -12.762   0.289  1.00  0.00     0.157 A 
ATOM      5  C   UNL     1      17.178 -14.813  -0.288  1.00  0.00     0.051 A 
ATOM      6  C   UNL     1      18.200 -13.889  -0.532  1.00  0.00     0.157 A 
ENDROOT
BRANCH   1   7
ATOM      7  C   UNL     1      15.446 -13.334   2.724  1.00  0.00     0.010 C 
ATOM      8  C   UNL     1      15.274 -12.187   3.396  1.00  0.00     0.025 C 
BRANCH   8   9
ATOM      9  C   UNL     1      14.306 -12.061   4.500  1.00  0.00     0.064 C 
ATOM     10  O   UNL     1      14.604 -11.451   5.562  1.00  0.00    -0.545 OA
ATOM     11  O   UNL     1      13.046 -12.627   4.369  1.00  0.00    -0.545 OA
ENDBRANCH   8   9
ENDBRANCH   1   7
BRANCH   4  12
ATOM     12  O   UNL     1      19.343 -11.839   0.036  1.00  0.00    -0.504 OA
ATOM     13  H   UNL     1      19.862 -11.846  -0.836  1.00  0.00     0.293 HD
ENDBRANCH   4  12
BRANCH   6  14
ATOM     14  O   UNL     1      19.089 -14.082  -1.589  1.00  0.00    -0.504 OA
ATOM     15  H   UNL     1      19.537 -13.301  -2.053  1.00  0.00     0.293 HD
ENDBRANCH   6  14
TORSDOF 4
ENDMDL
MODEL 4
REMARK VINA RESULT:    -4.648      1.447      6.039
REMARK INTER + INTRA:          -5.614
REMARK INTER:                  -5.479
REMARK INTRA:                  -0.135
REMARK UNBOUND:                -0.152
REMARK SMILES O=C([O-])C=Cc1ccc(O)c(O)c1
REMARK SMILES IDX 6 1 13 2 7 3 11 4 8 5 9 6 5 7 4 8 2 9 1 10 3 11 12 12 10 14
REMARK H PARENT 12 13 10 15
REMARK Flexibility Score: inf
ROOT
ATOM      1  C   UNL     1      16.486 -13.191   2.220  1.00  0.00    -0.022 A 
ATOM      2  C   UNL     1      16.282 -12.505   3.436  1.00  0.00     0.058 A 
ATOM      3  C   UNL     1      16.232 -14.571   2.171  1.00  0.00     0.012 A 
ATOM      4  C   UNL     1      15.812 -13.186   4.568  1.00  0.00     0.157 A 
ATOM      5  C   UNL     1      15.762 -15.248   3.299  1.00  0.00     0.051 A 
ATOM      6  C   UNL     1      15.548 -14.559   4.498  1.00  0.00     0.157 A 
ENDROOT
BRANCH   1   7
ATOM      7  C   UNL     1      16.992 -12.518   0.998  1.00  0.00     0.010 C 
ATOM      8  C   UNL     1      18.164 -12.814   0.418  1.00  0.00     0.025 C 
BRANCH   8   9
ATOM      9  C   UNL     1      18.641 -12.116  -0.789  1.00  0.00     0.064 C 
ATOM     10  O   UNL     1      19.313 -12.718  -1.668  1.00  0.00    -0.545 OA
ATOM     11  O   UNL     1      18.345 -10.771  -0.960  1.00  0.00    -0.545 OA
ENDBRANCH   8   9
ENDBRANCH   1   7
BRANCH   4  12
ATOM     12  O   UNL     1      15.609 -12.506   5.767  1.00  0.00    -0.504 OA
ATOM     13  H   UNL     1      15.110 -12.931   6.541  1.00  0.00     0.293 HD
ENDBRANCH   4  12
BRANCH   6  14
ATOM     14  O   UNL     1      15.077 -15.231   5.625  1.00  0.00    -0.504 OA
ATOM     15  H   UNL     1      15.677 -15.422   6.418  1.00  0.00     0.293 HD
ENDBRANCH   6  14
TORSDOF 4
ENDMDL
MODEL 5
REMARK VINA RESULT:    -4.611      1.621      5.775
REMARK INTER + INTRA:          -5.572
REMARK INTER:                  -5.429
REMARK INTRA:                  -0.142
REMARK UNBOUND:                -0.152
REMARK SMILES O=C([O-])C=Cc1ccc(O)c(O)c1
REMARK SMILES IDX 6 1 13 2 7 3 11 4 8 5 9 6 5 7 4 8 2 9 1 10 3 11 12 12 10 14
REMARK H PARENT 12 13 10 15
REMARK Flexibility Score: inf
ROOT
ATOM      1  C   UNL     1      16.487 -13.538   2.460  1.00  0.00    -0.022 A 
ATOM      2  C   UNL     1      15.883 -14.516   3.277  1.00  0.00     0.058 A 
ATOM      3  C   UNL     1      16.856 -12.311   3.033  1.00  0.00     0.012 A 
ATOM      4  C   UNL     1      15.677 -14.275   4.643  1.00  0.00     0.157 A 
ATOM      5  C   UNL     1      16.653 -12.072   4.395  1.00  0.00     0.051 A 
ATOM      6  C   UNL     1      16.066 -13.052   5.203  1.00  0.00     0.157 A 
ENDROOT
BRANCH   1   7
ATOM      7  C   UNL     1      16.715 -13.741   1.008  1.00  0.00     0.010 C 
ATOM      8  C   UNL     1      17.855 -13.416   0.381  1.00  0.00     0.025 C 
BRANCH   8   9
ATOM      9  C   UNL     1      18.042 -13.621  -1.066  1.00  0.00     0.064 C 
ATOM     10  O   UNL     1      19.007 -13.092  -1.680  1.00  0.00    -0.545 OA
ATOM     11  O   UNL     1      17.138 -14.409  -1.765  1.00  0.00    -0.545 OA
ENDBRANCH   8   9
ENDBRANCH   1   7
BRANCH   4  12
ATOM     12  O   UNL     1      15.083 -15.243   5.449  1.00  0.00    -0.504 OA
ATOM     13  H   UNL     1      15.128 -16.229   5.216  1.00  0.00     0.293 HD
ENDBRANCH   4  12
BRANCH   6  14
ATOM     14  O   UNL     1      15.864 -12.818   6.563  1.00  0.00    -0.504 OA
ATOM     15  H   UNL     1      15.695 -13.577   7.212  1.00  0.00     0.293 HD
ENDBRANCH   6  14
TORSDOF 4
ENDMDL
MODEL 6
REMARK VINA RESULT:    -4.567      2.467      5.766
REMARK INTER + INTRA:          -5.519
REMARK INTER:                  -5.373
REMARK INTRA:                  -0.146
REMARK UNBOUND:                -0.152
REMARK SMILES O=C([O-])C=Cc1ccc(O)c(O)c1
REMARK SMILES IDX 6 1 13 2 7 3 11 4 8 5 9 6 5 7 4 8 2 9 1 10 3 11 12 12 10 14
REMARK H PARENT 12 13 10 15
REMARK Flexibility Score: inf
ROOT
ATOM      1  C   UNL     1      17.927 -13.034  -0.033  1.00  0.00    -0.022 A 
ATOM      2  C   UNL     1      17.146 -13.487   1.051  1.00  0.00     0.058 A 
ATOM      3  C   UNL     1      17.739 -13.621  -1.295  1.00  0.00     0.012 A 
ATOM      4  C   UNL     1      16.183 -14.490   0.865  1.00  0.00     0.157 A 
ATOM      5  C   UNL     1      16.778 -14.618  -1.479  1.00  0.00     0.051 A 
ATOM      6  C   UNL     1      15.997 -15.053  -0.403  1.00  0.00     0.157 A 
ENDROOT
BRANCH   1   7
ATOM      7  C   UNL     1      18.966 -11.985   0.115  1.00  0.00     0.010 C 
ATOM      8  C   UNL     1      19.293 -11.120  -0.856  1.00  0.00     0.025 C 
BRANCH   8   9
ATOM      9  C   UNL     1      20.339 -10.098  -0.677  1.00  0.00     0.064 C 
ATOM     10  O   UNL     1      21.443 -10.381  -0.140  1.00  0.00    -0.545 OA
ATOM     11  O   UNL     1      20.103  -8.799  -1.106  1.00  0.00    -0.545 OA
ENDBRANCH   8   9
ENDBRANCH   1   7
BRANCH   4  12
ATOM     12  O   UNL     1      15.410 -14.934   1.936  1.00  0.00    -0.504 OA
ATOM     13  H   UNL     1      15.823 -15.431   2.718  1.00  0.00     0.293 HD
ENDBRANCH   4  12
BRANCH   6  14
ATOM     14  O   UNL     1      15.035 -16.047  -0.584  1.00  0.00    -0.504 OA
ATOM     15  H   UNL     1      15.111 -16.947  -0.126  1.00  0.00     0.293 HD
ENDBRANCH   6  14
TORSDOF 4
ENDMDL
MODEL 7
REMARK VINA RESULT:    -4.387      1.932      5.958
REMARK INTER + INTRA:          -5.307
REMARK INTER:                  -5.164
REMARK INTRA:                  -0.144
REMARK UNBOUND:                -0.152
REMARK SMILES O=C([O-])C=Cc1ccc(O)c(O)c1
REMARK SMILES IDX 6 1 13 2 7 3 11 4 8 5 9 6 5 7 4 8 2 9 1 10 3 11 12 12 10 14
REMARK H PARENT 12 13 10 15
REMARK Flexibility Score: inf
ROOT
ATOM      1  C   UNL     1      16.505 -13.663   2.344  1.00  0.00    -0.022 A 
ATOM      2  C   UNL     1      16.698 -12.705   3.360  1.00  0.00     0.058 A 
ATOM      3  C   UNL     1      16.088 -14.956   2.701  1.00  0.00     0.012 A 
ATOM      4  C   UNL     1      16.453 -13.032   4.703  1.00  0.00     0.157 A 
ATOM      5  C   UNL     1      15.842 -15.279   4.038  1.00  0.00     0.051 A 
ATOM      6  C   UNL     1      16.021 -14.320   5.041  1.00  0.00     0.157 A 
ENDROOT
BRANCH   1   7
ATOM      7  C   UNL     1      16.761 -13.371   0.912  1.00  0.00     0.010 C 
ATOM      8  C   UNL     1      17.308 -14.249   0.059  1.00  0.00     0.025 C 
BRANCH   8   9
ATOM      9  C   UNL     1      17.559 -13.919  -1.355  1.00  0.00     0.064 C 
ATOM     10  O   UNL     1      18.435 -13.076  -1.683  1.00  0.00    -0.545 OA
ATOM     11  O   UNL     1      16.813 -14.547  -2.343  1.00  0.00    -0.545 OA
ENDBRANCH   8   9
ENDBRANCH   1   7
BRANCH   4  12
ATOM     12  O   UNL     1      16.641 -12.082   5.705  1.00  0.00    -0.504 OA
ATOM     13  H   UNL     1      17.146 -12.302   6.557  1.00  0.00     0.293 HD
ENDBRANCH   4  12
BRANCH   6  14
ATOM     14  O   UNL     1      15.775 -14.638   6.376  1.00  0.00    -0.504 OA
ATOM     15  H   UNL     1      15.071 -14.150   6.916  1.00  0.00     0.293 HD
ENDBRANCH   6  14
TORSDOF 4
ENDMDL
MODEL 8
REMARK VINA RESULT:    -4.370     10.161     11.439
REMARK INTER + INTRA:          -5.288
REMARK INTER:                  -5.137
REMARK INTRA:                  -0.152
REMARK UNBOUND:                -0.152
REMARK SMILES O=C([O-])C=Cc1ccc(O)c(O)c1
REMARK SMILES IDX 6 1 13 2 7 3 11 4 8 5 9 6 5 7 4 8 2 9 1 10 3 11 12 12 10 14
REMARK H PARENT 12 13 10 15
REMARK Flexibility Score: inf
ROOT
ATOM      1  C   UNL     1      23.231 -17.597   7.625  1.00  0.00    -0.022 A 
ATOM      2  C   UNL     1      22.408 -16.452   7.688  1.00  0.00     0.058 A 
ATOM      3  C   UNL     1      22.636 -18.845   7.376  1.00  0.00     0.012 A 
ATOM      4  C   UNL     1      21.025 -16.557   7.481  1.00  0.00     0.157 A 
ATOM      5  C   UNL     1      21.259 -18.947   7.168  1.00  0.00     0.051 A 
ATOM      6  C   UNL     1      20.451 -17.806   7.217  1.00  0.00     0.157 A 
ENDROOT
BRANCH   1   7
ATOM      7  C   UNL     1      24.697 -17.540   7.848  1.00  0.00     0.010 C 
ATOM      8  C   UNL     1      25.538 -18.533   7.523  1.00  0.00     0.025 C 
BRANCH   8   9
ATOM      9  C   UNL     1      26.987 -18.446   7.771  1.00  0.00     0.064 C 
ATOM     10  O   UNL     1      27.777 -19.327   7.337  1.00  0.00    -0.545 OA
ATOM     11  O   UNL     1      27.492 -17.376   8.496  1.00  0.00    -0.545 OA
ENDBRANCH   8   9
ENDBRANCH   1   7
BRANCH   4  12
ATOM     12  O   UNL     1      20.215 -15.425   7.541  1.00  0.00    -0.504 OA
ATOM     13  H   UNL     1      19.246 -15.449   7.245  1.00  0.00     0.293 HD
ENDBRANCH   4  12
BRANCH   6  14
ATOM     14  O   UNL     1      19.075 -17.904   7.008  1.00  0.00    -0.504 OA
ATOM     15  H   UNL     1      18.553 -18.723   7.296  1.00  0.00     0.293 HD
ENDBRANCH   6  14
TORSDOF 4
ENDMDL
MODEL 9
REMARK VINA RESULT:    -4.309      8.506      9.060
REMARK INTER + INTRA:          -5.217
REMARK INTER:                  -5.068
REMARK INTRA:                  -0.148
REMARK UNBOUND:                -0.152
REMARK SMILES O=C([O-])C=Cc1ccc(O)c(O)c1
REMARK SMILES IDX 6 1 13 2 7 3 11 4 8 5 9 6 5 7 4 8 2 9 1 10 3 11 12 12 10 14
REMARK H PARENT 12 13 10 15
REMARK Flexibility Score: inf
ROOT
ATOM      1  C   UNL     1      21.015 -17.579   7.423  1.00  0.00    -0.022 A 
ATOM      2  C   UNL     1      21.467 -18.839   6.979  1.00  0.00     0.058 A 
ATOM      3  C   UNL     1      21.915 -16.736   8.097  1.00  0.00     0.012 A 
ATOM      4  C   UNL     1      22.798 -19.232   7.185  1.00  0.00     0.157 A 
ATOM      5  C   UNL     1      23.240 -17.127   8.301  1.00  0.00     0.051 A 
ATOM      6  C   UNL     1      23.686 -18.373   7.844  1.00  0.00     0.157 A 
ENDROOT
BRANCH   1   7
ATOM      7  C   UNL     1      19.616 -17.122   7.240  1.00  0.00     0.010 C 
ATOM      8  C   UNL     1      19.238 -15.836   7.299  1.00  0.00     0.025 C 
BRANCH   8   9
ATOM      9  C   UNL     1      17.836 -15.421   7.122  1.00  0.00     0.064 C 
ATOM     10  O   UNL     1      17.159 -14.986   8.091  1.00  0.00    -0.545 OA
ATOM     11  O   UNL     1      17.251 -15.512   5.867  1.00  0.00    -0.545 OA
ENDBRANCH   8   9
ENDBRANCH   1   7
BRANCH   4  12
ATOM     12  O   UNL     1      23.243 -20.476   6.743  1.00  0.00    -0.504 OA
ATOM     13  H   UNL     1      22.634 -21.287   6.739  1.00  0.00     0.293 HD
ENDBRANCH   4  12
BRANCH   6  14
ATOM     14  O   UNL     1      25.009 -18.766   8.043  1.00  0.00    -0.504 OA
ATOM     15  H   UNL     1      25.785 -18.193   7.733  1.00  0.00     0.293 HD
ENDBRANCH   6  14
TORSDOF 4
ENDMDL
