MODEL 1
REMARK VINA RESULT:    -6.820      0.000      0.000
REMARK INTER + INTRA:          -9.034
REMARK INTER:                  -8.614
REMARK INTRA:                  -0.421
REMARK UNBOUND:                -0.421
REMARK SMILES Oc1cc(O)cc(CCc2ccccc2O)c1
REMARK SMILES IDX 9 1 10 2 12 3 13 4 11 5 14 6 15 7 16 8 8 10 7 11 6 12 17 13
REMARK SMILES IDX 4 14 2 15 3 16 5 17 1 19
REMARK H PARENT 16 9 5 18 1 20
REMARK Flexibility Score: inf
ROOT
ATOM      1  C   UNL     1     -36.300  72.747 -18.636  1.00  0.00     0.044 C 
ENDROOT
BRANCH   1   2
ATOM      2  C   UNL     1     -35.956  71.277 -18.658  1.00  0.00    -0.006 A 
ATOM      3  C   UNL     1     -36.677  68.973 -18.337  1.00  0.00     0.001 A 
ATOM      4  C   UNL     1     -35.412  68.519 -18.706  1.00  0.00     0.004 A 
ATOM      5  C   UNL     1     -36.950  70.343 -18.317  1.00  0.00     0.007 A 
ATOM      6  C   UNL     1     -34.417  69.432 -19.063  1.00  0.00     0.046 A 
ATOM      7  C   UNL     1     -34.676  70.807 -19.052  1.00  0.00     0.118 A 
BRANCH   7   8
ATOM      8  O   UNL     1     -33.650  71.670 -19.440  1.00  0.00    -0.508 OA
ATOM      9  H   UNL     1     -32.687  71.564 -19.149  1.00  0.00     0.293 HD
ENDBRANCH   7   8
ENDBRANCH   1   2
BRANCH   1  10
ATOM     10  C   UNL     1     -37.623  73.007 -19.364  1.00  0.00     0.040 C 
BRANCH  10  11
ATOM     11  C   UNL     1     -38.094  74.414 -19.115  1.00  0.00    -0.040 A 
ATOM     12  C   UNL     1     -37.781  75.065 -17.910  1.00  0.00     0.050 A 
ATOM     13  C   UNL     1     -38.802  75.109 -20.110  1.00  0.00     0.050 A 
ATOM     14  C   UNL     1     -38.191  76.384 -17.691  1.00  0.00     0.119 A 
ATOM     15  C   UNL     1     -39.213  76.430 -19.893  1.00  0.00     0.119 A 
ATOM     16  C   UNL     1     -38.910  77.065 -18.684  1.00  0.00     0.092 A 
BRANCH  14  17
ATOM     17  O   UNL     1     -37.878  77.010 -16.487  1.00  0.00    -0.508 OA
ATOM     18  H   UNL     1     -37.196  77.758 -16.441  1.00  0.00     0.293 HD
ENDBRANCH  14  17
BRANCH  15  19
ATOM     19  O   UNL     1     -39.921  77.124 -20.872  1.00  0.00    -0.508 OA
ATOM     20  H   UNL     1     -39.485  77.402 -21.745  1.00  0.00     0.293 HD
ENDBRANCH  15  19
ENDBRANCH  10  11
ENDBRANCH   1  10
TORSDOF 6
ENDMDL
MODEL 2
REMARK VINA RESULT:    -6.795      0.035      2.035
REMARK INTER + INTRA:          -9.003
REMARK INTER:                  -8.587
REMARK INTRA:                  -0.416
REMARK UNBOUND:                -0.421
REMARK SMILES Oc1cc(O)cc(CCc2ccccc2O)c1
REMARK SMILES IDX 9 1 10 2 12 3 13 4 11 5 14 6 15 7 16 8 8 10 7 11 6 12 17 13
REMARK SMILES IDX 4 14 2 15 3 16 5 17 1 19
REMARK H PARENT 16 9 5 18 1 20
REMARK Flexibility Score: inf
ROOT
ATOM      1  C   UNL     1     -36.270  72.747 -18.650  1.00  0.00     0.044 C 
ENDROOT
BRANCH   1   2
ATOM      2  C   UNL     1     -35.939  71.275 -18.664  1.00  0.00    -0.006 A 
ATOM      3  C   UNL     1     -36.682  68.978 -18.340  1.00  0.00     0.001 A 
ATOM      4  C   UNL     1     -35.418  68.511 -18.698  1.00  0.00     0.004 A 
ATOM      5  C   UNL     1     -36.943  70.350 -18.327  1.00  0.00     0.007 A 
ATOM      6  C   UNL     1     -34.413  69.414 -19.051  1.00  0.00     0.046 A 
ATOM      7  C   UNL     1     -34.660  70.792 -19.047  1.00  0.00     0.118 A 
BRANCH   7   8
ATOM      8  O   UNL     1     -33.623  71.645 -19.432  1.00  0.00    -0.508 OA
ATOM      9  H   UNL     1     -32.907  71.391 -20.098  1.00  0.00     0.293 HD
ENDBRANCH   7   8
ENDBRANCH   1   2
BRANCH   1  10
ATOM     10  C   UNL     1     -37.617  73.009 -19.332  1.00  0.00     0.040 C 
BRANCH  10  11
ATOM     11  C   UNL     1     -38.054  74.431 -19.110  1.00  0.00    -0.040 A 
ATOM     12  C   UNL     1     -38.805  75.103 -20.089  1.00  0.00     0.050 A 
ATOM     13  C   UNL     1     -37.765  75.079 -17.898  1.00  0.00     0.050 A 
ATOM     14  C   UNL     1     -39.241  76.414 -19.870  1.00  0.00     0.119 A 
ATOM     15  C   UNL     1     -38.201  76.392 -17.676  1.00  0.00     0.119 A 
ATOM     16  C   UNL     1     -38.935  77.058 -18.663  1.00  0.00     0.092 A 
BRANCH  14  17
ATOM     17  O   UNL     1     -39.977  77.067 -20.855  1.00  0.00    -0.508 OA
ATOM     18  H   UNL     1     -40.931  76.798 -21.069  1.00  0.00     0.293 HD
ENDBRANCH  14  17
BRANCH  15  19
ATOM     19  O   UNL     1     -37.912  77.043 -16.479  1.00  0.00    -0.508 OA
ATOM     20  H   UNL     1     -38.006  76.575 -15.585  1.00  0.00     0.293 HD
ENDBRANCH  15  19
ENDBRANCH  10  11
ENDBRANCH   1  10
TORSDOF 6
ENDMDL
MODEL 3
REMARK VINA RESULT:    -5.731      7.913     10.439
REMARK INTER + INTRA:          -7.659
REMARK INTER:                  -6.933
REMARK INTRA:                  -0.726
REMARK UNBOUND:                -0.421
REMARK SMILES Oc1cc(O)cc(CCc2ccccc2O)c1
REMARK SMILES IDX 9 1 10 2 12 3 13 4 11 5 14 6 15 7 16 8 8 10 7 11 6 12 17 13
REMARK SMILES IDX 4 14 2 15 3 16 5 17 1 19
REMARK H PARENT 16 9 5 18 1 20
REMARK Flexibility Score: inf
ROOT
ATOM      1  C   UNL     1     -38.997  75.682  -9.048  1.00  0.00     0.044 C 
ENDROOT
BRANCH   1   2
ATOM      2  C   UNL     1     -38.994  76.110 -10.495  1.00  0.00    -0.006 A 
ATOM      3  C   UNL     1     -37.724  76.854 -12.435  1.00  0.00     0.001 A 
ATOM      4  C   UNL     1     -38.892  76.884 -13.197  1.00  0.00     0.004 A 
ATOM      5  C   UNL     1     -37.772  76.465 -11.095  1.00  0.00     0.007 A 
ATOM      6  C   UNL     1     -40.110  76.519 -12.622  1.00  0.00     0.046 A 
ATOM      7  C   UNL     1     -40.175  76.123 -11.281  1.00  0.00     0.118 A 
BRANCH   7   8
ATOM      8  O   UNL     1     -41.419  75.747 -10.768  1.00  0.00    -0.508 OA
ATOM      9  H   UNL     1     -41.687  74.787 -10.595  1.00  0.00     0.293 HD
ENDBRANCH   7   8
ENDBRANCH   1   2
BRANCH   1  10
ATOM     10  C   UNL     1     -38.281  74.339  -8.875  1.00  0.00     0.040 C 
BRANCH  10  11
ATOM     11  C   UNL     1     -39.140  73.213  -9.382  1.00  0.00    -0.040 A 
ATOM     12  C   UNL     1     -40.476  73.096  -8.964  1.00  0.00     0.050 A 
ATOM     13  C   UNL     1     -38.631  72.303 -10.323  1.00  0.00     0.050 A 
ATOM     14  C   UNL     1     -41.285  72.069  -9.459  1.00  0.00     0.119 A 
ATOM     15  C   UNL     1     -39.440  71.274 -10.822  1.00  0.00     0.119 A 
ATOM     16  C   UNL     1     -40.764  71.157 -10.388  1.00  0.00     0.092 A 
BRANCH  14  17
ATOM     17  O   UNL     1     -42.605  71.965  -9.027  1.00  0.00    -0.508 OA
ATOM     18  H   UNL     1     -43.268  71.354  -9.490  1.00  0.00     0.293 HD
ENDBRANCH  14  17
BRANCH  15  19
ATOM     19  O   UNL     1     -38.940  70.364 -11.751  1.00  0.00    -0.508 OA
ATOM     20  H   UNL     1     -38.767  70.631 -12.714  1.00  0.00     0.293 HD
ENDBRANCH  15  19
ENDBRANCH  10  11
ENDBRANCH   1  10
TORSDOF 6
ENDMDL
MODEL 4
REMARK VINA RESULT:    -5.695      7.906     10.484
REMARK INTER + INTRA:          -7.614
REMARK INTER:                  -6.881
REMARK INTRA:                  -0.733
REMARK UNBOUND:                -0.421
REMARK SMILES Oc1cc(O)cc(CCc2ccccc2O)c1
REMARK SMILES IDX 9 1 10 2 12 3 13 4 11 5 14 6 15 7 16 8 8 10 7 11 6 12 17 13
REMARK SMILES IDX 4 14 2 15 3 16 5 17 1 19
REMARK H PARENT 16 9 5 18 1 20
REMARK Flexibility Score: inf
ROOT
ATOM      1  C   UNL     1     -39.006  75.726  -9.072  1.00  0.00     0.044 C 
ENDROOT
BRANCH   1   2
ATOM      2  C   UNL     1     -38.985  76.165 -10.517  1.00  0.00    -0.006 A 
ATOM      3  C   UNL     1     -37.691  76.916 -12.438  1.00  0.00     0.001 A 
ATOM      4  C   UNL     1     -38.851  76.959 -13.211  1.00  0.00     0.004 A 
ATOM      5  C   UNL     1     -37.755  76.517 -11.101  1.00  0.00     0.007 A 
ATOM      6  C   UNL     1     -40.078  76.597 -12.651  1.00  0.00     0.046 A 
ATOM      7  C   UNL     1     -40.159  76.191 -11.314  1.00  0.00     0.118 A 
BRANCH   7   8
ATOM      8  O   UNL     1     -41.409  75.818 -10.817  1.00  0.00    -0.508 OA
ATOM      9  H   UNL     1     -42.067  75.244 -11.327  1.00  0.00     0.293 HD
ENDBRANCH   7   8
ENDBRANCH   1   2
BRANCH   1  10
ATOM     10  C   UNL     1     -38.314  74.369  -8.906  1.00  0.00     0.040 C 
BRANCH  10  11
ATOM     11  C   UNL     1     -39.186  73.263  -9.433  1.00  0.00    -0.040 A 
ATOM     12  C   UNL     1     -38.672  72.330 -10.350  1.00  0.00     0.050 A 
ATOM     13  C   UNL     1     -40.504  73.119  -8.969  1.00  0.00     0.050 A 
ATOM     14  C   UNL     1     -39.472  71.282 -10.816  1.00  0.00     0.119 A 
ATOM     15  C   UNL     1     -41.307  72.069  -9.434  1.00  0.00     0.119 A 
ATOM     16  C   UNL     1     -40.791  71.155 -10.359  1.00  0.00     0.092 A 
BRANCH  14  17
ATOM     17  O   UNL     1     -38.948  70.372 -11.730  1.00  0.00    -0.508 OA
ATOM     18  H   UNL     1     -39.428  69.508 -11.952  1.00  0.00     0.293 HD
ENDBRANCH  14  17
BRANCH  15  19
ATOM     19  O   UNL     1     -42.617  71.924  -8.984  1.00  0.00    -0.508 OA
ATOM     20  H   UNL     1     -43.387  71.789  -9.629  1.00  0.00     0.293 HD
ENDBRANCH  15  19
ENDBRANCH  10  11
ENDBRANCH   1  10
TORSDOF 6
ENDMDL
MODEL 5
REMARK VINA RESULT:    -5.614      7.644      8.966
REMARK INTER + INTRA:          -7.512
REMARK INTER:                  -7.002
REMARK INTRA:                  -0.510
REMARK UNBOUND:                -0.421
REMARK SMILES Oc1cc(O)cc(CCc2ccccc2O)c1
REMARK SMILES IDX 9 1 10 2 12 3 13 4 11 5 14 6 15 7 16 8 8 10 7 11 6 12 17 13
REMARK SMILES IDX 4 14 2 15 3 16 5 17 1 19
REMARK H PARENT 16 9 5 18 1 20
REMARK Flexibility Score: inf
ROOT
ATOM      1  C   UNL     1     -36.109  73.775 -27.474  1.00  0.00     0.044 C 
ENDROOT
BRANCH   1   2
ATOM      2  C   UNL     1     -34.882  74.614 -27.743  1.00  0.00    -0.006 A 
ATOM      3  C   UNL     1     -33.774  76.284 -29.125  1.00  0.00     0.001 A 
ATOM      4  C   UNL     1     -32.653  76.236 -28.296  1.00  0.00     0.004 A 
ATOM      5  C   UNL     1     -34.883  75.483 -28.848  1.00  0.00     0.007 A 
ATOM      6  C   UNL     1     -32.641  75.391 -27.185  1.00  0.00     0.046 A 
ATOM      7  C   UNL     1     -33.747  74.584 -26.892  1.00  0.00     0.118 A 
BRANCH   7   8
ATOM      8  O   UNL     1     -33.686  73.777 -25.754  1.00  0.00    -0.508 OA
ATOM      9  H   UNL     1     -33.415  72.802 -25.772  1.00  0.00     0.293 HD
ENDBRANCH   7   8
ENDBRANCH   1   2
BRANCH   1  10
ATOM     10  C   UNL     1     -37.348  74.401 -28.123  1.00  0.00     0.040 C 
BRANCH  10  11
ATOM     11  C   UNL     1     -38.272  74.954 -27.072  1.00  0.00    -0.040 A 
ATOM     12  C   UNL     1     -37.777  75.304 -25.805  1.00  0.00     0.050 A 
ATOM     13  C   UNL     1     -39.626  75.180 -27.369  1.00  0.00     0.050 A 
ATOM     14  C   UNL     1     -38.628  75.849 -24.839  1.00  0.00     0.119 A 
ATOM     15  C   UNL     1     -40.481  75.726 -26.403  1.00  0.00     0.119 A 
ATOM     16  C   UNL     1     -39.981  76.057 -25.139  1.00  0.00     0.092 A 
BRANCH  14  17
ATOM     17  O   UNL     1     -38.121  76.183 -23.586  1.00  0.00    -0.508 OA
ATOM     18  H   UNL     1     -37.477  76.957 -23.463  1.00  0.00     0.293 HD
ENDBRANCH  14  17
BRANCH  15  19
ATOM     19  O   UNL     1     -41.826  75.947 -26.688  1.00  0.00    -0.508 OA
ATOM     20  H   UNL     1     -42.231  75.675 -27.577  1.00  0.00     0.293 HD
ENDBRANCH  15  19
ENDBRANCH  10  11
ENDBRANCH   1  10
TORSDOF 6
ENDMDL
MODEL 6
REMARK VINA RESULT:    -5.584      8.521     10.214
REMARK INTER + INTRA:          -7.474
REMARK INTER:                  -7.019
REMARK INTRA:                  -0.455
REMARK UNBOUND:                -0.421
REMARK SMILES Oc1cc(O)cc(CCc2ccccc2O)c1
REMARK SMILES IDX 9 1 10 2 12 3 13 4 11 5 14 6 15 7 16 8 8 10 7 11 6 12 17 13
REMARK SMILES IDX 4 14 2 15 3 16 5 17 1 19
REMARK H PARENT 16 9 5 18 1 20
REMARK Flexibility Score: inf
ROOT
ATOM      1  C   UNL     1     -42.071  71.796 -11.174  1.00  0.00     0.044 C 
ENDROOT
BRANCH   1   2
ATOM      2  C   UNL     1     -42.774  72.883 -11.950  1.00  0.00    -0.006 A 
ATOM      3  C   UNL     1     -43.619  75.166 -12.020  1.00  0.00     0.001 A 
ATOM      4  C   UNL     1     -44.046  74.975 -13.333  1.00  0.00     0.004 A 
ATOM      5  C   UNL     1     -42.983  74.130 -11.333  1.00  0.00     0.007 A 
ATOM      6  C   UNL     1     -43.832  73.749 -13.967  1.00  0.00     0.046 A 
ATOM      7  C   UNL     1     -43.193  72.702 -13.294  1.00  0.00     0.118 A 
BRANCH   7   8
ATOM      8  O   UNL     1     -42.987  71.507 -13.986  1.00  0.00    -0.508 OA
ATOM      9  H   UNL     1     -42.260  71.378 -14.678  1.00  0.00     0.293 HD
ENDBRANCH   7   8
ENDBRANCH   1   2
BRANCH   1  10
ATOM     10  C   UNL     1     -41.657  72.298  -9.786  1.00  0.00     0.040 C 
BRANCH  10  11
ATOM     11  C   UNL     1     -40.264  72.863  -9.822  1.00  0.00    -0.040 A 
ATOM     12  C   UNL     1     -40.012  74.160  -9.344  1.00  0.00     0.050 A 
ATOM     13  C   UNL     1     -39.193  72.078 -10.280  1.00  0.00     0.050 A 
ATOM     14  C   UNL     1     -38.712  74.675  -9.346  1.00  0.00     0.119 A 
ATOM     15  C   UNL     1     -37.890  72.591 -10.282  1.00  0.00     0.119 A 
ATOM     16  C   UNL     1     -37.652  73.889  -9.818  1.00  0.00     0.092 A 
BRANCH  14  17
ATOM     17  O   UNL     1     -38.483  75.965  -8.875  1.00  0.00    -0.508 OA
ATOM     18  H   UNL     1     -37.895  76.618  -9.381  1.00  0.00     0.293 HD
ENDBRANCH  14  17
BRANCH  15  19
ATOM     19  O   UNL     1     -36.824  71.820 -10.741  1.00  0.00    -0.508 OA
ATOM     20  H   UNL     1     -36.968  70.894 -11.127  1.00  0.00     0.293 HD
ENDBRANCH  15  19
ENDBRANCH  10  11
ENDBRANCH   1  10
TORSDOF 6
ENDMDL
MODEL 7
REMARK VINA RESULT:    -5.538      8.465      9.813
REMARK INTER + INTRA:          -7.416
REMARK INTER:                  -6.883
REMARK INTRA:                  -0.533
REMARK UNBOUND:                -0.421
REMARK SMILES Oc1cc(O)cc(CCc2ccccc2O)c1
REMARK SMILES IDX 9 1 10 2 12 3 13 4 11 5 14 6 15 7 16 8 8 10 7 11 6 12 17 13
REMARK SMILES IDX 4 14 2 15 3 16 5 17 1 19
REMARK H PARENT 16 9 5 18 1 20
REMARK Flexibility Score: inf
ROOT
ATOM      1  C   UNL     1     -42.501  74.445 -11.304  1.00  0.00     0.044 C 
ENDROOT
BRANCH   1   2
ATOM      2  C   UNL     1     -43.025  73.961 -12.633  1.00  0.00    -0.006 A 
ATOM      3  C   UNL     1     -44.125  74.480 -14.743  1.00  0.00     0.001 A 
ATOM      4  C   UNL     1     -43.998  73.150 -15.144  1.00  0.00     0.004 A 
ATOM      5  C   UNL     1     -43.638  74.885 -13.499  1.00  0.00     0.007 A 
ATOM      6  C   UNL     1     -43.378  72.223 -14.305  1.00  0.00     0.046 A 
ATOM      7  C   UNL     1     -42.881  72.613 -13.056  1.00  0.00     0.118 A 
BRANCH   7   8
ATOM      8  O   UNL     1     -42.251  71.647 -12.270  1.00  0.00    -0.508 OA
ATOM      9  H   UNL     1     -42.290  71.633 -11.260  1.00  0.00     0.293 HD
ENDBRANCH   7   8
ENDBRANCH   1   2
BRANCH   1  10
ATOM     10  C   UNL     1     -41.244  75.302 -11.493  1.00  0.00     0.040 C 
BRANCH  10  11
ATOM     11  C   UNL     1     -40.076  74.696 -10.765  1.00  0.00    -0.040 A 
ATOM     12  C   UNL     1     -40.194  73.432 -10.163  1.00  0.00     0.050 A 
ATOM     13  C   UNL     1     -38.841  75.363 -10.730  1.00  0.00     0.050 A 
ATOM     14  C   UNL     1     -39.099  72.853  -9.513  1.00  0.00     0.119 A 
ATOM     15  C   UNL     1     -37.742  74.785 -10.081  1.00  0.00     0.119 A 
ATOM     16  C   UNL     1     -37.874  73.533  -9.471  1.00  0.00     0.092 A 
BRANCH  14  17
ATOM     17  O   UNL     1     -39.237  71.603  -8.916  1.00  0.00    -0.508 OA
ATOM     18  H   UNL     1     -38.435  71.013  -8.730  1.00  0.00     0.293 HD
ENDBRANCH  14  17
BRANCH  15  19
ATOM     19  O   UNL     1     -36.516  75.444 -10.038  1.00  0.00    -0.508 OA
ATOM     20  H   UNL     1     -36.413  76.343  -9.581  1.00  0.00     0.293 HD
ENDBRANCH  15  19
ENDBRANCH  10  11
ENDBRANCH   1  10
TORSDOF 6
ENDMDL
MODEL 8
REMARK VINA RESULT:    -5.457      7.436      9.064
REMARK INTER + INTRA:          -7.313
REMARK INTER:                  -6.781
REMARK INTRA:                  -0.532
REMARK UNBOUND:                -0.421
REMARK SMILES Oc1cc(O)cc(CCc2ccccc2O)c1
REMARK SMILES IDX 9 1 10 2 12 3 13 4 11 5 14 6 15 7 16 8 8 10 7 11 6 12 17 13
REMARK SMILES IDX 4 14 2 15 3 16 5 17 1 19
REMARK H PARENT 16 9 5 18 1 20
REMARK Flexibility Score: inf
ROOT
ATOM      1  C   UNL     1     -36.098  73.811 -26.995  1.00  0.00     0.044 C 
ENDROOT
BRANCH   1   2
ATOM      2  C   UNL     1     -34.993  74.768 -27.372  1.00  0.00    -0.006 A 
ATOM      3  C   UNL     1     -33.770  75.936 -29.124  1.00  0.00     0.001 A 
ATOM      4  C   UNL     1     -32.979  76.565 -28.162  1.00  0.00     0.004 A 
ATOM      5  C   UNL     1     -34.774  75.048 -28.733  1.00  0.00     0.007 A 
ATOM      6  C   UNL     1     -33.195  76.311 -26.806  1.00  0.00     0.046 A 
ATOM      7  C   UNL     1     -34.199  75.426 -26.397  1.00  0.00     0.118 A 
BRANCH   7   8
ATOM      8  O   UNL     1     -34.382  75.230 -25.027  1.00  0.00    -0.508 OA
ATOM      9  H   UNL     1     -35.137  75.646 -24.497  1.00  0.00     0.293 HD
ENDBRANCH   7   8
ENDBRANCH   1   2
BRANCH   1  10
ATOM     10  C   UNL     1     -37.386  74.138 -27.759  1.00  0.00     0.040 C 
BRANCH  10  11
ATOM     11  C   UNL     1     -38.371  74.836 -26.861  1.00  0.00    -0.040 A 
ATOM     12  C   UNL     1     -39.715  74.968 -27.248  1.00  0.00     0.050 A 
ATOM     13  C   UNL     1     -37.967  75.311 -25.602  1.00  0.00     0.050 A 
ATOM     14  C   UNL     1     -40.638  75.588 -26.401  1.00  0.00     0.119 A 
ATOM     15  C   UNL     1     -38.891  75.931 -24.751  1.00  0.00     0.119 A 
ATOM     16  C   UNL     1     -40.223  76.071 -25.152  1.00  0.00     0.092 A 
BRANCH  14  17
ATOM     17  O   UNL     1     -41.964  75.715 -26.805  1.00  0.00    -0.508 OA
ATOM     18  H   UNL     1     -42.326  75.207 -27.604  1.00  0.00     0.293 HD
ENDBRANCH  14  17
BRANCH  15  19
ATOM     19  O   UNL     1     -38.496  76.410 -23.504  1.00  0.00    -0.508 OA
ATOM     20  H   UNL     1     -38.828  77.300 -23.148  1.00  0.00     0.293 HD
ENDBRANCH  15  19
ENDBRANCH  10  11
ENDBRANCH   1  10
TORSDOF 6
ENDMDL
