MODEL 1
REMARK VINA RESULT:    -4.620      0.000      0.000
REMARK INTER + INTRA:          -9.387
REMARK INTER:                  -7.996
REMARK INTRA:                  -1.391
REMARK UNBOUND:                -1.391
REMARK SMILES CCCCCCCCCCCCCCO
REMARK SMILES IDX 8 1 7 2 6 3 5 4 4 5 3 6 2 7 1 8 9 9 10 10 11 11 12 12 13 13
REMARK SMILES IDX 14 14 15 15
REMARK H PARENT 15 16
REMARK Flexibility Score: inf
ROOT
ATOM      1  C   UNL     1      11.610   0.067  34.257  1.00  0.00     0.000 C 
ENDROOT
BRANCH   1   2
ATOM      2  C   UNL     1      12.809   0.685  34.999  1.00  0.00    -0.000 C 
BRANCH   2   3
ATOM      3  C   UNL     1      13.198   2.069  34.435  1.00  0.00    -0.000 C 
BRANCH   3   4
ATOM      4  C   UNL     1      12.779   3.245  35.338  1.00  0.00    -0.000 C 
BRANCH   4   5
ATOM      5  C   UNL     1      12.450   4.553  34.592  1.00  0.00    -0.000 C 
BRANCH   5   6
ATOM      6  C   UNL     1      12.459   4.443  33.057  1.00  0.00    -0.000 C 
BRANCH   6   7
ATOM      7  C   UNL     1      11.104   4.793  32.424  1.00  0.00    -0.003 C 
ATOM      8  C   UNL     1      10.911   6.304  32.340  1.00  0.00     0.004 C 
ENDBRANCH   6   7
ENDBRANCH   5   6
ENDBRANCH   4   5
ENDBRANCH   3   4
ENDBRANCH   2   3
ENDBRANCH   1   2
BRANCH   1   9
ATOM      9  C   UNL     1      10.854   1.090  33.393  1.00  0.00     0.000 C 
BRANCH   9  10
ATOM     10  C   UNL     1       9.438   1.378  33.920  1.00  0.00     0.000 C 
BRANCH  10  11
ATOM     11  C   UNL     1       9.428   1.847  35.387  1.00  0.00     0.000 C 
BRANCH  11  12
ATOM     12  C   UNL     1       8.447   1.097  36.307  1.00  0.00     0.002 C 
BRANCH  12  13
ATOM     13  C   UNL     1       7.841  -0.150  35.649  1.00  0.00     0.028 C 
BRANCH  13  14
ATOM     14  C   UNL     1       6.364  -0.307  36.022  1.00  0.00     0.156 C 
BRANCH  14  15
ATOM     15  O   UNL     1       5.830   0.927  36.418  1.00  0.00    -0.396 OA
ATOM     16  H   UNL     1       6.268   1.619  35.857  1.00  0.00     0.210 HD
ENDBRANCH  14  15
ENDBRANCH  13  14
ENDBRANCH  12  13
ENDBRANCH  11  12
ENDBRANCH  10  11
ENDBRANCH   9  10
ENDBRANCH   1   9
TORSDOF 13
ENDMDL
MODEL 2
REMARK VINA RESULT:    -4.552      3.934      6.567
REMARK INTER + INTRA:          -9.270
REMARK INTER:                  -8.863
REMARK INTRA:                  -0.407
REMARK UNBOUND:                -1.391
REMARK SMILES CCCCCCCCCCCCCCO
REMARK SMILES IDX 8 1 7 2 6 3 5 4 4 5 3 6 2 7 1 8 9 9 10 10 11 11 12 12 13 13
REMARK SMILES IDX 14 14 15 15
REMARK H PARENT 15 16
REMARK Flexibility Score: inf
ROOT
ATOM      1  C   UNL     1       5.512   0.352  36.351  1.00  0.00     0.000 C 
ENDROOT
BRANCH   1   2
ATOM      2  C   UNL     1       6.732  -0.443  35.853  1.00  0.00    -0.000 C 
BRANCH   2   3
ATOM      3  C   UNL     1       7.959   0.462  35.605  1.00  0.00    -0.000 C 
BRANCH   3   4
ATOM      4  C   UNL     1       8.488   0.405  34.158  1.00  0.00    -0.000 C 
BRANCH   4   5
ATOM      5  C   UNL     1       9.924  -0.134  34.011  1.00  0.00    -0.000 C 
BRANCH   5   6
ATOM      6  C   UNL     1      10.983   0.929  33.666  1.00  0.00    -0.000 C 
BRANCH   6   7
ATOM      7  C   UNL     1      12.280   0.762  34.471  1.00  0.00    -0.003 C 
ATOM      8  C   UNL     1      12.107   1.260  35.903  1.00  0.00     0.004 C 
ENDBRANCH   6   7
ENDBRANCH   5   6
ENDBRANCH   4   5
ENDBRANCH   3   4
ENDBRANCH   2   3
ENDBRANCH   1   2
BRANCH   1   9
ATOM      9  C   UNL     1       4.485  -0.530  37.080  1.00  0.00     0.000 C 
BRANCH   9  10
ATOM     10  C   UNL     1       3.338   0.286  37.701  1.00  0.00     0.000 C 
BRANCH  10  11
ATOM     11  C   UNL     1       2.176  -0.594  38.197  1.00  0.00     0.000 C 
BRANCH  11  12
ATOM     12  C   UNL     1       2.588  -1.782  39.086  1.00  0.00     0.002 C 
BRANCH  12  13
ATOM     13  C   UNL     1       2.504  -1.467  40.586  1.00  0.00     0.028 C 
BRANCH  13  14
ATOM     14  C   UNL     1       1.306  -2.171  41.230  1.00  0.00     0.156 C 
BRANCH  14  15
ATOM     15  O   UNL     1       1.730  -3.316  41.919  1.00  0.00    -0.396 OA
ATOM     16  H   UNL     1       0.953  -3.632  42.449  1.00  0.00     0.210 HD
ENDBRANCH  14  15
ENDBRANCH  13  14
ENDBRANCH  12  13
ENDBRANCH  11  12
ENDBRANCH  10  11
ENDBRANCH   9  10
ENDBRANCH   1   9
TORSDOF 13
ENDMDL
MODEL 3
REMARK VINA RESULT:    -4.542      2.361      4.538
REMARK INTER + INTRA:          -9.253
REMARK INTER:                  -8.261
REMARK INTRA:                  -0.992
REMARK UNBOUND:                -1.391
REMARK SMILES CCCCCCCCCCCCCCO
REMARK SMILES IDX 8 1 7 2 6 3 5 4 4 5 3 6 2 7 1 8 9 9 10 10 11 11 12 12 13 13
REMARK SMILES IDX 14 14 15 15
REMARK H PARENT 15 16
REMARK Flexibility Score: inf
ROOT
ATOM      1  C   UNL     1       8.288   0.999  36.121  1.00  0.00     0.000 C 
ENDROOT
BRANCH   1   2
ATOM      2  C   UNL     1       8.957   1.764  34.966  1.00  0.00    -0.000 C 
BRANCH   2   3
ATOM      3  C   UNL     1       9.103   0.899  33.695  1.00  0.00    -0.000 C 
BRANCH   3   4
ATOM      4  C   UNL     1      10.564   0.709  33.241  1.00  0.00    -0.000 C 
BRANCH   4   5
ATOM      5  C   UNL     1      11.417  -0.193  34.153  1.00  0.00    -0.000 C 
BRANCH   5   6
ATOM      6  C   UNL     1      12.789   0.388  34.539  1.00  0.00    -0.000 C 
BRANCH   6   7
ATOM      7  C   UNL     1      12.725   1.301  35.772  1.00  0.00    -0.003 C 
ATOM      8  C   UNL     1      12.841   2.770  35.375  1.00  0.00     0.004 C 
ENDBRANCH   6   7
ENDBRANCH   5   6
ENDBRANCH   4   5
ENDBRANCH   3   4
ENDBRANCH   2   3
ENDBRANCH   1   2
BRANCH   1   9
ATOM      9  C   UNL     1       7.235  -0.011  35.634  1.00  0.00     0.000 C 
BRANCH   9  10
ATOM     10  C   UNL     1       5.893   0.130  36.373  1.00  0.00     0.000 C 
BRANCH  10  11
ATOM     11  C   UNL     1       5.134  -1.204  36.497  1.00  0.00     0.000 C 
BRANCH  11  12
ATOM     12  C   UNL     1       5.999  -2.467  36.333  1.00  0.00     0.002 C 
BRANCH  12  13
ATOM     13  C   UNL     1       5.298  -3.577  35.537  1.00  0.00     0.028 C 
BRANCH  13  14
ATOM     14  C   UNL     1       6.271  -4.265  34.576  1.00  0.00     0.156 C 
BRANCH  14  15
ATOM     15  O   UNL     1       6.978  -3.308  33.835  1.00  0.00    -0.396 OA
ATOM     16  H   UNL     1       7.553  -3.809  33.200  1.00  0.00     0.210 HD
ENDBRANCH  14  15
ENDBRANCH  13  14
ENDBRANCH  12  13
ENDBRANCH  11  12
ENDBRANCH  10  11
ENDBRANCH   9  10
ENDBRANCH   1   9
TORSDOF 13
ENDMDL
MODEL 4
REMARK VINA RESULT:    -4.501      4.331      7.235
REMARK INTER + INTRA:          -9.180
REMARK INTER:                  -8.603
REMARK INTRA:                  -0.577
REMARK UNBOUND:                -1.391
REMARK SMILES CCCCCCCCCCCCCCO
REMARK SMILES IDX 8 1 7 2 6 3 5 4 4 5 3 6 2 7 1 8 9 9 10 10 11 11 12 12 13 13
REMARK SMILES IDX 14 14 15 15
REMARK H PARENT 15 16
REMARK Flexibility Score: inf
ROOT
ATOM      1  C   UNL     1       4.466  -0.563  37.096  1.00  0.00     0.000 C 
ENDROOT
BRANCH   1   2
ATOM      2  C   UNL     1       5.457   0.346  36.348  1.00  0.00    -0.000 C 
BRANCH   2   3
ATOM      3  C   UNL     1       6.706  -0.422  35.862  1.00  0.00    -0.000 C 
BRANCH   3   4
ATOM      4  C   UNL     1       7.883   0.493  35.474  1.00  0.00    -0.000 C 
BRANCH   4   5
ATOM      5  C   UNL     1       8.377   1.428  36.594  1.00  0.00    -0.000 C 
BRANCH   5   6
ATOM      6  C   UNL     1       9.833   1.195  37.038  1.00  0.00    -0.000 C 
BRANCH   6   7
ATOM      7  C   UNL     1      10.822   1.183  35.863  1.00  0.00    -0.003 C 
ATOM      8  C   UNL     1      11.265   2.598  35.504  1.00  0.00     0.004 C 
ENDBRANCH   6   7
ENDBRANCH   5   6
ENDBRANCH   4   5
ENDBRANCH   3   4
ENDBRANCH   2   3
ENDBRANCH   1   2
BRANCH   1   9
ATOM      9  C   UNL     1       3.389   0.229  37.855  1.00  0.00     0.000 C 
BRANCH   9  10
ATOM     10  C   UNL     1       2.142  -0.617  38.165  1.00  0.00     0.000 C 
BRANCH  10  11
ATOM     11  C   UNL     1       2.475  -2.093  38.455  1.00  0.00     0.000 C 
BRANCH  11  12
ATOM     12  C   UNL     1       2.939  -2.387  39.893  1.00  0.00     0.002 C 
BRANCH  12  13
ATOM     13  C   UNL     1       2.191  -1.559  40.948  1.00  0.00     0.028 C 
BRANCH  13  14
ATOM     14  C   UNL     1       1.068  -2.375  41.593  1.00  0.00     0.156 C 
BRANCH  14  15
ATOM     15  O   UNL     1       1.522  -3.665  41.904  1.00  0.00    -0.396 OA
ATOM     16  H   UNL     1       0.725  -4.188  42.178  1.00  0.00     0.210 HD
ENDBRANCH  14  15
ENDBRANCH  13  14
ENDBRANCH  12  13
ENDBRANCH  11  12
ENDBRANCH  10  11
ENDBRANCH   9  10
ENDBRANCH   1   9
TORSDOF 13
ENDMDL
MODEL 5
REMARK VINA RESULT:    -4.469      3.489      8.482
REMARK INTER + INTRA:          -9.126
REMARK INTER:                  -8.541
REMARK INTRA:                  -0.585
REMARK UNBOUND:                -1.391
REMARK SMILES CCCCCCCCCCCCCCO
REMARK SMILES IDX 8 1 7 2 6 3 5 4 4 5 3 6 2 7 1 8 9 9 10 10 11 11 12 12 13 13
REMARK SMILES IDX 14 14 15 15
REMARK H PARENT 15 16
REMARK Flexibility Score: inf
ROOT
ATOM      1  C   UNL     1       7.062  -0.702  35.587  1.00  0.00     0.000 C 
ENDROOT
BRANCH   1   2
ATOM      2  C   UNL     1       6.007   0.151  36.315  1.00  0.00    -0.000 C 
BRANCH   2   3
ATOM      3  C   UNL     1       4.760  -0.670  36.709  1.00  0.00    -0.000 C 
BRANCH   3   4
ATOM      4  C   UNL     1       3.771   0.098  37.607  1.00  0.00    -0.000 C 
BRANCH   4   5
ATOM      5  C   UNL     1       2.631  -0.754  38.197  1.00  0.00    -0.000 C 
BRANCH   5   6
ATOM      6  C   UNL     1       2.687  -0.944  39.724  1.00  0.00    -0.000 C 
BRANCH   6   7
ATOM      7  C   UNL     1       2.792  -2.419  40.138  1.00  0.00    -0.003 C 
ATOM      8  C   UNL     1       3.375  -3.267  39.011  1.00  0.00     0.004 C 
ENDBRANCH   6   7
ENDBRANCH   5   6
ENDBRANCH   4   5
ENDBRANCH   3   4
ENDBRANCH   2   3
ENDBRANCH   1   2
BRANCH   1   9
ATOM      9  C   UNL     1       8.459  -0.062  35.604  1.00  0.00     0.000 C 
BRANCH   9  10
ATOM     10  C   UNL     1       8.479   1.298  36.324  1.00  0.00     0.000 C 
BRANCH  10  11
ATOM     11  C   UNL     1       9.898   1.742  36.728  1.00  0.00     0.000 C 
BRANCH  11  12
ATOM     12  C   UNL     1      11.041   1.078  35.939  1.00  0.00     0.002 C 
BRANCH  12  13
ATOM     13  C   UNL     1      11.773   2.054  35.007  1.00  0.00     0.028 C 
BRANCH  13  14
ATOM     14  C   UNL     1      12.761   1.313  34.101  1.00  0.00     0.156 C 
BRANCH  14  15
ATOM     15  O   UNL     1      12.684  -0.068  34.328  1.00  0.00    -0.396 OA
ATOM     16  H   UNL     1      11.830  -0.230  34.806  1.00  0.00     0.210 HD
ENDBRANCH  14  15
ENDBRANCH  13  14
ENDBRANCH  12  13
ENDBRANCH  11  12
ENDBRANCH  10  11
ENDBRANCH   9  10
ENDBRANCH   1   9
TORSDOF 13
ENDMDL
MODEL 6
REMARK VINA RESULT:    -4.461      3.725      6.592
REMARK INTER + INTRA:          -9.111
REMARK INTER:                  -8.436
REMARK INTRA:                  -0.675
REMARK UNBOUND:                -1.391
REMARK SMILES CCCCCCCCCCCCCCO
REMARK SMILES IDX 8 1 7 2 6 3 5 4 4 5 3 6 2 7 1 8 9 9 10 10 11 11 12 12 13 13
REMARK SMILES IDX 14 14 15 15
REMARK H PARENT 15 16
REMARK Flexibility Score: inf
ROOT
ATOM      1  C   UNL     1       4.856  -0.830  36.730  1.00  0.00     0.000 C 
ENDROOT
BRANCH   1   2
ATOM      2  C   UNL     1       5.770   0.348  36.351  1.00  0.00    -0.000 C 
BRANCH   2   3
ATOM      3  C   UNL     1       7.188  -0.115  35.950  1.00  0.00    -0.000 C 
BRANCH   3   4
ATOM      4  C   UNL     1       8.133   1.042  35.571  1.00  0.00    -0.000 C 
BRANCH   4   5
ATOM      5  C   UNL     1       9.191   1.392  36.635  1.00  0.00    -0.000 C 
BRANCH   5   6
ATOM      6  C   UNL     1      10.632   1.503  36.105  1.00  0.00    -0.000 C 
BRANCH   6   7
ATOM      7  C   UNL     1      10.753   1.127  34.621  1.00  0.00    -0.003 C 
ATOM      8  C   UNL     1      11.979   0.253  34.373  1.00  0.00     0.004 C 
ENDBRANCH   6   7
ENDBRANCH   5   6
ENDBRANCH   4   5
ENDBRANCH   3   4
ENDBRANCH   2   3
ENDBRANCH   1   2
BRANCH   1   9
ATOM      9  C   UNL     1       5.470  -2.196  36.382  1.00  0.00     0.000 C 
BRANCH   9  10
ATOM     10  C   UNL     1       4.880  -3.341  37.222  1.00  0.00     0.000 C 
BRANCH  10  11
ATOM     11  C   UNL     1       3.444  -3.055  37.702  1.00  0.00     0.000 C 
BRANCH  11  12
ATOM     12  C   UNL     1       3.248  -3.075  39.229  1.00  0.00     0.002 C 
BRANCH  12  13
ATOM     13  C   UNL     1       2.685  -1.758  39.779  1.00  0.00     0.028 C 
BRANCH  13  14
ATOM     14  C   UNL     1       2.273  -1.906  41.247  1.00  0.00     0.156 C 
BRANCH  14  15
ATOM     15  O   UNL     1       2.035  -3.254  41.549  1.00  0.00    -0.396 OA
ATOM     16  H   UNL     1       1.090  -3.436  41.307  1.00  0.00     0.210 HD
ENDBRANCH  14  15
ENDBRANCH  13  14
ENDBRANCH  12  13
ENDBRANCH  11  12
ENDBRANCH  10  11
ENDBRANCH   9  10
ENDBRANCH   1   9
TORSDOF 13
ENDMDL
MODEL 7
REMARK VINA RESULT:    -4.417      3.814      6.836
REMARK INTER + INTRA:          -9.036
REMARK INTER:                  -8.454
REMARK INTRA:                  -0.583
REMARK UNBOUND:                -1.391
REMARK SMILES CCCCCCCCCCCCCCO
REMARK SMILES IDX 8 1 7 2 6 3 5 4 4 5 3 6 2 7 1 8 9 9 10 10 11 11 12 12 13 13
REMARK SMILES IDX 14 14 15 15
REMARK H PARENT 15 16
REMARK Flexibility Score: inf
ROOT
ATOM      1  C   UNL     1       5.325  -1.864  36.401  1.00  0.00     0.000 C 
ENDROOT
BRANCH   1   2
ATOM      2  C   UNL     1       6.783  -2.015  35.935  1.00  0.00    -0.000 C 
BRANCH   2   3
ATOM      3  C   UNL     1       7.369  -0.690  35.401  1.00  0.00    -0.000 C 
BRANCH   3   4
ATOM      4  C   UNL     1       8.147  -0.844  34.079  1.00  0.00    -0.000 C 
BRANCH   4   5
ATOM      5  C   UNL     1       9.046   0.351  33.711  1.00  0.00    -0.000 C 
BRANCH   5   6
ATOM      6  C   UNL     1       8.908   1.575  34.634  1.00  0.00    -0.000 C 
BRANCH   6   7
ATOM      7  C   UNL     1      10.079   1.717  35.617  1.00  0.00    -0.003 C 
ATOM      8  C   UNL     1       9.585   1.733  37.061  1.00  0.00     0.004 C 
ENDBRANCH   6   7
ENDBRANCH   5   6
ENDBRANCH   4   5
ENDBRANCH   3   4
ENDBRANCH   2   3
ENDBRANCH   1   2
BRANCH   1   9
ATOM      9  C   UNL     1       4.698  -3.199  36.837  1.00  0.00     0.000 C 
BRANCH   9  10
ATOM     10  C   UNL     1       3.893  -3.077  38.142  1.00  0.00     0.000 C 
BRANCH  10  11
ATOM     11  C   UNL     1       2.382  -2.898  37.900  1.00  0.00     0.000 C 
BRANCH  11  12
ATOM     12  C   UNL     1       1.661  -1.989  38.913  1.00  0.00     0.002 C 
BRANCH  12  13
ATOM     13  C   UNL     1       2.626  -1.129  39.741  1.00  0.00     0.028 C 
BRANCH  13  14
ATOM     14  C   UNL     1       2.380  -1.314  41.241  1.00  0.00     0.156 C 
BRANCH  14  15
ATOM     15  O   UNL     1       2.806  -0.180  41.946  1.00  0.00    -0.396 OA
ATOM     16  H   UNL     1       1.990   0.248  42.314  1.00  0.00     0.210 HD
ENDBRANCH  14  15
ENDBRANCH  13  14
ENDBRANCH  12  13
ENDBRANCH  11  12
ENDBRANCH  10  11
ENDBRANCH   9  10
ENDBRANCH   1   9
TORSDOF 13
ENDMDL
MODEL 8
REMARK VINA RESULT:    -4.399      2.912      5.599
REMARK INTER + INTRA:          -9.005
REMARK INTER:                  -8.337
REMARK INTRA:                  -0.668
REMARK UNBOUND:                -1.391
REMARK SMILES CCCCCCCCCCCCCCO
REMARK SMILES IDX 8 1 7 2 6 3 5 4 4 5 3 6 2 7 1 8 9 9 10 10 11 11 12 12 13 13
REMARK SMILES IDX 14 14 15 15
REMARK H PARENT 15 16
REMARK Flexibility Score: inf
ROOT
ATOM      1  C   UNL     1       6.386   0.232  36.147  1.00  0.00     0.000 C 
ENDROOT
BRANCH   1   2
ATOM      2  C   UNL     1       7.691  -0.394  35.626  1.00  0.00    -0.000 C 
BRANCH   2   3
ATOM      3  C   UNL     1       8.076   0.132  34.226  1.00  0.00    -0.000 C 
BRANCH   3   4
ATOM      4  C   UNL     1       8.994   1.370  34.260  1.00  0.00    -0.000 C 
BRANCH   4   5
ATOM      5  C   UNL     1       9.636   1.666  35.629  1.00  0.00    -0.000 C 
BRANCH   5   6
ATOM      6  C   UNL     1      11.051   2.267  35.564  1.00  0.00    -0.000 C 
BRANCH   6   7
ATOM      7  C   UNL     1      12.148   1.252  35.918  1.00  0.00    -0.003 C 
ATOM      8  C   UNL     1      12.640   0.518  34.674  1.00  0.00     0.004 C 
ENDBRANCH   6   7
ENDBRANCH   5   6
ENDBRANCH   4   5
ENDBRANCH   3   4
ENDBRANCH   2   3
ENDBRANCH   1   2
BRANCH   1   9
ATOM      9  C   UNL     1       5.291  -0.814  36.418  1.00  0.00     0.000 C 
BRANCH   9  10
ATOM     10  C   UNL     1       5.816  -2.257  36.324  1.00  0.00     0.000 C 
BRANCH  10  11
ATOM     11  C   UNL     1       4.922  -3.270  37.065  1.00  0.00     0.000 C 
BRANCH  11  12
ATOM     12  C   UNL     1       3.717  -2.659  37.804  1.00  0.00     0.002 C 
BRANCH  12  13
ATOM     13  C   UNL     1       3.392  -3.380  39.120  1.00  0.00     0.028 C 
BRANCH  13  14
ATOM     14  C   UNL     1       2.722  -2.430  40.117  1.00  0.00     0.156 C 
BRANCH  14  15
ATOM     15  O   UNL     1       2.797  -1.109  39.653  1.00  0.00    -0.396 OA
ATOM     16  H   UNL     1       2.237  -0.562  40.263  1.00  0.00     0.210 HD
ENDBRANCH  14  15
ENDBRANCH  13  14
ENDBRANCH  12  13
ENDBRANCH  11  12
ENDBRANCH  10  11
ENDBRANCH   9  10
ENDBRANCH   1   9
TORSDOF 13
ENDMDL
MODEL 9
REMARK VINA RESULT:    -4.359      3.260      8.193
REMARK INTER + INTRA:          -8.935
REMARK INTER:                  -8.207
REMARK INTRA:                  -0.728
REMARK UNBOUND:                -1.391
REMARK SMILES CCCCCCCCCCCCCCO
REMARK SMILES IDX 8 1 7 2 6 3 5 4 4 5 3 6 2 7 1 8 9 9 10 10 11 11 12 12 13 13
REMARK SMILES IDX 14 14 15 15
REMARK H PARENT 15 16
REMARK Flexibility Score: inf
ROOT
ATOM      1  C   UNL     1       6.560  -0.969  36.002  1.00  0.00     0.000 C 
ENDROOT
BRANCH   1   2
ATOM      2  C   UNL     1       6.663  -2.504  36.052  1.00  0.00    -0.000 C 
BRANCH   2   3
ATOM      3  C   UNL     1       5.278  -3.186  36.022  1.00  0.00    -0.000 C 
BRANCH   3   4
ATOM      4  C   UNL     1       4.672  -3.419  37.420  1.00  0.00    -0.000 C 
BRANCH   4   5
ATOM      5  C   UNL     1       3.278  -2.800  37.637  1.00  0.00    -0.000 C 
BRANCH   5   6
ATOM      6  C   UNL     1       3.027  -2.245  39.051  1.00  0.00    -0.000 C 
BRANCH   6   7
ATOM      7  C   UNL     1       2.679  -0.750  39.052  1.00  0.00    -0.003 C 
ATOM      8  C   UNL     1       3.357  -0.026  37.891  1.00  0.00     0.004 C 
ENDBRANCH   6   7
ENDBRANCH   5   6
ENDBRANCH   4   5
ENDBRANCH   3   4
ENDBRANCH   2   3
ENDBRANCH   1   2
BRANCH   1   9
ATOM      9  C   UNL     1       7.895  -0.295  35.644  1.00  0.00     0.000 C 
BRANCH   9  10
ATOM     10  C   UNL     1       8.232  -0.407  34.147  1.00  0.00     0.000 C 
BRANCH  10  11
ATOM     11  C   UNL     1       9.452   0.442  33.742  1.00  0.00     0.000 C 
BRANCH  11  12
ATOM     12  C   UNL     1      10.794  -0.312  33.718  1.00  0.00     0.002 C 
BRANCH  12  13
ATOM     13  C   UNL     1      11.909   0.423  34.474  1.00  0.00     0.028 C 
BRANCH  13  14
ATOM     14  C   UNL     1      11.331   1.486  35.412  1.00  0.00     0.156 C 
BRANCH  14  15
ATOM     15  O   UNL     1      12.227   2.556  35.542  1.00  0.00    -0.396 OA
ATOM     16  H   UNL     1      11.817   3.328  35.072  1.00  0.00     0.210 HD
ENDBRANCH  14  15
ENDBRANCH  13  14
ENDBRANCH  12  13
ENDBRANCH  11  12
ENDBRANCH  10  11
ENDBRANCH   9  10
ENDBRANCH   1   9
TORSDOF 13
ENDMDL
