MODEL 1
REMARK VINA RESULT:    -4.699      0.000      0.000
REMARK INTER + INTRA:          -4.837
REMARK INTER:                  -4.837
REMARK INTRA:                   0.000
REMARK UNBOUND:                 0.000
REMARK SMILES Oc1ccc2[nH]ccc2c1
REMARK SMILES IDX 3 1 4 2 5 3 9 4 8 5 7 6 6 7 10 8 2 9 1 11
REMARK H PARENT 6 10 1 12
REMARK Flexibility Score: inf
ROOT
ATOM      1  C   UNL     1      57.502  68.955  30.475  1.00  0.00     0.048 A 
ATOM      2  C   UNL     1      58.747  68.312  30.609  1.00  0.00     0.030 A 
ATOM      3  C   UNL     1      59.864  69.105  30.869  1.00  0.00     0.046 A 
ATOM      4  C   UNL     1      59.768  70.466  30.991  1.00  0.00     0.003 A 
ATOM      5  C   UNL     1      61.035  70.946  31.242  1.00  0.00     0.028 A 
ATOM      6  C   UNL     1      61.853  69.821  31.261  1.00  0.00     0.083 A 
ATOM      7  N   UNL     1      61.133  68.700  31.032  1.00  0.00    -0.361 N 
ATOM      8  C   UNL     1      58.552  71.133  30.863  1.00  0.00     0.056 A 
ATOM      9  C   UNL     1      57.401  70.360  30.601  1.00  0.00     0.116 A 
ATOM     10  H   UNL     1      61.495  67.720  30.991  1.00  0.00     0.166 HD
ENDROOT
BRANCH   9  11
ATOM     11  O   UNL     1      56.157  70.971  30.462  1.00  0.00    -0.508 OA
ATOM     12  H   UNL     1      55.889  71.435  29.601  1.00  0.00     0.293 HD
ENDBRANCH   9  11
TORSDOF 1
ENDMDL
MODEL 2
REMARK VINA RESULT:    -4.678      2.601      4.070
REMARK INTER + INTRA:          -4.815
REMARK INTER:                  -4.815
REMARK INTRA:                   0.000
REMARK UNBOUND:                 0.000
REMARK SMILES Oc1ccc2[nH]ccc2c1
REMARK SMILES IDX 3 1 4 2 5 3 9 4 8 5 7 6 6 7 10 8 2 9 1 11
REMARK H PARENT 6 10 1 12
REMARK Flexibility Score: inf
ROOT
ATOM      1  C   UNL     1      60.365  71.337  30.865  1.00  0.00     0.048 A 
ATOM      2  C   UNL     1      59.027  71.761  30.960  1.00  0.00     0.030 A 
ATOM      3  C   UNL     1      58.034  70.783  30.976  1.00  0.00     0.046 A 
ATOM      4  C   UNL     1      58.337  69.449  30.901  1.00  0.00     0.003 A 
ATOM      5  C   UNL     1      57.147  68.755  30.939  1.00  0.00     0.028 A 
ATOM      6  C   UNL     1      56.160  69.730  31.039  1.00  0.00     0.083 A 
ATOM      7  N   UNL     1      56.707  70.967  31.060  1.00  0.00    -0.361 N 
ATOM      8  C   UNL     1      59.650  68.996  30.805  1.00  0.00     0.056 A 
ATOM      9  C   UNL     1      60.680  69.961  30.787  1.00  0.00     0.116 A 
ATOM     10  H   UNL     1      56.197  71.877  31.129  1.00  0.00     0.166 HD
ENDROOT
BRANCH   9  11
ATOM     11  O   UNL     1      62.013  69.568  30.693  1.00  0.00    -0.508 OA
ATOM     12  H   UNL     1      62.322  68.663  31.029  1.00  0.00     0.293 HD
ENDBRANCH   9  11
TORSDOF 1
ENDMDL
MODEL 3
REMARK VINA RESULT:    -4.668     18.002     18.733
REMARK INTER + INTRA:          -4.805
REMARK INTER:                  -4.805
REMARK INTRA:                   0.000
REMARK UNBOUND:                 0.000
REMARK SMILES Oc1ccc2[nH]ccc2c1
REMARK SMILES IDX 3 1 4 2 5 3 9 4 8 5 7 6 6 7 10 8 2 9 1 11
REMARK H PARENT 6 10 1 12
REMARK Flexibility Score: inf
ROOT
ATOM      1  C   UNL     1      60.528  60.078  45.861  1.00  0.00     0.048 A 
ATOM      2  C   UNL     1      59.399  59.912  46.685  1.00  0.00     0.030 A 
ATOM      3  C   UNL     1      58.431  58.992  46.284  1.00  0.00     0.046 A 
ATOM      4  C   UNL     1      58.562  58.267  45.130  1.00  0.00     0.003 A 
ATOM      5  C   UNL     1      57.451  57.459  45.024  1.00  0.00     0.028 A 
ATOM      6  C   UNL     1      56.685  57.744  46.150  1.00  0.00     0.083 A 
ATOM      7  N   UNL     1      57.289  58.682  46.916  1.00  0.00    -0.361 N 
ATOM      8  C   UNL     1      59.666  58.407  44.293  1.00  0.00     0.056 A 
ATOM      9  C   UNL     1      60.665  59.330  44.669  1.00  0.00     0.116 A 
ATOM     10  H   UNL     1      56.934  59.079  47.815  1.00  0.00     0.166 HD
ENDROOT
BRANCH   9  11
ATOM     11  O   UNL     1      61.792  59.515  43.871  1.00  0.00    -0.508 OA
ATOM     12  H   UNL     1      62.728  59.434  44.253  1.00  0.00     0.293 HD
ENDBRANCH   9  11
TORSDOF 1
ENDMDL
MODEL 4
REMARK VINA RESULT:    -4.663      1.073      1.993
REMARK INTER + INTRA:          -4.799
REMARK INTER:                  -4.799
REMARK INTRA:                   0.000
REMARK UNBOUND:                 0.000
REMARK SMILES Oc1ccc2[nH]ccc2c1
REMARK SMILES IDX 3 1 4 2 5 3 9 4 8 5 7 6 6 7 10 8 2 9 1 11
REMARK H PARENT 6 10 1 12
REMARK Flexibility Score: inf
ROOT
ATOM      1  C   UNL     1      57.503  70.640  30.591  1.00  0.00     0.048 A 
ATOM      2  C   UNL     1      58.758  71.187  30.916  1.00  0.00     0.030 A 
ATOM      3  C   UNL     1      59.825  70.308  31.094  1.00  0.00     0.046 A 
ATOM      4  C   UNL     1      59.670  68.953  30.961  1.00  0.00     0.003 A 
ATOM      5  C   UNL     1      60.898  68.375  31.198  1.00  0.00     0.028 A 
ATOM      6  C   UNL     1      61.755  69.437  31.470  1.00  0.00     0.083 A 
ATOM      7  N   UNL     1      61.093  70.615  31.405  1.00  0.00    -0.361 N 
ATOM      8  C   UNL     1      58.442  68.380  30.640  1.00  0.00     0.056 A 
ATOM      9  C   UNL     1      57.341  69.242  30.452  1.00  0.00     0.116 A 
ATOM     10  H   UNL     1      61.493  71.567  31.565  1.00  0.00     0.166 HD
ENDROOT
BRANCH   9  11
ATOM     11  O   UNL     1      56.088  68.727  30.131  1.00  0.00    -0.508 OA
ATOM     12  H   UNL     1      55.777  67.831  30.490  1.00  0.00     0.293 HD
ENDBRANCH   9  11
TORSDOF 1
ENDMDL
MODEL 5
REMARK VINA RESULT:    -4.661     12.999     13.408
REMARK INTER + INTRA:          -4.797
REMARK INTER:                  -4.797
REMARK INTRA:                   0.000
REMARK UNBOUND:                 0.000
REMARK SMILES Oc1ccc2[nH]ccc2c1
REMARK SMILES IDX 3 1 4 2 5 3 9 4 8 5 7 6 6 7 10 8 2 9 1 11
REMARK H PARENT 6 10 1 12
REMARK Flexibility Score: inf
ROOT
ATOM      1  C   UNL     1      60.381  64.456  44.730  1.00  0.00     0.048 A 
ATOM      2  C   UNL     1      60.350  65.844  44.506  1.00  0.00     0.030 A 
ATOM      3  C   UNL     1      60.354  66.291  43.185  1.00  0.00     0.046 A 
ATOM      4  C   UNL     1      60.387  65.417  42.131  1.00  0.00     0.003 A 
ATOM      5  C   UNL     1      60.382  66.168  40.975  1.00  0.00     0.028 A 
ATOM      6  C   UNL     1      60.344  67.492  41.401  1.00  0.00     0.083 A 
ATOM      7  N   UNL     1      60.327  67.561  42.752  1.00  0.00    -0.361 N 
ATOM      8  C   UNL     1      60.419  64.038  42.318  1.00  0.00     0.056 A 
ATOM      9  C   UNL     1      60.416  63.552  43.643  1.00  0.00     0.116 A 
ATOM     10  H   UNL     1      60.299  68.428  43.335  1.00  0.00     0.166 HD
ENDROOT
BRANCH   9  11
ATOM     11  O   UNL     1      60.447  62.182  43.893  1.00  0.00    -0.508 OA
ATOM     12  H   UNL     1      59.749  61.736  44.477  1.00  0.00     0.293 HD
ENDBRANCH   9  11
TORSDOF 1
ENDMDL
MODEL 6
REMARK VINA RESULT:    -4.651     18.059     18.659
REMARK INTER + INTRA:          -4.787
REMARK INTER:                  -4.787
REMARK INTRA:                   0.000
REMARK UNBOUND:                 0.000
REMARK SMILES Oc1ccc2[nH]ccc2c1
REMARK SMILES IDX 3 1 4 2 5 3 9 4 8 5 7 6 6 7 10 8 2 9 1 11
REMARK H PARENT 6 10 1 12
REMARK Flexibility Score: inf
ROOT
ATOM      1  C   UNL     1      56.874  57.520  46.014  1.00  0.00     0.048 A 
ATOM      2  C   UNL     1      57.622  58.620  46.473  1.00  0.00     0.030 A 
ATOM      3  C   UNL     1      58.777  58.961  45.771  1.00  0.00     0.046 A 
ATOM      4  C   UNL     1      59.182  58.256  44.668  1.00  0.00     0.003 A 
ATOM      5  C   UNL     1      60.344  58.839  44.213  1.00  0.00     0.028 A 
ATOM      6  C   UNL     1      60.588  59.895  45.085  1.00  0.00     0.083 A 
ATOM      7  N   UNL     1      59.628  59.964  46.035  1.00  0.00    -0.361 N 
ATOM      8  C   UNL     1      58.466  57.162  44.189  1.00  0.00     0.056 A 
ATOM      9  C   UNL     1      57.291  56.791  44.877  1.00  0.00     0.116 A 
ATOM     10  H   UNL     1      59.565  60.659  46.813  1.00  0.00     0.166 HD
ENDROOT
BRANCH   9  11
ATOM     11  O   UNL     1      56.532  55.706  44.444  1.00  0.00    -0.508 OA
ATOM     12  H   UNL     1      56.970  54.844  44.139  1.00  0.00     0.293 HD
ENDBRANCH   9  11
TORSDOF 1
ENDMDL
MODEL 7
REMARK VINA RESULT:    -4.636     13.188     13.553
REMARK INTER + INTRA:          -4.772
REMARK INTER:                  -4.772
REMARK INTRA:                   0.000
REMARK UNBOUND:                 0.000
REMARK SMILES Oc1ccc2[nH]ccc2c1
REMARK SMILES IDX 3 1 4 2 5 3 9 4 8 5 7 6 6 7 10 8 2 9 1 11
REMARK H PARENT 6 10 1 12
REMARK Flexibility Score: inf
ROOT
ATOM      1  C   UNL     1      59.880  64.096  41.373  1.00  0.00     0.048 A 
ATOM      2  C   UNL     1      60.038  65.483  41.547  1.00  0.00     0.030 A 
ATOM      3  C   UNL     1      60.309  65.952  42.832  1.00  0.00     0.046 A 
ATOM      4  C   UNL     1      60.419  65.101  43.899  1.00  0.00     0.003 A 
ATOM      5  C   UNL     1      60.686  65.870  45.011  1.00  0.00     0.028 A 
ATOM      6  C   UNL     1      60.726  67.180  44.547  1.00  0.00     0.083 A 
ATOM      7  N   UNL     1      60.494  67.225  43.215  1.00  0.00    -0.361 N 
ATOM      8  C   UNL     1      60.267  63.724  43.762  1.00  0.00     0.056 A 
ATOM      9  C   UNL     1      59.993  63.216  42.474  1.00  0.00     0.116 A 
ATOM     10  H   UNL     1      60.467  68.078  42.612  1.00  0.00     0.166 HD
ENDROOT
BRANCH   9  11
ATOM     11  O   UNL     1      59.831  61.847  42.275  1.00  0.00    -0.508 OA
ATOM     12  H   UNL     1      60.439  61.328  41.651  1.00  0.00     0.293 HD
ENDBRANCH   9  11
TORSDOF 1
ENDMDL
MODEL 8
REMARK VINA RESULT:    -4.568      2.535      3.661
REMARK INTER + INTRA:          -4.702
REMARK INTER:                  -4.702
REMARK INTRA:                   0.000
REMARK UNBOUND:                 0.000
REMARK SMILES Oc1ccc2[nH]ccc2c1
REMARK SMILES IDX 3 1 4 2 5 3 9 4 8 5 7 6 6 7 10 8 2 9 1 11
REMARK H PARENT 6 10 1 12
REMARK Flexibility Score: inf
ROOT
ATOM      1  C   UNL     1      60.517  68.105  31.384  1.00  0.00     0.048 A 
ATOM      2  C   UNL     1      59.188  67.666  31.520  1.00  0.00     0.030 A 
ATOM      3  C   UNL     1      58.170  68.584  31.264  1.00  0.00     0.046 A 
ATOM      4  C   UNL     1      58.441  69.874  30.892  1.00  0.00     0.003 A 
ATOM      5  C   UNL     1      57.233  70.513  30.718  1.00  0.00     0.028 A 
ATOM      6  C   UNL     1      56.268  69.552  31.000  1.00  0.00     0.083 A 
ATOM      7  N   UNL     1      56.846  68.375  31.333  1.00  0.00    -0.361 N 
ATOM      8  C   UNL     1      59.745  70.340  30.749  1.00  0.00     0.056 A 
ATOM      9  C   UNL     1      60.800  69.437  31.000  1.00  0.00     0.116 A 
ATOM     10  H   UNL     1      56.357  67.488  31.591  1.00  0.00     0.166 HD
ENDROOT
BRANCH   9  11
ATOM     11  O   UNL     1      62.125  69.846  30.874  1.00  0.00    -0.508 OA
ATOM     12  H   UNL     1      62.405  70.799  31.078  1.00  0.00     0.293 HD
ENDBRANCH   9  11
TORSDOF 1
ENDMDL
MODEL 9
REMARK VINA RESULT:    -4.546     21.955     22.876
REMARK INTER + INTRA:          -4.679
REMARK INTER:                  -4.679
REMARK INTRA:                   0.000
REMARK UNBOUND:                 0.000
REMARK SMILES Oc1ccc2[nH]ccc2c1
REMARK SMILES IDX 3 1 4 2 5 3 9 4 8 5 7 6 6 7 10 8 2 9 1 11
REMARK H PARENT 6 10 1 12
REMARK Flexibility Score: inf
ROOT
ATOM      1  C   UNL     1      42.229  56.818  41.503  1.00  0.00     0.048 A 
ATOM      2  C   UNL     1      42.564  55.693  40.728  1.00  0.00     0.030 A 
ATOM      3  C   UNL     1      42.876  55.898  39.384  1.00  0.00     0.046 A 
ATOM      4  C   UNL     1      42.860  57.148  38.824  1.00  0.00     0.003 A 
ATOM      5  C   UNL     1      43.209  57.009  37.499  1.00  0.00     0.028 A 
ATOM      6  C   UNL     1      43.425  55.646  37.320  1.00  0.00     0.083 A 
ATOM      7  N   UNL     1      43.220  54.972  38.475  1.00  0.00    -0.361 N 
ATOM      8  C   UNL     1      42.532  58.282  39.563  1.00  0.00     0.056 A 
ATOM      9  C   UNL     1      42.212  58.110  40.927  1.00  0.00     0.116 A 
ATOM     10  H   UNL     1      43.312  53.942  38.624  1.00  0.00     0.166 HD
ENDROOT
BRANCH   9  11
ATOM     11  O   UNL     1      41.875  59.206  41.717  1.00  0.00    -0.508 OA
ATOM     12  H   UNL     1      41.706  60.119  41.309  1.00  0.00     0.293 HD
ENDBRANCH   9  11
TORSDOF 1
ENDMDL
