MODEL 1
REMARK VINA RESULT:    -4.930      0.000      0.000
REMARK INTER + INTRA:          -5.457
REMARK INTER:                  -5.363
REMARK INTRA:                  -0.095
REMARK UNBOUND:                -0.095
REMARK SMILES C=C(C)[C@H]1CC[C@H](C)[C@@H](O)C1
REMARK SMILES IDX 8 1 7 2 6 3 5 4 4 5 11 6 9 7 10 8 2 10 1 11 3 12
REMARK H PARENT 10 9
REMARK Flexibility Score: inf
ROOT
ATOM      1  C   UNL     1     113.449 121.980 131.225  1.00  0.00     0.010 C 
ATOM      2  C   UNL     1     114.614 121.283 131.942  1.00  0.00     0.015 C 
ATOM      3  C   UNL     1     115.745 122.295 132.214  1.00  0.00     0.006 C 
ATOM      4  C   UNL     1     116.918 121.632 132.945  1.00  0.00     0.008 C 
ATOM      5  C   UNL     1     116.448 120.986 134.262  1.00  0.00     0.017 C 
ATOM      6  C   UNL     1     115.322 119.967 133.996  1.00  0.00     0.040 C 
ATOM      7  C   UNL     1     114.139 120.625 133.261  1.00  0.00     0.117 C 
ENDROOT
BRANCH   7   8
ATOM      8  O   UNL     1     113.169 119.650 132.976  1.00  0.00    -0.393 OA
ATOM      9  H   UNL     1     112.701 119.454 133.830  1.00  0.00     0.210 HD
ENDBRANCH   7   8
BRANCH   5  10
ATOM     10  C   UNL     1     117.607 120.348 135.015  1.00  0.00    -0.077 C 
ATOM     11  C   UNL     1     118.006 119.092 134.751  1.00  0.00     0.008 C 
ATOM     12  C   UNL     1     118.336 121.127 136.082  1.00  0.00     0.039 C 
ENDBRANCH   5  10
TORSDOF 2
ENDMDL
MODEL 2
REMARK VINA RESULT:    -4.906     15.766     16.736
REMARK INTER + INTRA:          -5.431
REMARK INTER:                  -5.340
REMARK INTRA:                  -0.090
REMARK UNBOUND:                -0.095
REMARK SMILES C=C(C)[C@H]1CC[C@H](C)[C@@H](O)C1
REMARK SMILES IDX 8 1 7 2 6 3 5 4 4 5 11 6 9 7 10 8 2 10 1 11 3 12
REMARK H PARENT 10 9
REMARK Flexibility Score: inf
ROOT
ATOM      1  C   UNL     1     122.444 119.296 120.402  1.00  0.00     0.010 C 
ATOM      2  C   UNL     1     123.796 119.896 119.989  1.00  0.00     0.015 C 
ATOM      3  C   UNL     1     123.574 121.229 119.245  1.00  0.00     0.006 C 
ATOM      4  C   UNL     1     124.908 121.863 118.833  1.00  0.00     0.008 C 
ATOM      5  C   UNL     1     125.814 122.076 120.060  1.00  0.00     0.017 C 
ATOM      6  C   UNL     1     126.046 120.746 120.803  1.00  0.00     0.040 C 
ATOM      7  C   UNL     1     124.710 120.102 121.221  1.00  0.00     0.117 C 
ENDROOT
BRANCH   7   8
ATOM      8  O   UNL     1     124.963 118.862 121.830  1.00  0.00    -0.393 OA
ATOM      9  H   UNL     1     125.935 118.833 122.027  1.00  0.00     0.210 HD
ENDBRANCH   7   8
BRANCH   5  10
ATOM     10  C   UNL     1     127.132 122.733 119.672  1.00  0.00    -0.077 C 
ATOM     11  C   UNL     1     127.256 124.070 119.615  1.00  0.00     0.008 C 
ATOM     12  C   UNL     1     128.332 121.883 119.342  1.00  0.00     0.039 C 
ENDBRANCH   5  10
TORSDOF 2
ENDMDL
MODEL 3
REMARK VINA RESULT:    -4.826      2.235      3.391
REMARK INTER + INTRA:          -5.344
REMARK INTER:                  -5.250
REMARK INTRA:                  -0.094
REMARK UNBOUND:                -0.095
REMARK SMILES C=C(C)[C@H]1CC[C@H](C)[C@@H](O)C1
REMARK SMILES IDX 8 1 7 2 6 3 5 4 4 5 11 6 9 7 10 8 2 10 1 11 3 12
REMARK H PARENT 10 9
REMARK Flexibility Score: inf
ROOT
ATOM      1  C   UNL     1     113.726 122.482 128.347  1.00  0.00     0.010 C 
ATOM      2  C   UNL     1     113.822 122.199 129.853  1.00  0.00     0.015 C 
ATOM      3  C   UNL     1     114.070 120.695 130.091  1.00  0.00     0.006 C 
ATOM      4  C   UNL     1     114.187 120.382 131.587  1.00  0.00     0.008 C 
ATOM      5  C   UNL     1     115.305 121.220 132.235  1.00  0.00     0.017 C 
ATOM      6  C   UNL     1     115.059 122.724 132.008  1.00  0.00     0.040 C 
ATOM      7  C   UNL     1     114.939 123.048 130.506  1.00  0.00     0.117 C 
ENDROOT
BRANCH   7   8
ATOM      8  O   UNL     1     114.646 124.412 130.347  1.00  0.00    -0.393 OA
ATOM      9  H   UNL     1     115.385 124.803 129.811  1.00  0.00     0.210 HD
ENDBRANCH   7   8
BRANCH   5  10
ATOM     10  C   UNL     1     115.454 120.899 133.716  1.00  0.00    -0.077 C 
ATOM     11  C   UNL     1     114.383 120.806 134.522  1.00  0.00     0.008 C 
ATOM     12  C   UNL     1     116.823 120.677 134.308  1.00  0.00     0.039 C 
ENDBRANCH   5  10
TORSDOF 2
ENDMDL
MODEL 4
REMARK VINA RESULT:    -4.793      2.885      4.627
REMARK INTER + INTRA:          -5.308
REMARK INTER:                  -5.214
REMARK INTRA:                  -0.094
REMARK UNBOUND:                -0.095
REMARK SMILES C=C(C)[C@H]1CC[C@H](C)[C@@H](O)C1
REMARK SMILES IDX 8 1 7 2 6 3 5 4 4 5 11 6 9 7 10 8 2 10 1 11 3 12
REMARK H PARENT 10 9
REMARK Flexibility Score: inf
ROOT
ATOM      1  C   UNL     1     113.064 122.580 126.732  1.00  0.00     0.010 C 
ATOM      2  C   UNL     1     113.060 122.053 128.174  1.00  0.00     0.015 C 
ATOM      3  C   UNL     1     114.145 120.970 128.340  1.00  0.00     0.006 C 
ATOM      4  C   UNL     1     114.178 120.434 129.776  1.00  0.00     0.008 C 
ATOM      5  C   UNL     1     114.402 121.578 130.783  1.00  0.00     0.017 C 
ATOM      6  C   UNL     1     113.316 122.660 130.626  1.00  0.00     0.040 C 
ATOM      7  C   UNL     1     113.276 123.204 129.185  1.00  0.00     0.117 C 
ENDROOT
BRANCH   7   8
ATOM      8  O   UNL     1     112.230 124.134 129.069  1.00  0.00    -0.393 OA
ATOM      9  H   UNL     1     112.024 124.215 128.101  1.00  0.00     0.210 HD
ENDBRANCH   7   8
BRANCH   5  10
ATOM     10  C   UNL     1     114.467 121.058 132.212  1.00  0.00    -0.077 C 
ATOM     11  C   UNL     1     113.616 120.115 132.652  1.00  0.00     0.008 C 
ATOM     12  C   UNL     1     115.500 121.599 133.168  1.00  0.00     0.039 C 
ENDBRANCH   5  10
TORSDOF 2
ENDMDL
MODEL 5
REMARK VINA RESULT:    -4.782      1.722      4.690
REMARK INTER + INTRA:          -5.296
REMARK INTER:                  -5.201
REMARK INTRA:                  -0.095
REMARK UNBOUND:                -0.095
REMARK SMILES C=C(C)[C@H]1CC[C@H](C)[C@@H](O)C1
REMARK SMILES IDX 8 1 7 2 6 3 5 4 4 5 11 6 9 7 10 8 2 10 1 11 3 12
REMARK H PARENT 10 9
REMARK Flexibility Score: inf
ROOT
ATOM      1  C   UNL     1     115.339 120.135 134.591  1.00  0.00     0.010 C 
ATOM      2  C   UNL     1     114.848 121.037 133.450  1.00  0.00     0.015 C 
ATOM      3  C   UNL     1     116.014 121.895 132.918  1.00  0.00     0.006 C 
ATOM      4  C   UNL     1     115.559 122.797 131.765  1.00  0.00     0.008 C 
ATOM      5  C   UNL     1     114.943 121.961 130.627  1.00  0.00     0.017 C 
ATOM      6  C   UNL     1     113.771 121.108 131.151  1.00  0.00     0.040 C 
ATOM      7  C   UNL     1     114.220 120.198 132.311  1.00  0.00     0.117 C 
ENDROOT
BRANCH   7   8
ATOM      8  O   UNL     1     113.111 119.492 132.803  1.00  0.00    -0.393 OA
ATOM      9  H   UNL     1     112.654 120.091 133.450  1.00  0.00     0.210 HD
ENDBRANCH   7   8
BRANCH   5  10
ATOM     10  C   UNL     1     114.512 122.839 129.461  1.00  0.00    -0.077 C 
ATOM     11  C   UNL     1     113.222 123.160 129.266  1.00  0.00     0.008 C 
ATOM     12  C   UNL     1     115.540 123.371 128.494  1.00  0.00     0.039 C 
ENDBRANCH   5  10
TORSDOF 2
ENDMDL
MODEL 6
REMARK VINA RESULT:    -4.752      1.606      4.556
REMARK INTER + INTRA:          -5.263
REMARK INTER:                  -5.168
REMARK INTRA:                  -0.095
REMARK UNBOUND:                -0.095
REMARK SMILES C=C(C)[C@H]1CC[C@H](C)[C@@H](O)C1
REMARK SMILES IDX 8 1 7 2 6 3 5 4 4 5 11 6 9 7 10 8 2 10 1 11 3 12
REMARK H PARENT 10 9
REMARK Flexibility Score: inf
ROOT
ATOM      1  C   UNL     1     116.997 120.628 135.178  1.00  0.00     0.010 C 
ATOM      2  C   UNL     1     116.281 121.102 133.906  1.00  0.00     0.015 C 
ATOM      3  C   UNL     1     117.034 120.598 132.658  1.00  0.00     0.006 C 
ATOM      4  C   UNL     1     116.334 121.043 131.370  1.00  0.00     0.008 C 
ATOM      5  C   UNL     1     114.872 120.558 131.347  1.00  0.00     0.017 C 
ATOM      6  C   UNL     1     114.111 121.066 132.587  1.00  0.00     0.040 C 
ATOM      7  C   UNL     1     114.809 120.624 133.887  1.00  0.00     0.117 C 
ENDROOT
BRANCH   7   8
ATOM      8  O   UNL     1     114.125 121.165 134.988  1.00  0.00    -0.393 OA
ATOM      9  H   UNL     1     113.967 120.418 135.623  1.00  0.00     0.210 HD
ENDBRANCH   7   8
BRANCH   5  10
ATOM     10  C   UNL     1     114.170 120.967 130.058  1.00  0.00    -0.077 C 
ATOM     11  C   UNL     1     113.599 122.176 129.927  1.00  0.00     0.008 C 
ATOM     12  C   UNL     1     114.105 120.008 128.896  1.00  0.00     0.039 C 
ENDBRANCH   5  10
TORSDOF 2
ENDMDL
MODEL 7
REMARK VINA RESULT:    -4.692      2.708      4.234
REMARK INTER + INTRA:          -5.198
REMARK INTER:                  -5.108
REMARK INTRA:                  -0.090
REMARK UNBOUND:                -0.095
REMARK SMILES C=C(C)[C@H]1CC[C@H](C)[C@@H](O)C1
REMARK SMILES IDX 8 1 7 2 6 3 5 4 4 5 11 6 9 7 10 8 2 10 1 11 3 12
REMARK H PARENT 10 9
REMARK Flexibility Score: inf
ROOT
ATOM      1  C   UNL     1     113.084 122.529 127.044  1.00  0.00     0.010 C 
ATOM      2  C   UNL     1     113.886 122.132 128.291  1.00  0.00     0.015 C 
ATOM      3  C   UNL     1     113.425 122.970 129.502  1.00  0.00     0.006 C 
ATOM      4  C   UNL     1     114.196 122.585 130.769  1.00  0.00     0.008 C 
ATOM      5  C   UNL     1     114.044 121.081 131.067  1.00  0.00     0.017 C 
ATOM      6  C   UNL     1     114.511 120.239 129.864  1.00  0.00     0.040 C 
ATOM      7  C   UNL     1     113.741 120.619 128.585  1.00  0.00     0.117 C 
ENDROOT
BRANCH   7   8
ATOM      8  O   UNL     1     114.244 119.880 127.502  1.00  0.00    -0.393 OA
ATOM      9  H   UNL     1     115.081 119.447 127.815  1.00  0.00     0.210 HD
ENDBRANCH   7   8
BRANCH   5  10
ATOM     10  C   UNL     1     114.781 120.688 132.340  1.00  0.00    -0.077 C 
ATOM     11  C   UNL     1     114.116 120.283 133.435  1.00  0.00     0.008 C 
ATOM     12  C   UNL     1     116.286 120.749 132.392  1.00  0.00     0.039 C 
ENDBRANCH   5  10
TORSDOF 2
ENDMDL
MODEL 8
REMARK VINA RESULT:    -4.646     11.586     12.943
REMARK INTER + INTRA:          -5.148
REMARK INTER:                  -5.052
REMARK INTRA:                  -0.095
REMARK UNBOUND:                -0.095
REMARK SMILES C=C(C)[C@H]1CC[C@H](C)[C@@H](O)C1
REMARK SMILES IDX 8 1 7 2 6 3 5 4 4 5 11 6 9 7 10 8 2 10 1 11 3 12
REMARK H PARENT 10 9
REMARK Flexibility Score: inf
ROOT
ATOM      1  C   UNL     1     121.722 135.114 129.537  1.00  0.00     0.010 C 
ATOM      2  C   UNL     1     121.060 133.732 129.437  1.00  0.00     0.015 C 
ATOM      3  C   UNL     1     121.976 132.663 130.068  1.00  0.00     0.006 C 
ATOM      4  C   UNL     1     121.335 131.272 129.998  1.00  0.00     0.008 C 
ATOM      5  C   UNL     1     119.955 131.271 130.683  1.00  0.00     0.017 C 
ATOM      6  C   UNL     1     119.033 132.331 130.051  1.00  0.00     0.040 C 
ATOM      7  C   UNL     1     119.670 133.733 130.116  1.00  0.00     0.117 C 
ENDROOT
BRANCH   7   8
ATOM      8  O   UNL     1     118.831 134.655 129.469  1.00  0.00    -0.393 OA
ATOM      9  H   UNL     1     117.966 134.647 129.956  1.00  0.00     0.210 HD
ENDBRANCH   7   8
BRANCH   5  10
ATOM     10  C   UNL     1     119.317 129.888 130.648  1.00  0.00    -0.077 C 
ATOM     11  C   UNL     1     119.820 128.906 129.881  1.00  0.00     0.008 C 
ATOM     12  C   UNL     1     118.098 129.597 131.486  1.00  0.00     0.039 C 
ENDBRANCH   5  10
TORSDOF 2
ENDMDL
MODEL 9
REMARK VINA RESULT:    -4.585      2.282      5.218
REMARK INTER + INTRA:          -5.082
REMARK INTER:                  -4.988
REMARK INTRA:                  -0.094
REMARK UNBOUND:                -0.095
REMARK SMILES C=C(C)[C@H]1CC[C@H](C)[C@@H](O)C1
REMARK SMILES IDX 8 1 7 2 6 3 5 4 4 5 11 6 9 7 10 8 2 10 1 11 3 12
REMARK H PARENT 10 9
REMARK Flexibility Score: inf
ROOT
ATOM      1  C   UNL     1     115.290 120.402 134.663  1.00  0.00     0.010 C 
ATOM      2  C   UNL     1     115.237 120.366 133.129  1.00  0.00     0.015 C 
ATOM      3  C   UNL     1     113.788 120.124 132.658  1.00  0.00     0.006 C 
ATOM      4  C   UNL     1     113.699 120.098 131.128  1.00  0.00     0.008 C 
ATOM      5  C   UNL     1     114.249 121.406 130.526  1.00  0.00     0.017 C 
ATOM      6  C   UNL     1     115.699 121.649 130.987  1.00  0.00     0.040 C 
ATOM      7  C   UNL     1     115.798 121.676 132.524  1.00  0.00     0.117 C 
ENDROOT
BRANCH   7   8
ATOM      8  O   UNL     1     117.142 121.829 132.900  1.00  0.00    -0.393 OA
ATOM      9  H   UNL     1     117.203 122.682 133.404  1.00  0.00     0.210 HD
ENDBRANCH   7   8
BRANCH   5  10
ATOM     10  C   UNL     1     114.140 121.408 129.007  1.00  0.00    -0.077 C 
ATOM     11  C   UNL     1     114.131 122.557 128.309  1.00  0.00     0.008 C 
ATOM     12  C   UNL     1     114.040 120.106 128.254  1.00  0.00     0.039 C 
ENDBRANCH   5  10
TORSDOF 2
ENDMDL
