MODEL 1
REMARK VINA RESULT:    -6.304      0.000      0.000
REMARK INTER + INTRA:          -7.187
REMARK INTER:                  -7.594
REMARK INTRA:                   0.407
REMARK UNBOUND:                 0.407
REMARK SMILES Oc1cc(O)c2c(c1)O[C@@H](c1ccc(O)c(O)c1)[C@H](O)C2
REMARK SMILES IDX 21 1 19 2 10 3 9 4 7 5 8 6 2 7 3 8 4 9 6 10 20 11 11 13
REMARK SMILES IDX 18 14 12 15 16 16 13 17 14 18 17 19 15 21 5 23 1 25
REMARK H PARENT 20 12 17 20 15 22 5 24 1 26
REMARK Flexibility Score: inf
ROOT
ATOM      1  C   UNL     1      11.562  -3.411  19.423  1.00  0.00     0.079 C 
ATOM      2  C   UNL     1      10.985  -1.983  19.457  1.00  0.00     0.164 C 
ATOM      3  C   UNL     1       9.820  -1.867  18.459  1.00  0.00     0.232 C 
ATOM      4  O   UNL     1       8.828  -2.846  18.759  1.00  0.00    -0.482 OA
ATOM      5  C   UNL     1       9.156  -4.141  19.172  1.00  0.00     0.131 A 
ATOM      6  C   UNL     1       8.145  -5.101  19.264  1.00  0.00     0.093 A 
ATOM      7  C   UNL     1       8.444  -6.407  19.658  1.00  0.00     0.122 A 
ATOM      8  C   UNL     1       9.767  -6.757  19.952  1.00  0.00     0.092 A 
ATOM      9  C   UNL     1      10.793  -5.809  19.864  1.00  0.00     0.126 A 
ATOM     10  C   UNL     1      10.486  -4.475  19.508  1.00  0.00     0.039 A 
ENDROOT
BRANCH   2  11
ATOM     11  O   UNL     1      11.989  -1.058  19.124  1.00  0.00    -0.389 OA
ATOM     12  H   UNL     1      12.761  -1.248  19.719  1.00  0.00     0.211 HD
ENDBRANCH   2  11
BRANCH   3  13
ATOM     13  C   UNL     1       9.203  -0.488  18.499  1.00  0.00    -0.001 A 
ATOM     14  C   UNL     1       7.906  -0.278  18.004  1.00  0.00     0.057 A 
ATOM     15  C   UNL     1       9.936   0.608  18.987  1.00  0.00     0.012 A 
ATOM     16  C   UNL     1       7.339   1.005  18.013  1.00  0.00     0.157 A 
ATOM     17  C   UNL     1       9.372   1.885  18.998  1.00  0.00     0.050 A 
ATOM     18  C   UNL     1       8.076   2.091  18.516  1.00  0.00     0.157 A 
BRANCH  16  19
ATOM     19  O   UNL     1       6.048   1.204  17.525  1.00  0.00    -0.504 OA
ATOM     20  H   UNL     1       5.574   2.094  17.625  1.00  0.00     0.293 HD
ENDBRANCH  16  19
BRANCH  18  21
ATOM     21  O   UNL     1       7.540   3.378  18.539  1.00  0.00    -0.504 OA
ATOM     22  H   UNL     1       7.134   3.807  17.716  1.00  0.00     0.293 HD
ENDBRANCH  18  21
ENDBRANCH   3  13
BRANCH   9  23
ATOM     23  O   UNL     1      12.099  -6.230  20.125  1.00  0.00    -0.507 OA
ATOM     24  H   UNL     1      12.319  -7.094  20.602  1.00  0.00     0.293 HD
ENDBRANCH   9  23
BRANCH   7  25
ATOM     25  O   UNL     1       7.422  -7.349  19.747  1.00  0.00    -0.508 OA
ATOM     26  H   UNL     1       7.252  -7.865  20.603  1.00  0.00     0.293 HD
ENDBRANCH   7  25
TORSDOF 6
ENDMDL
MODEL 2
REMARK VINA RESULT:    -6.071      2.487      6.537
REMARK INTER + INTRA:          -6.906
REMARK INTER:                  -7.189
REMARK INTRA:                   0.283
REMARK UNBOUND:                 0.407
REMARK SMILES Oc1cc(O)c2c(c1)O[C@@H](c1ccc(O)c(O)c1)[C@H](O)C2
REMARK SMILES IDX 21 1 19 2 10 3 9 4 7 5 8 6 2 7 3 8 4 9 6 10 20 11 11 13
REMARK SMILES IDX 18 14 12 15 16 16 13 17 14 18 17 19 15 21 5 23 1 25
REMARK H PARENT 20 12 17 20 15 22 5 24 1 26
REMARK Flexibility Score: inf
ROOT
ATOM      1  C   UNL     1      10.296  -0.940  19.620  1.00  0.00     0.079 C 
ATOM      2  C   UNL     1       9.378  -2.131  19.953  1.00  0.00     0.164 C 
ATOM      3  C   UNL     1       9.647  -3.287  18.974  1.00  0.00     0.232 C 
ATOM      4  O   UNL     1      11.025  -3.651  19.023  1.00  0.00    -0.482 OA
ATOM      5  C   UNL     1      12.045  -2.702  19.149  1.00  0.00     0.131 A 
ATOM      6  C   UNL     1      13.373  -3.109  19.000  1.00  0.00     0.093 A 
ATOM      7  C   UNL     1      14.412  -2.182  19.104  1.00  0.00     0.122 A 
ATOM      8  C   UNL     1      14.119  -0.835  19.349  1.00  0.00     0.092 A 
ATOM      9  C   UNL     1      12.794  -0.410  19.500  1.00  0.00     0.126 A 
ATOM     10  C   UNL     1      11.742  -1.353  19.439  1.00  0.00     0.039 A 
ENDROOT
BRANCH   2  11
ATOM     11  O   UNL     1       8.034  -1.734  19.860  1.00  0.00    -0.389 OA
ATOM     12  H   UNL     1       8.024  -0.869  19.372  1.00  0.00     0.211 HD
ENDBRANCH   2  11
BRANCH   3  13
ATOM     13  C   UNL     1       8.791  -4.489  19.301  1.00  0.00    -0.001 A 
ATOM     14  C   UNL     1       9.372  -5.762  19.412  1.00  0.00     0.057 A 
ATOM     15  C   UNL     1       7.400  -4.355  19.450  1.00  0.00     0.012 A 
ATOM     16  C   UNL     1       8.578  -6.886  19.687  1.00  0.00     0.157 A 
ATOM     17  C   UNL     1       6.609  -5.472  19.726  1.00  0.00     0.050 A 
ATOM     18  C   UNL     1       7.190  -6.738  19.847  1.00  0.00     0.157 A 
BRANCH  16  19
ATOM     19  O   UNL     1       9.164  -8.146  19.801  1.00  0.00    -0.504 OA
ATOM     20  H   UNL     1       8.797  -8.948  19.302  1.00  0.00     0.293 HD
ENDBRANCH  16  19
BRANCH  18  21
ATOM     21  O   UNL     1       6.375  -7.834  20.123  1.00  0.00    -0.504 OA
ATOM     22  H   UNL     1       5.826  -7.898  20.973  1.00  0.00     0.293 HD
ENDBRANCH  18  21
ENDBRANCH   3  13
BRANCH   9  23
ATOM     23  O   UNL     1      12.562   0.954  19.696  1.00  0.00    -0.507 OA
ATOM     24  H   UNL     1      13.060   1.509  20.380  1.00  0.00     0.293 HD
ENDBRANCH   9  23
BRANCH   7  25
ATOM     25  O   UNL     1      15.730  -2.608  18.955  1.00  0.00    -0.508 OA
ATOM     26  H   UNL     1      15.951  -3.524  18.583  1.00  0.00     0.293 HD
ENDBRANCH   7  25
TORSDOF 6
ENDMDL
MODEL 3
REMARK VINA RESULT:    -5.920      1.491      7.135
REMARK INTER + INTRA:          -6.725
REMARK INTER:                  -7.129
REMARK INTRA:                   0.404
REMARK UNBOUND:                 0.407
REMARK SMILES Oc1cc(O)c2c(c1)O[C@@H](c1ccc(O)c(O)c1)[C@H](O)C2
REMARK SMILES IDX 21 1 19 2 10 3 9 4 7 5 8 6 2 7 3 8 4 9 6 10 20 11 11 13
REMARK SMILES IDX 18 14 12 15 16 16 13 17 14 18 17 19 15 21 5 23 1 25
REMARK H PARENT 20 12 17 20 15 22 5 24 1 26
REMARK Flexibility Score: inf
ROOT
ATOM      1  C   UNL     1       7.064  -0.624  18.620  1.00  0.00     0.079 C 
ATOM      2  C   UNL     1       7.335  -2.091  19.002  1.00  0.00     0.164 C 
ATOM      3  C   UNL     1       8.738  -2.504  18.525  1.00  0.00     0.232 C 
ATOM      4  O   UNL     1       9.715  -1.625  19.077  1.00  0.00    -0.482 OA
ATOM      5  C   UNL     1       9.492  -0.251  19.214  1.00  0.00     0.131 A 
ATOM      6  C   UNL     1      10.556   0.576  19.584  1.00  0.00     0.093 A 
ATOM      7  C   UNL     1      10.368   1.954  19.712  1.00  0.00     0.122 A 
ATOM      8  C   UNL     1       9.109   2.510  19.457  1.00  0.00     0.092 A 
ATOM      9  C   UNL     1       8.032   1.696  19.085  1.00  0.00     0.126 A 
ATOM     10  C   UNL     1       8.208   0.296  18.997  1.00  0.00     0.039 A 
ENDROOT
BRANCH   2  11
ATOM     11  O   UNL     1       6.369  -2.921  18.409  1.00  0.00    -0.389 OA
ATOM     12  H   UNL     1       6.758  -3.248  17.556  1.00  0.00     0.211 HD
ENDBRANCH   2  11
BRANCH   3  13
ATOM     13  C   UNL     1       9.052  -3.928  18.923  1.00  0.00    -0.001 A 
ATOM     14  C   UNL     1       8.046  -4.908  18.899  1.00  0.00     0.057 A 
ATOM     15  C   UNL     1      10.339  -4.277  19.366  1.00  0.00     0.012 A 
ATOM     16  C   UNL     1       8.325  -6.224  19.295  1.00  0.00     0.157 A 
ATOM     17  C   UNL     1      10.618  -5.588  19.759  1.00  0.00     0.050 A 
ATOM     18  C   UNL     1       9.619  -6.565  19.724  1.00  0.00     0.157 A 
BRANCH  16  19
ATOM     19  O   UNL     1       7.323  -7.193  19.263  1.00  0.00    -0.504 OA
ATOM     20  H   UNL     1       6.341  -6.941  19.269  1.00  0.00     0.293 HD
ENDBRANCH  16  19
BRANCH  18  21
ATOM     21  O   UNL     1       9.929  -7.865  20.121  1.00  0.00    -0.504 OA
ATOM     22  H   UNL     1      10.876  -8.224  20.102  1.00  0.00     0.293 HD
ENDBRANCH  18  21
ENDBRANCH   3  13
BRANCH   9  23
ATOM     23  O   UNL     1       6.812   2.314  18.800  1.00  0.00    -0.507 OA
ATOM     24  H   UNL     1       6.565   2.658  17.881  1.00  0.00     0.293 HD
ENDBRANCH   9  23
BRANCH   7  25
ATOM     25  O   UNL     1      11.440   2.761  20.084  1.00  0.00    -0.508 OA
ATOM     26  H   UNL     1      11.760   2.806  21.045  1.00  0.00     0.293 HD
ENDBRANCH   7  25
TORSDOF 6
ENDMDL
MODEL 4
REMARK VINA RESULT:    -5.888      1.606      6.803
REMARK INTER + INTRA:          -6.686
REMARK INTER:                  -6.992
REMARK INTRA:                   0.306
REMARK UNBOUND:                 0.407
REMARK SMILES Oc1cc(O)c2c(c1)O[C@@H](c1ccc(O)c(O)c1)[C@H](O)C2
REMARK SMILES IDX 21 1 19 2 10 3 9 4 7 5 8 6 2 7 3 8 4 9 6 10 20 11 11 13
REMARK SMILES IDX 18 14 12 15 16 16 13 17 14 18 17 19 15 21 5 23 1 25
REMARK H PARENT 20 12 17 20 15 22 5 24 1 26
REMARK Flexibility Score: inf
ROOT
ATOM      1  C   UNL     1      10.565  -1.410  18.621  1.00  0.00     0.079 C 
ATOM      2  C   UNL     1       9.881  -2.789  18.677  1.00  0.00     0.164 C 
ATOM      3  C   UNL     1       8.963  -2.867  19.908  1.00  0.00     0.232 C 
ATOM      4  O   UNL     1       8.011  -1.805  19.869  1.00  0.00    -0.482 OA
ATOM      5  C   UNL     1       8.343  -0.520  19.430  1.00  0.00     0.131 A 
ATOM      6  C   UNL     1       7.418   0.515  19.597  1.00  0.00     0.093 A 
ATOM      7  C   UNL     1       7.727   1.812  19.183  1.00  0.00     0.122 A 
ATOM      8  C   UNL     1       8.976   2.079  18.608  1.00  0.00     0.092 A 
ATOM      9  C   UNL     1       9.914   1.055  18.435  1.00  0.00     0.126 A 
ATOM     10  C   UNL     1       9.588  -0.269  18.812  1.00  0.00     0.039 A 
ENDROOT
BRANCH   2  11
ATOM     11  O   UNL     1      10.855  -3.799  18.747  1.00  0.00    -0.389 OA
ATOM     12  H   UNL     1      10.631  -4.461  18.042  1.00  0.00     0.211 HD
ENDBRANCH   2  11
BRANCH   3  13
ATOM     13  C   UNL     1       8.242  -4.194  19.969  1.00  0.00    -0.001 A 
ATOM     14  C   UNL     1       8.959  -5.395  19.849  1.00  0.00     0.057 A 
ATOM     15  C   UNL     1       6.843  -4.241  20.096  1.00  0.00     0.012 A 
ATOM     16  C   UNL     1       8.292  -6.629  19.876  1.00  0.00     0.157 A 
ATOM     17  C   UNL     1       6.178  -5.469  20.125  1.00  0.00     0.050 A 
ATOM     18  C   UNL     1       6.894  -6.664  20.018  1.00  0.00     0.157 A 
BRANCH  16  19
ATOM     19  O   UNL     1       9.013  -7.817  19.763  1.00  0.00    -0.504 OA
ATOM     20  H   UNL     1       8.861  -8.458  18.992  1.00  0.00     0.293 HD
ENDBRANCH  16  19
BRANCH  18  21
ATOM     21  O   UNL     1       6.203  -7.874  20.050  1.00  0.00    -0.504 OA
ATOM     22  H   UNL     1       6.255  -8.545  19.292  1.00  0.00     0.293 HD
ENDBRANCH  18  21
ENDBRANCH   3  13
BRANCH   9  23
ATOM     23  O   UNL     1      11.159   1.391  17.898  1.00  0.00    -0.507 OA
ATOM     24  H   UNL     1      11.419   2.337  17.648  1.00  0.00     0.293 HD
ENDBRANCH   9  23
BRANCH   7  25
ATOM     25  O   UNL     1       6.791   2.829  19.355  1.00  0.00    -0.508 OA
ATOM     26  H   UNL     1       5.796   2.649  19.285  1.00  0.00     0.293 HD
ENDBRANCH   7  25
TORSDOF 6
ENDMDL
MODEL 5
REMARK VINA RESULT:    -5.694      2.849      6.249
REMARK INTER + INTRA:          -6.453
REMARK INTER:                  -6.683
REMARK INTRA:                   0.230
REMARK UNBOUND:                 0.407
REMARK SMILES Oc1cc(O)c2c(c1)O[C@@H](c1ccc(O)c(O)c1)[C@H](O)C2
REMARK SMILES IDX 21 1 19 2 10 3 9 4 7 5 8 6 2 7 3 8 4 9 6 10 20 11 11 13
REMARK SMILES IDX 18 14 12 15 16 16 13 17 14 18 17 19 15 21 5 23 1 25
REMARK H PARENT 20 12 17 20 15 22 5 24 1 26
REMARK Flexibility Score: inf
ROOT
ATOM      1  C   UNL     1      10.297  -2.421  18.570  1.00  0.00     0.079 C 
ATOM      2  C   UNL     1      11.835  -2.474  18.531  1.00  0.00     0.164 C 
ATOM      3  C   UNL     1      12.366  -3.162  19.800  1.00  0.00     0.232 C 
ATOM      4  O   UNL     1      11.794  -4.463  19.919  1.00  0.00    -0.482 OA
ATOM      5  C   UNL     1      10.461  -4.727  19.588  1.00  0.00     0.131 A 
ATOM      6  C   UNL     1       9.916  -5.973  19.907  1.00  0.00     0.093 A 
ATOM      7  C   UNL     1       8.584  -6.260  19.604  1.00  0.00     0.122 A 
ATOM      8  C   UNL     1       7.787  -5.289  18.987  1.00  0.00     0.092 A 
ATOM      9  C   UNL     1       8.316  -4.035  18.661  1.00  0.00     0.126 A 
ATOM     10  C   UNL     1       9.677  -3.756  18.927  1.00  0.00     0.039 A 
ENDROOT
BRANCH   2  11
ATOM     11  O   UNL     1      12.353  -1.171  18.447  1.00  0.00    -0.389 OA
ATOM     12  H   UNL     1      11.776  -0.596  19.016  1.00  0.00     0.211 HD
ENDBRANCH   2  11
BRANCH   3  13
ATOM     13  C   UNL     1      13.873  -3.269  19.774  1.00  0.00    -0.001 A 
ATOM     14  C   UNL     1      14.498  -4.515  19.950  1.00  0.00     0.057 A 
ATOM     15  C   UNL     1      14.667  -2.120  19.620  1.00  0.00     0.012 A 
ATOM     16  C   UNL     1      15.896  -4.616  19.955  1.00  0.00     0.157 A 
ATOM     17  C   UNL     1      16.060  -2.220  19.622  1.00  0.00     0.050 A 
ATOM     18  C   UNL     1      16.681  -3.461  19.787  1.00  0.00     0.157 A 
BRANCH  16  19
ATOM     19  O   UNL     1      16.509  -5.857  20.125  1.00  0.00    -0.504 OA
ATOM     20  H   UNL     1      15.976  -6.719  20.101  1.00  0.00     0.293 HD
ENDBRANCH  16  19
BRANCH  18  21
ATOM     21  O   UNL     1      18.073  -3.529  19.785  1.00  0.00    -0.504 OA
ATOM     22  H   UNL     1      18.570  -4.400  19.638  1.00  0.00     0.293 HD
ENDBRANCH  18  21
ENDBRANCH   3  13
BRANCH   9  23
ATOM     23  O   UNL     1       7.460  -3.091  18.088  1.00  0.00    -0.507 OA
ATOM     24  H   UNL     1       7.628  -2.094  18.126  1.00  0.00     0.293 HD
ENDBRANCH   9  23
BRANCH   7  25
ATOM     25  O   UNL     1       8.060  -7.510  19.927  1.00  0.00    -0.508 OA
ATOM     26  H   UNL     1       7.291  -7.912  19.404  1.00  0.00     0.293 HD
ENDBRANCH   7  25
TORSDOF 6
ENDMDL
MODEL 6
REMARK VINA RESULT:    -5.572      2.523      6.443
REMARK INTER + INTRA:          -6.305
REMARK INTER:                  -6.678
REMARK INTRA:                   0.373
REMARK UNBOUND:                 0.407
REMARK SMILES Oc1cc(O)c2c(c1)O[C@@H](c1ccc(O)c(O)c1)[C@H](O)C2
REMARK SMILES IDX 21 1 19 2 10 3 9 4 7 5 8 6 2 7 3 8 4 9 6 10 20 11 11 13
REMARK SMILES IDX 18 14 12 15 16 16 13 17 14 18 17 19 15 21 5 23 1 25
REMARK H PARENT 20 12 17 20 15 22 5 24 1 26
REMARK Flexibility Score: inf
ROOT
ATOM      1  C   UNL     1       9.297  -4.468  19.456  1.00  0.00     0.079 C 
ATOM      2  C   UNL     1      10.781  -4.403  19.862  1.00  0.00     0.164 C 
ATOM      3  C   UNL     1      11.604  -3.760  18.732  1.00  0.00     0.232 C 
ATOM      4  O   UNL     1      11.081  -2.469  18.427  1.00  0.00    -0.482 OA
ATOM      5  C   UNL     1       9.708  -2.202  18.417  1.00  0.00     0.131 A 
ATOM      6  C   UNL     1       9.259  -0.973  17.926  1.00  0.00     0.093 A 
ATOM      7  C   UNL     1       7.894  -0.684  17.887  1.00  0.00     0.122 A 
ATOM      8  C   UNL     1       6.969  -1.636  18.333  1.00  0.00     0.092 A 
ATOM      9  C   UNL     1       7.401  -2.873  18.826  1.00  0.00     0.126 A 
ATOM     10  C   UNL     1       8.786  -3.152  18.907  1.00  0.00     0.039 A 
ENDROOT
BRANCH   2  11
ATOM     11  O   UNL     1      11.260  -5.697  20.120  1.00  0.00    -0.389 OA
ATOM     12  H   UNL     1      11.773  -5.978  19.318  1.00  0.00     0.211 HD
ENDBRANCH   2  11
BRANCH   3  13
ATOM     13  C   UNL     1      13.061  -3.641  19.118  1.00  0.00    -0.001 A 
ATOM     14  C   UNL     1      13.796  -2.500  18.761  1.00  0.00     0.057 A 
ATOM     15  C   UNL     1      13.707  -4.690  19.794  1.00  0.00     0.012 A 
ATOM     16  C   UNL     1      15.155  -2.396  19.091  1.00  0.00     0.157 A 
ATOM     17  C   UNL     1      15.060  -4.587  20.125  1.00  0.00     0.050 A 
ATOM     18  C   UNL     1      15.789  -3.445  19.780  1.00  0.00     0.157 A 
BRANCH  16  19
ATOM     19  O   UNL     1      15.877  -1.257  18.739  1.00  0.00    -0.504 OA
ATOM     20  H   UNL     1      15.424  -0.444  18.337  1.00  0.00     0.293 HD
ENDBRANCH  16  19
BRANCH  18  21
ATOM     21  O   UNL     1      17.138  -3.372  20.123  1.00  0.00    -0.504 OA
ATOM     22  H   UNL     1      17.455  -2.899  20.962  1.00  0.00     0.293 HD
ENDBRANCH  18  21
ENDBRANCH   3  13
BRANCH   9  23
ATOM     23  O   UNL     1       6.430  -3.800  19.212  1.00  0.00    -0.507 OA
ATOM     24  H   UNL     1       5.594  -3.548  19.724  1.00  0.00     0.293 HD
ENDBRANCH   9  23
BRANCH   7  25
ATOM     25  O   UNL     1       7.466   0.548  17.398  1.00  0.00    -0.508 OA
ATOM     26  H   UNL     1       6.963   0.623  16.522  1.00  0.00     0.293 HD
ENDBRANCH   7  25
TORSDOF 6
ENDMDL
MODEL 7
REMARK VINA RESULT:    -5.545      2.642      6.497
REMARK INTER + INTRA:          -6.272
REMARK INTER:                  -6.320
REMARK INTRA:                   0.048
REMARK UNBOUND:                 0.407
REMARK SMILES Oc1cc(O)c2c(c1)O[C@@H](c1ccc(O)c(O)c1)[C@H](O)C2
REMARK SMILES IDX 21 1 19 2 10 3 9 4 7 5 8 6 2 7 3 8 4 9 6 10 20 11 11 13
REMARK SMILES IDX 18 14 12 15 16 16 13 17 14 18 17 19 15 21 5 23 1 25
REMARK H PARENT 20 12 17 20 15 22 5 24 1 26
REMARK Flexibility Score: inf
ROOT
ATOM      1  C   UNL     1      10.521  -1.136  17.909  1.00  0.00     0.079 C 
ATOM      2  C   UNL     1      11.803  -1.971  18.086  1.00  0.00     0.164 C 
ATOM      3  C   UNL     1      11.832  -2.590  19.494  1.00  0.00     0.232 C 
ATOM      4  O   UNL     1      10.657  -3.371  19.704  1.00  0.00    -0.482 OA
ATOM      5  C   UNL     1       9.402  -2.974  19.233  1.00  0.00     0.131 A 
ATOM      6  C   UNL     1       8.269  -3.686  19.635  1.00  0.00     0.093 A 
ATOM      7  C   UNL     1       7.001  -3.304  19.196  1.00  0.00     0.122 A 
ATOM      8  C   UNL     1       6.863  -2.193  18.355  1.00  0.00     0.092 A 
ATOM      9  C   UNL     1       7.987  -1.467  17.943  1.00  0.00     0.126 A 
ATOM     10  C   UNL     1       9.277  -1.878  18.351  1.00  0.00     0.039 A 
ENDROOT
BRANCH   2  11
ATOM     11  O   UNL     1      12.931  -1.155  17.903  1.00  0.00    -0.389 OA
ATOM     12  H   UNL     1      13.415  -1.138  18.770  1.00  0.00     0.211 HD
ENDBRANCH   2  11
BRANCH   3  13
ATOM     13  C   UNL     1      13.058  -3.454  19.685  1.00  0.00    -0.001 A 
ATOM     14  C   UNL     1      14.327  -2.865  19.804  1.00  0.00     0.057 A 
ATOM     15  C   UNL     1      12.948  -4.855  19.696  1.00  0.00     0.012 A 
ATOM     16  C   UNL     1      15.471  -3.663  19.953  1.00  0.00     0.157 A 
ATOM     17  C   UNL     1      14.087  -5.650  19.846  1.00  0.00     0.050 A 
ATOM     18  C   UNL     1      15.348  -5.063  19.977  1.00  0.00     0.157 A 
BRANCH  16  19
ATOM     19  O   UNL     1      16.727  -3.070  20.077  1.00  0.00    -0.504 OA
ATOM     20  H   UNL     1      16.984  -2.253  19.535  1.00  0.00     0.293 HD
ENDBRANCH  16  19
BRANCH  18  21
ATOM     21  O   UNL     1      16.466  -5.883  20.125  1.00  0.00    -0.504 OA
ATOM     22  H   UNL     1      17.315  -5.737  19.592  1.00  0.00     0.293 HD
ENDBRANCH  18  21
ENDBRANCH   3  13
BRANCH   9  23
ATOM     23  O   UNL     1       7.782  -0.341  17.142  1.00  0.00    -0.507 OA
ATOM     24  H   UNL     1       8.332  -0.138  16.317  1.00  0.00     0.293 HD
ENDBRANCH   9  23
BRANCH   7  25
ATOM     25  O   UNL     1       5.884  -4.028  19.605  1.00  0.00    -0.508 OA
ATOM     26  H   UNL     1       4.959  -3.615  19.611  1.00  0.00     0.293 HD
ENDBRANCH   7  25
TORSDOF 6
ENDMDL
MODEL 8
REMARK VINA RESULT:    -5.528      2.583      7.004
REMARK INTER + INTRA:          -6.253
REMARK INTER:                  -6.629
REMARK INTRA:                   0.376
REMARK UNBOUND:                 0.407
REMARK SMILES Oc1cc(O)c2c(c1)O[C@@H](c1ccc(O)c(O)c1)[C@H](O)C2
REMARK SMILES IDX 21 1 19 2 10 3 9 4 7 5 8 6 2 7 3 8 4 9 6 10 20 11 11 13
REMARK SMILES IDX 18 14 12 15 16 16 13 17 14 18 17 19 15 21 5 23 1 25
REMARK H PARENT 20 12 17 20 15 22 5 24 1 26
REMARK Flexibility Score: inf
ROOT
ATOM      1  C   UNL     1       8.464  -1.403  18.034  1.00  0.00     0.079 C 
ATOM      2  C   UNL     1       9.820  -1.993  18.462  1.00  0.00     0.164 C 
ATOM      3  C   UNL     1      10.960  -1.061  18.017  1.00  0.00     0.232 C 
ATOM      4  O   UNL     1      10.756   0.243  18.556  1.00  0.00    -0.482 OA
ATOM      5  C   UNL     1       9.488   0.824  18.649  1.00  0.00     0.131 A 
ATOM      6  C   UNL     1       9.381   2.170  19.008  1.00  0.00     0.093 A 
ATOM      7  C   UNL     1       8.130   2.782  19.093  1.00  0.00     0.122 A 
ATOM      8  C   UNL     1       6.975   2.045  18.805  1.00  0.00     0.092 A 
ATOM      9  C   UNL     1       7.063   0.696  18.442  1.00  0.00     0.126 A 
ATOM     10  C   UNL     1       8.326   0.061  18.398  1.00  0.00     0.039 A 
ENDROOT
BRANCH   2  11
ATOM     11  O   UNL     1       9.990  -3.261  17.881  1.00  0.00    -0.389 OA
ATOM     12  H   UNL     1       9.295  -3.851  18.275  1.00  0.00     0.211 HD
ENDBRANCH   2  11
BRANCH   3  13
ATOM     13  C   UNL     1      12.304  -1.591  18.461  1.00  0.00    -0.001 A 
ATOM     14  C   UNL     1      12.602  -2.958  18.339  1.00  0.00     0.057 A 
ATOM     15  C   UNL     1      13.251  -0.733  19.046  1.00  0.00     0.012 A 
ATOM     16  C   UNL     1      13.836  -3.460  18.775  1.00  0.00     0.157 A 
ATOM     17  C   UNL     1      14.481  -1.232  19.480  1.00  0.00     0.050 A 
ATOM     18  C   UNL     1      14.781  -2.591  19.346  1.00  0.00     0.157 A 
BRANCH  16  19
ATOM     19  O   UNL     1      14.126  -4.818  18.644  1.00  0.00    -0.504 OA
ATOM     20  H   UNL     1      14.063  -5.452  19.432  1.00  0.00     0.293 HD
ENDBRANCH  16  19
BRANCH  18  21
ATOM     21  O   UNL     1      16.018  -3.059  19.789  1.00  0.00    -0.504 OA
ATOM     22  H   UNL     1      16.584  -3.690  19.234  1.00  0.00     0.293 HD
ENDBRANCH  18  21
ENDBRANCH   3  13
BRANCH   9  23
ATOM     23  O   UNL     1       5.880   0.025  18.122  1.00  0.00    -0.507 OA
ATOM     24  H   UNL     1       5.479   0.020  17.193  1.00  0.00     0.293 HD
ENDBRANCH   9  23
BRANCH   7  25
ATOM     25  O   UNL     1       8.045   4.125  19.456  1.00  0.00    -0.508 OA
ATOM     26  H   UNL     1       7.150   4.576  19.604  1.00  0.00     0.293 HD
ENDBRANCH   7  25
TORSDOF 6
ENDMDL
