MODEL 1
REMARK VINA RESULT:    -7.469      0.000      0.000
REMARK INTER + INTRA:         -10.379
REMARK INTER:                  -9.870
REMARK INTRA:                  -0.509
REMARK UNBOUND:                -0.509
REMARK SMILES CC[C@H](C=C[C@H](C)[C@@H]1CC[C@@H]2[C@H]3CC[C@@H]4C[C@H](O)CC[C@]4(C)[C@H]3CC[C@]21C)C(C)C
REMARK SMILES IDX 6 1 7 2 5 3 4 4 3 5 2 6 1 7 28 8 29 9 30 10 8 11 9 12 26 13
REMARK SMILES IDX 10 14 11 15 25 16 27 17 12 18 24 19 23 20 13 21 21 22 14 23
REMARK SMILES IDX 15 24 20 25 22 26 16 27 19 28 17 29 18 30
REMARK H PARENT 18 31
REMARK Flexibility Score: inf
ROOT
ATOM      1  C   UNL     1      12.258 -13.945  27.781  1.00  0.00     0.012 C 
ATOM      2  C   UNL     1      11.775 -14.991  26.761  1.00  0.00     0.012 C 
ENDROOT
BRANCH   1   3
ATOM      3  C   UNL     1      11.760 -14.274  29.178  1.00  0.00    -0.028 C 
ATOM      4  C   UNL     1      12.257 -15.275  29.931  1.00  0.00    -0.027 C 
BRANCH   4   5
ATOM      5  C   UNL     1      11.741 -15.609  31.319  1.00  0.00     0.014 C 
BRANCH   5   6
ATOM      6  C   UNL     1      10.202 -15.437  31.402  1.00  0.00     0.004 C 
ATOM      7  C   UNL     1       9.687 -15.307  32.836  1.00  0.00     0.004 C 
ENDBRANCH   5   6
BRANCH   5   8
ATOM      8  C   UNL     1      12.278 -16.975  31.854  1.00  0.00    -0.011 C 
ATOM      9  C   UNL     1      11.326 -18.162  31.633  1.00  0.00     0.008 C 
ATOM     10  C   UNL     1      13.660 -17.297  31.261  1.00  0.00     0.008 C 
ENDBRANCH   5   8
ENDBRANCH   4   5
ENDBRANCH   1   3
BRANCH   1  11
ATOM     11  C   UNL     1      13.798 -13.691  27.648  1.00  0.00     0.002 C 
ATOM     12  C   UNL     1      14.451 -12.746  28.688  1.00  0.00     0.005 C 
ATOM     13  C   UNL     1      14.321 -13.167  26.285  1.00  0.00    -0.026 C 
ATOM     14  C   UNL     1      15.692 -12.143  28.006  1.00  0.00     0.005 C 
ATOM     15  C   UNL     1      15.788 -12.871  26.667  1.00  0.00    -0.001 C 
ATOM     16  C   UNL     1      14.319 -14.209  25.143  1.00  0.00     0.007 C 
ATOM     17  C   UNL     1      13.516 -11.903  25.841  1.00  0.00     0.012 C 
ATOM     18  C   UNL     1      16.595 -12.237  25.512  1.00  0.00    -0.004 C 
ATOM     19  C   UNL     1      15.167 -13.735  23.933  1.00  0.00     0.005 C 
ATOM     20  C   UNL     1      16.603 -13.221  24.286  1.00  0.00    -0.001 C 
ATOM     21  C   UNL     1      18.009 -11.735  25.935  1.00  0.00     0.004 C 
ATOM     22  C   UNL     1      17.747 -14.346  24.274  1.00  0.00    -0.026 C 
ATOM     23  C   UNL     1      19.157 -12.409  25.183  1.00  0.00     0.004 C 
ATOM     24  C   UNL     1      18.948 -13.928  25.198  1.00  0.00    -0.002 C 
ATOM     25  C   UNL     1      18.231 -14.504  22.791  1.00  0.00     0.010 C 
ATOM     26  C   UNL     1      17.234 -15.729  24.771  1.00  0.00     0.012 C 
ATOM     27  C   UNL     1      20.265 -14.702  24.930  1.00  0.00     0.036 C 
ATOM     28  C   UNL     1      19.505 -15.342  22.621  1.00  0.00     0.032 C 
ATOM     29  C   UNL     1      20.657 -14.771  23.448  1.00  0.00     0.114 C 
BRANCH  29  30
ATOM     30  O   UNL     1      21.017 -13.504  22.961  1.00  0.00    -0.393 OA
ATOM     31  H   UNL     1      21.680 -13.653  22.237  1.00  0.00     0.210 HD
ENDBRANCH  29  30
ENDBRANCH   1  11
TORSDOF 6
ENDMDL
MODEL 2
REMARK VINA RESULT:    -7.449      2.033      3.651
REMARK INTER + INTRA:         -10.353
REMARK INTER:                  -9.590
REMARK INTRA:                  -0.763
REMARK UNBOUND:                -0.509
REMARK SMILES CC[C@H](C=C[C@H](C)[C@@H]1CC[C@@H]2[C@H]3CC[C@@H]4C[C@H](O)CC[C@]4(C)[C@H]3CC[C@]21C)C(C)C
REMARK SMILES IDX 6 1 7 2 5 3 4 4 3 5 2 6 1 7 28 8 29 9 30 10 8 11 9 12 26 13
REMARK SMILES IDX 10 14 11 15 25 16 27 17 12 18 24 19 23 20 13 21 21 22 14 23
REMARK SMILES IDX 15 24 20 25 22 26 16 27 19 28 17 29 18 30
REMARK H PARENT 18 31
REMARK Flexibility Score: inf
ROOT
ATOM      1  C   UNL     1      13.092 -16.351  30.157  1.00  0.00     0.012 C 
ATOM      2  C   UNL     1      14.323 -16.804  30.962  1.00  0.00     0.012 C 
ENDROOT
BRANCH   1   3
ATOM      3  C   UNL     1      11.825 -16.460  30.989  1.00  0.00    -0.028 C 
ATOM      4  C   UNL     1      11.583 -17.464  31.853  1.00  0.00    -0.027 C 
BRANCH   4   5
ATOM      5  C   UNL     1      10.306 -17.574  32.667  1.00  0.00     0.014 C 
BRANCH   5   6
ATOM      6  C   UNL     1       9.352 -16.387  32.376  1.00  0.00     0.004 C 
ATOM      7  C   UNL     1       9.676 -15.138  33.197  1.00  0.00     0.004 C 
ENDBRANCH   5   6
BRANCH   5   8
ATOM      8  C   UNL     1       9.646 -18.986  32.572  1.00  0.00    -0.011 C 
ATOM      9  C   UNL     1       9.910 -19.722  31.248  1.00  0.00     0.008 C 
ATOM     10  C   UNL     1      10.064 -19.875  33.755  1.00  0.00     0.008 C 
ENDBRANCH   5   8
ENDBRANCH   4   5
ENDBRANCH   1   3
BRANCH   1  11
ATOM     11  C   UNL     1      13.341 -14.965  29.471  1.00  0.00     0.002 C 
ATOM     12  C   UNL     1      12.133 -13.999  29.372  1.00  0.00     0.005 C 
ATOM     13  C   UNL     1      13.933 -14.972  28.038  1.00  0.00    -0.026 C 
ATOM     14  C   UNL     1      12.401 -13.094  28.156  1.00  0.00     0.005 C 
ATOM     15  C   UNL     1      13.808 -13.471  27.698  1.00  0.00    -0.001 C 
ATOM     16  C   UNL     1      15.426 -15.366  27.954  1.00  0.00     0.007 C 
ATOM     17  C   UNL     1      13.094 -15.904  27.105  1.00  0.00     0.012 C 
ATOM     18  C   UNL     1      14.253 -13.141  26.256  1.00  0.00    -0.004 C 
ATOM     19  C   UNL     1      16.034 -15.014  26.570  1.00  0.00     0.005 C 
ATOM     20  C   UNL     1      15.759 -13.556  26.071  1.00  0.00    -0.001 C 
ATOM     21  C   UNL     1      13.938 -11.678  25.820  1.00  0.00     0.004 C 
ATOM     22  C   UNL     1      16.861 -12.472  26.504  1.00  0.00    -0.026 C 
ATOM     23  C   UNL     1      15.175 -10.863  25.440  1.00  0.00     0.004 C 
ATOM     24  C   UNL     1      16.243 -11.028  26.529  1.00  0.00    -0.002 C 
ATOM     25  C   UNL     1      18.026 -12.548  25.457  1.00  0.00     0.010 C 
ATOM     26  C   UNL     1      17.454 -12.751  27.916  1.00  0.00     0.012 C 
ATOM     27  C   UNL     1      17.286  -9.881  26.501  1.00  0.00     0.036 C 
ATOM     28  C   UNL     1      19.045 -11.406  25.553  1.00  0.00     0.032 C 
ATOM     29  C   UNL     1      18.364 -10.044  25.421  1.00  0.00     0.114 C 
BRANCH  29  30
ATOM     30  O   UNL     1      17.815  -9.903  24.136  1.00  0.00    -0.393 OA
ATOM     31  H   UNL     1      17.432 -10.785  23.890  1.00  0.00     0.210 HD
ENDBRANCH  29  30
ENDBRANCH   1  11
TORSDOF 6
ENDMDL
MODEL 3
REMARK VINA RESULT:    -7.395      1.696      2.746
REMARK INTER + INTRA:         -10.282
REMARK INTER:                  -9.997
REMARK INTRA:                  -0.285
REMARK UNBOUND:                -0.509
REMARK SMILES CC[C@H](C=C[C@H](C)[C@@H]1CC[C@@H]2[C@H]3CC[C@@H]4C[C@H](O)CC[C@]4(C)[C@H]3CC[C@]21C)C(C)C
REMARK SMILES IDX 6 1 7 2 5 3 4 4 3 5 2 6 1 7 28 8 29 9 30 10 8 11 9 12 26 13
REMARK SMILES IDX 10 14 11 15 25 16 27 17 12 18 24 19 23 20 13 21 21 22 14 23
REMARK SMILES IDX 15 24 20 25 22 26 16 27 19 28 17 29 18 30
REMARK H PARENT 18 31
REMARK Flexibility Score: inf
ROOT
ATOM      1  C   UNL     1      12.633 -13.621  28.286  1.00  0.00     0.012 C 
ATOM      2  C   UNL     1      11.417 -13.277  27.407  1.00  0.00     0.012 C 
ENDROOT
BRANCH   1   3
ATOM      3  C   UNL     1      12.429 -14.942  29.008  1.00  0.00    -0.028 C 
ATOM      4  C   UNL     1      11.838 -15.052  30.214  1.00  0.00    -0.027 C 
BRANCH   4   5
ATOM      5  C   UNL     1      11.655 -16.375  30.935  1.00  0.00     0.014 C 
BRANCH   5   6
ATOM      6  C   UNL     1      13.020 -17.054  31.216  1.00  0.00     0.004 C 
ATOM      7  C   UNL     1      13.955 -16.198  32.071  1.00  0.00     0.004 C 
ENDBRANCH   5   6
BRANCH   5   8
ATOM      8  C   UNL     1      10.710 -16.264  32.174  1.00  0.00    -0.011 C 
ATOM      9  C   UNL     1       9.510 -15.323  31.976  1.00  0.00     0.008 C 
ATOM     10  C   UNL     1      10.217 -17.650  32.621  1.00  0.00     0.008 C 
ENDBRANCH   5   8
ENDBRANCH   4   5
ENDBRANCH   1   3
BRANCH   1  11
ATOM     11  C   UNL     1      13.970 -13.482  27.483  1.00  0.00     0.002 C 
ATOM     12  C   UNL     1      14.135 -12.222  26.597  1.00  0.00     0.005 C 
ATOM     13  C   UNL     1      14.368 -14.653  26.547  1.00  0.00    -0.026 C 
ATOM     14  C   UNL     1      15.110 -12.609  25.470  1.00  0.00     0.005 C 
ATOM     15  C   UNL     1      15.580 -14.016  25.834  1.00  0.00    -0.001 C 
ATOM     16  C   UNL     1      14.848 -15.931  27.273  1.00  0.00     0.007 C 
ATOM     17  C   UNL     1      13.186 -15.010  25.588  1.00  0.00     0.012 C 
ATOM     18  C   UNL     1      16.181 -14.925  24.739  1.00  0.00    -0.004 C 
ATOM     19  C   UNL     1      15.551 -16.913  26.298  1.00  0.00     0.005 C 
ATOM     20  C   UNL     1      16.656 -16.275  25.391  1.00  0.00    -0.001 C 
ATOM     21  C   UNL     1      17.265 -14.224  23.865  1.00  0.00     0.004 C 
ATOM     22  C   UNL     1      18.136 -16.291  26.012  1.00  0.00    -0.026 C 
ATOM     23  C   UNL     1      18.638 -14.893  23.925  1.00  0.00     0.004 C 
ATOM     24  C   UNL     1      19.014 -15.145  25.391  1.00  0.00    -0.002 C 
ATOM     25  C   UNL     1      18.762 -17.693  25.690  1.00  0.00     0.010 C 
ATOM     26  C   UNL     1      18.141 -16.098  27.557  1.00  0.00     0.012 C 
ATOM     27  C   UNL     1      20.542 -15.332  25.578  1.00  0.00     0.036 C 
ATOM     28  C   UNL     1      20.266 -17.799  25.971  1.00  0.00     0.032 C 
ATOM     29  C   UNL     1      21.049 -16.732  25.208  1.00  0.00     0.114 C 
BRANCH  29  30
ATOM     30  O   UNL     1      20.946 -16.956  23.825  1.00  0.00    -0.393 OA
ATOM     31  H   UNL     1      20.786 -16.071  23.403  1.00  0.00     0.210 HD
ENDBRANCH  29  30
ENDBRANCH   1  11
TORSDOF 6
ENDMDL
MODEL 4
REMARK VINA RESULT:    -6.703      2.938      5.910
REMARK INTER + INTRA:          -9.367
REMARK INTER:                  -9.180
REMARK INTRA:                  -0.187
REMARK UNBOUND:                -0.509
REMARK SMILES CC[C@H](C=C[C@H](C)[C@@H]1CC[C@@H]2[C@H]3CC[C@@H]4C[C@H](O)CC[C@]4(C)[C@H]3CC[C@]21C)C(C)C
REMARK SMILES IDX 6 1 7 2 5 3 4 4 3 5 2 6 1 7 28 8 29 9 30 10 8 11 9 12 26 13
REMARK SMILES IDX 10 14 11 15 25 16 27 17 12 18 24 19 23 20 13 21 21 22 14 23
REMARK SMILES IDX 15 24 20 25 22 26 16 27 19 28 17 29 18 30
REMARK H PARENT 18 31
REMARK Flexibility Score: inf
ROOT
ATOM      1  C   UNL     1      10.441 -17.181  32.461  1.00  0.00     0.012 C 
ATOM      2  C   UNL     1       9.443 -16.040  32.196  1.00  0.00     0.012 C 
ENDROOT
BRANCH   1   3
ATOM      3  C   UNL     1       9.717 -18.497  32.692  1.00  0.00    -0.028 C 
ATOM      4  C   UNL     1      10.266 -19.551  33.326  1.00  0.00    -0.027 C 
BRANCH   4   5
ATOM      5  C   UNL     1       9.541 -20.868  33.536  1.00  0.00     0.014 C 
BRANCH   5   6
ATOM      6  C   UNL     1       8.007 -20.657  33.619  1.00  0.00     0.004 C 
ATOM      7  C   UNL     1       7.446 -20.872  35.025  1.00  0.00     0.004 C 
ENDBRANCH   5   6
BRANCH   5   8
ATOM      8  C   UNL     1       9.997 -21.978  32.535  1.00  0.00    -0.011 C 
ATOM      9  C   UNL     1       9.551 -23.399  32.916  1.00  0.00     0.008 C 
ATOM     10  C   UNL     1       9.540 -21.654  31.103  1.00  0.00     0.008 C 
ENDBRANCH   5   8
ENDBRANCH   4   5
ENDBRANCH   1   3
BRANCH   1  11
ATOM     11  C   UNL     1      11.573 -17.207  31.379  1.00  0.00     0.002 C 
ATOM     12  C   UNL     1      12.771 -18.158  31.633  1.00  0.00     0.005 C 
ATOM     13  C   UNL     1      12.239 -15.857  31.008  1.00  0.00    -0.026 C 
ATOM     14  C   UNL     1      13.971 -17.553  30.882  1.00  0.00     0.005 C 
ATOM     15  C   UNL     1      13.386 -16.370  30.111  1.00  0.00    -0.001 C 
ATOM     16  C   UNL     1      11.356 -14.906  30.168  1.00  0.00     0.007 C 
ATOM     17  C   UNL     1      12.727 -15.117  32.296  1.00  0.00     0.012 C 
ATOM     18  C   UNL     1      14.322 -15.242  29.624  1.00  0.00    -0.004 C 
ATOM     19  C   UNL     1      12.187 -13.754  29.544  1.00  0.00     0.005 C 
ATOM     20  C   UNL     1      13.487 -14.200  28.794  1.00  0.00    -0.001 C 
ATOM     21  C   UNL     1      15.602 -15.756  28.898  1.00  0.00     0.004 C 
ATOM     22  C   UNL     1      13.294 -14.515  27.232  1.00  0.00    -0.026 C 
ATOM     23  C   UNL     1      15.731 -15.275  27.453  1.00  0.00     0.004 C 
ATOM     24  C   UNL     1      14.402 -15.507  26.722  1.00  0.00    -0.002 C 
ATOM     25  C   UNL     1      13.390 -13.150  26.465  1.00  0.00     0.010 C 
ATOM     26  C   UNL     1      11.911 -15.157  26.916  1.00  0.00     0.012 C 
ATOM     27  C   UNL     1      14.579 -15.536  25.182  1.00  0.00     0.036 C 
ATOM     28  C   UNL     1      13.494 -13.281  24.941  1.00  0.00     0.032 C 
ATOM     29  C   UNL     1      14.689 -14.146  24.540  1.00  0.00     0.114 C 
BRANCH  29  30
ATOM     30  O   UNL     1      15.887 -13.513  24.910  1.00  0.00    -0.393 OA
ATOM     31  H   UNL     1      16.610 -13.932  24.372  1.00  0.00     0.210 HD
ENDBRANCH  29  30
ENDBRANCH   1  11
TORSDOF 6
ENDMDL
MODEL 5
REMARK VINA RESULT:    -6.658      7.197     13.569
REMARK INTER + INTRA:          -9.307
REMARK INTER:                  -8.898
REMARK INTRA:                  -0.409
REMARK UNBOUND:                -0.509
REMARK SMILES CC[C@H](C=C[C@H](C)[C@@H]1CC[C@@H]2[C@H]3CC[C@@H]4C[C@H](O)CC[C@]4(C)[C@H]3CC[C@]21C)C(C)C
REMARK SMILES IDX 6 1 7 2 5 3 4 4 3 5 2 6 1 7 28 8 29 9 30 10 8 11 9 12 26 13
REMARK SMILES IDX 10 14 11 15 25 16 27 17 12 18 24 19 23 20 13 21 21 22 14 23
REMARK SMILES IDX 15 24 20 25 22 26 16 27 19 28 17 29 18 30
REMARK H PARENT 18 31
REMARK Flexibility Score: inf
ROOT
ATOM      1  C   UNL     1       9.641 -19.969  33.598  1.00  0.00     0.012 C 
ATOM      2  C   UNL     1      10.816 -20.916  33.298  1.00  0.00     0.012 C 
ENDROOT
BRANCH   1   3
ATOM      3  C   UNL     1       9.832 -18.628  32.909  1.00  0.00    -0.028 C 
ATOM      4  C   UNL     1      10.907 -18.320  32.157  1.00  0.00    -0.027 C 
BRANCH   4   5
ATOM      5  C   UNL     1      11.097 -16.971  31.488  1.00  0.00     0.014 C 
BRANCH   5   6
ATOM      6  C   UNL     1      10.613 -15.817  32.404  1.00  0.00     0.004 C 
ATOM      7  C   UNL     1       9.253 -15.253  31.994  1.00  0.00     0.004 C 
ENDBRANCH   5   6
BRANCH   5   8
ATOM      8  C   UNL     1      12.533 -16.784  30.900  1.00  0.00    -0.011 C 
ATOM      9  C   UNL     1      12.618 -15.772  29.745  1.00  0.00     0.008 C 
ATOM     10  C   UNL     1      13.537 -16.404  32.000  1.00  0.00     0.008 C 
ENDBRANCH   5   8
ENDBRANCH   4   5
ENDBRANCH   1   3
BRANCH   1  11
ATOM     11  C   UNL     1       8.265 -20.674  33.346  1.00  0.00     0.002 C 
ATOM     12  C   UNL     1       8.119 -22.135  33.841  1.00  0.00     0.005 C 
ATOM     13  C   UNL     1       7.740 -20.719  31.887  1.00  0.00    -0.026 C 
ATOM     14  C   UNL     1       7.052 -22.791  32.945  1.00  0.00     0.005 C 
ATOM     15  C   UNL     1       6.524 -21.651  32.077  1.00  0.00    -0.001 C 
ATOM     16  C   UNL     1       7.232 -19.365  31.337  1.00  0.00     0.007 C 
ATOM     17  C   UNL     1       8.835 -21.293  30.931  1.00  0.00     0.012 C 
ATOM     18  C   UNL     1       5.802 -21.977  30.751  1.00  0.00    -0.004 C 
ATOM     19  C   UNL     1       6.412 -19.549  30.033  1.00  0.00     0.005 C 
ATOM     20  C   UNL     1       5.290 -20.640  30.099  1.00  0.00    -0.001 C 
ATOM     21  C   UNL     1       4.708 -23.079  30.885  1.00  0.00     0.004 C 
ATOM     22  C   UNL     1       3.855 -20.109  30.582  1.00  0.00    -0.026 C 
ATOM     23  C   UNL     1       3.304 -22.610  30.503  1.00  0.00     0.004 C 
ATOM     24  C   UNL     1       3.009 -21.278  31.204  1.00  0.00    -0.002 C 
ATOM     25  C   UNL     1       3.128 -19.520  29.323  1.00  0.00     0.010 C 
ATOM     26  C   UNL     1       3.960 -18.986  31.654  1.00  0.00     0.012 C 
ATOM     27  C   UNL     1       1.487 -20.991  31.297  1.00  0.00     0.036 C 
ATOM     28  C   UNL     1       1.641 -19.207  29.534  1.00  0.00     0.032 C 
ATOM     29  C   UNL     1       0.875 -20.444  30.000  1.00  0.00     0.114 C 
BRANCH  29  30
ATOM     30  O   UNL     1       0.877 -21.421  28.991  1.00  0.00    -0.393 OA
ATOM     31  H   UNL     1       1.764 -21.866  29.024  1.00  0.00     0.210 HD
ENDBRANCH  29  30
ENDBRANCH   1  11
TORSDOF 6
ENDMDL
MODEL 6
REMARK VINA RESULT:    -6.349      8.535     10.783
REMARK INTER + INTRA:          -8.899
REMARK INTER:                  -8.776
REMARK INTRA:                  -0.123
REMARK UNBOUND:                -0.509
REMARK SMILES CC[C@H](C=C[C@H](C)[C@@H]1CC[C@@H]2[C@H]3CC[C@@H]4C[C@H](O)CC[C@]4(C)[C@H]3CC[C@]21C)C(C)C
REMARK SMILES IDX 6 1 7 2 5 3 4 4 3 5 2 6 1 7 28 8 29 9 30 10 8 11 9 12 26 13
REMARK SMILES IDX 10 14 11 15 25 16 27 17 12 18 24 19 23 20 13 21 21 22 14 23
REMARK SMILES IDX 15 24 20 25 22 26 16 27 19 28 17 29 18 30
REMARK H PARENT 18 31
REMARK Flexibility Score: inf
ROOT
ATOM      1  C   UNL     1      12.157 -24.871  22.724  1.00  0.00     0.012 C 
ATOM      2  C   UNL     1      11.341 -25.339  23.942  1.00  0.00     0.012 C 
ENDROOT
BRANCH   1   3
ATOM      3  C   UNL     1      11.583 -23.590  22.141  1.00  0.00    -0.028 C 
ATOM      4  C   UNL     1      10.303 -23.460  21.738  1.00  0.00    -0.027 C 
BRANCH   4   5
ATOM      5  C   UNL     1       9.743 -22.182  21.141  1.00  0.00     0.014 C 
BRANCH   5   6
ATOM      6  C   UNL     1      10.674 -21.627  20.031  1.00  0.00     0.004 C 
ATOM      7  C   UNL     1      10.649 -22.464  18.751  1.00  0.00     0.004 C 
ENDBRANCH   5   6
BRANCH   5   8
ATOM      8  C   UNL     1       8.240 -22.311  20.734  1.00  0.00    -0.011 C 
ATOM      9  C   UNL     1       7.440 -23.321  21.571  1.00  0.00     0.008 C 
ATOM     10  C   UNL     1       7.541 -20.942  20.760  1.00  0.00     0.008 C 
ENDBRANCH   5   8
ENDBRANCH   4   5
ENDBRANCH   1   3
BRANCH   1  11
ATOM     11  C   UNL     1      13.690 -24.847  23.043  1.00  0.00     0.002 C 
ATOM     12  C   UNL     1      14.340 -26.182  23.485  1.00  0.00     0.005 C 
ATOM     13  C   UNL     1      14.185 -23.822  24.096  1.00  0.00    -0.026 C 
ATOM     14  C   UNL     1      15.561 -25.805  24.344  1.00  0.00     0.005 C 
ATOM     15  C   UNL     1      15.651 -24.284  24.239  1.00  0.00    -0.001 C 
ATOM     16  C   UNL     1      14.185 -22.351  23.621  1.00  0.00     0.007 C 
ATOM     17  C   UNL     1      13.352 -23.947  25.413  1.00  0.00     0.012 C 
ATOM     18  C   UNL     1      16.431 -23.493  25.312  1.00  0.00    -0.004 C 
ATOM     19  C   UNL     1      15.008 -21.442  24.573  1.00  0.00     0.005 C 
ATOM     20  C   UNL     1      16.439 -21.969  24.926  1.00  0.00    -0.001 C 
ATOM     21  C   UNL     1      17.842 -24.078  25.624  1.00  0.00     0.004 C 
ATOM     22  C   UNL     1      17.603 -21.485  23.932  1.00  0.00    -0.026 C 
ATOM     23  C   UNL     1      18.991 -23.108  25.348  1.00  0.00     0.004 C 
ATOM     24  C   UNL     1      18.809 -22.493  23.955  1.00  0.00    -0.002 C 
ATOM     25  C   UNL     1      18.069 -20.067  24.414  1.00  0.00     0.010 C 
ATOM     26  C   UNL     1      17.122 -21.366  22.457  1.00  0.00     0.012 C 
ATOM     27  C   UNL     1      20.136 -21.921  23.391  1.00  0.00     0.036 C 
ATOM     28  C   UNL     1      19.355 -19.559  23.750  1.00  0.00     0.032 C 
ATOM     29  C   UNL     1      20.508 -20.541  23.951  1.00  0.00     0.114 C 
BRANCH  29  30
ATOM     30  O   UNL     1      20.839 -20.623  25.314  1.00  0.00    -0.393 OA
ATOM     31  H   UNL     1      20.003 -20.854  25.798  1.00  0.00     0.210 HD
ENDBRANCH  29  30
ENDBRANCH   1  11
TORSDOF 6
ENDMDL
MODEL 7
REMARK VINA RESULT:    -6.191      3.742      5.543
REMARK INTER + INTRA:          -8.691
REMARK INTER:                  -7.936
REMARK INTRA:                  -0.754
REMARK UNBOUND:                -0.509
REMARK SMILES CC[C@H](C=C[C@H](C)[C@@H]1CC[C@@H]2[C@H]3CC[C@@H]4C[C@H](O)CC[C@]4(C)[C@H]3CC[C@]21C)C(C)C
REMARK SMILES IDX 6 1 7 2 5 3 4 4 3 5 2 6 1 7 28 8 29 9 30 10 8 11 9 12 26 13
REMARK SMILES IDX 10 14 11 15 25 16 27 17 12 18 24 19 23 20 13 21 21 22 14 23
REMARK SMILES IDX 15 24 20 25 22 26 16 27 19 28 17 29 18 30
REMARK H PARENT 18 31
REMARK Flexibility Score: inf
ROOT
ATOM      1  C   UNL     1      16.370 -14.311  26.561  1.00  0.00     0.012 C 
ATOM      2  C   UNL     1      15.641 -14.115  25.221  1.00  0.00     0.012 C 
ENDROOT
BRANCH   1   3
ATOM      3  C   UNL     1      15.469 -13.951  27.731  1.00  0.00    -0.028 C 
ATOM      4  C   UNL     1      14.209 -14.406  27.871  1.00  0.00    -0.027 C 
BRANCH   4   5
ATOM      5  C   UNL     1      13.310 -14.026  29.034  1.00  0.00     0.014 C 
BRANCH   5   6
ATOM      6  C   UNL     1      12.168 -13.083  28.575  1.00  0.00     0.004 C 
ATOM      7  C   UNL     1      11.835 -13.220  27.088  1.00  0.00     0.004 C 
ENDBRANCH   5   6
BRANCH   5   8
ATOM      8  C   UNL     1      12.845 -15.261  29.870  1.00  0.00    -0.011 C 
ATOM      9  C   UNL     1      13.766 -15.612  31.050  1.00  0.00     0.008 C 
ATOM     10  C   UNL     1      11.402 -15.080  30.370  1.00  0.00     0.008 C 
ENDBRANCH   5   8
ENDBRANCH   4   5
ENDBRANCH   1   3
BRANCH   1  11
ATOM     11  C   UNL     1      17.052 -15.719  26.635  1.00  0.00     0.002 C 
ATOM     12  C   UNL     1      17.596 -16.169  28.015  1.00  0.00     0.005 C 
ATOM     13  C   UNL     1      18.227 -15.997  25.661  1.00  0.00    -0.026 C 
ATOM     14  C   UNL     1      18.737 -17.162  27.728  1.00  0.00     0.005 C 
ATOM     15  C   UNL     1      18.706 -17.357  26.213  1.00  0.00    -0.001 C 
ATOM     16  C   UNL     1      17.814 -16.191  24.184  1.00  0.00     0.007 C 
ATOM     17  C   UNL     1      19.297 -14.862  25.760  1.00  0.00     0.012 C 
ATOM     18  C   UNL     1      19.961 -17.893  25.489  1.00  0.00    -0.004 C 
ATOM     19  C   UNL     1      18.965 -16.804  23.344  1.00  0.00     0.005 C 
ATOM     20  C   UNL     1      19.638 -18.076  23.962  1.00  0.00    -0.001 C 
ATOM     21  C   UNL     1      20.587 -19.151  26.163  1.00  0.00     0.004 C 
ATOM     22  C   UNL     1      18.972 -19.472  23.531  1.00  0.00    -0.026 C 
ATOM     23  C   UNL     1      20.630 -20.383  25.260  1.00  0.00     0.004 C 
ATOM     24  C   UNL     1      19.254 -20.580  24.609  1.00  0.00    -0.002 C 
ATOM     25  C   UNL     1      19.598 -19.882  22.152  1.00  0.00     0.010 C 
ATOM     26  C   UNL     1      17.429 -19.372  23.356  1.00  0.00     0.012 C 
ATOM     27  C   UNL     1      19.048 -22.033  24.107  1.00  0.00     0.036 C 
ATOM     28  C   UNL     1      19.283 -21.316  21.710  1.00  0.00     0.032 C 
ATOM     29  C   UNL     1      19.726 -22.331  22.763  1.00  0.00     0.114 C 
BRANCH  29  30
ATOM     30  O   UNL     1      21.125 -22.314  22.889  1.00  0.00    -0.393 OA
ATOM     31  H   UNL     1      21.454 -23.183  22.538  1.00  0.00     0.210 HD
ENDBRANCH  29  30
ENDBRANCH   1  11
TORSDOF 6
ENDMDL
MODEL 8
REMARK VINA RESULT:    -6.156      2.057      4.074
REMARK INTER + INTRA:          -8.644
REMARK INTER:                  -7.872
REMARK INTRA:                  -0.772
REMARK UNBOUND:                -0.509
REMARK SMILES CC[C@H](C=C[C@H](C)[C@@H]1CC[C@@H]2[C@H]3CC[C@@H]4C[C@H](O)CC[C@]4(C)[C@H]3CC[C@]21C)C(C)C
REMARK SMILES IDX 6 1 7 2 5 3 4 4 3 5 2 6 1 7 28 8 29 9 30 10 8 11 9 12 26 13
REMARK SMILES IDX 10 14 11 15 25 16 27 17 12 18 24 19 23 20 13 21 21 22 14 23
REMARK SMILES IDX 15 24 20 25 22 26 16 27 19 28 17 29 18 30
REMARK H PARENT 18 31
REMARK Flexibility Score: inf
ROOT
ATOM      1  C   UNL     1      15.687 -11.256  27.111  1.00  0.00     0.012 C 
ATOM      2  C   UNL     1      15.564  -9.759  26.775  1.00  0.00     0.012 C 
ENDROOT
BRANCH   1   3
ATOM      3  C   UNL     1      14.320 -11.917  27.165  1.00  0.00    -0.028 C 
ATOM      4  C   UNL     1      13.842 -12.558  28.250  1.00  0.00    -0.027 C 
BRANCH   4   5
ATOM      5  C   UNL     1      12.482 -13.231  28.288  1.00  0.00     0.014 C 
BRANCH   5   6
ATOM      6  C   UNL     1      11.753 -13.101  26.926  1.00  0.00     0.004 C 
ATOM      7  C   UNL     1      11.679 -14.419  26.154  1.00  0.00     0.004 C 
ENDBRANCH   5   6
BRANCH   5   8
ATOM      8  C   UNL     1      12.540 -14.682  28.866  1.00  0.00    -0.011 C 
ATOM      9  C   UNL     1      13.928 -15.110  29.369  1.00  0.00     0.008 C 
ATOM     10  C   UNL     1      11.499 -14.875  29.981  1.00  0.00     0.008 C 
ENDBRANCH   5   8
ENDBRANCH   4   5
ENDBRANCH   1   3
BRANCH   1  11
ATOM     11  C   UNL     1      16.747 -11.958  26.197  1.00  0.00     0.002 C 
ATOM     12  C   UNL     1      17.330 -11.129  25.024  1.00  0.00     0.005 C 
ATOM     13  C   UNL     1      16.346 -13.305  25.539  1.00  0.00    -0.026 C 
ATOM     14  C   UNL     1      17.766 -12.142  23.951  1.00  0.00     0.005 C 
ATOM     15  C   UNL     1      17.557 -13.508  24.603  1.00  0.00    -0.001 C 
ATOM     16  C   UNL     1      16.276 -14.506  26.510  1.00  0.00     0.007 C 
ATOM     17  C   UNL     1      14.983 -13.160  24.788  1.00  0.00     0.012 C 
ATOM     18  C   UNL     1      17.426 -14.764  23.713  1.00  0.00    -0.004 C 
ATOM     19  C   UNL     1      16.221 -15.856  25.746  1.00  0.00     0.005 C 
ATOM     20  C   UNL     1      17.304 -16.036  24.629  1.00  0.00    -0.001 C 
ATOM     21  C   UNL     1      18.527 -14.874  22.616  1.00  0.00     0.004 C 
ATOM     22  C   UNL     1      18.678 -16.704  25.120  1.00  0.00    -0.026 C 
ATOM     23  C   UNL     1      19.391 -16.131  22.726  1.00  0.00     0.004 C 
ATOM     24  C   UNL     1      19.865 -16.291  24.176  1.00  0.00    -0.002 C 
ATOM     25  C   UNL     1      18.477 -18.259  25.093  1.00  0.00     0.010 C 
ATOM     26  C   UNL     1      19.065 -16.286  26.568  1.00  0.00     0.012 C 
ATOM     27  C   UNL     1      21.117 -17.200  24.283  1.00  0.00     0.036 C 
ATOM     28  C   UNL     1      19.764 -19.072  25.274  1.00  0.00     0.032 C 
ATOM     29  C   UNL     1      20.806 -18.701  24.220  1.00  0.00     0.114 C 
BRANCH  29  30
ATOM     30  O   UNL     1      20.350 -19.068  22.942  1.00  0.00    -0.393 OA
ATOM     31  H   UNL     1      19.492 -19.551  23.073  1.00  0.00     0.210 HD
ENDBRANCH  29  30
ENDBRANCH   1  11
TORSDOF 6
ENDMDL
