MODEL 1
REMARK VINA RESULT:     9.788      0.000      0.000
REMARK INTER + INTRA:          19.274
REMARK INTER:                  13.794
REMARK INTRA:                   5.480
REMARK UNBOUND:                 5.480
REMARK SMILES CC1=CCCC(C)=CCC(C)(C)C=CC1
REMARK SMILES IDX 2 1 3 2 1 3 4 4 5 5 6 6 7 7 8 8 15 10 14 11 13 12 10 13
REMARK SMILES IDX 11 14 12 15 9 16
REMARK H PARENT
REMARK Flexibility Score: 60.00
ROOT
ATOM      1  C   UNL     1      -3.388 -14.641 -12.497  1.00  0.00    -0.074 C 
ATOM      2  C   UNL     1      -4.417 -15.118 -13.241  1.00  0.00    -0.027 C 
ATOM      3  C   UNL     1      -3.499 -14.781 -10.998  1.00  0.00     0.039 C 
ENDROOT
BRANCH   2   4
ATOM      4  C   UNL     1      -4.543 -15.055 -14.746  1.00  0.00     0.032 C 
BRANCH   4   5
ATOM      5  C   UNL     1      -3.277 -14.516 -15.445  1.00  0.00     0.034 C 
BRANCH   5   6
ATOM      6  C   UNL     1      -3.489 -13.243 -16.250  1.00  0.00    -0.077 C 
ATOM      7  C   UNL     1      -4.695 -13.144 -17.151  1.00  0.00     0.039 C 
ATOM      8  C   UNL     1      -2.659 -12.179 -16.188  1.00  0.00    -0.027 CG0
ATOM      9  G   UNL     1      -1.401 -12.109 -15.350  1.00  0.00     0.000 G0
ENDBRANCH   5   6
ENDBRANCH   4   5
ENDBRANCH   2   4
BRANCH   1  10
ATOM     10  C   UNL     1      -2.165 -13.933 -13.066  1.00  0.00     0.057 C 
BRANCH  10  11
ATOM     11  C   UNL     1      -1.415 -14.831 -14.022  1.00  0.00    -0.026 C 
ATOM     12  C   UNL     1      -0.625 -14.466 -15.058  1.00  0.00    -0.024 C 
BRANCH  12  13
ATOM     13  C   UNL     1      -0.289 -13.056 -15.569  1.00  0.00    -0.014 C 
ATOM     14  C   UNL     1      -0.067 -13.151 -17.099  1.00  0.00     0.016 C 
ATOM     15  C   UNL     1       1.040 -12.577 -14.947  1.00  0.00     0.016 C 
BRANCH  13  16
ATOM     16  C   UNL     1      -1.421 -12.014 -15.307  1.00  0.00     0.038 CG0
ATOM     17  G   UNL     1      -2.644 -12.242 -16.169  1.00  0.00     0.000 G0
ENDBRANCH  13  16
ENDBRANCH  12  13
ENDBRANCH  10  11
ENDBRANCH   1  10
TORSDOF 0
ENDMDL
MODEL 2
REMARK VINA RESULT:    11.854      1.743      4.814
REMARK INTER + INTRA:          22.184
REMARK INTER:                  19.771
REMARK INTRA:                   2.413
REMARK UNBOUND:                 5.480
REMARK SMILES CC1=CCCC(C)=CCC(C)(C)C=CC1
REMARK SMILES IDX 2 1 3 2 1 3 4 4 5 5 6 6 7 7 8 8 15 10 14 11 13 12 10 13
REMARK SMILES IDX 11 14 12 15 9 16
REMARK H PARENT
REMARK Flexibility Score: 60.00
ROOT
ATOM      1  C   UNL     1      -1.138 -11.712 -15.428  1.00  0.00    -0.074 C 
ATOM      2  C   UNL     1      -0.090 -12.308 -14.806  1.00  0.00    -0.027 C 
ATOM      3  C   UNL     1      -1.100 -10.208 -15.555  1.00  0.00     0.039 C 
ENDROOT
BRANCH   2   4
ATOM      4  C   UNL     1       0.070 -13.785 -14.532  1.00  0.00     0.032 C 
BRANCH   4   5
ATOM      5  C   UNL     1      -1.263 -14.561 -14.552  1.00  0.00     0.034 C 
BRANCH   5   6
ATOM      6  C   UNL     1      -2.152 -14.331 -13.339  1.00  0.00    -0.077 C 
ATOM      7  C   UNL     1      -1.530 -13.793 -12.074  1.00  0.00     0.039 C 
ATOM      8  C   UNL     1      -3.482 -14.566 -13.338  1.00  0.00    -0.027 CG0
ATOM      9  G   UNL     1      -4.266 -15.114 -14.510  1.00  0.00     0.000 G0
ENDBRANCH   5   6
ENDBRANCH   4   5
ENDBRANCH   2   4
BRANCH   1  10
ATOM     10  C   UNL     1      -2.363 -12.448 -15.956  1.00  0.00     0.057 C 
BRANCH  10  11
ATOM     11  C   UNL     1      -3.624 -11.948 -15.292  1.00  0.00    -0.026 C 
ATOM     12  C   UNL     1      -4.750 -12.645 -15.014  1.00  0.00    -0.024 C 
BRANCH  12  13
ATOM     13  C   UNL     1      -5.075 -14.117 -15.313  1.00  0.00    -0.014 C 
ATOM     14  C   UNL     1      -4.826 -14.358 -16.823  1.00  0.00     0.016 C 
ATOM     15  C   UNL     1      -6.572 -14.385 -15.052  1.00  0.00     0.016 C 
BRANCH  13  16
ATOM     16  C   UNL     1      -4.193 -15.124 -14.509  1.00  0.00     0.038 CG0
ATOM     17  G   UNL     1      -3.543 -14.497 -13.294  1.00  0.00     0.000 G0
ENDBRANCH  13  16
ENDBRANCH  12  13
ENDBRANCH  10  11
ENDBRANCH   1  10
TORSDOF 0
ENDMDL
