MODEL 1
REMARK VINA RESULT:    -4.113      0.000      0.000
REMARK INTER + INTRA:          -5.961
REMARK INTER:                  -5.796
REMARK INTRA:                  -0.165
REMARK UNBOUND:                -0.165
REMARK SMILES CCCCCCCCC(=O)[O-]
REMARK SMILES IDX 6 1 7 2 8 3 9 4 10 5 11 6 5 7 4 8 3 9 2 10 1 11
REMARK H PARENT
REMARK Flexibility Score: inf
ROOT
ATOM      1  C   UNL     1     303.138 323.752 648.240  1.00  0.00     0.000 C 
ENDROOT
BRANCH   1   2
ATOM      2  C   UNL     1     304.038 322.514 648.443  1.00  0.00     0.006 C 
BRANCH   2   3
ATOM      3  C   UNL     1     304.983 322.664 649.642  1.00  0.00     0.053 C 
BRANCH   3   4
ATOM      4  C   UNL     1     305.265 321.330 650.256  1.00  0.00     0.041 C 
ATOM      5  O   UNL     1     306.028 321.238 651.253  1.00  0.00    -0.550 OA
ATOM      6  O   UNL     1     304.646 320.191 649.756  1.00  0.00    -0.550 OA
ENDBRANCH   3   4
ENDBRANCH   2   3
ENDBRANCH   1   2
BRANCH   1   7
ATOM      7  C   UNL     1     301.820 323.447 647.503  1.00  0.00     0.000 C 
BRANCH   7   8
ATOM      8  C   UNL     1     300.671 324.430 647.798  1.00  0.00    -0.000 C 
BRANCH   8   9
ATOM      9  C   UNL     1     299.287 323.993 647.276  1.00  0.00    -0.000 C 
BRANCH   9  10
ATOM     10  C   UNL     1     298.989 324.379 645.818  1.00  0.00    -0.003 C 
ATOM     11  C   UNL     1     298.875 325.889 645.611  1.00  0.00     0.004 C 
ENDBRANCH   9  10
ENDBRANCH   8   9
ENDBRANCH   7   8
ENDBRANCH   1   7
TORSDOF 7
ENDMDL
MODEL 2
REMARK VINA RESULT:    -4.079      0.806      1.050
REMARK INTER + INTRA:          -5.913
REMARK INTER:                  -5.653
REMARK INTRA:                  -0.260
REMARK UNBOUND:                -0.165
REMARK SMILES CCCCCCCCC(=O)[O-]
REMARK SMILES IDX 6 1 7 2 8 3 9 4 10 5 11 6 5 7 4 8 3 9 2 10 1 11
REMARK H PARENT
REMARK Flexibility Score: inf
ROOT
ATOM      1  C   UNL     1     303.429 322.766 647.543  1.00  0.00     0.000 C 
ENDROOT
BRANCH   1   2
ATOM      2  C   UNL     1     304.376 321.869 648.369  1.00  0.00     0.006 C 
BRANCH   2   3
ATOM      3  C   UNL     1     304.858 322.552 649.656  1.00  0.00     0.053 C 
BRANCH   3   4
ATOM      4  C   UNL     1     305.422 321.542 650.604  1.00  0.00     0.041 C 
ATOM      5  O   UNL     1     306.243 321.893 651.491  1.00  0.00    -0.550 OA
ATOM      6  O   UNL     1     305.004 320.218 650.538  1.00  0.00    -0.550 OA
ENDBRANCH   3   4
ENDBRANCH   2   3
ENDBRANCH   1   2
BRANCH   1   7
ATOM      7  C   UNL     1     302.955 324.025 648.294  1.00  0.00     0.000 C 
BRANCH   7   8
ATOM      8  C   UNL     1     301.688 324.685 647.715  1.00  0.00    -0.000 C 
BRANCH   8   9
ATOM      9  C   UNL     1     300.501 323.728 647.481  1.00  0.00    -0.000 C 
BRANCH   9  10
ATOM     10  C   UNL     1     299.226 324.393 646.936  1.00  0.00    -0.003 C 
ATOM     11  C   UNL     1     299.167 324.411 645.410  1.00  0.00     0.004 C 
ENDBRANCH   9  10
ENDBRANCH   8   9
ENDBRANCH   7   8
ENDBRANCH   1   7
TORSDOF 7
ENDMDL
MODEL 3
REMARK VINA RESULT:    -3.937      1.577      2.754
REMARK INTER + INTRA:          -5.712
REMARK INTER:                  -5.222
REMARK INTRA:                  -0.490
REMARK UNBOUND:                -0.165
REMARK SMILES CCCCCCCCC(=O)[O-]
REMARK SMILES IDX 6 1 7 2 8 3 9 4 10 5 11 6 5 7 4 8 3 9 2 10 1 11
REMARK H PARENT
REMARK Flexibility Score: inf
ROOT
ATOM      1  C   UNL     1     300.481 324.409 647.873  1.00  0.00     0.000 C 
ENDROOT
BRANCH   1   2
ATOM      2  C   UNL     1     301.766 323.636 647.506  1.00  0.00     0.006 C 
BRANCH   2   3
ATOM      3  C   UNL     1     303.020 324.242 648.149  1.00  0.00     0.053 C 
BRANCH   3   4
ATOM      4  C   UNL     1     303.940 323.161 648.621  1.00  0.00     0.041 C 
ATOM      5  O   UNL     1     304.500 323.252 649.745  1.00  0.00    -0.550 OA
ATOM      6  O   UNL     1     304.141 322.030 647.840  1.00  0.00    -0.550 OA
ENDBRANCH   3   4
ENDBRANCH   2   3
ENDBRANCH   1   2
BRANCH   1   7
ATOM      7  C   UNL     1     299.226 323.916 647.128  1.00  0.00     0.000 C 
BRANCH   7   8
ATOM      8  C   UNL     1     298.886 324.697 645.844  1.00  0.00    -0.000 C 
BRANCH   8   9
ATOM      9  C   UNL     1     298.879 326.232 645.995  1.00  0.00    -0.000 C 
BRANCH   9  10
ATOM     10  C   UNL     1     299.814 326.985 645.034  1.00  0.00    -0.003 C 
ATOM     11  C   UNL     1     301.242 327.108 645.563  1.00  0.00     0.004 C 
ENDBRANCH   9  10
ENDBRANCH   8   9
ENDBRANCH   7   8
ENDBRANCH   1   7
TORSDOF 7
ENDMDL
MODEL 4
REMARK VINA RESULT:    -3.927      3.957      6.715
REMARK INTER + INTRA:          -5.699
REMARK INTER:                  -5.390
REMARK INTRA:                  -0.308
REMARK UNBOUND:                -0.165
REMARK SMILES CCCCCCCCC(=O)[O-]
REMARK SMILES IDX 6 1 7 2 8 3 9 4 10 5 11 6 5 7 4 8 3 9 2 10 1 11
REMARK H PARENT
REMARK Flexibility Score: inf
ROOT
ATOM      1  C   UNL     1     302.088 324.564 647.879  1.00  0.00     0.000 C 
ENDROOT
BRANCH   1   2
ATOM      2  C   UNL     1     300.955 323.586 647.499  1.00  0.00     0.006 C 
BRANCH   2   3
ATOM      3  C   UNL     1     299.562 324.210 647.659  1.00  0.00     0.053 C 
BRANCH   3   4
ATOM      4  C   UNL     1     299.207 325.013 646.448  1.00  0.00     0.041 C 
ATOM      5  O   UNL     1     298.876 324.437 645.379  1.00  0.00    -0.550 OA
ATOM      6  O   UNL     1     299.195 326.401 646.515  1.00  0.00    -0.550 OA
ENDBRANCH   3   4
ENDBRANCH   2   3
ENDBRANCH   1   2
BRANCH   1   7
ATOM      7  C   UNL     1     303.356 323.868 648.409  1.00  0.00     0.000 C 
BRANCH   7   8
ATOM      8  C   UNL     1     303.564 322.428 647.901  1.00  0.00    -0.000 C 
BRANCH   8   9
ATOM      9  C   UNL     1     304.594 321.597 648.695  1.00  0.00    -0.000 C 
BRANCH   9  10
ATOM     10  C   UNL     1     305.270 322.339 649.860  1.00  0.00    -0.003 C 
ATOM     11  C   UNL     1     305.720 321.404 650.982  1.00  0.00     0.004 C 
ENDBRANCH   9  10
ENDBRANCH   8   9
ENDBRANCH   7   8
ENDBRANCH   1   7
TORSDOF 7
ENDMDL
MODEL 5
REMARK VINA RESULT:    -3.700      2.320      3.543
REMARK INTER + INTRA:          -5.380
REMARK INTER:                  -4.634
REMARK INTRA:                  -0.746
REMARK UNBOUND:                -0.165
REMARK SMILES CCCCCCCCC(=O)[O-]
REMARK SMILES IDX 6 1 7 2 8 3 9 4 10 5 11 6 5 7 4 8 3 9 2 10 1 11
REMARK H PARENT
REMARK Flexibility Score: inf
ROOT
ATOM      1  C   UNL     1     301.801 324.946 644.655  1.00  0.00     0.000 C 
ENDROOT
BRANCH   1   2
ATOM      2  C   UNL     1     302.729 323.998 645.444  1.00  0.00     0.006 C 
BRANCH   2   3
ATOM      3  C   UNL     1     303.356 324.675 646.670  1.00  0.00     0.053 C 
BRANCH   3   4
ATOM      4  C   UNL     1     303.545 323.684 647.774  1.00  0.00     0.041 C 
ATOM      5  O   UNL     1     302.754 322.713 647.898  1.00  0.00    -0.550 OA
ATOM      6  O   UNL     1     304.626 323.807 648.638  1.00  0.00    -0.550 OA
ENDBRANCH   3   4
ENDBRANCH   2   3
ENDBRANCH   1   2
BRANCH   1   7
ATOM      7  C   UNL     1     300.446 324.316 644.278  1.00  0.00     0.000 C 
BRANCH   7   8
ATOM      8  C   UNL     1     299.302 324.597 645.270  1.00  0.00    -0.000 C 
BRANCH   8   9
ATOM      9  C   UNL     1     299.644 325.594 646.397  1.00  0.00    -0.000 C 
BRANCH   9  10
ATOM     10  C   UNL     1     299.682 324.990 647.811  1.00  0.00    -0.003 C 
ATOM     11  C   UNL     1     299.302 323.510 647.839  1.00  0.00     0.004 C 
ENDBRANCH   9  10
ENDBRANCH   8   9
ENDBRANCH   7   8
ENDBRANCH   1   7
TORSDOF 7
ENDMDL
MODEL 6
REMARK VINA RESULT:    -3.572      1.587      2.065
REMARK INTER + INTRA:          -5.199
REMARK INTER:                  -4.736
REMARK INTRA:                  -0.463
REMARK UNBOUND:                -0.165
REMARK SMILES CCCCCCCCC(=O)[O-]
REMARK SMILES IDX 6 1 7 2 8 3 9 4 10 5 11 6 5 7 4 8 3 9 2 10 1 11
REMARK H PARENT
REMARK Flexibility Score: inf
ROOT
ATOM      1  C   UNL     1     303.316 323.800 646.215  1.00  0.00     0.000 C 
ENDROOT
BRANCH   1   2
ATOM      2  C   UNL     1     303.119 323.247 647.643  1.00  0.00     0.006 C 
BRANCH   2   3
ATOM      3  C   UNL     1     304.045 322.063 647.948  1.00  0.00     0.053 C 
BRANCH   3   4
ATOM      4  C   UNL     1     304.842 322.327 649.185  1.00  0.00     0.041 C 
ATOM      5  O   UNL     1     304.478 323.218 649.996  1.00  0.00    -0.550 OA
ATOM      6  O   UNL     1     305.962 321.554 649.468  1.00  0.00    -0.550 OA
ENDBRANCH   3   4
ENDBRANCH   2   3
ENDBRANCH   1   2
BRANCH   1   7
ATOM      7  C   UNL     1     302.047 324.435 645.615  1.00  0.00     0.000 C 
BRANCH   7   8
ATOM      8  C   UNL     1     301.448 325.590 646.441  1.00  0.00    -0.000 C 
BRANCH   8   9
ATOM      9  C   UNL     1     299.907 325.647 646.464  1.00  0.00    -0.000 C 
BRANCH   9  10
ATOM     10  C   UNL     1     299.204 324.279 646.426  1.00  0.00    -0.003 C 
ATOM     11  C   UNL     1     299.181 323.581 647.785  1.00  0.00     0.004 C 
ENDBRANCH   9  10
ENDBRANCH   8   9
ENDBRANCH   7   8
ENDBRANCH   1   7
TORSDOF 7
ENDMDL
MODEL 7
REMARK VINA RESULT:    -3.511      2.782      4.445
REMARK INTER + INTRA:          -5.112
REMARK INTER:                  -4.616
REMARK INTRA:                  -0.496
REMARK UNBOUND:                -0.165
REMARK SMILES CCCCCCCCC(=O)[O-]
REMARK SMILES IDX 6 1 7 2 8 3 9 4 10 5 11 6 5 7 4 8 3 9 2 10 1 11
REMARK H PARENT
REMARK Flexibility Score: inf
ROOT
ATOM      1  C   UNL     1     299.097 325.346 646.482  1.00  0.00     0.000 C 
ENDROOT
BRANCH   1   2
ATOM      2  C   UNL     1     299.795 324.840 647.762  1.00  0.00     0.006 C 
BRANCH   2   3
ATOM      3  C   UNL     1     300.653 323.593 647.511  1.00  0.00     0.053 C 
BRANCH   3   4
ATOM      4  C   UNL     1     302.104 323.912 647.689  1.00  0.00     0.041 C 
ATOM      5  O   UNL     1     302.491 325.109 647.727  1.00  0.00    -0.550 OA
ATOM      6  O   UNL     1     303.023 322.884 647.863  1.00  0.00    -0.550 OA
ENDBRANCH   3   4
ENDBRANCH   2   3
ENDBRANCH   1   2
BRANCH   1   7
ATOM      7  C   UNL     1     299.312 324.437 645.257  1.00  0.00     0.000 C 
BRANCH   7   8
ATOM      8  C   UNL     1     300.293 324.989 644.205  1.00  0.00    -0.000 C 
BRANCH   8   9
ATOM      9  C   UNL     1     299.946 326.389 643.658  1.00  0.00    -0.000 C 
BRANCH   9  10
ATOM     10  C   UNL     1     300.922 327.506 644.063  1.00  0.00    -0.003 C 
ATOM     11  C   UNL     1     300.316 328.499 645.053  1.00  0.00     0.004 C 
ENDBRANCH   9  10
ENDBRANCH   8   9
ENDBRANCH   7   8
ENDBRANCH   1   7
TORSDOF 7
ENDMDL
