MODEL 1
REMARK VINA RESULT:    -3.559      0.000      0.000
REMARK INTER + INTRA:          -8.400
REMARK INTER:                  -6.680
REMARK INTRA:                  -1.720
REMARK UNBOUND:                -1.720
REMARK SMILES O=C([O-])CCCCCCCCCCCCCCC(=O)[O-]
REMARK SMILES IDX 10 1 9 2 8 3 7 4 6 5 5 6 4 7 2 8 1 9 3 10 11 11 12 12 13 13
REMARK SMILES IDX 14 14 15 15 16 16 17 17 18 18 19 19 20 20
REMARK H PARENT
REMARK Flexibility Score: inf
ROOT
ATOM      1  C   UNL     1     -92.893 146.367 240.977  1.00  0.00     0.000 C 
ENDROOT
BRANCH   1   2
ATOM      2  C   UNL     1     -93.285 145.306 242.017  1.00  0.00     0.000 C 
BRANCH   2   3
ATOM      3  C   UNL     1     -94.522 145.708 242.835  1.00  0.00     0.000 C 
BRANCH   3   4
ATOM      4  C   UNL     1     -95.781 145.732 241.954  1.00  0.00     0.000 C 
BRANCH   4   5
ATOM      5  C   UNL     1     -96.642 146.988 242.200  1.00  0.00     0.000 C 
BRANCH   5   6
ATOM      6  C   UNL     1     -95.834 148.202 242.692  1.00  0.00     0.006 C 
BRANCH   6   7
ATOM      7  C   UNL     1     -96.718 149.403 243.047  1.00  0.00     0.053 C 
BRANCH   7   8
ATOM      8  C   UNL     1     -97.711 149.027 244.101  1.00  0.00     0.041 C 
ATOM      9  O   UNL     1     -98.944 149.168 243.890  1.00  0.00    -0.550 OA
ATOM     10  O   UNL     1     -97.273 148.564 245.336  1.00  0.00    -0.550 OA
ENDBRANCH   7   8
ENDBRANCH   6   7
ENDBRANCH   5   6
ENDBRANCH   4   5
ENDBRANCH   3   4
ENDBRANCH   2   3
ENDBRANCH   1   2
BRANCH   1  11
ATOM     11  C   UNL     1     -92.968 145.842 239.536  1.00  0.00     0.000 C 
BRANCH  11  12
ATOM     12  C   UNL     1     -93.981 146.650 238.711  1.00  0.00     0.000 C 
BRANCH  12  13
ATOM     13  C   UNL     1     -94.349 147.990 239.369  1.00  0.00     0.000 C 
BRANCH  13  14
ATOM     14  C   UNL     1     -95.562 148.663 238.706  1.00  0.00     0.000 C 
BRANCH  14  15
ATOM     15  C   UNL     1     -95.395 148.789 237.176  1.00  0.00     0.000 C 
BRANCH  15  16
ATOM     16  C   UNL     1     -94.657 150.070 236.742  1.00  0.00     0.006 C 
BRANCH  16  17
ATOM     17  C   UNL     1     -95.366 150.850 235.625  1.00  0.00     0.053 C 
BRANCH  17  18
ATOM     18  C   UNL     1     -96.170 151.992 236.167  1.00  0.00     0.041 C 
ATOM     19  O   UNL     1     -95.894 152.488 237.292  1.00  0.00    -0.550 OA
ATOM     20  O   UNL     1     -97.216 152.523 235.421  1.00  0.00    -0.550 OA
ENDBRANCH  17  18
ENDBRANCH  16  17
ENDBRANCH  15  16
ENDBRANCH  14  15
ENDBRANCH  13  14
ENDBRANCH  12  13
ENDBRANCH  11  12
ENDBRANCH   1  11
TORSDOF 15
ENDMDL
MODEL 2
REMARK VINA RESULT:    -3.551      3.298      6.064
REMARK INTER + INTRA:          -8.385
REMARK INTER:                  -6.846
REMARK INTRA:                  -1.539
REMARK UNBOUND:                -1.720
REMARK SMILES O=C([O-])CCCCCCCCCCCCCCC(=O)[O-]
REMARK SMILES IDX 10 1 9 2 8 3 7 4 6 5 5 6 4 7 2 8 1 9 3 10 11 11 12 12 13 13
REMARK SMILES IDX 14 14 15 15 16 16 17 17 18 18 19 19 20 20
REMARK H PARENT
REMARK Flexibility Score: inf
ROOT
ATOM      1  C   UNL     1     -92.860 147.189 241.241  1.00  0.00     0.000 C 
ENDROOT
BRANCH   1   2
ATOM      2  C   UNL     1     -92.728 145.658 241.196  1.00  0.00     0.000 C 
BRANCH   2   3
ATOM      3  C   UNL     1     -91.936 145.169 239.974  1.00  0.00     0.000 C 
BRANCH   3   4
ATOM      4  C   UNL     1     -92.817 145.159 238.715  1.00  0.00     0.000 C 
BRANCH   4   5
ATOM      5  C   UNL     1     -91.993 144.955 237.427  1.00  0.00     0.000 C 
BRANCH   5   6
ATOM      6  C   UNL     1     -92.737 145.371 236.146  1.00  0.00     0.006 C 
BRANCH   6   7
ATOM      7  C   UNL     1     -92.268 146.722 235.595  1.00  0.00     0.053 C 
BRANCH   7   8
ATOM      8  C   UNL     1     -91.577 146.538 234.281  1.00  0.00     0.041 C 
ATOM      9  O   UNL     1     -92.199 146.735 233.204  1.00  0.00    -0.550 OA
ATOM     10  O   UNL     1     -90.258 146.103 234.243  1.00  0.00    -0.550 OA
ENDBRANCH   7   8
ENDBRANCH   6   7
ENDBRANCH   5   6
ENDBRANCH   4   5
ENDBRANCH   3   4
ENDBRANCH   2   3
ENDBRANCH   1   2
BRANCH   1  11
ATOM     11  C   UNL     1     -94.268 147.650 241.647  1.00  0.00     0.000 C 
BRANCH  11  12
ATOM     12  C   UNL     1     -95.231 147.582 240.453  1.00  0.00     0.000 C 
BRANCH  12  13
ATOM     13  C   UNL     1     -94.695 148.318 239.214  1.00  0.00     0.000 C 
BRANCH  13  14
ATOM     14  C   UNL     1     -95.148 147.669 237.895  1.00  0.00     0.000 C 
BRANCH  14  15
ATOM     15  C   UNL     1     -95.344 148.710 236.771  1.00  0.00     0.000 C 
BRANCH  15  16
ATOM     16  C   UNL     1     -94.862 150.123 237.152  1.00  0.00     0.006 C 
BRANCH  16  17
ATOM     17  C   UNL     1     -95.418 151.236 236.251  1.00  0.00     0.053 C 
BRANCH  17  18
ATOM     18  C   UNL     1     -96.423 152.083 236.970  1.00  0.00     0.041 C 
ATOM     19  O   UNL     1     -96.091 153.202 237.441  1.00  0.00    -0.550 OA
ATOM     20  O   UNL     1     -97.734 151.643 237.104  1.00  0.00    -0.550 OA
ENDBRANCH  17  18
ENDBRANCH  16  17
ENDBRANCH  15  16
ENDBRANCH  14  15
ENDBRANCH  13  14
ENDBRANCH  12  13
ENDBRANCH  11  12
ENDBRANCH   1  11
TORSDOF 15
ENDMDL
MODEL 3
REMARK VINA RESULT:    -3.550      1.450      2.303
REMARK INTER + INTRA:          -8.382
REMARK INTER:                  -6.953
REMARK INTRA:                  -1.430
REMARK UNBOUND:                -1.720
REMARK SMILES O=C([O-])CCCCCCCCCCCCCCC(=O)[O-]
REMARK SMILES IDX 10 1 9 2 8 3 7 4 6 5 5 6 4 7 2 8 1 9 3 10 11 11 12 12 13 13
REMARK SMILES IDX 14 14 15 15 16 16 17 17 18 18 19 19 20 20
REMARK H PARENT
REMARK Flexibility Score: inf
ROOT
ATOM      1  C   UNL     1     -93.032 145.251 238.530  1.00  0.00     0.000 C 
ENDROOT
BRANCH   1   2
ATOM      2  C   UNL     1     -91.660 144.942 239.152  1.00  0.00     0.000 C 
BRANCH   2   3
ATOM      3  C   UNL     1     -91.627 145.195 240.667  1.00  0.00     0.000 C 
BRANCH   3   4
ATOM      4  C   UNL     1     -92.988 145.704 241.170  1.00  0.00     0.000 C 
BRANCH   4   5
ATOM      5  C   UNL     1     -92.957 147.208 241.513  1.00  0.00     0.000 C 
BRANCH   5   6
ATOM      6  C   UNL     1     -94.354 147.832 241.676  1.00  0.00     0.006 C 
BRANCH   6   7
ATOM      7  C   UNL     1     -95.327 146.925 242.439  1.00  0.00     0.053 C 
BRANCH   7   8
ATOM      8  C   UNL     1     -96.408 147.739 243.075  1.00  0.00     0.041 C 
ATOM      9  O   UNL     1     -96.269 148.983 243.212  1.00  0.00    -0.550 OA
ATOM     10  O   UNL     1     -97.552 147.119 243.563  1.00  0.00    -0.550 OA
ENDBRANCH   7   8
ENDBRANCH   6   7
ENDBRANCH   5   6
ENDBRANCH   4   5
ENDBRANCH   3   4
ENDBRANCH   2   3
ENDBRANCH   1   2
BRANCH   1  11
ATOM     11  C   UNL     1     -92.920 145.931 237.158  1.00  0.00     0.000 C 
BRANCH  11  12
ATOM     12  C   UNL     1     -94.093 146.897 236.929  1.00  0.00     0.000 C 
BRANCH  12  13
ATOM     13  C   UNL     1     -94.827 147.260 238.231  1.00  0.00     0.000 C 
BRANCH  13  14
ATOM     14  C   UNL     1     -95.315 148.718 238.251  1.00  0.00     0.000 C 
BRANCH  14  15
ATOM     15  C   UNL     1     -95.539 149.277 236.828  1.00  0.00     0.000 C 
BRANCH  15  16
ATOM     16  C   UNL     1     -94.921 150.672 236.614  1.00  0.00     0.006 C 
BRANCH  16  17
ATOM     17  C   UNL     1     -95.908 151.713 236.063  1.00  0.00     0.053 C 
BRANCH  17  18
ATOM     18  C   UNL     1     -96.622 152.438 237.162  1.00  0.00     0.041 C 
ATOM     19  O   UNL     1     -96.311 153.624 237.450  1.00  0.00    -0.550 OA
ATOM     20  O   UNL     1     -97.646 151.808 237.859  1.00  0.00    -0.550 OA
ENDBRANCH  17  18
ENDBRANCH  16  17
ENDBRANCH  15  16
ENDBRANCH  14  15
ENDBRANCH  13  14
ENDBRANCH  12  13
ENDBRANCH  11  12
ENDBRANCH   1  11
TORSDOF 15
ENDMDL
MODEL 4
REMARK VINA RESULT:    -3.546      1.389      6.478
REMARK INTER + INTRA:          -8.376
REMARK INTER:                  -5.901
REMARK INTRA:                  -2.475
REMARK UNBOUND:                -1.720
REMARK SMILES O=C([O-])CCCCCCCCCCCCCCC(=O)[O-]
REMARK SMILES IDX 10 1 9 2 8 3 7 4 6 5 5 6 4 7 2 8 1 9 3 10 11 11 12 12 13 13
REMARK SMILES IDX 14 14 15 15 16 16 17 17 18 18 19 19 20 20
REMARK H PARENT
REMARK Flexibility Score: inf
ROOT
ATOM      1  C   UNL     1     -94.068 145.246 242.323  1.00  0.00     0.000 C 
ENDROOT
BRANCH   1   2
ATOM      2  C   UNL     1     -93.519 146.677 242.441  1.00  0.00     0.000 C 
BRANCH   2   3
ATOM      3  C   UNL     1     -93.543 147.431 241.102  1.00  0.00     0.000 C 
BRANCH   3   4
ATOM      4  C   UNL     1     -93.720 146.458 239.925  1.00  0.00     0.000 C 
BRANCH   4   5
ATOM      5  C   UNL     1     -94.401 147.127 238.713  1.00  0.00     0.000 C 
BRANCH   5   6
ATOM      6  C   UNL     1     -94.597 148.645 238.876  1.00  0.00     0.006 C 
BRANCH   6   7
ATOM      7  C   UNL     1     -95.724 149.199 237.997  1.00  0.00     0.053 C 
BRANCH   7   8
ATOM      8  C   UNL     1     -95.157 149.951 236.835  1.00  0.00     0.041 C 
ATOM      9  O   UNL     1     -94.596 149.332 235.892  1.00  0.00    -0.550 OA
ATOM     10  O   UNL     1     -95.205 151.339 236.813  1.00  0.00    -0.550 OA
ENDBRANCH   7   8
ENDBRANCH   6   7
ENDBRANCH   5   6
ENDBRANCH   4   5
ENDBRANCH   3   4
ENDBRANCH   2   3
ENDBRANCH   1   2
BRANCH   1  11
ATOM     11  C   UNL     1     -95.431 145.075 243.012  1.00  0.00     0.000 C 
BRANCH  11  12
ATOM     12  C   UNL     1     -96.555 144.941 241.973  1.00  0.00     0.000 C 
BRANCH  12  13
ATOM     13  C   UNL     1     -97.561 146.103 242.034  1.00  0.00     0.000 C 
BRANCH  13  14
ATOM     14  C   UNL     1     -97.333 147.144 240.926  1.00  0.00     0.000 C 
BRANCH  14  15
ATOM     15  C   UNL     1     -97.258 148.583 241.485  1.00  0.00     0.000 C 
BRANCH  15  16
ATOM     16  C   UNL     1     -96.655 148.661 242.900  1.00  0.00     0.006 C 
BRANCH  16  17
ATOM     17  C   UNL     1     -97.576 149.323 243.935  1.00  0.00     0.053 C 
BRANCH  17  18
ATOM     18  C   UNL     1     -97.507 148.633 245.263  1.00  0.00     0.041 C 
ATOM     19  O   UNL     1     -97.652 149.288 246.329  1.00  0.00    -0.550 OA
ATOM     20  O   UNL     1     -97.300 147.260 245.323  1.00  0.00    -0.550 OA
ENDBRANCH  17  18
ENDBRANCH  16  17
ENDBRANCH  15  16
ENDBRANCH  14  15
ENDBRANCH  13  14
ENDBRANCH  12  13
ENDBRANCH  11  12
ENDBRANCH   1  11
TORSDOF 15
ENDMDL
MODEL 5
REMARK VINA RESULT:    -3.526      1.305      1.732
REMARK INTER + INTRA:          -8.339
REMARK INTER:                  -6.917
REMARK INTRA:                  -1.421
REMARK UNBOUND:                -1.720
REMARK SMILES O=C([O-])CCCCCCCCCCCCCCC(=O)[O-]
REMARK SMILES IDX 10 1 9 2 8 3 7 4 6 5 5 6 4 7 2 8 1 9 3 10 11 11 12 12 13 13
REMARK SMILES IDX 14 14 15 15 16 16 17 17 18 18 19 19 20 20
REMARK H PARENT
REMARK Flexibility Score: inf
ROOT
ATOM      1  C   UNL     1     -93.293 145.672 239.913  1.00  0.00     0.000 C 
ENDROOT
BRANCH   1   2
ATOM      2  C   UNL     1     -92.851 146.623 241.037  1.00  0.00     0.000 C 
BRANCH   2   3
ATOM      3  C   UNL     1     -93.520 146.299 242.382  1.00  0.00     0.000 C 
BRANCH   3   4
ATOM      4  C   UNL     1     -95.012 146.665 242.358  1.00  0.00     0.000 C 
BRANCH   4   5
ATOM      5  C   UNL     1     -95.238 148.192 242.357  1.00  0.00     0.000 C 
BRANCH   5   6
ATOM      6  C   UNL     1     -96.692 148.599 242.063  1.00  0.00     0.006 C 
BRANCH   6   7
ATOM      7  C   UNL     1     -97.330 149.400 243.204  1.00  0.00     0.053 C 
BRANCH   7   8
ATOM      8  C   UNL     1     -97.641 148.504 244.360  1.00  0.00     0.041 C 
ATOM      9  O   UNL     1     -98.116 147.355 244.162  1.00  0.00    -0.550 OA
ATOM     10  O   UNL     1     -97.453 148.954 245.661  1.00  0.00    -0.550 OA
ENDBRANCH   7   8
ENDBRANCH   6   7
ENDBRANCH   5   6
ENDBRANCH   4   5
ENDBRANCH   3   4
ENDBRANCH   2   3
ENDBRANCH   1   2
BRANCH   1  11
ATOM     11  C   UNL     1     -93.659 146.414 238.619  1.00  0.00     0.000 C 
BRANCH  11  12
ATOM     12  C   UNL     1     -94.996 147.154 238.771  1.00  0.00     0.000 C 
BRANCH  12  13
ATOM     13  C   UNL     1     -94.848 148.680 238.654  1.00  0.00     0.000 C 
BRANCH  13  14
ATOM     14  C   UNL     1     -95.454 149.238 237.356  1.00  0.00     0.000 C 
BRANCH  14  15
ATOM     15  C   UNL     1     -94.852 150.608 236.973  1.00  0.00     0.000 C 
BRANCH  15  16
ATOM     16  C   UNL     1     -95.870 151.566 236.326  1.00  0.00     0.006 C 
BRANCH  16  17
ATOM     17  C   UNL     1     -96.281 152.740 237.227  1.00  0.00     0.053 C 
BRANCH  17  18
ATOM     18  C   UNL     1     -97.692 152.601 237.712  1.00  0.00     0.041 C 
ATOM     19  O   UNL     1     -98.384 153.624 237.959  1.00  0.00    -0.550 OA
ATOM     20  O   UNL     1     -98.250 151.339 237.874  1.00  0.00    -0.550 OA
ENDBRANCH  17  18
ENDBRANCH  16  17
ENDBRANCH  15  16
ENDBRANCH  14  15
ENDBRANCH  13  14
ENDBRANCH  12  13
ENDBRANCH  11  12
ENDBRANCH   1  11
TORSDOF 15
ENDMDL
MODEL 6
REMARK VINA RESULT:    -3.515      1.423      2.107
REMARK INTER + INTRA:          -8.317
REMARK INTER:                  -6.578
REMARK INTRA:                  -1.739
REMARK UNBOUND:                -1.720
REMARK SMILES O=C([O-])CCCCCCCCCCCCCCC(=O)[O-]
REMARK SMILES IDX 10 1 9 2 8 3 7 4 6 5 5 6 4 7 2 8 1 9 3 10 11 11 12 12 13 13
REMARK SMILES IDX 14 14 15 15 16 16 17 17 18 18 19 19 20 20
REMARK H PARENT
REMARK Flexibility Score: inf
ROOT
ATOM      1  C   UNL     1     -92.865 147.061 241.059  1.00  0.00     0.000 C 
ENDROOT
BRANCH   1   2
ATOM      2  C   UNL     1     -93.830 147.114 242.255  1.00  0.00     0.000 C 
BRANCH   2   3
ATOM      3  C   UNL     1     -95.254 146.669 241.886  1.00  0.00     0.000 C 
BRANCH   3   4
ATOM      4  C   UNL     1     -96.171 147.882 241.668  1.00  0.00     0.000 C 
BRANCH   4   5
ATOM      5  C   UNL     1     -96.055 148.914 242.810  1.00  0.00     0.000 C 
BRANCH   5   6
ATOM      6  C   UNL     1     -97.407 149.505 243.246  1.00  0.00     0.006 C 
BRANCH   6   7
ATOM      7  C   UNL     1     -98.321 148.475 243.920  1.00  0.00     0.053 C 
BRANCH   7   8
ATOM      8  C   UNL     1     -97.717 148.004 245.205  1.00  0.00     0.041 C 
ATOM      9  O   UNL     1     -97.503 148.818 246.141  1.00  0.00    -0.550 OA
ATOM     10  O   UNL     1     -97.344 146.674 245.352  1.00  0.00    -0.550 OA
ENDBRANCH   7   8
ENDBRANCH   6   7
ENDBRANCH   5   6
ENDBRANCH   4   5
ENDBRANCH   3   4
ENDBRANCH   2   3
ENDBRANCH   1   2
BRANCH   1  11
ATOM     11  C   UNL     1     -92.393 145.635 240.741  1.00  0.00     0.000 C 
BRANCH  11  12
ATOM     12  C   UNL     1     -92.425 145.372 239.228  1.00  0.00     0.000 C 
BRANCH  12  13
ATOM     13  C   UNL     1     -93.841 145.479 238.637  1.00  0.00     0.000 C 
BRANCH  13  14
ATOM     14  C   UNL     1     -93.975 146.627 237.622  1.00  0.00     0.000 C 
BRANCH  14  15
ATOM     15  C   UNL     1     -95.186 147.536 237.928  1.00  0.00     0.000 C 
BRANCH  15  16
ATOM     16  C   UNL     1     -94.789 148.945 238.411  1.00  0.00     0.006 C 
BRANCH  16  17
ATOM     17  C   UNL     1     -94.807 150.011 237.305  1.00  0.00     0.053 C 
BRANCH  17  18
ATOM     18  C   UNL     1     -96.201 150.312 236.846  1.00  0.00     0.041 C 
ATOM     19  O   UNL     1     -96.630 149.839 235.761  1.00  0.00    -0.550 OA
ATOM     20  O   UNL     1     -97.035 151.101 237.629  1.00  0.00    -0.550 OA
ENDBRANCH  17  18
ENDBRANCH  16  17
ENDBRANCH  15  16
ENDBRANCH  14  15
ENDBRANCH  13  14
ENDBRANCH  12  13
ENDBRANCH  11  12
ENDBRANCH   1  11
TORSDOF 15
ENDMDL
MODEL 7
REMARK VINA RESULT:    -3.512      1.143      6.307
REMARK INTER + INTRA:          -8.311
REMARK INTER:                  -6.212
REMARK INTRA:                  -2.099
REMARK UNBOUND:                -1.720
REMARK SMILES O=C([O-])CCCCCCCCCCCCCCC(=O)[O-]
REMARK SMILES IDX 10 1 9 2 8 3 7 4 6 5 5 6 4 7 2 8 1 9 3 10 11 11 12 12 13 13
REMARK SMILES IDX 14 14 15 15 16 16 17 17 18 18 19 19 20 20
REMARK H PARENT
REMARK Flexibility Score: inf
ROOT
ATOM      1  C   UNL     1     -94.106 145.369 239.102  1.00  0.00     0.000 C 
ENDROOT
BRANCH   1   2
ATOM      2  C   UNL     1     -95.629 145.557 239.186  1.00  0.00     0.000 C 
BRANCH   2   3
ATOM      3  C   UNL     1     -96.123 146.761 238.370  1.00  0.00     0.000 C 
BRANCH   3   4
ATOM      4  C   UNL     1     -95.928 148.071 239.149  1.00  0.00     0.000 C 
BRANCH   4   5
ATOM      5  C   UNL     1     -94.810 148.948 238.546  1.00  0.00     0.000 C 
BRANCH   5   6
ATOM      6  C   UNL     1     -94.986 149.223 237.043  1.00  0.00     0.006 C 
BRANCH   6   7
ATOM      7  C   UNL     1     -94.848 150.708 236.687  1.00  0.00     0.053 C 
BRANCH   7   8
ATOM      8  C   UNL     1     -96.171 151.396 236.800  1.00  0.00     0.041 C 
ATOM      9  O   UNL     1     -96.227 152.650 236.896  1.00  0.00    -0.550 OA
ATOM     10  O   UNL     1     -97.342 150.650 236.847  1.00  0.00    -0.550 OA
ENDBRANCH   7   8
ENDBRANCH   6   7
ENDBRANCH   5   6
ENDBRANCH   4   5
ENDBRANCH   3   4
ENDBRANCH   2   3
ENDBRANCH   1   2
BRANCH   1  11
ATOM     11  C   UNL     1     -93.434 145.346 240.482  1.00  0.00     0.000 C 
BRANCH  11  12
ATOM     12  C   UNL     1     -92.855 146.725 240.832  1.00  0.00     0.000 C 
BRANCH  12  13
ATOM     13  C   UNL     1     -93.590 147.399 242.002  1.00  0.00     0.000 C 
BRANCH  13  14
ATOM     14  C   UNL     1     -94.651 146.487 242.640  1.00  0.00     0.000 C 
BRANCH  14  15
ATOM     15  C   UNL     1     -96.011 147.202 242.804  1.00  0.00     0.000 C 
BRANCH  15  16
ATOM     16  C   UNL     1     -95.897 148.738 242.838  1.00  0.00     0.006 C 
BRANCH  16  17
ATOM     17  C   UNL     1     -97.218 149.455 243.154  1.00  0.00     0.053 C 
BRANCH  17  18
ATOM     18  C   UNL     1     -97.924 148.830 244.318  1.00  0.00     0.041 C 
ATOM     19  O   UNL     1     -97.427 148.891 245.473  1.00  0.00    -0.550 OA
ATOM     20  O   UNL     1     -99.146 148.194 244.129  1.00  0.00    -0.550 OA
ENDBRANCH  17  18
ENDBRANCH  16  17
ENDBRANCH  15  16
ENDBRANCH  14  15
ENDBRANCH  13  14
ENDBRANCH  12  13
ENDBRANCH  11  12
ENDBRANCH   1  11
TORSDOF 15
ENDMDL
MODEL 8
REMARK VINA RESULT:    -3.496      1.639      6.962
REMARK INTER + INTRA:          -8.281
REMARK INTER:                  -7.003
REMARK INTRA:                  -1.278
REMARK UNBOUND:                -1.720
REMARK SMILES O=C([O-])CCCCCCCCCCCCCCC(=O)[O-]
REMARK SMILES IDX 10 1 9 2 8 3 7 4 6 5 5 6 4 7 2 8 1 9 3 10 11 11 12 12 13 13
REMARK SMILES IDX 14 14 15 15 16 16 17 17 18 18 19 19 20 20
REMARK H PARENT
REMARK Flexibility Score: inf
ROOT
ATOM      1  C   UNL     1     -95.736 148.052 238.917  1.00  0.00     0.000 C 
ENDROOT
BRANCH   1   2
ATOM      2  C   UNL     1     -96.057 149.099 237.839  1.00  0.00     0.000 C 
BRANCH   2   3
ATOM      3  C   UNL     1     -94.807 149.564 237.075  1.00  0.00     0.000 C 
BRANCH   3   4
ATOM      4  C   UNL     1     -95.113 150.806 236.223  1.00  0.00     0.000 C 
BRANCH   4   5
ATOM      5  C   UNL     1     -95.769 151.933 237.047  1.00  0.00     0.000 C 
BRANCH   5   6
ATOM      6  C   UNL     1     -97.045 152.504 236.404  1.00  0.00     0.006 C 
BRANCH   6   7
ATOM      7  C   UNL     1     -97.971 153.185 237.418  1.00  0.00     0.053 C 
BRANCH   7   8
ATOM      8  C   UNL     1     -97.948 154.669 237.231  1.00  0.00     0.041 C 
ATOM      9  O   UNL     1     -99.020 155.328 237.258  1.00  0.00    -0.550 OA
ATOM     10  O   UNL     1     -96.747 155.320 236.979  1.00  0.00    -0.550 OA
ENDBRANCH   7   8
ENDBRANCH   6   7
ENDBRANCH   5   6
ENDBRANCH   4   5
ENDBRANCH   3   4
ENDBRANCH   2   3
ENDBRANCH   1   2
BRANCH   1  11
ATOM     11  C   UNL     1     -94.286 148.137 239.413  1.00  0.00     0.000 C 
BRANCH  11  12
ATOM     12  C   UNL     1     -93.626 146.749 239.416  1.00  0.00     0.000 C 
BRANCH  12  13
ATOM     13  C   UNL     1     -92.871 146.453 240.721  1.00  0.00     0.000 C 
BRANCH  13  14
ATOM     14  C   UNL     1     -93.524 147.112 241.948  1.00  0.00     0.000 C 
BRANCH  14  15
ATOM     15  C   UNL     1     -94.484 146.150 242.684  1.00  0.00     0.000 C 
BRANCH  15  16
ATOM     16  C   UNL     1     -95.831 146.797 243.060  1.00  0.00     0.006 C 
BRANCH  16  17
ATOM     17  C   UNL     1     -95.945 148.276 242.662  1.00  0.00     0.053 C 
BRANCH  17  18
ATOM     18  C   UNL     1     -97.025 148.976 243.429  1.00  0.00     0.041 C 
ATOM     19  O   UNL     1     -97.246 148.680 244.633  1.00  0.00    -0.550 OA
ATOM     20  O   UNL     1     -97.777 149.972 242.817  1.00  0.00    -0.550 OA
ENDBRANCH  17  18
ENDBRANCH  16  17
ENDBRANCH  15  16
ENDBRANCH  14  15
ENDBRANCH  13  14
ENDBRANCH  12  13
ENDBRANCH  11  12
ENDBRANCH   1  11
TORSDOF 15
ENDMDL
MODEL 9
REMARK VINA RESULT:    -3.446      2.291      3.633
REMARK INTER + INTRA:          -8.188
REMARK INTER:                  -6.601
REMARK INTRA:                  -1.587
REMARK UNBOUND:                -1.720
REMARK SMILES O=C([O-])CCCCCCCCCCCCCCC(=O)[O-]
REMARK SMILES IDX 10 1 9 2 8 3 7 4 6 5 5 6 4 7 2 8 1 9 3 10 11 11 12 12 13 13
REMARK SMILES IDX 14 14 15 15 16 16 17 17 18 18 19 19 20 20
REMARK H PARENT
REMARK Flexibility Score: inf
ROOT
ATOM      1  C   UNL     1     -95.060 146.570 242.376  1.00  0.00     0.000 C 
ENDROOT
BRANCH   1   2
ATOM      2  C   UNL     1     -96.416 147.163 242.793  1.00  0.00     0.000 C 
BRANCH   2   3
ATOM      3  C   UNL     1     -96.499 148.678 242.551  1.00  0.00     0.000 C 
BRANCH   3   4
ATOM      4  C   UNL     1     -97.496 149.336 243.518  1.00  0.00     0.000 C 
BRANCH   4   5
ATOM      5  C   UNL     1     -97.443 148.709 244.927  1.00  0.00     0.000 C 
BRANCH   5   6
ATOM      6  C   UNL     1     -98.450 149.325 245.914  1.00  0.00     0.006 C 
BRANCH   6   7
ATOM      7  C   UNL     1     -97.794 149.809 247.212  1.00  0.00     0.053 C 
BRANCH   7   8
ATOM      8  C   UNL     1     -98.745 150.660 247.992  1.00  0.00     0.041 C 
ATOM      9  O   UNL     1     -99.736 150.139 248.567  1.00  0.00    -0.550 OA
ATOM     10  O   UNL     1     -98.566 152.037 248.044  1.00  0.00    -0.550 OA
ENDBRANCH   7   8
ENDBRANCH   6   7
ENDBRANCH   5   6
ENDBRANCH   4   5
ENDBRANCH   3   4
ENDBRANCH   2   3
ENDBRANCH   1   2
BRANCH   1  11
ATOM     11  C   UNL     1     -94.022 147.649 242.033  1.00  0.00     0.000 C 
BRANCH  11  12
ATOM     12  C   UNL     1     -92.866 147.054 241.214  1.00  0.00     0.000 C 
BRANCH  12  13
ATOM     13  C   UNL     1     -93.310 145.881 240.325  1.00  0.00     0.000 C 
BRANCH  13  14
ATOM     14  C   UNL     1     -93.616 146.314 238.881  1.00  0.00     0.000 C 
BRANCH  14  15
ATOM     15  C   UNL     1     -95.132 146.329 238.586  1.00  0.00     0.000 C 
BRANCH  15  16
ATOM     16  C   UNL     1     -95.765 147.729 238.700  1.00  0.00     0.006 C 
BRANCH  16  17
ATOM     17  C   UNL     1     -94.757 148.881 238.578  1.00  0.00     0.053 C 
BRANCH  17  18
ATOM     18  C   UNL     1     -94.832 149.545 237.237  1.00  0.00     0.041 C 
ATOM     19  O   UNL     1     -94.742 148.863 236.182  1.00  0.00    -0.550 OA
ATOM     20  O   UNL     1     -95.020 150.920 237.152  1.00  0.00    -0.550 OA
ENDBRANCH  17  18
ENDBRANCH  16  17
ENDBRANCH  15  16
ENDBRANCH  14  15
ENDBRANCH  13  14
ENDBRANCH  12  13
ENDBRANCH  11  12
ENDBRANCH   1  11
TORSDOF 15
ENDMDL
