MODEL 1
REMARK VINA RESULT:    -5.412      0.000      0.000
REMARK INTER + INTRA:          -8.571
REMARK INTER:                  -7.310
REMARK INTRA:                  -1.261
REMARK UNBOUND:                -1.261
REMARK SMILES CC(=O)CCC=C(C)CCC=C(C)C
REMARK SMILES IDX 7 1 6 2 8 3 9 4 10 5 11 6 13 7 12 8 14 9 5 10 4 11 2 12 3 13
REMARK SMILES IDX 1 14
REMARK H PARENT
REMARK Flexibility Score: inf
ROOT
ATOM      1  C   UNL     1      12.849 -19.765 -29.484  1.00  0.00    -0.077 C 
ATOM      2  C   UNL     1      11.814 -19.007 -29.054  1.00  0.00    -0.028 C 
ATOM      3  C   UNL     1      14.163 -19.817 -28.742  1.00  0.00     0.039 C 
ENDROOT
BRANCH   1   4
ATOM      4  C   UNL     1      12.675 -20.595 -30.737  1.00  0.00     0.034 C 
BRANCH   4   5
ATOM      5  C   UNL     1      12.380 -19.702 -31.947  1.00  0.00     0.032 C 
BRANCH   5   6
ATOM      6  C   UNL     1      13.429 -18.628 -32.089  1.00  0.00    -0.028 C 
ATOM      7  C   UNL     1      14.324 -16.341 -32.206  1.00  0.00     0.039 C 
ATOM      8  C   UNL     1      13.167 -17.302 -32.097  1.00  0.00    -0.080 C 
ATOM      9  C   UNL     1      11.758 -16.764 -32.016  1.00  0.00     0.039 C 
ENDBRANCH   5   6
ENDBRANCH   4   5
ENDBRANCH   1   4
BRANCH   2  10
ATOM     10  C   UNL     1      11.859 -18.101 -27.846  1.00  0.00     0.035 C 
BRANCH  10  11
ATOM     11  C   UNL     1      12.104 -16.636 -28.231  1.00  0.00     0.079 C 
BRANCH  11  12
ATOM     12  C   UNL     1      13.455 -16.154 -27.772  1.00  0.00     0.130 C 
ATOM     13  O   UNL     1      14.039 -16.744 -26.875  1.00  0.00    -0.300 OA
ATOM     14  C   UNL     1      14.073 -14.931 -28.382  1.00  0.00     0.087 C 
ENDBRANCH  11  12
ENDBRANCH  10  11
ENDBRANCH   2  10
TORSDOF 6
ENDMDL
MODEL 2
REMARK VINA RESULT:    -4.989      2.233      4.697
REMARK INTER + INTRA:          -8.000
REMARK INTER:                  -6.708
REMARK INTRA:                  -1.292
REMARK UNBOUND:                -1.261
REMARK SMILES CC(=O)CCC=C(C)CCC=C(C)C
REMARK SMILES IDX 7 1 6 2 8 3 9 4 10 5 11 6 13 7 12 8 14 9 5 10 4 11 2 12 3 13
REMARK SMILES IDX 1 14
REMARK H PARENT
REMARK Flexibility Score: inf
ROOT
ATOM      1  C   UNL     1      10.292 -17.767 -30.616  1.00  0.00    -0.077 C 
ATOM      2  C   UNL     1      11.386 -17.436 -31.340  1.00  0.00    -0.028 C 
ATOM      3  C   UNL     1       9.644 -19.126 -30.724  1.00  0.00     0.039 C 
ENDROOT
BRANCH   1   4
ATOM      4  C   UNL     1       9.713 -16.747 -29.659  1.00  0.00     0.034 C 
BRANCH   4   5
ATOM      5  C   UNL     1      10.794 -15.771 -29.181  1.00  0.00     0.032 C 
BRANCH   5   6
ATOM      6  C   UNL     1      11.609 -16.379 -28.066  1.00  0.00    -0.028 C 
ATOM      7  C   UNL     1      13.634 -16.934 -26.788  1.00  0.00     0.039 C 
ATOM      8  C   UNL     1      12.957 -16.313 -27.983  1.00  0.00    -0.080 C 
ATOM      9  C   UNL     1      13.793 -15.654 -29.054  1.00  0.00     0.039 C 
ENDBRANCH   5   6
ENDBRANCH   4   5
ENDBRANCH   1   4
BRANCH   2  10
ATOM     10  C   UNL     1      12.044 -18.336 -32.359  1.00  0.00     0.035 C 
BRANCH  10  11
ATOM     11  C   UNL     1      13.391 -18.881 -31.863  1.00  0.00     0.079 C 
BRANCH  11  12
ATOM     12  C   UNL     1      13.212 -19.966 -30.833  1.00  0.00     0.130 C 
ATOM     13  O   UNL     1      12.615 -20.991 -31.126  1.00  0.00    -0.300 OA
ATOM     14  C   UNL     1      13.728 -19.781 -29.438  1.00  0.00     0.087 C 
ENDBRANCH  11  12
ENDBRANCH  10  11
ENDBRANCH   2  10
TORSDOF 6
ENDMDL
MODEL 3
REMARK VINA RESULT:    -4.972      2.385      4.740
REMARK INTER + INTRA:          -7.977
REMARK INTER:                  -7.071
REMARK INTRA:                  -0.906
REMARK UNBOUND:                -1.261
REMARK SMILES CC(=O)CCC=C(C)CCC=C(C)C
REMARK SMILES IDX 7 1 6 2 8 3 9 4 10 5 11 6 13 7 12 8 14 9 5 10 4 11 2 12 3 13
REMARK SMILES IDX 1 14
REMARK H PARENT
REMARK Flexibility Score: inf
ROOT
ATOM      1  C   UNL     1      10.596 -17.360 -30.807  1.00  0.00    -0.077 C 
ATOM      2  C   UNL     1      10.841 -16.601 -31.899  1.00  0.00    -0.028 C 
ATOM      3  C   UNL     1      10.714 -18.865 -30.837  1.00  0.00     0.039 C 
ENDROOT
BRANCH   1   4
ATOM      4  C   UNL     1      10.208 -16.677 -29.513  1.00  0.00     0.034 C 
BRANCH   4   5
ATOM      5  C   UNL     1      11.330 -16.795 -28.475  1.00  0.00     0.032 C 
BRANCH   5   6
ATOM      6  C   UNL     1      12.394 -15.753 -28.716  1.00  0.00    -0.028 C 
ATOM      7  C   UNL     1      14.512 -14.559 -28.356  1.00  0.00     0.039 C 
ATOM      8  C   UNL     1      13.517 -15.624 -27.973  1.00  0.00    -0.080 C 
ATOM      9  C   UNL     1      13.787 -16.500 -26.773  1.00  0.00     0.039 C 
ENDBRANCH   5   6
ENDBRANCH   4   5
ENDBRANCH   1   4
BRANCH   2  10
ATOM     10  C   UNL     1      11.197 -17.148 -33.261  1.00  0.00     0.035 C 
BRANCH  10  11
ATOM     11  C   UNL     1      12.600 -16.713 -33.709  1.00  0.00     0.079 C 
BRANCH  11  12
ATOM     12  C   UNL     1      13.658 -17.133 -32.722  1.00  0.00     0.130 C 
ATOM     13  O   UNL     1      13.784 -18.313 -32.428  1.00  0.00    -0.300 OA
ATOM     14  C   UNL     1      14.536 -16.108 -32.068  1.00  0.00     0.087 C 
ENDBRANCH  11  12
ENDBRANCH  10  11
ENDBRANCH   2  10
TORSDOF 6
ENDMDL
MODEL 4
REMARK VINA RESULT:    -4.905      2.438      4.745
REMARK INTER + INTRA:          -7.885
REMARK INTER:                  -7.191
REMARK INTRA:                  -0.694
REMARK UNBOUND:                -1.261
REMARK SMILES CC(=O)CCC=C(C)CCC=C(C)C
REMARK SMILES IDX 7 1 6 2 8 3 9 4 10 5 11 6 13 7 12 8 14 9 5 10 4 11 2 12 3 13
REMARK SMILES IDX 1 14
REMARK H PARENT
REMARK Flexibility Score: inf
ROOT
ATOM      1  C   UNL     1      12.204 -18.793 -29.783  1.00  0.00    -0.077 C 
ATOM      2  C   UNL     1      13.268 -18.406 -30.524  1.00  0.00    -0.028 C 
ATOM      3  C   UNL     1      10.991 -19.442 -30.405  1.00  0.00     0.039 C 
ENDROOT
BRANCH   1   4
ATOM      4  C   UNL     1      12.240 -18.579 -28.285  1.00  0.00     0.034 C 
BRANCH   4   5
ATOM      5  C   UNL     1      11.606 -17.236 -27.910  1.00  0.00     0.032 C 
BRANCH   5   6
ATOM      6  C   UNL     1      12.450 -16.088 -28.404  1.00  0.00    -0.028 C 
ATOM      7  C   UNL     1      14.369 -14.553 -28.462  1.00  0.00     0.039 C 
ATOM      8  C   UNL     1      13.611 -15.694 -27.834  1.00  0.00    -0.080 C 
ATOM      9  C   UNL     1      14.154 -16.352 -26.587  1.00  0.00     0.039 C 
ENDBRANCH   5   6
ENDBRANCH   4   5
ENDBRANCH   1   4
BRANCH   2  10
ATOM     10  C   UNL     1      13.354 -18.522 -32.027  1.00  0.00     0.035 C 
BRANCH  10  11
ATOM     11  C   UNL     1      13.219 -17.158 -32.720  1.00  0.00     0.079 C 
BRANCH  11  12
ATOM     12  C   UNL     1      11.836 -16.947 -33.278  1.00  0.00     0.130 C 
ATOM     13  O   UNL     1      11.620 -17.153 -34.463  1.00  0.00    -0.300 OA
ATOM     14  C   UNL     1      10.730 -16.450 -32.397  1.00  0.00     0.087 C 
ENDBRANCH  11  12
ENDBRANCH  10  11
ENDBRANCH   2  10
TORSDOF 6
ENDMDL
MODEL 5
REMARK VINA RESULT:    -4.879      1.917      3.311
REMARK INTER + INTRA:          -7.851
REMARK INTER:                  -6.616
REMARK INTRA:                  -1.235
REMARK UNBOUND:                -1.261
REMARK SMILES CC(=O)CCC=C(C)CCC=C(C)C
REMARK SMILES IDX 7 1 6 2 8 3 9 4 10 5 11 6 13 7 12 8 14 9 5 10 4 11 2 12 3 13
REMARK SMILES IDX 1 14
REMARK H PARENT
REMARK Flexibility Score: inf
ROOT
ATOM      1  C   UNL     1      13.543 -17.603 -31.321  1.00  0.00    -0.077 C 
ATOM      2  C   UNL     1      13.561 -16.526 -30.502  1.00  0.00    -0.028 C 
ATOM      3  C   UNL     1      13.323 -19.002 -30.797  1.00  0.00     0.039 C 
ENDROOT
BRANCH   1   4
ATOM      4  C   UNL     1      13.735 -17.394 -32.808  1.00  0.00     0.034 C 
BRANCH   4   5
ATOM      5  C   UNL     1      12.530 -16.670 -33.418  1.00  0.00     0.032 C 
BRANCH   5   6
ATOM      6  C   UNL     1      11.321 -17.571 -33.445  1.00  0.00    -0.028 C 
ATOM      7  C   UNL     1       9.053 -18.331 -32.878  1.00  0.00     0.039 C 
ATOM      8  C   UNL     1      10.198 -17.364 -32.720  1.00  0.00    -0.080 C 
ATOM      9  C   UNL     1      10.072 -16.211 -31.752  1.00  0.00     0.039 C 
ENDBRANCH   5   6
ENDBRANCH   4   5
ENDBRANCH   1   4
BRANCH   2  10
ATOM     10  C   UNL     1      13.423 -16.589 -29.000  1.00  0.00     0.035 C 
BRANCH  10  11
ATOM     11  C   UNL     1      12.008 -16.218 -28.534  1.00  0.00     0.079 C 
BRANCH  11  12
ATOM     12  C   UNL     1      11.262 -17.412 -27.998  1.00  0.00     0.130 C 
ATOM     13  O   UNL     1      10.612 -18.115 -28.758  1.00  0.00    -0.300 OA
ATOM     14  C   UNL     1      11.282 -17.725 -26.532  1.00  0.00     0.087 C 
ENDBRANCH  11  12
ENDBRANCH  10  11
ENDBRANCH   2  10
TORSDOF 6
ENDMDL
MODEL 6
REMARK VINA RESULT:    -4.874      1.499      2.527
REMARK INTER + INTRA:          -7.844
REMARK INTER:                  -6.563
REMARK INTRA:                  -1.281
REMARK UNBOUND:                -1.261
REMARK SMILES CC(=O)CCC=C(C)CCC=C(C)C
REMARK SMILES IDX 7 1 6 2 8 3 9 4 10 5 11 6 13 7 12 8 14 9 5 10 4 11 2 12 3 13
REMARK SMILES IDX 1 14
REMARK H PARENT
REMARK Flexibility Score: inf
ROOT
ATOM      1  C   UNL     1      10.193 -17.210 -29.757  1.00  0.00    -0.077 C 
ATOM      2  C   UNL     1      10.843 -18.047 -28.917  1.00  0.00    -0.028 C 
ATOM      3  C   UNL     1      10.134 -15.721 -29.514  1.00  0.00     0.039 C 
ENDROOT
BRANCH   1   4
ATOM      4  C   UNL     1       9.517 -17.784 -30.983  1.00  0.00     0.034 C 
BRANCH   4   5
ATOM      5  C   UNL     1      10.536 -18.481 -31.893  1.00  0.00     0.032 C 
BRANCH   5   6
ATOM      6  C   UNL     1      11.667 -17.546 -32.243  1.00  0.00    -0.028 C 
ATOM      7  C   UNL     1      13.999 -16.807 -32.479  1.00  0.00     0.039 C 
ATOM      8  C   UNL     1      12.975 -17.823 -32.042  1.00  0.00    -0.080 C 
ATOM      9  C   UNL     1      13.430 -19.103 -31.381  1.00  0.00     0.039 C 
ENDBRANCH   5   6
ENDBRANCH   4   5
ENDBRANCH   1   4
BRANCH   2  10
ATOM     10  C   UNL     1      11.526 -17.620 -27.639  1.00  0.00     0.035 C 
BRANCH  10  11
ATOM     11  C   UNL     1      13.056 -17.653 -27.763  1.00  0.00     0.079 C 
BRANCH  11  12
ATOM     12  C   UNL     1      13.667 -16.297 -27.526  1.00  0.00     0.130 C 
ATOM     13  O   UNL     1      14.107 -16.012 -26.421  1.00  0.00    -0.300 OA
ATOM     14  C   UNL     1      13.706 -15.279 -28.625  1.00  0.00     0.087 C 
ENDBRANCH  11  12
ENDBRANCH  10  11
ENDBRANCH   2  10
TORSDOF 6
ENDMDL
MODEL 7
REMARK VINA RESULT:    -4.851      2.568      4.354
REMARK INTER + INTRA:          -7.814
REMARK INTER:                  -6.569
REMARK INTRA:                  -1.245
REMARK UNBOUND:                -1.261
REMARK SMILES CC(=O)CCC=C(C)CCC=C(C)C
REMARK SMILES IDX 7 1 6 2 8 3 9 4 10 5 11 6 13 7 12 8 14 9 5 10 4 11 2 12 3 13
REMARK SMILES IDX 1 14
REMARK H PARENT
REMARK Flexibility Score: inf
ROOT
ATOM      1  C   UNL     1      11.420 -16.615 -28.595  1.00  0.00    -0.077 C 
ATOM      2  C   UNL     1      10.615 -16.103 -29.553  1.00  0.00    -0.028 C 
ATOM      3  C   UNL     1      10.982 -17.756 -27.708  1.00  0.00     0.039 C 
ENDROOT
BRANCH   1   4
ATOM      4  C   UNL     1      12.807 -16.035 -28.418  1.00  0.00     0.034 C 
BRANCH   4   5
ATOM      5  C   UNL     1      13.670 -16.296 -29.658  1.00  0.00     0.032 C 
BRANCH   5   6
ATOM      6  C   UNL     1      13.508 -17.718 -30.133  1.00  0.00    -0.028 C 
ATOM      7  C   UNL     1      13.131 -19.535 -31.746  1.00  0.00     0.039 C 
ATOM      8  C   UNL     1      13.226 -18.069 -31.408  1.00  0.00    -0.080 C 
ATOM      9  C   UNL     1      12.991 -17.039 -32.488  1.00  0.00     0.039 C 
ENDBRANCH   5   6
ENDBRANCH   4   5
ENDBRANCH   1   4
BRANCH   2  10
ATOM     10  C   UNL     1       9.198 -16.555 -29.814  1.00  0.00     0.035 C 
BRANCH  10  11
ATOM     11  C   UNL     1       8.968 -16.911 -31.290  1.00  0.00     0.079 C 
BRANCH  11  12
ATOM     12  C   UNL     1       9.429 -18.310 -31.607  1.00  0.00     0.130 C 
ATOM     13  O   UNL     1       9.596 -19.116 -30.704  1.00  0.00    -0.300 OA
ATOM     14  C   UNL     1       9.722 -18.710 -33.022  1.00  0.00     0.087 C 
ENDBRANCH  11  12
ENDBRANCH  10  11
ENDBRANCH   2  10
TORSDOF 6
ENDMDL
MODEL 8
REMARK VINA RESULT:    -4.757      1.692      2.871
REMARK INTER + INTRA:          -7.686
REMARK INTER:                  -6.586
REMARK INTRA:                  -1.099
REMARK UNBOUND:                -1.261
REMARK SMILES CC(=O)CCC=C(C)CCC=C(C)C
REMARK SMILES IDX 7 1 6 2 8 3 9 4 10 5 11 6 13 7 12 8 14 9 5 10 4 11 2 12 3 13
REMARK SMILES IDX 1 14
REMARK H PARENT
REMARK Flexibility Score: inf
ROOT
ATOM      1  C   UNL     1      10.022 -17.461 -31.031  1.00  0.00    -0.077 C 
ATOM      2  C   UNL     1      10.354 -16.301 -30.419  1.00  0.00    -0.028 C 
ATOM      3  C   UNL     1       9.883 -18.756 -30.267  1.00  0.00     0.039 C 
ENDROOT
BRANCH   1   4
ATOM      4  C   UNL     1       9.770 -17.453 -32.523  1.00  0.00     0.034 C 
BRANCH   4   5
ATOM      5  C   UNL     1      10.985 -17.994 -33.286  1.00  0.00     0.032 C 
BRANCH   5   6
ATOM      6  C   UNL     1      12.178 -17.091 -33.099  1.00  0.00    -0.028 C 
ATOM      7  C   UNL     1      14.423 -16.439 -32.338  1.00  0.00     0.039 C 
ATOM      8  C   UNL     1      13.291 -17.431 -32.409  1.00  0.00    -0.080 C 
ATOM      9  C   UNL     1      13.419 -18.759 -31.700  1.00  0.00     0.039 C 
ENDBRANCH   5   6
ENDBRANCH   4   5
ENDBRANCH   1   4
BRANCH   2  10
ATOM     10  C   UNL     1      10.672 -16.168 -28.948  1.00  0.00     0.035 C 
BRANCH  10  11
ATOM     11  C   UNL     1      12.180 -16.242 -28.674  1.00  0.00     0.079 C 
BRANCH  11  12
ATOM     12  C   UNL     1      12.480 -16.958 -27.383  1.00  0.00     0.130 C 
ATOM     13  O   UNL     1      13.618 -16.955 -26.935  1.00  0.00    -0.300 OA
ATOM     14  C   UNL     1      11.400 -17.705 -26.660  1.00  0.00     0.087 C 
ENDBRANCH  11  12
ENDBRANCH  10  11
ENDBRANCH   2  10
TORSDOF 6
ENDMDL
MODEL 9
REMARK VINA RESULT:    -4.748      1.719      3.666
REMARK INTER + INTRA:          -7.674
REMARK INTER:                  -6.241
REMARK INTRA:                  -1.432
REMARK UNBOUND:                -1.261
REMARK SMILES CC(=O)CCC=C(C)CCC=C(C)C
REMARK SMILES IDX 7 1 6 2 8 3 9 4 10 5 11 6 13 7 12 8 14 9 5 10 4 11 2 12 3 13
REMARK SMILES IDX 1 14
REMARK H PARENT
REMARK Flexibility Score: inf
ROOT
ATOM      1  C   UNL     1      13.039 -17.485 -32.034  1.00  0.00    -0.077 C 
ATOM      2  C   UNL     1      12.907 -18.802 -31.754  1.00  0.00    -0.028 C 
ATOM      3  C   UNL     1      13.816 -16.551 -31.137  1.00  0.00     0.039 C 
ENDROOT
BRANCH   1   4
ATOM      4  C   UNL     1      12.399 -16.938 -33.292  1.00  0.00     0.034 C 
BRANCH   4   5
ATOM      5  C   UNL     1      10.871 -17.031 -33.212  1.00  0.00     0.032 C 
BRANCH   5   6
ATOM      6  C   UNL     1      10.337 -16.144 -32.116  1.00  0.00    -0.028 C 
ATOM      7  C   UNL     1       9.225 -15.589 -29.995  1.00  0.00     0.039 C 
ATOM      8  C   UNL     1       9.666 -16.591 -31.031  1.00  0.00    -0.080 C 
ATOM      9  C   UNL     1       9.336 -18.053 -30.841  1.00  0.00     0.039 C 
ENDBRANCH   5   6
ENDBRANCH   4   5
ENDBRANCH   1   4
BRANCH   2  10
ATOM     10  C   UNL     1      13.458 -19.474 -30.518  1.00  0.00     0.035 C 
BRANCH  10  11
ATOM     11  C   UNL     1      12.395 -19.625 -29.421  1.00  0.00     0.079 C 
BRANCH  11  12
ATOM     12  C   UNL     1      12.514 -18.549 -28.373  1.00  0.00     0.130 C 
ATOM     13  O   UNL     1      13.614 -18.104 -28.080  1.00  0.00    -0.300 OA
ATOM     14  C   UNL     1      11.295 -18.045 -27.661  1.00  0.00     0.087 C 
ENDBRANCH  11  12
ENDBRANCH  10  11
ENDBRANCH   2  10
TORSDOF 6
ENDMDL
