MODEL 1
REMARK VINA RESULT:     0.000      0.000      0.000
REMARK INTER + INTRA:          -3.760
REMARK INTER:                   0.000
REMARK INTRA:                  -3.760
REMARK UNBOUND:                -3.760
REMARK SMILES CCCCCCCCC=CCCCCCCCC(=O)[O-]
REMARK SMILES IDX 10 1 9 2 11 3 12 4 13 5 14 6 15 7 16 8 17 9 18 10 19 11
REMARK SMILES IDX 20 12 8 13 7 14 6 15 5 16 4 17 3 18 2 19 1 20
REMARK H PARENT
REMARK Flexibility Score: inf
ROOT
ATOM      1  C   UNL     1     177.078 188.753 193.923  1.00  0.00    -0.031 C 
ATOM      2  C   UNL     1     176.713 189.677 193.014  1.00  0.00    -0.031 C 
ENDROOT
BRANCH   1   3
ATOM      3  C   UNL     1     176.129 187.798 194.602  1.00  0.00     0.027 C 
BRANCH   3   4
ATOM      4  C   UNL     1     176.151 186.431 193.908  1.00  0.00     0.004 C 
BRANCH   4   5
ATOM      5  C   UNL     1     174.734 185.851 193.791  1.00  0.00     0.000 C 
BRANCH   5   6
ATOM      6  C   UNL     1     173.702 186.610 194.646  1.00  0.00     0.000 C 
BRANCH   6   7
ATOM      7  C   UNL     1     172.495 187.162 193.867  1.00  0.00     0.000 C 
BRANCH   7   8
ATOM      8  C   UNL     1     172.268 188.665 194.101  1.00  0.00     0.006 C 
BRANCH   8   9
ATOM      9  C   UNL     1     172.757 189.114 195.485  1.00  0.00     0.053 C 
BRANCH   9  10
ATOM     10  C   UNL     1     173.333 190.497 195.446  1.00  0.00     0.041 C 
ATOM     11  O   UNL     1     172.652 191.454 194.992  1.00  0.00    -0.550 OA
ATOM     12  O   UNL     1     174.609 190.735 195.942  1.00  0.00    -0.550 OA
ENDBRANCH   9  10
ENDBRANCH   8   9
ENDBRANCH   7   8
ENDBRANCH   6   7
ENDBRANCH   5   6
ENDBRANCH   4   5
ENDBRANCH   3   4
ENDBRANCH   1   3
BRANCH   2  13
ATOM     13  C   UNL     1     175.320 189.835 192.461  1.00  0.00     0.027 C 
BRANCH  13  14
ATOM     14  C   UNL     1     175.204 189.358 191.002  1.00  0.00     0.004 C 
BRANCH  14  15
ATOM     15  C   UNL     1     174.261 188.152 190.819  1.00  0.00     0.000 C 
BRANCH  15  16
ATOM     16  C   UNL     1     174.998 186.898 190.316  1.00  0.00     0.000 C 
BRANCH  16  17
ATOM     17  C   UNL     1     176.447 187.192 189.895  1.00  0.00    -0.000 C 
BRANCH  17  18
ATOM     18  C   UNL     1     177.455 186.204 190.503  1.00  0.00    -0.000 C 
BRANCH  18  19
ATOM     19  C   UNL     1     178.656 186.946 191.100  1.00  0.00    -0.003 C 
ATOM     20  C   UNL     1     178.878 188.286 190.405  1.00  0.00     0.004 C 
ENDBRANCH  18  19
ENDBRANCH  17  18
ENDBRANCH  16  17
ENDBRANCH  15  16
ENDBRANCH  14  15
ENDBRANCH  13  14
ENDBRANCH   2  13
TORSDOF 15
ENDMDL
MODEL 2
REMARK VINA RESULT:     0.010      6.305      8.351
REMARK INTER + INTRA:          -3.742
REMARK INTER:                   0.000
REMARK INTRA:                  -3.742
REMARK UNBOUND:                -3.760
REMARK SMILES CCCCCCCCC=CCCCCCCCC(=O)[O-]
REMARK SMILES IDX 10 1 9 2 11 3 12 4 13 5 14 6 15 7 16 8 17 9 18 10 19 11
REMARK SMILES IDX 20 12 8 13 7 14 6 15 5 16 4 17 3 18 2 19 1 20
REMARK H PARENT
REMARK Flexibility Score: inf
ROOT
ATOM      1  C   UNL     1     178.093 196.342 194.542  1.00  0.00    -0.031 C 
ATOM      2  C   UNL     1     178.621 196.419 193.305  1.00  0.00    -0.031 C 
ENDROOT
BRANCH   1   3
ATOM      3  C   UNL     1     178.170 195.128 195.433  1.00  0.00     0.027 C 
BRANCH   3   4
ATOM      4  C   UNL     1     176.989 194.188 195.167  1.00  0.00     0.004 C 
BRANCH   4   5
ATOM      5  C   UNL     1     177.445 192.721 195.157  1.00  0.00     0.000 C 
BRANCH   5   6
ATOM      6  C   UNL     1     178.907 192.544 195.607  1.00  0.00     0.000 C 
BRANCH   6   7
ATOM      7  C   UNL     1     179.822 191.849 194.583  1.00  0.00     0.000 C 
BRANCH   7   8
ATOM      8  C   UNL     1     181.165 192.574 194.393  1.00  0.00     0.006 C 
BRANCH   8   9
ATOM      9  C   UNL     1     181.502 193.488 195.579  1.00  0.00     0.053 C 
BRANCH   9  10
ATOM     10  C   UNL     1     182.044 194.809 195.123  1.00  0.00     0.041 C 
ATOM     11  O   UNL     1     181.629 195.877 195.644  1.00  0.00    -0.550 OA
ATOM     12  O   UNL     1     183.032 194.857 194.148  1.00  0.00    -0.550 OA
ENDBRANCH   9  10
ENDBRANCH   8   9
ENDBRANCH   7   8
ENDBRANCH   6   7
ENDBRANCH   5   6
ENDBRANCH   4   5
ENDBRANCH   3   4
ENDBRANCH   1   3
BRANCH   2  13
ATOM     13  C   UNL     1     179.456 195.342 192.659  1.00  0.00     0.027 C 
BRANCH  13  14
ATOM     14  C   UNL     1     178.789 194.747 191.406  1.00  0.00     0.004 C 
BRANCH  14  15
ATOM     15  C   UNL     1     178.421 193.257 191.549  1.00  0.00     0.000 C 
BRANCH  15  16
ATOM     16  C   UNL     1     176.900 193.021 191.532  1.00  0.00     0.000 C 
BRANCH  16  17
ATOM     17  C   UNL     1     176.107 194.292 191.184  1.00  0.00    -0.000 C 
BRANCH  17  18
ATOM     18  C   UNL     1     174.962 194.567 192.171  1.00  0.00    -0.000 C 
BRANCH  18  19
ATOM     19  C   UNL     1     174.932 196.044 192.577  1.00  0.00    -0.003 C 
ATOM     20  C   UNL     1     175.497 196.932 191.471  1.00  0.00     0.004 C 
ENDBRANCH  18  19
ENDBRANCH  17  18
ENDBRANCH  16  17
ENDBRANCH  15  16
ENDBRANCH  14  15
ENDBRANCH  13  14
ENDBRANCH   2  13
TORSDOF 15
ENDMDL
MODEL 3
REMARK VINA RESULT:     0.012      5.526      7.516
REMARK INTER + INTRA:          -3.738
REMARK INTER:                   0.000
REMARK INTRA:                  -3.738
REMARK UNBOUND:                -3.760
REMARK SMILES CCCCCCCCC=CCCCCCCCC(=O)[O-]
REMARK SMILES IDX 10 1 9 2 11 3 12 4 13 5 14 6 15 7 16 8 17 9 18 10 19 11
REMARK SMILES IDX 20 12 8 13 7 14 6 15 5 16 4 17 3 18 2 19 1 20
REMARK H PARENT
REMARK Flexibility Score: inf
ROOT
ATOM      1  C   UNL     1     168.759 185.201 193.250  1.00  0.00    -0.031 C 
ATOM      2  C   UNL     1     168.665 184.133 194.065  1.00  0.00    -0.031 C 
ENDROOT
BRANCH   1   3
ATOM      3  C   UNL     1     169.074 186.603 193.707  1.00  0.00     0.027 C 
BRANCH   3   4
ATOM      4  C   UNL     1     170.582 186.868 193.636  1.00  0.00     0.004 C 
BRANCH   4   5
ATOM      5  C   UNL     1     171.075 187.582 194.903  1.00  0.00     0.000 C 
BRANCH   5   6
ATOM      6  C   UNL     1     169.927 188.007 195.837  1.00  0.00     0.000 C 
BRANCH   6   7
ATOM      7  C   UNL     1     169.965 187.375 197.240  1.00  0.00     0.000 C 
BRANCH   7   8
ATOM      8  C   UNL     1     168.564 187.057 197.790  1.00  0.00     0.006 C 
BRANCH   8   9
ATOM      9  C   UNL     1     167.450 187.560 196.862  1.00  0.00     0.053 C 
BRANCH   9  10
ATOM     10  C   UNL     1     166.420 186.502 196.608  1.00  0.00     0.041 C 
ATOM     11  O   UNL     1     165.947 186.344 195.452  1.00  0.00    -0.550 OA
ATOM     12  O   UNL     1     166.009 185.668 197.641  1.00  0.00    -0.550 OA
ENDBRANCH   9  10
ENDBRANCH   8   9
ENDBRANCH   7   8
ENDBRANCH   6   7
ENDBRANCH   5   6
ENDBRANCH   4   5
ENDBRANCH   3   4
ENDBRANCH   1   3
BRANCH   2  13
ATOM     13  C   UNL     1     168.958 184.154 195.544  1.00  0.00     0.027 C 
BRANCH  13  14
ATOM     14  C   UNL     1     170.156 183.265 195.923  1.00  0.00     0.004 C 
BRANCH  14  15
ATOM     15  C   UNL     1     171.273 184.018 196.671  1.00  0.00     0.000 C 
BRANCH  15  16
ATOM     16  C   UNL     1     172.475 184.343 195.766  1.00  0.00     0.000 C 
BRANCH  16  17
ATOM     17  C   UNL     1     172.623 183.350 194.601  1.00  0.00    -0.000 C 
BRANCH  17  18
ATOM     18  C   UNL     1     172.882 184.047 193.256  1.00  0.00    -0.000 C 
BRANCH  18  19
ATOM     19  C   UNL     1     171.900 183.554 192.187  1.00  0.00    -0.003 C 
ATOM     20  C   UNL     1     171.379 182.158 192.517  1.00  0.00     0.004 C 
ENDBRANCH  18  19
ENDBRANCH  17  18
ENDBRANCH  16  17
ENDBRANCH  15  16
ENDBRANCH  14  15
ENDBRANCH  13  14
ENDBRANCH   2  13
TORSDOF 15
ENDMDL
MODEL 4
REMARK VINA RESULT:     0.024      4.499      5.943
REMARK INTER + INTRA:          -3.716
REMARK INTER:                   0.000
REMARK INTRA:                  -3.716
REMARK UNBOUND:                -3.760
REMARK SMILES CCCCCCCCC=CCCCCCCCC(=O)[O-]
REMARK SMILES IDX 10 1 9 2 11 3 12 4 13 5 14 6 15 7 16 8 17 9 18 10 19 11
REMARK SMILES IDX 20 12 8 13 7 14 6 15 5 16 4 17 3 18 2 19 1 20
REMARK H PARENT
REMARK Flexibility Score: inf
ROOT
ATOM      1  C   UNL     1     173.878 183.522 192.651  1.00  0.00    -0.031 C 
ATOM      2  C   UNL     1     173.231 182.865 191.671  1.00  0.00    -0.031 C 
ENDROOT
BRANCH   1   3
ATOM      3  C   UNL     1     173.279 184.628 193.483  1.00  0.00     0.027 C 
BRANCH   3   4
ATOM      4  C   UNL     1     173.595 185.997 192.870  1.00  0.00     0.004 C 
BRANCH   4   5
ATOM      5  C   UNL     1     172.320 186.839 192.718  1.00  0.00     0.000 C 
BRANCH   5   6
ATOM      6  C   UNL     1     171.172 186.358 193.624  1.00  0.00     0.000 C 
BRANCH   6   7
ATOM      7  C   UNL     1     169.832 186.123 192.904  1.00  0.00     0.000 C 
BRANCH   7   8
ATOM      8  C   UNL     1     169.199 184.764 193.248  1.00  0.00     0.006 C 
BRANCH   8   9
ATOM      9  C   UNL     1     169.760 184.178 194.551  1.00  0.00     0.053 C 
BRANCH   9  10
ATOM     10  C   UNL     1     169.870 182.685 194.484  1.00  0.00     0.041 C 
ATOM     11  O   UNL     1     168.857 181.986 194.219  1.00  0.00    -0.550 OA
ATOM     12  O   UNL     1     171.100 182.069 194.680  1.00  0.00    -0.550 OA
ENDBRANCH   9  10
ENDBRANCH   8   9
ENDBRANCH   7   8
ENDBRANCH   6   7
ENDBRANCH   5   6
ENDBRANCH   4   5
ENDBRANCH   3   4
ENDBRANCH   1   3
BRANCH   2  13
ATOM     13  C   UNL     1     171.777 183.062 191.320  1.00  0.00     0.027 C 
BRANCH  13  14
ATOM     14  C   UNL     1     171.571 183.448 189.844  1.00  0.00     0.004 C 
BRANCH  14  15
ATOM     15  C   UNL     1     170.760 184.745 189.652  1.00  0.00     0.000 C 
BRANCH  15  16
ATOM     16  C   UNL     1     171.651 185.952 189.310  1.00  0.00     0.000 C 
BRANCH  16  17
ATOM     17  C   UNL     1     172.981 185.541 188.656  1.00  0.00    -0.000 C 
BRANCH  17  18
ATOM     18  C   UNL     1     174.196 186.225 189.300  1.00  0.00    -0.000 C 
BRANCH  18  19
ATOM     19  C   UNL     1     175.306 185.209 189.591  1.00  0.00    -0.003 C 
ATOM     20  C   UNL     1     175.144 183.955 188.735  1.00  0.00     0.004 C 
ENDBRANCH  18  19
ENDBRANCH  17  18
ENDBRANCH  16  17
ENDBRANCH  15  16
ENDBRANCH  14  15
ENDBRANCH  13  14
ENDBRANCH   2  13
TORSDOF 15
ENDMDL
MODEL 5
REMARK VINA RESULT:     0.026      4.772      7.811
REMARK INTER + INTRA:          -3.710
REMARK INTER:                   0.000
REMARK INTRA:                  -3.710
REMARK UNBOUND:                -3.760
REMARK SMILES CCCCCCCCC=CCCCCCCCC(=O)[O-]
REMARK SMILES IDX 10 1 9 2 11 3 12 4 13 5 14 6 15 7 16 8 17 9 18 10 19 11
REMARK SMILES IDX 20 12 8 13 7 14 6 15 5 16 4 17 3 18 2 19 1 20
REMARK H PARENT
REMARK Flexibility Score: inf
ROOT
ATOM      1  C   UNL     1     174.990 195.927 194.141  1.00  0.00    -0.031 C 
ATOM      2  C   UNL     1     174.398 194.881 194.747  1.00  0.00    -0.031 C 
ENDROOT
BRANCH   1   3
ATOM      3  C   UNL     1     175.914 195.819 192.953  1.00  0.00     0.027 C 
BRANCH   3   4
ATOM      4  C   UNL     1     175.162 196.130 191.655  1.00  0.00     0.004 C 
BRANCH   4   5
ATOM      5  C   UNL     1     175.286 194.970 190.656  1.00  0.00     0.000 C 
BRANCH   5   6
ATOM      6  C   UNL     1     176.486 194.051 190.950  1.00  0.00     0.000 C 
BRANCH   6   7
ATOM      7  C   UNL     1     176.145 192.555 191.065  1.00  0.00     0.000 C 
BRANCH   7   8
ATOM      8  C   UNL     1     177.005 191.825 192.110  1.00  0.00     0.006 C 
BRANCH   8   9
ATOM      9  C   UNL     1     178.055 192.748 192.743  1.00  0.00     0.053 C 
BRANCH   9  10
ATOM     10  C   UNL     1     177.988 192.719 194.239  1.00  0.00     0.041 C 
ATOM     11  O   UNL     1     178.114 193.784 194.900  1.00  0.00    -0.550 OA
ATOM     12  O   UNL     1     177.751 191.522 194.903  1.00  0.00    -0.550 OA
ENDBRANCH   9  10
ENDBRANCH   8   9
ENDBRANCH   7   8
ENDBRANCH   6   7
ENDBRANCH   5   6
ENDBRANCH   4   5
ENDBRANCH   3   4
ENDBRANCH   1   3
BRANCH   2  13
ATOM     13  C   UNL     1     174.484 193.452 194.274  1.00  0.00     0.027 C 
BRANCH  13  14
ATOM     14  C   UNL     1     173.100 192.800 194.102  1.00  0.00     0.004 C 
BRANCH  14  15
ATOM     15  C   UNL     1     172.933 192.045 192.768  1.00  0.00     0.000 C 
BRANCH  15  16
ATOM     16  C   UNL     1     172.411 192.952 191.639  1.00  0.00     0.000 C 
BRANCH  16  17
ATOM     17  C   UNL     1     171.377 193.977 192.133  1.00  0.00    -0.000 C 
BRANCH  17  18
ATOM     18  C   UNL     1     171.608 195.381 191.554  1.00  0.00    -0.000 C 
BRANCH  18  19
ATOM     19  C   UNL     1     171.566 196.443 192.658  1.00  0.00    -0.003 C 
ATOM     20  C   UNL     1     170.930 195.890 193.931  1.00  0.00     0.004 C 
ENDBRANCH  18  19
ENDBRANCH  17  18
ENDBRANCH  16  17
ENDBRANCH  15  16
ENDBRANCH  14  15
ENDBRANCH  13  14
ENDBRANCH   2  13
TORSDOF 15
ENDMDL
MODEL 6
REMARK VINA RESULT:     0.035      3.566      6.227
REMARK INTER + INTRA:          -3.695
REMARK INTER:                   0.000
REMARK INTRA:                  -3.695
REMARK UNBOUND:                -3.760
REMARK SMILES CCCCCCCCC=CCCCCCCCC(=O)[O-]
REMARK SMILES IDX 10 1 9 2 11 3 12 4 13 5 14 6 15 7 16 8 17 9 18 10 19 11
REMARK SMILES IDX 20 12 8 13 7 14 6 15 5 16 4 17 3 18 2 19 1 20
REMARK H PARENT
REMARK Flexibility Score: inf
ROOT
ATOM      1  C   UNL     1     174.739 189.033 191.995  1.00  0.00    -0.031 C 
ATOM      2  C   UNL     1     174.619 188.058 192.916  1.00  0.00    -0.031 C 
ENDROOT
BRANCH   1   3
ATOM      3  C   UNL     1     174.211 188.950 190.585  1.00  0.00     0.027 C 
BRANCH   3   4
ATOM      4  C   UNL     1     172.832 189.611 190.485  1.00  0.00     0.004 C 
BRANCH   4   5
ATOM      5  C   UNL     1     171.859 188.736 189.682  1.00  0.00     0.000 C 
BRANCH   5   6
ATOM      6  C   UNL     1     172.528 187.482 189.090  1.00  0.00     0.000 C 
BRANCH   6   7
ATOM      7  C   UNL     1     171.745 186.173 189.293  1.00  0.00     0.000 C 
BRANCH   7   8
ATOM      8  C   UNL     1     172.643 185.000 189.722  1.00  0.00     0.006 C 
BRANCH   8   9
ATOM      9  C   UNL     1     171.858 183.914 190.469  1.00  0.00     0.053 C 
BRANCH   9  10
ATOM     10  C   UNL     1     172.598 183.428 191.678  1.00  0.00     0.041 C 
ATOM     11  O   UNL     1     171.978 183.200 192.750  1.00  0.00    -0.550 OA
ATOM     12  O   UNL     1     173.966 183.195 191.610  1.00  0.00    -0.550 OA
ENDBRANCH   9  10
ENDBRANCH   8   9
ENDBRANCH   7   8
ENDBRANCH   6   7
ENDBRANCH   5   6
ENDBRANCH   4   5
ENDBRANCH   3   4
ENDBRANCH   1   3
BRANCH   2  13
ATOM     13  C   UNL     1     173.854 186.775 192.714  1.00  0.00     0.027 C 
BRANCH  13  14
ATOM     14  C   UNL     1     172.617 186.673 193.624  1.00  0.00     0.004 C 
BRANCH  14  15
ATOM     15  C   UNL     1     171.279 186.774 192.864  1.00  0.00     0.000 C 
BRANCH  15  16
ATOM     16  C   UNL     1     170.584 188.131 193.072  1.00  0.00     0.000 C 
BRANCH  16  17
ATOM     17  C   UNL     1     171.146 188.907 194.275  1.00  0.00    -0.000 C 
BRANCH  17  18
ATOM     18  C   UNL     1     171.613 190.323 193.903  1.00  0.00    -0.000 C 
BRANCH  18  19
ATOM     19  C   UNL     1     172.816 190.743 194.754  1.00  0.00    -0.003 C 
ATOM     20  C   UNL     1     173.084 189.733 195.867  1.00  0.00     0.004 C 
ENDBRANCH  18  19
ENDBRANCH  17  18
ENDBRANCH  16  17
ENDBRANCH  15  16
ENDBRANCH  14  15
ENDBRANCH  13  14
ENDBRANCH   2  13
TORSDOF 15
ENDMDL
MODEL 7
REMARK VINA RESULT:     0.035      3.821      7.098
REMARK INTER + INTRA:          -3.694
REMARK INTER:                   0.000
REMARK INTRA:                  -3.694
REMARK UNBOUND:                -3.760
REMARK SMILES CCCCCCCCC=CCCCCCCCC(=O)[O-]
REMARK SMILES IDX 10 1 9 2 11 3 12 4 13 5 14 6 15 7 16 8 17 9 18 10 19 11
REMARK SMILES IDX 20 12 8 13 7 14 6 15 5 16 4 17 3 18 2 19 1 20
REMARK H PARENT
REMARK Flexibility Score: inf
ROOT
ATOM      1  C   UNL     1     170.918 193.214 195.421  1.00  0.00    -0.031 C 
ATOM      2  C   UNL     1     171.846 193.946 196.065  1.00  0.00    -0.031 C 
ENDROOT
BRANCH   1   3
ATOM      3  C   UNL     1     171.184 192.383 194.190  1.00  0.00     0.027 C 
BRANCH   3   4
ATOM      4  C   UNL     1     170.813 190.917 194.438  1.00  0.00     0.004 C 
BRANCH   4   5
ATOM      5  C   UNL     1     171.776 189.974 193.702  1.00  0.00     0.000 C 
BRANCH   5   6
ATOM      6  C   UNL     1     172.675 190.706 192.688  1.00  0.00     0.000 C 
BRANCH   6   7
ATOM      7  C   UNL     1     174.140 190.237 192.663  1.00  0.00     0.000 C 
BRANCH   7   8
ATOM      8  C   UNL     1     175.124 191.367 192.318  1.00  0.00     0.006 C 
BRANCH   8   9
ATOM      9  C   UNL     1     174.450 192.746 192.333  1.00  0.00     0.053 C 
BRANCH   9  10
ATOM     10  C   UNL     1     175.414 193.830 192.704  1.00  0.00     0.041 C 
ATOM     11  O   UNL     1     175.171 195.027 192.398  1.00  0.00    -0.550 OA
ATOM     12  O   UNL     1     176.566 193.524 193.419  1.00  0.00    -0.550 OA
ENDBRANCH   9  10
ENDBRANCH   8   9
ENDBRANCH   7   8
ENDBRANCH   6   7
ENDBRANCH   5   6
ENDBRANCH   4   5
ENDBRANCH   3   4
ENDBRANCH   1   3
BRANCH   2  13
ATOM     13  C   UNL     1     173.313 193.972 195.717  1.00  0.00     0.027 C 
BRANCH  13  14
ATOM     14  C   UNL     1     174.159 193.089 196.652  1.00  0.00     0.004 C 
BRANCH  14  15
ATOM     15  C   UNL     1     174.733 191.834 195.965  1.00  0.00     0.000 C 
BRANCH  15  16
ATOM     16  C   UNL     1     174.079 190.535 196.468  1.00  0.00     0.000 C 
BRANCH  16  17
ATOM     17  C   UNL     1     173.281 190.738 197.766  1.00  0.00    -0.000 C 
BRANCH  17  18
ATOM     18  C   UNL     1     171.915 190.035 197.740  1.00  0.00    -0.000 C 
BRANCH  18  19
ATOM     19  C   UNL     1     170.826 190.930 198.343  1.00  0.00    -0.003 C 
ATOM     20  C   UNL     1     171.436 192.049 199.183  1.00  0.00     0.004 C 
ENDBRANCH  18  19
ENDBRANCH  17  18
ENDBRANCH  16  17
ENDBRANCH  15  16
ENDBRANCH  14  15
ENDBRANCH  13  14
ENDBRANCH   2  13
TORSDOF 15
ENDMDL
MODEL 8
REMARK VINA RESULT:     0.046      3.209      6.218
REMARK INTER + INTRA:          -3.675
REMARK INTER:                   0.000
REMARK INTRA:                  -3.675
REMARK UNBOUND:                -3.760
REMARK SMILES CCCCCCCCC=CCCCCCCCC(=O)[O-]
REMARK SMILES IDX 10 1 9 2 11 3 12 4 13 5 14 6 15 7 16 8 17 9 18 10 19 11
REMARK SMILES IDX 20 12 8 13 7 14 6 15 5 16 4 17 3 18 2 19 1 20
REMARK H PARENT
REMARK Flexibility Score: inf
ROOT
ATOM      1  C   UNL     1     174.084 186.354 196.149  1.00  0.00    -0.031 C 
ATOM      2  C   UNL     1     173.344 186.081 195.058  1.00  0.00    -0.031 C 
ENDROOT
BRANCH   1   3
ATOM      3  C   UNL     1     175.569 186.113 196.261  1.00  0.00     0.027 C 
BRANCH   3   4
ATOM      4  C   UNL     1     175.847 184.720 196.834  1.00  0.00     0.004 C 
BRANCH   4   5
ATOM      5  C   UNL     1     176.895 183.978 195.992  1.00  0.00     0.000 C 
BRANCH   5   6
ATOM      6  C   UNL     1     177.622 184.897 194.993  1.00  0.00     0.000 C 
BRANCH   6   7
ATOM      7  C   UNL     1     177.542 184.449 193.523  1.00  0.00     0.000 C 
BRANCH   7   8
ATOM      8  C   UNL     1     177.345 185.624 192.550  1.00  0.00     0.006 C 
BRANCH   8   9
ATOM      9  C   UNL     1     177.547 186.982 193.236  1.00  0.00     0.053 C 
BRANCH   9  10
ATOM     10  C   UNL     1     176.508 187.976 192.812  1.00  0.00     0.041 C 
ATOM     11  O   UNL     1     176.275 188.167 191.590  1.00  0.00    -0.550 OA
ATOM     12  O   UNL     1     175.773 188.665 193.769  1.00  0.00    -0.550 OA
ENDBRANCH   9  10
ENDBRANCH   8   9
ENDBRANCH   7   8
ENDBRANCH   6   7
ENDBRANCH   5   6
ENDBRANCH   4   5
ENDBRANCH   3   4
ENDBRANCH   1   3
BRANCH   2  13
ATOM     13  C   UNL     1     173.899 185.586 193.746  1.00  0.00     0.027 C 
BRANCH  13  14
ATOM     14  C   UNL     1     173.309 184.227 193.328  1.00  0.00     0.004 C 
BRANCH  14  15
ATOM     15  C   UNL     1     174.142 183.019 193.803  1.00  0.00     0.000 C 
BRANCH  15  16
ATOM     16  C   UNL     1     173.538 182.338 195.044  1.00  0.00     0.000 C 
BRANCH  16  17
ATOM     17  C   UNL     1     172.019 182.545 195.152  1.00  0.00    -0.000 C 
BRANCH  17  18
ATOM     18  C   UNL     1     171.594 183.126 196.510  1.00  0.00    -0.000 C 
BRANCH  18  19
ATOM     19  C   UNL     1     172.715 182.978 197.544  1.00  0.00    -0.003 C 
ATOM     20  C   UNL     1     172.603 184.039 198.635  1.00  0.00     0.004 C 
ENDBRANCH  18  19
ENDBRANCH  17  18
ENDBRANCH  16  17
ENDBRANCH  15  16
ENDBRANCH  14  15
ENDBRANCH  13  14
ENDBRANCH   2  13
TORSDOF 15
ENDMDL
MODEL 9
REMARK VINA RESULT:     0.054      2.657      4.364
REMARK INTER + INTRA:          -3.658
REMARK INTER:                   0.000
REMARK INTRA:                  -3.658
REMARK UNBOUND:                -3.760
REMARK SMILES CCCCCCCCC=CCCCCCCCC(=O)[O-]
REMARK SMILES IDX 10 1 9 2 11 3 12 4 13 5 14 6 15 7 16 8 17 9 18 10 19 11
REMARK SMILES IDX 20 12 8 13 7 14 6 15 5 16 4 17 3 18 2 19 1 20
REMARK H PARENT
REMARK Flexibility Score: inf
ROOT
ATOM      1  C   UNL     1     173.490 187.981 194.169  1.00  0.00    -0.031 C 
ATOM      2  C   UNL     1     172.951 189.204 194.336  1.00  0.00    -0.031 C 
ENDROOT
BRANCH   1   3
ATOM      3  C   UNL     1     174.970 187.696 194.120  1.00  0.00     0.027 C 
BRANCH   3   4
ATOM      4  C   UNL     1     175.378 186.763 195.265  1.00  0.00     0.004 C 
BRANCH   4   5
ATOM      5  C   UNL     1     176.238 187.505 196.299  1.00  0.00     0.000 C 
BRANCH   5   6
ATOM      6  C   UNL     1     175.534 187.671 197.657  1.00  0.00     0.000 C 
BRANCH   6   7
ATOM      7  C   UNL     1     174.160 186.985 197.764  1.00  0.00     0.000 C 
BRANCH   7   8
ATOM      8  C   UNL     1     173.059 187.929 198.275  1.00  0.00     0.006 C 
BRANCH   8   9
ATOM      9  C   UNL     1     171.737 187.740 197.517  1.00  0.00     0.053 C 
BRANCH   9  10
ATOM     10  C   UNL     1     170.927 189.000 197.494  1.00  0.00     0.041 C 
ATOM     11  O   UNL     1     170.145 189.233 196.534  1.00  0.00    -0.550 OA
ATOM     12  O   UNL     1     171.009 189.901 198.548  1.00  0.00    -0.550 OA
ENDBRANCH   9  10
ENDBRANCH   8   9
ENDBRANCH   7   8
ENDBRANCH   6   7
ENDBRANCH   5   6
ENDBRANCH   4   5
ENDBRANCH   3   4
ENDBRANCH   1   3
BRANCH   2  13
ATOM     13  C   UNL     1     173.739 190.461 194.601  1.00  0.00     0.027 C 
BRANCH  13  14
ATOM     14  C   UNL     1     173.882 190.766 196.103  1.00  0.00     0.004 C 
BRANCH  14  15
ATOM     15  C   UNL     1     175.318 191.139 196.524  1.00  0.00     0.000 C 
BRANCH  15  16
ATOM     16  C   UNL     1     176.176 191.614 195.338  1.00  0.00     0.000 C 
BRANCH  16  17
ATOM     17  C   UNL     1     177.455 190.778 195.161  1.00  0.00    -0.000 C 
BRANCH  17  18
ATOM     18  C   UNL     1     177.582 190.178 193.752  1.00  0.00    -0.000 C 
BRANCH  18  19
ATOM     19  C   UNL     1     176.891 191.068 192.713  1.00  0.00    -0.003 C 
ATOM     20  C   UNL     1     176.125 190.232 191.692  1.00  0.00     0.004 C 
ENDBRANCH  18  19
ENDBRANCH  17  18
ENDBRANCH  16  17
ENDBRANCH  15  16
ENDBRANCH  14  15
ENDBRANCH  13  14
ENDBRANCH   2  13
TORSDOF 15
ENDMDL
