MODEL 1
REMARK VINA RESULT:    -3.434      0.000      0.000
REMARK INTER + INTRA:          -4.361
REMARK INTER:                  -4.137
REMARK INTRA:                  -0.224
REMARK UNBOUND:                -0.224
REMARK SMILES OCC(O)CO
REMARK SMILES IDX 3 1 5 2 6 3 2 5 1 6 4 8
REMARK H PARENT 6 4 1 7 4 9
REMARK Flexibility Score: inf
ROOT
ATOM      1  C   UNL     1       1.441  35.510  25.712  1.00  0.00     0.165 C 
ENDROOT
BRANCH   1   2
ATOM      2  C   UNL     1       2.800  34.863  25.416  1.00  0.00     0.190 C 
BRANCH   2   3
ATOM      3  O   UNL     1       3.610  34.881  26.562  1.00  0.00    -0.394 OA
ATOM      4  H   UNL     1       3.405  34.053  27.070  1.00  0.00     0.210 HD
ENDBRANCH   2   3
ENDBRANCH   1   2
BRANCH   1   5
ATOM      5  C   UNL     1       1.632  36.877  26.381  1.00  0.00     0.190 C 
BRANCH   5   6
ATOM      6  O   UNL     1       2.703  37.553  25.782  1.00  0.00    -0.394 OA
ATOM      7  H   UNL     1       2.946  37.025  24.977  1.00  0.00     0.210 HD
ENDBRANCH   5   6
ENDBRANCH   1   5
BRANCH   1   8
ATOM      8  O   UNL     1       0.700  34.666  26.556  1.00  0.00    -0.388 OA
ATOM      9  H   UNL     1       0.160  35.251  27.148  1.00  0.00     0.211 HD
ENDBRANCH   1   8
TORSDOF 5
ENDMDL
MODEL 2
REMARK VINA RESULT:    -3.406     13.428     14.207
REMARK INTER + INTRA:          -4.326
REMARK INTER:                  -4.113
REMARK INTRA:                  -0.214
REMARK UNBOUND:                -0.224
REMARK SMILES OCC(O)CO
REMARK SMILES IDX 3 1 5 2 6 3 2 5 1 6 4 8
REMARK H PARENT 6 4 1 7 4 9
REMARK Flexibility Score: inf
ROOT
ATOM      1  C   UNL     1      -1.556  26.062  35.518  1.00  0.00     0.165 C 
ENDROOT
BRANCH   1   2
ATOM      2  C   UNL     1      -0.492  24.968  35.679  1.00  0.00     0.190 C 
BRANCH   2   3
ATOM      3  O   UNL     1      -0.579  24.043  34.627  1.00  0.00    -0.394 OA
ATOM      4  H   UNL     1      -1.463  24.181  34.197  1.00  0.00     0.210 HD
ENDBRANCH   2   3
ENDBRANCH   1   2
BRANCH   1   5
ATOM      5  C   UNL     1      -2.912  25.443  35.156  1.00  0.00     0.190 C 
BRANCH   5   6
ATOM      6  O   UNL     1      -2.986  25.236  33.772  1.00  0.00    -0.394 OA
ATOM      7  H   UNL     1      -2.070  25.395  33.422  1.00  0.00     0.210 HD
ENDBRANCH   5   6
ENDBRANCH   1   5
BRANCH   1   8
ATOM      8  O   UNL     1      -1.154  26.952  34.508  1.00  0.00    -0.388 OA
ATOM      9  H   UNL     1      -1.888  26.982  33.840  1.00  0.00     0.211 HD
ENDBRANCH   1   8
TORSDOF 5
ENDMDL
MODEL 3
REMARK VINA RESULT:    -3.389     13.882     14.594
REMARK INTER + INTRA:          -4.306
REMARK INTER:                  -4.082
REMARK INTRA:                  -0.224
REMARK UNBOUND:                -0.224
REMARK SMILES OCC(O)CO
REMARK SMILES IDX 3 1 5 2 6 3 2 5 1 6 4 8
REMARK H PARENT 6 4 1 7 4 9
REMARK Flexibility Score: inf
ROOT
ATOM      1  C   UNL     1      -1.478  25.602  35.690  1.00  0.00     0.165 C 
ENDROOT
BRANCH   1   2
ATOM      2  C   UNL     1      -2.683  25.442  34.755  1.00  0.00     0.190 C 
BRANCH   2   3
ATOM      3  O   UNL     1      -3.458  26.612  34.750  1.00  0.00    -0.394 OA
ATOM      4  H   UNL     1      -4.281  26.413  35.269  1.00  0.00     0.210 HD
ENDBRANCH   2   3
ENDBRANCH   1   2
BRANCH   1   5
ATOM      5  C   UNL     1      -1.843  26.486  36.890  1.00  0.00     0.190 C 
BRANCH   5   6
ATOM      6  O   UNL     1      -2.945  25.942  37.563  1.00  0.00    -0.394 OA
ATOM      7  H   UNL     1      -3.169  25.100  37.087  1.00  0.00     0.210 HD
ENDBRANCH   5   6
ENDBRANCH   1   5
BRANCH   1   8
ATOM      8  O   UNL     1      -0.414  26.180  34.978  1.00  0.00    -0.388 OA
ATOM      9  H   UNL     1      -0.658  26.148  34.017  1.00  0.00     0.211 HD
ENDBRANCH   1   8
TORSDOF 5
ENDMDL
MODEL 4
REMARK VINA RESULT:    -3.342      1.755      2.649
REMARK INTER + INTRA:          -4.249
REMARK INTER:                  -4.039
REMARK INTRA:                  -0.210
REMARK UNBOUND:                -0.224
REMARK SMILES OCC(O)CO
REMARK SMILES IDX 3 1 5 2 6 3 2 5 1 6 4 8
REMARK H PARENT 6 4 1 7 4 9
REMARK Flexibility Score: inf
ROOT
ATOM      1  C   UNL     1       1.608  35.557  26.020  1.00  0.00     0.165 C 
ENDROOT
BRANCH   1   2
ATOM      2  C   UNL     1       0.570  35.729  24.903  1.00  0.00     0.190 C 
BRANCH   2   3
ATOM      3  O   UNL     1       0.604  34.630  24.030  1.00  0.00    -0.394 OA
ATOM      4  H   UNL     1       0.044  33.921  24.441  1.00  0.00     0.210 HD
ENDBRANCH   2   3
ENDBRANCH   1   2
BRANCH   1   5
ATOM      5  C   UNL     1       2.973  35.178  25.431  1.00  0.00     0.190 C 
BRANCH   5   6
ATOM      6  O   UNL     1       3.019  33.798  25.191  1.00  0.00    -0.394 OA
ATOM      7  H   UNL     1       2.719  33.362  26.031  1.00  0.00     0.210 HD
ENDBRANCH   5   6
ENDBRANCH   1   5
BRANCH   1   8
ATOM      8  O   UNL     1       1.174  34.553  26.903  1.00  0.00    -0.388 OA
ATOM      9  H   UNL     1       0.200  34.439  26.755  1.00  0.00     0.211 HD
ENDBRANCH   1   8
TORSDOF 5
ENDMDL
MODEL 5
REMARK VINA RESULT:    -3.307      1.803      2.134
REMARK INTER + INTRA:          -4.208
REMARK INTER:                  -3.985
REMARK INTRA:                  -0.223
REMARK UNBOUND:                -0.224
REMARK SMILES OCC(O)CO
REMARK SMILES IDX 3 1 5 2 6 3 2 5 1 6 4 8
REMARK H PARENT 6 4 1 7 4 9
REMARK Flexibility Score: inf
ROOT
ATOM      1  C   UNL     1       1.881  34.924  26.979  1.00  0.00     0.165 C 
ENDROOT
BRANCH   1   2
ATOM      2  C   UNL     1       2.995  34.967  25.925  1.00  0.00     0.190 C 
BRANCH   2   3
ATOM      3  O   UNL     1       2.981  33.796  25.152  1.00  0.00    -0.394 OA
ATOM      4  H   UNL     1       2.238  33.235  25.496  1.00  0.00     0.210 HD
ENDBRANCH   2   3
ENDBRANCH   1   2
BRANCH   1   5
ATOM      5  C   UNL     1       0.586  35.521  26.416  1.00  0.00     0.190 C 
BRANCH   5   6
ATOM      6  O   UNL     1       0.345  35.009  25.134  1.00  0.00    -0.394 OA
ATOM      7  H   UNL     1       0.922  35.530  24.517  1.00  0.00     0.210 HD
ENDBRANCH   5   6
ENDBRANCH   1   5
BRANCH   1   8
ATOM      8  O   UNL     1       2.288  35.650  28.111  1.00  0.00    -0.388 OA
ATOM      9  H   UNL     1       1.769  36.496  28.114  1.00  0.00     0.211 HD
ENDBRANCH   1   8
TORSDOF 5
ENDMDL
MODEL 6
REMARK VINA RESULT:    -3.277     13.023     13.840
REMARK INTER + INTRA:          -4.171
REMARK INTER:                  -3.954
REMARK INTRA:                  -0.217
REMARK UNBOUND:                -0.224
REMARK SMILES OCC(O)CO
REMARK SMILES IDX 3 1 5 2 6 3 2 5 1 6 4 8
REMARK H PARENT 6 4 1 7 4 9
REMARK Flexibility Score: inf
ROOT
ATOM      1  C   UNL     1      -1.543  25.856  35.577  1.00  0.00     0.165 C 
ENDROOT
BRANCH   1   2
ATOM      2  C   UNL     1      -3.028  25.624  35.269  1.00  0.00     0.190 C 
BRANCH   2   3
ATOM      3  O   UNL     1      -3.205  25.332  33.908  1.00  0.00    -0.394 OA
ATOM      4  H   UNL     1      -4.111  25.656  33.662  1.00  0.00     0.210 HD
ENDBRANCH   2   3
ENDBRANCH   1   2
BRANCH   1   5
ATOM      5  C   UNL     1      -1.101  27.238  35.079  1.00  0.00     0.190 C 
BRANCH   5   6
ATOM      6  O   UNL     1      -2.225  28.038  34.839  1.00  0.00    -0.394 OA
ATOM      7  H   UNL     1      -1.960  28.964  35.081  1.00  0.00     0.210 HD
ENDBRANCH   5   6
ENDBRANCH   1   5
BRANCH   1   8
ATOM      8  O   UNL     1      -0.780  24.857  34.951  1.00  0.00    -0.388 OA
ATOM      9  H   UNL     1      -0.281  25.294  34.213  1.00  0.00     0.211 HD
ENDBRANCH   1   8
TORSDOF 5
ENDMDL
MODEL 7
REMARK VINA RESULT:    -3.275      1.002      2.503
REMARK INTER + INTRA:          -4.169
REMARK INTER:                  -4.147
REMARK INTRA:                  -0.022
REMARK UNBOUND:                -0.224
REMARK SMILES OCC(O)CO
REMARK SMILES IDX 3 1 5 2 6 3 2 5 1 6 4 8
REMARK H PARENT 6 4 1 7 4 9
REMARK Flexibility Score: inf
ROOT
ATOM      1  C   UNL     1       1.614  35.403  26.347  1.00  0.00     0.165 C 
ENDROOT
BRANCH   1   2
ATOM      2  C   UNL     1       1.584  36.931  26.478  1.00  0.00     0.190 C 
BRANCH   2   3
ATOM      3  O   UNL     1       2.683  37.500  25.817  1.00  0.00    -0.394 OA
ATOM      4  H   UNL     1       2.685  38.466  26.045  1.00  0.00     0.210 HD
ENDBRANCH   2   3
ENDBRANCH   1   2
BRANCH   1   5
ATOM      5  C   UNL     1       3.026  34.922  25.990  1.00  0.00     0.190 C 
BRANCH   5   6
ATOM      6  O   UNL     1       2.948  33.807  25.144  1.00  0.00    -0.394 OA
ATOM      7  H   UNL     1       3.862  33.674  24.780  1.00  0.00     0.210 HD
ENDBRANCH   5   6
ENDBRANCH   1   5
BRANCH   1   8
ATOM      8  O   UNL     1       0.708  35.006  25.349  1.00  0.00    -0.388 OA
ATOM      9  H   UNL     1      -0.046  34.553  25.806  1.00  0.00     0.211 HD
ENDBRANCH   1   8
TORSDOF 5
ENDMDL
MODEL 8
REMARK VINA RESULT:    -3.272      1.014      2.796
REMARK INTER + INTRA:          -4.165
REMARK INTER:                  -3.944
REMARK INTRA:                  -0.221
REMARK UNBOUND:                -0.224
REMARK SMILES OCC(O)CO
REMARK SMILES IDX 3 1 5 2 6 3 2 5 1 6 4 8
REMARK H PARENT 6 4 1 7 4 9
REMARK Flexibility Score: inf
ROOT
ATOM      1  C   UNL     1       2.002  36.058  25.588  1.00  0.00     0.165 C 
ENDROOT
BRANCH   1   2
ATOM      2  C   UNL     1       0.674  35.900  26.339  1.00  0.00     0.190 C 
BRANCH   2   3
ATOM      3  O   UNL     1       0.596  34.631  26.934  1.00  0.00    -0.394 OA
ATOM      4  H   UNL     1       1.216  34.041  26.431  1.00  0.00     0.210 HD
ENDBRANCH   2   3
ENDBRANCH   1   2
BRANCH   1   5
ATOM      5  C   UNL     1       2.999  34.978  26.028  1.00  0.00     0.190 C 
BRANCH   5   6
ATOM      6  O   UNL     1       2.898  33.866  25.182  1.00  0.00    -0.394 OA
ATOM      7  H   UNL     1       3.427  34.088  24.371  1.00  0.00     0.210 HD
ENDBRANCH   5   6
ENDBRANCH   1   5
BRANCH   1   8
ATOM      8  O   UNL     1       2.533  37.332  25.851  1.00  0.00    -0.388 OA
ATOM      9  H   UNL     1       3.087  37.251  26.670  1.00  0.00     0.211 HD
ENDBRANCH   1   8
TORSDOF 5
ENDMDL
MODEL 9
REMARK VINA RESULT:    -3.234     13.511     14.430
REMARK INTER + INTRA:          -4.120
REMARK INTER:                  -4.106
REMARK INTRA:                  -0.014
REMARK UNBOUND:                -0.224
REMARK SMILES OCC(O)CO
REMARK SMILES IDX 3 1 5 2 6 3 2 5 1 6 4 8
REMARK H PARENT 6 4 1 7 4 9
REMARK Flexibility Score: inf
ROOT
ATOM      1  C   UNL     1      -2.191  26.609  35.291  1.00  0.00     0.165 C 
ENDROOT
BRANCH   1   2
ATOM      2  C   UNL     1      -1.868  26.712  36.787  1.00  0.00     0.190 C 
BRANCH   2   3
ATOM      3  O   UNL     1      -2.805  25.989  37.541  1.00  0.00    -0.394 OA
ATOM      4  H   UNL     1      -3.695  26.385  37.347  1.00  0.00     0.210 HD
ENDBRANCH   2   3
ENDBRANCH   1   2
BRANCH   1   5
ATOM      5  C   UNL     1      -2.541  25.164  34.915  1.00  0.00     0.190 C 
BRANCH   5   6
ATOM      6  O   UNL     1      -3.352  25.154  33.772  1.00  0.00    -0.394 OA
ATOM      7  H   UNL     1      -4.245  24.838  34.072  1.00  0.00     0.210 HD
ENDBRANCH   5   6
ENDBRANCH   1   5
BRANCH   1   8
ATOM      8  O   UNL     1      -1.080  27.039  34.547  1.00  0.00    -0.388 OA
ATOM      9  H   UNL     1      -1.422  27.649  33.843  1.00  0.00     0.211 HD
ENDBRANCH   1   8
TORSDOF 5
ENDMDL
