MODEL 1
REMARK VINA RESULT:    -4.819      0.000      0.000
REMARK INTER + INTRA:         -13.814
REMARK INTER:                 -11.016
REMARK INTRA:                  -2.798
REMARK UNBOUND:                -2.798
REMARK SMILES CCCCCCCCCCCCCCCCCCCCCCCC(=O)[O-]
REMARK SMILES IDX 13 1 14 2 15 3 16 4 17 5 18 6 19 7 20 8 21 9 22 10 23 11
REMARK SMILES IDX 24 12 25 13 26 14 12 15 11 16 10 17 9 18 8 19 7 20 6 21 5 22
REMARK SMILES IDX 4 23 3 24 2 25 1 26
REMARK H PARENT
REMARK Flexibility Score: inf
ROOT
ATOM      1  C   UNL     1     -15.024 -13.386  17.005  1.00  0.00     0.000 C 
ENDROOT
BRANCH   1   2
ATOM      2  C   UNL     1     -16.441 -13.760  16.542  1.00  0.00     0.000 C 
BRANCH   2   3
ATOM      3  C   UNL     1     -16.607 -13.530  15.032  1.00  0.00     0.000 C 
BRANCH   3   4
ATOM      4  C   UNL     1     -15.721 -12.390  14.496  1.00  0.00     0.000 C 
BRANCH   4   5
ATOM      5  C   UNL     1     -14.847 -12.756  13.284  1.00  0.00     0.000 C 
BRANCH   5   6
ATOM      6  C   UNL     1     -14.378 -14.221  13.304  1.00  0.00     0.000 C 
BRANCH   6   7
ATOM      7  C   UNL     1     -13.139 -14.443  14.191  1.00  0.00     0.000 C 
BRANCH   7   8
ATOM      8  C   UNL     1     -12.235 -13.211  14.380  1.00  0.00     0.000 C 
BRANCH   8   9
ATOM      9  C   UNL     1     -11.709 -12.999  15.813  1.00  0.00     0.000 C 
BRANCH   9  10
ATOM     10  C   UNL     1     -10.296 -12.374  15.873  1.00  0.00     0.006 C 
BRANCH  10  11
ATOM     11  C   UNL     1      -9.201 -13.249  15.244  1.00  0.00     0.053 C 
BRANCH  11  12
ATOM     12  C   UNL     1      -8.729 -12.704  13.930  1.00  0.00     0.041 C 
ATOM     13  O   UNL     1      -8.081 -11.625  13.886  1.00  0.00    -0.550 OA
ATOM     14  O   UNL     1      -9.016 -13.381  12.751  1.00  0.00    -0.550 OA
ENDBRANCH  11  12
ENDBRANCH  10  11
ENDBRANCH   9  10
ENDBRANCH   8   9
ENDBRANCH   7   8
ENDBRANCH   6   7
ENDBRANCH   5   6
ENDBRANCH   4   5
ENDBRANCH   3   4
ENDBRANCH   2   3
ENDBRANCH   1   2
BRANCH   1  15
ATOM     15  C   UNL     1     -15.023 -12.403  18.190  1.00  0.00     0.000 C 
BRANCH  15  16
ATOM     16  C   UNL     1     -16.336 -12.349  18.996  1.00  0.00     0.000 C 
BRANCH  16  17
ATOM     17  C   UNL     1     -16.488 -11.130  19.928  1.00  0.00     0.000 C 
BRANCH  17  18
ATOM     18  C   UNL     1     -17.714 -11.173  20.857  1.00  0.00    -0.000 C 
BRANCH  18  19
ATOM     19  C   UNL     1     -17.384 -10.771  22.307  1.00  0.00    -0.000 C 
BRANCH  19  20
ATOM     20  C   UNL     1     -16.383  -9.597  22.377  1.00  0.00    -0.000 C 
BRANCH  20  21
ATOM     21  C   UNL     1     -15.068  -9.933  23.110  1.00  0.00    -0.000 C 
BRANCH  21  22
ATOM     22  C   UNL     1     -14.883 -11.413  23.479  1.00  0.00    -0.000 C 
BRANCH  22  23
ATOM     23  C   UNL     1     -13.538 -11.988  23.010  1.00  0.00    -0.000 C 
BRANCH  23  24
ATOM     24  C   UNL     1     -13.702 -12.744  21.686  1.00  0.00    -0.000 C 
BRANCH  24  25
ATOM     25  C   UNL     1     -12.521 -12.473  20.748  1.00  0.00    -0.003 C 
ATOM     26  C   UNL     1     -11.955 -11.072  20.964  1.00  0.00     0.004 C 
ENDBRANCH  24  25
ENDBRANCH  23  24
ENDBRANCH  22  23
ENDBRANCH  21  22
ENDBRANCH  20  21
ENDBRANCH  19  20
ENDBRANCH  18  19
ENDBRANCH  17  18
ENDBRANCH  16  17
ENDBRANCH  15  16
ENDBRANCH   1  15
TORSDOF 22
ENDMDL
MODEL 2
REMARK VINA RESULT:    -4.766      2.020      3.916
REMARK INTER + INTRA:         -13.694
REMARK INTER:                 -11.764
REMARK INTRA:                  -1.929
REMARK UNBOUND:                -2.798
REMARK SMILES CCCCCCCCCCCCCCCCCCCCCCCC(=O)[O-]
REMARK SMILES IDX 13 1 14 2 15 3 16 4 17 5 18 6 19 7 20 8 21 9 22 10 23 11
REMARK SMILES IDX 24 12 25 13 26 14 12 15 11 16 10 17 9 18 8 19 7 20 6 21 5 22
REMARK SMILES IDX 4 23 3 24 2 25 1 26
REMARK H PARENT
REMARK Flexibility Score: inf
ROOT
ATOM      1  C   UNL     1     -15.253 -12.691  17.422  1.00  0.00     0.000 C 
ENDROOT
BRANCH   1   2
ATOM      2  C   UNL     1     -15.801 -13.774  16.479  1.00  0.00     0.000 C 
BRANCH   2   3
ATOM      3  C   UNL     1     -16.247 -13.165  15.140  1.00  0.00     0.000 C 
BRANCH   3   4
ATOM      4  C   UNL     1     -15.067 -12.814  14.216  1.00  0.00     0.000 C 
BRANCH   4   5
ATOM      5  C   UNL     1     -14.234 -14.015  13.732  1.00  0.00     0.000 C 
BRANCH   5   6
ATOM      6  C   UNL     1     -12.808 -14.026  14.308  1.00  0.00     0.000 C 
BRANCH   6   7
ATOM      7  C   UNL     1     -12.417 -12.692  14.969  1.00  0.00     0.000 C 
BRANCH   7   8
ATOM      8  C   UNL     1     -11.314 -12.785  16.040  1.00  0.00     0.000 C 
BRANCH   8   9
ATOM      9  C   UNL     1      -9.914 -13.143  15.506  1.00  0.00     0.000 C 
BRANCH   9  10
ATOM     10  C   UNL     1      -9.252 -12.013  14.684  1.00  0.00     0.006 C 
BRANCH  10  11
ATOM     11  C   UNL     1      -7.747 -11.849  14.950  1.00  0.00     0.053 C 
BRANCH  11  12
ATOM     12  C   UNL     1      -6.934 -12.004  13.700  1.00  0.00     0.041 C 
ATOM     13  O   UNL     1      -7.431 -12.557  12.684  1.00  0.00    -0.550 OA
ATOM     14  O   UNL     1      -5.623 -11.547  13.661  1.00  0.00    -0.550 OA
ENDBRANCH  11  12
ENDBRANCH  10  11
ENDBRANCH   9  10
ENDBRANCH   8   9
ENDBRANCH   7   8
ENDBRANCH   6   7
ENDBRANCH   5   6
ENDBRANCH   4   5
ENDBRANCH   3   4
ENDBRANCH   2   3
ENDBRANCH   1   2
BRANCH   1  15
ATOM     15  C   UNL     1     -16.094 -12.532  18.701  1.00  0.00     0.000 C 
BRANCH  15  16
ATOM     16  C   UNL     1     -15.737 -11.311  19.572  1.00  0.00     0.000 C 
BRANCH  16  17
ATOM     17  C   UNL     1     -15.670 -11.578  21.088  1.00  0.00     0.000 C 
BRANCH  17  18
ATOM     18  C   UNL     1     -16.925 -11.166  21.876  1.00  0.00    -0.000 C 
BRANCH  18  19
ATOM     19  C   UNL     1     -17.875 -10.265  21.066  1.00  0.00    -0.000 C 
BRANCH  19  20
ATOM     20  C   UNL     1     -19.189 -10.986  20.690  1.00  0.00    -0.000 C 
BRANCH  20  21
ATOM     21  C   UNL     1     -20.455 -10.346  21.295  1.00  0.00    -0.000 C 
BRANCH  21  22
ATOM     22  C   UNL     1     -20.949 -10.981  22.604  1.00  0.00    -0.000 C 
BRANCH  22  23
ATOM     23  C   UNL     1     -20.753 -10.073  23.827  1.00  0.00    -0.000 C 
BRANCH  23  24
ATOM     24  C   UNL     1     -19.429 -10.390  24.533  1.00  0.00    -0.000 C 
BRANCH  24  25
ATOM     25  C   UNL     1     -18.697  -9.105  24.932  1.00  0.00    -0.003 C 
ATOM     26  C   UNL     1     -19.674  -8.052  25.447  1.00  0.00     0.004 C 
ENDBRANCH  24  25
ENDBRANCH  23  24
ENDBRANCH  22  23
ENDBRANCH  21  22
ENDBRANCH  20  21
ENDBRANCH  19  20
ENDBRANCH  18  19
ENDBRANCH  17  18
ENDBRANCH  16  17
ENDBRANCH  15  16
ENDBRANCH   1  15
TORSDOF 22
ENDMDL
MODEL 3
REMARK VINA RESULT:    -4.714      2.837      7.807
REMARK INTER + INTRA:         -13.576
REMARK INTER:                 -10.882
REMARK INTRA:                  -2.694
REMARK UNBOUND:                -2.798
REMARK SMILES CCCCCCCCCCCCCCCCCCCCCCCC(=O)[O-]
REMARK SMILES IDX 13 1 14 2 15 3 16 4 17 5 18 6 19 7 20 8 21 9 22 10 23 11
REMARK SMILES IDX 24 12 25 13 26 14 12 15 11 16 10 17 9 18 8 19 7 20 6 21 5 22
REMARK SMILES IDX 4 23 3 24 2 25 1 26
REMARK H PARENT
REMARK Flexibility Score: inf
ROOT
ATOM      1  C   UNL     1     -14.692 -13.375  17.032  1.00  0.00     0.000 C 
ENDROOT
BRANCH   1   2
ATOM      2  C   UNL     1     -14.781 -12.783  18.447  1.00  0.00     0.000 C 
BRANCH   2   3
ATOM      3  C   UNL     1     -16.107 -12.033  18.649  1.00  0.00     0.000 C 
BRANCH   3   4
ATOM      4  C   UNL     1     -16.939 -12.586  19.820  1.00  0.00     0.000 C 
BRANCH   4   5
ATOM      5  C   UNL     1     -17.756 -11.537  20.596  1.00  0.00     0.000 C 
BRANCH   5   6
ATOM      6  C   UNL     1     -16.964 -10.249  20.878  1.00  0.00     0.000 C 
BRANCH   6   7
ATOM      7  C   UNL     1     -16.626 -10.067  22.369  1.00  0.00     0.000 C 
BRANCH   7   8
ATOM      8  C   UNL     1     -15.132 -10.181  22.725  1.00  0.00     0.000 C 
BRANCH   8   9
ATOM      9  C   UNL     1     -14.257 -10.873  21.662  1.00  0.00     0.000 C 
BRANCH   9  10
ATOM     10  C   UNL     1     -13.829 -12.309  22.046  1.00  0.00     0.006 C 
BRANCH  10  11
ATOM     11  C   UNL     1     -12.501 -12.752  21.414  1.00  0.00     0.053 C 
BRANCH  11  12
ATOM     12  C   UNL     1     -11.389 -12.807  22.419  1.00  0.00     0.041 C 
ATOM     13  O   UNL     1     -10.539 -13.734  22.375  1.00  0.00    -0.550 OA
ATOM     14  O   UNL     1     -11.301 -11.840  23.413  1.00  0.00    -0.550 OA
ENDBRANCH  11  12
ENDBRANCH  10  11
ENDBRANCH   9  10
ENDBRANCH   8   9
ENDBRANCH   7   8
ENDBRANCH   6   7
ENDBRANCH   5   6
ENDBRANCH   4   5
ENDBRANCH   3   4
ENDBRANCH   2   3
ENDBRANCH   1   2
BRANCH   1  15
ATOM     15  C   UNL     1     -16.069 -13.740  16.450  1.00  0.00     0.000 C 
BRANCH  15  16
ATOM     16  C   UNL     1     -16.378 -13.132  15.068  1.00  0.00     0.000 C 
BRANCH  16  17
ATOM     17  C   UNL     1     -16.061 -14.037  13.861  1.00  0.00     0.000 C 
BRANCH  17  18
ATOM     18  C   UNL     1     -14.679 -13.810  13.225  1.00  0.00    -0.000 C 
BRANCH  18  19
ATOM     19  C   UNL     1     -14.322 -12.320  13.080  1.00  0.00    -0.000 C 
BRANCH  19  20
ATOM     20  C   UNL     1     -13.059 -11.938  13.884  1.00  0.00    -0.000 C 
BRANCH  20  21
ATOM     21  C   UNL     1     -12.271 -13.145  14.432  1.00  0.00    -0.000 C 
BRANCH  21  22
ATOM     22  C   UNL     1     -11.292 -12.825  15.573  1.00  0.00    -0.000 C 
BRANCH  22  23
ATOM     23  C   UNL     1      -9.845 -13.233  15.258  1.00  0.00    -0.000 C 
BRANCH  23  24
ATOM     24  C   UNL     1      -9.474 -12.853  13.820  1.00  0.00    -0.000 C 
BRANCH  24  25
ATOM     25  C   UNL     1      -8.349 -11.812  13.798  1.00  0.00    -0.003 C 
ATOM     26  C   UNL     1      -8.868 -10.433  14.194  1.00  0.00     0.004 C 
ENDBRANCH  24  25
ENDBRANCH  23  24
ENDBRANCH  22  23
ENDBRANCH  21  22
ENDBRANCH  20  21
ENDBRANCH  19  20
ENDBRANCH  18  19
ENDBRANCH  17  18
ENDBRANCH  16  17
ENDBRANCH  15  16
ENDBRANCH   1  15
TORSDOF 22
ENDMDL
MODEL 4
REMARK VINA RESULT:    -4.668      1.766      3.439
REMARK INTER + INTRA:         -13.469
REMARK INTER:                 -11.688
REMARK INTRA:                  -1.781
REMARK UNBOUND:                -2.798
REMARK SMILES CCCCCCCCCCCCCCCCCCCCCCCC(=O)[O-]
REMARK SMILES IDX 13 1 14 2 15 3 16 4 17 5 18 6 19 7 20 8 21 9 22 10 23 11
REMARK SMILES IDX 24 12 25 13 26 14 12 15 11 16 10 17 9 18 8 19 7 20 6 21 5 22
REMARK SMILES IDX 4 23 3 24 2 25 1 26
REMARK H PARENT
REMARK Flexibility Score: inf
ROOT
ATOM      1  C   UNL     1     -14.605 -13.123  17.571  1.00  0.00     0.000 C 
ENDROOT
BRANCH   1   2
ATOM      2  C   UNL     1     -15.681 -13.595  16.581  1.00  0.00     0.000 C 
BRANCH   2   3
ATOM      3  C   UNL     1     -15.480 -12.951  15.201  1.00  0.00     0.000 C 
BRANCH   3   4
ATOM      4  C   UNL     1     -14.139 -12.207  15.072  1.00  0.00     0.000 C 
BRANCH   4   5
ATOM      5  C   UNL     1     -13.112 -12.866  14.135  1.00  0.00     0.000 C 
BRANCH   5   6
ATOM      6  C   UNL     1     -12.859 -14.346  14.468  1.00  0.00     0.000 C 
BRANCH   6   7
ATOM      7  C   UNL     1     -11.406 -14.626  14.893  1.00  0.00     0.000 C 
BRANCH   7   8
ATOM      8  C   UNL     1     -10.368 -13.597  14.409  1.00  0.00     0.000 C 
BRANCH   8   9
ATOM      9  C   UNL     1     -10.000 -12.507  15.433  1.00  0.00     0.000 C 
BRANCH   9  10
ATOM     10  C   UNL     1      -8.483 -12.409  15.722  1.00  0.00     0.006 C 
BRANCH  10  11
ATOM     11  C   UNL     1      -7.762 -11.332  14.898  1.00  0.00     0.053 C 
BRANCH  11  12
ATOM     12  C   UNL     1      -7.002 -11.918  13.746  1.00  0.00     0.041 C 
ATOM     13  O   UNL     1      -5.744 -11.952  13.767  1.00  0.00    -0.550 OA
ATOM     14  O   UNL     1      -7.685 -12.417  12.643  1.00  0.00    -0.550 OA
ENDBRANCH  11  12
ENDBRANCH  10  11
ENDBRANCH   9  10
ENDBRANCH   8   9
ENDBRANCH   7   8
ENDBRANCH   6   7
ENDBRANCH   5   6
ENDBRANCH   4   5
ENDBRANCH   3   4
ENDBRANCH   2   3
ENDBRANCH   1   2
BRANCH   1  15
ATOM     15  C   UNL     1     -15.191 -12.353  18.768  1.00  0.00     0.000 C 
BRANCH  15  16
ATOM     16  C   UNL     1     -16.695 -12.579  19.020  1.00  0.00     0.000 C 
BRANCH  16  17
ATOM     17  C   UNL     1     -17.247 -11.965  20.321  1.00  0.00     0.000 C 
BRANCH  17  18
ATOM     18  C   UNL     1     -16.428 -10.791  20.883  1.00  0.00    -0.000 C 
BRANCH  18  19
ATOM     19  C   UNL     1     -16.044 -10.978  22.362  1.00  0.00    -0.000 C 
BRANCH  19  20
ATOM     20  C   UNL     1     -16.178  -9.669  23.173  1.00  0.00    -0.000 C 
BRANCH  20  21
ATOM     21  C   UNL     1     -17.146  -9.765  24.369  1.00  0.00    -0.000 C 
BRANCH  21  22
ATOM     22  C   UNL     1     -18.318 -10.743  24.187  1.00  0.00    -0.000 C 
BRANCH  22  23
ATOM     23  C   UNL     1     -19.691 -10.084  24.394  1.00  0.00    -0.000 C 
BRANCH  23  24
ATOM     24  C   UNL     1     -20.638 -10.429  23.239  1.00  0.00    -0.000 C 
BRANCH  24  25
ATOM     25  C   UNL     1     -19.884 -10.485  21.906  1.00  0.00    -0.003 C 
ATOM     26  C   UNL     1     -20.792 -10.096  20.743  1.00  0.00     0.004 C 
ENDBRANCH  24  25
ENDBRANCH  23  24
ENDBRANCH  22  23
ENDBRANCH  21  22
ENDBRANCH  20  21
ENDBRANCH  19  20
ENDBRANCH  18  19
ENDBRANCH  17  18
ENDBRANCH  16  17
ENDBRANCH  15  16
ENDBRANCH   1  15
TORSDOF 22
ENDMDL
MODEL 5
REMARK VINA RESULT:    -4.654      1.488      2.171
REMARK INTER + INTRA:         -13.439
REMARK INTER:                 -11.020
REMARK INTRA:                  -2.419
REMARK UNBOUND:                -2.798
REMARK SMILES CCCCCCCCCCCCCCCCCCCCCCCC(=O)[O-]
REMARK SMILES IDX 13 1 14 2 15 3 16 4 17 5 18 6 19 7 20 8 21 9 22 10 23 11
REMARK SMILES IDX 24 12 25 13 26 14 12 15 11 16 10 17 9 18 8 19 7 20 6 21 5 22
REMARK SMILES IDX 4 23 3 24 2 25 1 26
REMARK H PARENT
REMARK Flexibility Score: inf
ROOT
ATOM      1  C   UNL     1     -15.109 -12.757  16.828  1.00  0.00     0.000 C 
ENDROOT
BRANCH   1   2
ATOM      2  C   UNL     1     -16.105 -13.759  16.226  1.00  0.00     0.000 C 
BRANCH   2   3
ATOM      3  C   UNL     1     -16.614 -13.277  14.859  1.00  0.00     0.000 C 
BRANCH   3   4
ATOM      4  C   UNL     1     -16.163 -14.180  13.696  1.00  0.00     0.000 C 
BRANCH   4   5
ATOM      5  C   UNL     1     -14.829 -13.784  13.038  1.00  0.00     0.000 C 
BRANCH   5   6
ATOM      6  C   UNL     1     -14.597 -12.263  13.024  1.00  0.00     0.000 C 
BRANCH   6   7
ATOM      7  C   UNL     1     -13.237 -11.858  13.620  1.00  0.00     0.000 C 
BRANCH   7   8
ATOM      8  C   UNL     1     -12.380 -13.020  14.156  1.00  0.00     0.000 C 
BRANCH   8   9
ATOM      9  C   UNL     1     -11.717 -12.768  15.524  1.00  0.00     0.000 C 
BRANCH   9  10
ATOM     10  C   UNL     1     -10.192 -13.022  15.534  1.00  0.00     0.006 C 
BRANCH  10  11
ATOM     11  C   UNL     1      -9.564 -13.099  14.133  1.00  0.00     0.053 C 
BRANCH  11  12
ATOM     12  C   UNL     1      -8.609 -11.971  13.882  1.00  0.00     0.041 C 
ATOM     13  O   UNL     1      -7.440 -12.207  13.478  1.00  0.00    -0.550 OA
ATOM     14  O   UNL     1      -9.007 -10.658  14.105  1.00  0.00    -0.550 OA
ENDBRANCH  11  12
ENDBRANCH  10  11
ENDBRANCH   9  10
ENDBRANCH   8   9
ENDBRANCH   7   8
ENDBRANCH   6   7
ENDBRANCH   5   6
ENDBRANCH   4   5
ENDBRANCH   3   4
ENDBRANCH   2   3
ENDBRANCH   1   2
BRANCH   1  15
ATOM     15  C   UNL     1     -15.219 -12.651  18.360  1.00  0.00     0.000 C 
BRANCH  15  16
ATOM     16  C   UNL     1     -16.657 -12.646  18.914  1.00  0.00     0.000 C 
BRANCH  16  17
ATOM     17  C   UNL     1     -16.787 -12.311  20.413  1.00  0.00     0.000 C 
BRANCH  17  18
ATOM     18  C   UNL     1     -15.498 -12.493  21.232  1.00  0.00    -0.000 C 
BRANCH  18  19
ATOM     19  C   UNL     1     -15.285 -11.380  22.274  1.00  0.00    -0.000 C 
BRANCH  19  20
ATOM     20  C   UNL     1     -13.789 -11.065  22.499  1.00  0.00    -0.000 C 
BRANCH  20  21
ATOM     21  C   UNL     1     -13.008 -10.759  21.205  1.00  0.00    -0.000 C 
BRANCH  21  22
ATOM     22  C   UNL     1     -11.971 -11.819  20.800  1.00  0.00    -0.000 C 
BRANCH  22  23
ATOM     23  C   UNL     1     -11.714 -12.862  21.898  1.00  0.00    -0.000 C 
BRANCH  23  24
ATOM     24  C   UNL     1     -10.257 -12.803  22.372  1.00  0.00    -0.000 C 
BRANCH  24  25
ATOM     25  C   UNL     1      -9.428 -11.866  21.488  1.00  0.00    -0.003 C 
ATOM     26  C   UNL     1      -7.947 -12.228  21.538  1.00  0.00     0.004 C 
ENDBRANCH  24  25
ENDBRANCH  23  24
ENDBRANCH  22  23
ENDBRANCH  21  22
ENDBRANCH  20  21
ENDBRANCH  19  20
ENDBRANCH  18  19
ENDBRANCH  17  18
ENDBRANCH  16  17
ENDBRANCH  15  16
ENDBRANCH   1  15
TORSDOF 22
ENDMDL
MODEL 6
REMARK VINA RESULT:    -4.614      2.377      7.468
REMARK INTER + INTRA:         -13.346
REMARK INTER:                 -10.645
REMARK INTRA:                  -2.701
REMARK UNBOUND:                -2.798
REMARK SMILES CCCCCCCCCCCCCCCCCCCCCCCC(=O)[O-]
REMARK SMILES IDX 13 1 14 2 15 3 16 4 17 5 18 6 19 7 20 8 21 9 22 10 23 11
REMARK SMILES IDX 24 12 25 13 26 14 12 15 11 16 10 17 9 18 8 19 7 20 6 21 5 22
REMARK SMILES IDX 4 23 3 24 2 25 1 26
REMARK H PARENT
REMARK Flexibility Score: inf
ROOT
ATOM      1  C   UNL     1     -15.856 -11.748  19.316  1.00  0.00     0.000 C 
ENDROOT
BRANCH   1   2
ATOM      2  C   UNL     1     -16.986 -12.419  20.112  1.00  0.00     0.000 C 
BRANCH   2   3
ATOM      3  C   UNL     1     -18.033 -11.388  20.560  1.00  0.00     0.000 C 
BRANCH   3   4
ATOM      4  C   UNL     1     -17.407 -10.109  21.145  1.00  0.00     0.000 C 
BRANCH   4   5
ATOM      5  C   UNL     1     -17.317 -10.068  22.681  1.00  0.00     0.000 C 
BRANCH   5   6
ATOM      6  C   UNL     1     -15.870 -10.141  23.198  1.00  0.00     0.000 C 
BRANCH   6   7
ATOM      7  C   UNL     1     -14.849  -9.543  22.212  1.00  0.00     0.000 C 
BRANCH   7   8
ATOM      8  C   UNL     1     -13.581 -10.387  21.986  1.00  0.00     0.000 C 
BRANCH   8   9
ATOM      9  C   UNL     1     -13.714 -11.878  22.348  1.00  0.00     0.000 C 
BRANCH   9  10
ATOM     10  C   UNL     1     -12.630 -12.775  21.707  1.00  0.00     0.006 C 
BRANCH  10  11
ATOM     11  C   UNL     1     -11.286 -12.756  22.452  1.00  0.00     0.053 C 
BRANCH  11  12
ATOM     12  C   UNL     1     -10.197 -12.127  21.634  1.00  0.00     0.041 C 
ATOM     13  O   UNL     1      -8.990 -12.292  21.950  1.00  0.00    -0.550 OA
ATOM     14  O   UNL     1     -10.518 -11.350  20.528  1.00  0.00    -0.550 OA
ENDBRANCH  11  12
ENDBRANCH  10  11
ENDBRANCH   9  10
ENDBRANCH   8   9
ENDBRANCH   7   8
ENDBRANCH   6   7
ENDBRANCH   5   6
ENDBRANCH   4   5
ENDBRANCH   3   4
ENDBRANCH   2   3
ENDBRANCH   1   2
BRANCH   1  15
ATOM     15  C   UNL     1     -15.327 -12.630  18.171  1.00  0.00     0.000 C 
BRANCH  15  16
ATOM     16  C   UNL     1     -16.403 -13.432  17.411  1.00  0.00     0.000 C 
BRANCH  16  17
ATOM     17  C   UNL     1     -15.965 -13.996  16.045  1.00  0.00     0.000 C 
BRANCH  17  18
ATOM     18  C   UNL     1     -16.682 -13.383  14.830  1.00  0.00    -0.000 C 
BRANCH  18  19
ATOM     19  C   UNL     1     -15.987 -13.708  13.495  1.00  0.00    -0.000 C 
BRANCH  19  20
ATOM     20  C   UNL     1     -14.907 -12.667  13.127  1.00  0.00    -0.000 C 
BRANCH  20  21
ATOM     21  C   UNL     1     -13.499 -13.002  13.661  1.00  0.00    -0.000 C 
BRANCH  21  22
ATOM     22  C   UNL     1     -13.058 -12.195  14.893  1.00  0.00    -0.000 C 
BRANCH  22  23
ATOM     23  C   UNL     1     -12.373 -13.057  15.965  1.00  0.00    -0.000 C 
BRANCH  23  24
ATOM     24  C   UNL     1     -10.887 -12.698  16.082  1.00  0.00    -0.000 C 
BRANCH  24  25
ATOM     25  C   UNL     1     -10.043 -13.519  15.101  1.00  0.00    -0.003 C 
ATOM     26  C   UNL     1      -9.258 -12.613  14.158  1.00  0.00     0.004 C 
ENDBRANCH  24  25
ENDBRANCH  23  24
ENDBRANCH  22  23
ENDBRANCH  21  22
ENDBRANCH  20  21
ENDBRANCH  19  20
ENDBRANCH  18  19
ENDBRANCH  17  18
ENDBRANCH  16  17
ENDBRANCH  15  16
ENDBRANCH   1  15
TORSDOF 22
ENDMDL
MODEL 7
REMARK VINA RESULT:    -4.607      1.994      3.721
REMARK INTER + INTRA:         -13.329
REMARK INTER:                 -10.694
REMARK INTRA:                  -2.635
REMARK UNBOUND:                -2.798
REMARK SMILES CCCCCCCCCCCCCCCCCCCCCCCC(=O)[O-]
REMARK SMILES IDX 13 1 14 2 15 3 16 4 17 5 18 6 19 7 20 8 21 9 22 10 23 11
REMARK SMILES IDX 24 12 25 13 26 14 12 15 11 16 10 17 9 18 8 19 7 20 6 21 5 22
REMARK SMILES IDX 4 23 3 24 2 25 1 26
REMARK H PARENT
REMARK Flexibility Score: inf
ROOT
ATOM      1  C   UNL     1     -16.600 -12.526  19.024  1.00  0.00     0.000 C 
ENDROOT
BRANCH   1   2
ATOM      2  C   UNL     1     -15.180 -12.317  18.475  1.00  0.00     0.000 C 
BRANCH   2   3
ATOM      3  C   UNL     1     -14.877 -13.306  17.340  1.00  0.00     0.000 C 
BRANCH   3   4
ATOM      4  C   UNL     1     -16.144 -13.944  16.742  1.00  0.00     0.000 C 
BRANCH   4   5
ATOM      5  C   UNL     1     -16.656 -13.291  15.446  1.00  0.00     0.000 C 
BRANCH   5   6
ATOM      6  C   UNL     1     -17.020 -14.318  14.360  1.00  0.00     0.000 C 
BRANCH   6   7
ATOM      7  C   UNL     1     -16.080 -14.263  13.142  1.00  0.00     0.000 C 
BRANCH   7   8
ATOM      8  C   UNL     1     -15.117 -13.062  13.107  1.00  0.00     0.000 C 
BRANCH   8   9
ATOM      9  C   UNL     1     -13.655 -13.384  13.472  1.00  0.00     0.000 C 
BRANCH   9  10
ATOM     10  C   UNL     1     -12.978 -12.301  14.344  1.00  0.00     0.006 C 
BRANCH  10  11
ATOM     11  C   UNL     1     -11.914 -12.852  15.306  1.00  0.00     0.053 C 
BRANCH  11  12
ATOM     12  C   UNL     1     -10.912 -13.718  14.603  1.00  0.00     0.041 C 
ATOM     13  O   UNL     1     -10.115 -13.216  13.768  1.00  0.00    -0.550 OA
ATOM     14  O   UNL     1     -10.869 -15.082  14.861  1.00  0.00    -0.550 OA
ENDBRANCH  11  12
ENDBRANCH  10  11
ENDBRANCH   9  10
ENDBRANCH   8   9
ENDBRANCH   7   8
ENDBRANCH   6   7
ENDBRANCH   5   6
ENDBRANCH   4   5
ENDBRANCH   3   4
ENDBRANCH   2   3
ENDBRANCH   1   2
BRANCH   1  15
ATOM     15  C   UNL     1     -16.667 -12.436  20.559  1.00  0.00     0.000 C 
BRANCH  15  16
ATOM     16  C   UNL     1     -16.557 -11.011  21.136  1.00  0.00     0.000 C 
BRANCH  16  17
ATOM     17  C   UNL     1     -17.843 -10.164  21.057  1.00  0.00     0.000 C 
BRANCH  17  18
ATOM     18  C   UNL     1     -19.150 -10.973  21.013  1.00  0.00    -0.000 C 
BRANCH  18  19
ATOM     19  C   UNL     1     -20.377 -10.158  21.461  1.00  0.00    -0.000 C 
BRANCH  19  20
ATOM     20  C   UNL     1     -20.845 -10.534  22.884  1.00  0.00    -0.000 C 
BRANCH  20  21
ATOM     21  C   UNL     1     -20.759  -9.380  23.903  1.00  0.00    -0.000 C 
BRANCH  21  22
ATOM     22  C   UNL     1     -19.433  -9.284  24.675  1.00  0.00    -0.000 C 
BRANCH  22  23
ATOM     23  C   UNL     1     -18.706 -10.632  24.793  1.00  0.00    -0.000 C 
BRANCH  23  24
ATOM     24  C   UNL     1     -17.186 -10.433  24.776  1.00  0.00    -0.000 C 
BRANCH  24  25
ATOM     25  C   UNL     1     -16.824  -8.993  24.399  1.00  0.00    -0.003 C 
ATOM     26  C   UNL     1     -15.313  -8.783  24.410  1.00  0.00     0.004 C 
ENDBRANCH  24  25
ENDBRANCH  23  24
ENDBRANCH  22  23
ENDBRANCH  21  22
ENDBRANCH  20  21
ENDBRANCH  19  20
ENDBRANCH  18  19
ENDBRANCH  17  18
ENDBRANCH  16  17
ENDBRANCH  15  16
ENDBRANCH   1  15
TORSDOF 22
ENDMDL
MODEL 8
REMARK VINA RESULT:    -4.487      1.819      3.316
REMARK INTER + INTRA:         -13.057
REMARK INTER:                 -10.507
REMARK INTRA:                  -2.550
REMARK UNBOUND:                -2.798
REMARK SMILES CCCCCCCCCCCCCCCCCCCCCCCC(=O)[O-]
REMARK SMILES IDX 13 1 14 2 15 3 16 4 17 5 18 6 19 7 20 8 21 9 22 10 23 11
REMARK SMILES IDX 24 12 25 13 26 14 12 15 11 16 10 17 9 18 8 19 7 20 6 21 5 22
REMARK SMILES IDX 4 23 3 24 2 25 1 26
REMARK H PARENT
REMARK Flexibility Score: inf
ROOT
ATOM      1  C   UNL     1     -16.867 -11.724  20.842  1.00  0.00     0.000 C 
ENDROOT
BRANCH   1   2
ATOM      2  C   UNL     1     -15.962 -11.724  19.601  1.00  0.00     0.000 C 
BRANCH   2   3
ATOM      3  C   UNL     1     -16.437 -12.760  18.571  1.00  0.00     0.000 C 
BRANCH   3   4
ATOM      4  C   UNL     1     -15.527 -12.840  17.332  1.00  0.00     0.000 C 
BRANCH   4   5
ATOM      5  C   UNL     1     -16.024 -13.772  16.213  1.00  0.00     0.000 C 
BRANCH   5   6
ATOM      6  C   UNL     1     -16.132 -13.068  14.850  1.00  0.00     0.000 C 
BRANCH   6   7
ATOM      7  C   UNL     1     -15.051 -13.524  13.852  1.00  0.00     0.000 C 
BRANCH   7   8
ATOM      8  C   UNL     1     -14.301 -12.389  13.129  1.00  0.00     0.000 C 
BRANCH   8   9
ATOM      9  C   UNL     1     -13.003 -11.922  13.815  1.00  0.00     0.000 C 
BRANCH   9  10
ATOM     10  C   UNL     1     -12.520 -12.863  14.943  1.00  0.00     0.006 C 
BRANCH  10  11
ATOM     11  C   UNL     1     -11.198 -13.582  14.631  1.00  0.00     0.053 C 
BRANCH  11  12
ATOM     12  C   UNL     1     -10.017 -12.870  15.219  1.00  0.00     0.041 C 
ATOM     13  O   UNL     1     -10.086 -12.375  16.375  1.00  0.00    -0.550 OA
ATOM     14  O   UNL     1      -8.845 -12.743  14.485  1.00  0.00    -0.550 OA
ENDBRANCH  11  12
ENDBRANCH  10  11
ENDBRANCH   9  10
ENDBRANCH   8   9
ENDBRANCH   7   8
ENDBRANCH   6   7
ENDBRANCH   5   6
ENDBRANCH   4   5
ENDBRANCH   3   4
ENDBRANCH   2   3
ENDBRANCH   1   2
BRANCH   1  15
ATOM     15  C   UNL     1     -17.856 -10.545  20.861  1.00  0.00     0.000 C 
BRANCH  15  16
ATOM     16  C   UNL     1     -19.322 -10.915  20.558  1.00  0.00     0.000 C 
BRANCH  16  17
ATOM     17  C   UNL     1     -20.375 -10.220  21.442  1.00  0.00     0.000 C 
BRANCH  17  18
ATOM     18  C   UNL     1     -20.550 -10.829  22.844  1.00  0.00    -0.000 C 
BRANCH  18  19
ATOM     19  C   UNL     1     -20.570  -9.771  23.962  1.00  0.00    -0.000 C 
BRANCH  19  20
ATOM     20  C   UNL     1     -19.198  -9.626  24.657  1.00  0.00    -0.000 C 
BRANCH  20  21
ATOM     21  C   UNL     1     -18.301 -10.875  24.549  1.00  0.00    -0.000 C 
BRANCH  21  22
ATOM     22  C   UNL     1     -16.802 -10.590  24.362  1.00  0.00    -0.000 C 
BRANCH  22  23
ATOM     23  C   UNL     1     -16.506  -9.125  24.009  1.00  0.00    -0.000 C 
BRANCH  23  24
ATOM     24  C   UNL     1     -15.319  -9.028  23.043  1.00  0.00    -0.000 C 
BRANCH  24  25
ATOM     25  C   UNL     1     -14.149  -9.895  23.519  1.00  0.00    -0.003 C 
ATOM     26  C   UNL     1     -13.615 -10.769  22.388  1.00  0.00     0.004 C 
ENDBRANCH  24  25
ENDBRANCH  23  24
ENDBRANCH  22  23
ENDBRANCH  21  22
ENDBRANCH  20  21
ENDBRANCH  19  20
ENDBRANCH  18  19
ENDBRANCH  17  18
ENDBRANCH  16  17
ENDBRANCH  15  16
ENDBRANCH   1  15
TORSDOF 22
ENDMDL
MODEL 9
REMARK VINA RESULT:    -4.467      2.965      5.061
REMARK INTER + INTRA:         -13.009
REMARK INTER:                 -10.117
REMARK INTRA:                  -2.893
REMARK UNBOUND:                -2.798
REMARK SMILES CCCCCCCCCCCCCCCCCCCCCCCC(=O)[O-]
REMARK SMILES IDX 13 1 14 2 15 3 16 4 17 5 18 6 19 7 20 8 21 9 22 10 23 11
REMARK SMILES IDX 24 12 25 13 26 14 12 15 11 16 10 17 9 18 8 19 7 20 6 21 5 22
REMARK SMILES IDX 4 23 3 24 2 25 1 26
REMARK H PARENT
REMARK Flexibility Score: inf
ROOT
ATOM      1  C   UNL     1     -19.293 -10.960  20.538  1.00  0.00     0.000 C 
ENDROOT
BRANCH   1   2
ATOM      2  C   UNL     1     -17.819 -10.555  20.688  1.00  0.00     0.000 C 
BRANCH   2   3
ATOM      3  C   UNL     1     -16.943 -11.772  21.022  1.00  0.00     0.000 C 
BRANCH   3   4
ATOM      4  C   UNL     1     -16.775 -12.737  19.834  1.00  0.00     0.000 C 
BRANCH   4   5
ATOM      5  C   UNL     1     -16.109 -12.129  18.587  1.00  0.00     0.000 C 
BRANCH   5   6
ATOM      6  C   UNL     1     -14.720 -12.724  18.300  1.00  0.00     0.000 C 
BRANCH   6   7
ATOM      7  C   UNL     1     -14.652 -13.469  16.954  1.00  0.00     0.000 C 
BRANCH   7   8
ATOM      8  C   UNL     1     -13.620 -12.922  15.950  1.00  0.00     0.000 C 
BRANCH   8   9
ATOM      9  C   UNL     1     -13.400 -13.794  14.699  1.00  0.00     0.000 C 
BRANCH   9  10
ATOM     10  C   UNL     1     -14.165 -13.298  13.450  1.00  0.00     0.006 C 
BRANCH  10  11
ATOM     11  C   UNL     1     -15.320 -14.217  13.023  1.00  0.00     0.053 C 
BRANCH  11  12
ATOM     12  C   UNL     1     -16.601 -13.877  13.723  1.00  0.00     0.041 C 
ATOM     13  O   UNL     1     -16.807 -12.704  14.134  1.00  0.00    -0.550 OA
ATOM     14  O   UNL     1     -17.561 -14.858  13.934  1.00  0.00    -0.550 OA
ENDBRANCH  11  12
ENDBRANCH  10  11
ENDBRANCH   9  10
ENDBRANCH   8   9
ENDBRANCH   7   8
ENDBRANCH   6   7
ENDBRANCH   5   6
ENDBRANCH   4   5
ENDBRANCH   3   4
ENDBRANCH   2   3
ENDBRANCH   1   2
BRANCH   1  15
ATOM     15  C   UNL     1     -20.230 -10.159  21.461  1.00  0.00     0.000 C 
BRANCH  15  16
ATOM     16  C   UNL     1     -20.529 -10.819  22.822  1.00  0.00     0.000 C 
BRANCH  16  17
ATOM     17  C   UNL     1     -20.480  -9.874  24.039  1.00  0.00     0.000 C 
BRANCH  17  18
ATOM     18  C   UNL     1     -19.073  -9.619  24.606  1.00  0.00    -0.000 C 
BRANCH  18  19
ATOM     19  C   UNL     1     -18.152 -10.848  24.505  1.00  0.00    -0.000 C 
BRANCH  19  20
ATOM     20  C   UNL     1     -16.666 -10.457  24.345  1.00  0.00    -0.000 C 
BRANCH  20  21
ATOM     21  C   UNL     1     -16.440  -8.980  23.962  1.00  0.00    -0.000 C 
BRANCH  21  22
ATOM     22  C   UNL     1     -15.471  -8.747  22.792  1.00  0.00    -0.000 C 
BRANCH  22  23
ATOM     23  C   UNL     1     -14.152  -9.520  22.938  1.00  0.00    -0.000 C 
BRANCH  23  24
ATOM     24  C   UNL     1     -13.804 -10.251  21.636  1.00  0.00    -0.000 C 
BRANCH  24  25
ATOM     25  C   UNL     1     -12.665 -11.253  21.855  1.00  0.00    -0.003 C 
ATOM     26  C   UNL     1     -13.105 -12.672  21.505  1.00  0.00     0.004 C 
ENDBRANCH  24  25
ENDBRANCH  23  24
ENDBRANCH  22  23
ENDBRANCH  21  22
ENDBRANCH  20  21
ENDBRANCH  19  20
ENDBRANCH  18  19
ENDBRANCH  17  18
ENDBRANCH  16  17
ENDBRANCH  15  16
ENDBRANCH   1  15
TORSDOF 22
ENDMDL
