MODEL 1
REMARK VINA RESULT:    -4.311      0.000      0.000
REMARK INTER + INTRA:          -7.575
REMARK INTER:                  -6.831
REMARK INTRA:                  -0.743
REMARK UNBOUND:                -0.743
REMARK SMILES CCCCCCCCCCCC(=O)[O-]
REMARK SMILES IDX 7 1 8 2 9 3 10 4 11 5 12 6 13 7 14 8 6 9 5 10 4 11 3 12 2 13
REMARK SMILES IDX 1 14
REMARK H PARENT
REMARK Flexibility Score: inf
ROOT
ATOM      1  C   UNL     1      73.090 -35.673   5.769  1.00  0.00     0.000 C 
ENDROOT
BRANCH   1   2
ATOM      2  C   UNL     1      74.132 -36.395   6.640  1.00  0.00     0.000 C 
BRANCH   2   3
ATOM      3  C   UNL     1      73.794 -36.342   8.137  1.00  0.00     0.000 C 
BRANCH   3   4
ATOM      4  C   UNL     1      75.020 -36.691   8.989  1.00  0.00     0.006 C 
BRANCH   4   5
ATOM      5  C   UNL     1      74.619 -37.502  10.225  1.00  0.00     0.053 C 
BRANCH   5   6
ATOM      6  C   UNL     1      75.621 -37.317  11.321  1.00  0.00     0.041 C 
ATOM      7  O   UNL     1      75.649 -38.117  12.293  1.00  0.00    -0.550 OA
ATOM      8  O   UNL     1      76.488 -36.234  11.295  1.00  0.00    -0.550 OA
ENDBRANCH   5   6
ENDBRANCH   4   5
ENDBRANCH   3   4
ENDBRANCH   2   3
ENDBRANCH   1   2
BRANCH   1   9
ATOM      9  C   UNL     1      73.593 -34.315   5.251  1.00  0.00     0.000 C 
BRANCH   9  10
ATOM     10  C   UNL     1      72.515 -33.221   5.319  1.00  0.00    -0.000 C 
BRANCH  10  11
ATOM     11  C   UNL     1      71.749 -33.223   6.651  1.00  0.00    -0.000 C 
BRANCH  11  12
ATOM     12  C   UNL     1      70.232 -33.205   6.410  1.00  0.00    -0.000 C 
BRANCH  12  13
ATOM     13  C   UNL     1      69.482 -34.220   7.286  1.00  0.00    -0.003 C 
ATOM     14  C   UNL     1      69.410 -35.609   6.653  1.00  0.00     0.004 C 
ENDBRANCH  12  13
ENDBRANCH  11  12
ENDBRANCH  10  11
ENDBRANCH   9  10
ENDBRANCH   1   9
TORSDOF 10
ENDMDL
MODEL 2
REMARK VINA RESULT:    -4.183      2.231      3.666
REMARK INTER + INTRA:          -7.372
REMARK INTER:                  -6.840
REMARK INTRA:                  -0.531
REMARK UNBOUND:                -0.743
REMARK SMILES CCCCCCCCCCCC(=O)[O-]
REMARK SMILES IDX 7 1 8 2 9 3 10 4 11 5 12 6 13 7 14 8 6 9 5 10 4 11 3 12 2 13
REMARK SMILES IDX 1 14
REMARK H PARENT
REMARK Flexibility Score: inf
ROOT
ATOM      1  C   UNL     1      69.702 -37.811   9.723  1.00  0.00     0.000 C 
ENDROOT
BRANCH   1   2
ATOM      2  C   UNL     1      70.630 -38.728  10.537  1.00  0.00     0.000 C 
BRANCH   2   3
ATOM      3  C   UNL     1      71.376 -37.979  11.651  1.00  0.00     0.000 C 
BRANCH   3   4
ATOM      4  C   UNL     1      72.583 -37.219  11.088  1.00  0.00     0.006 C 
BRANCH   4   5
ATOM      5  C   UNL     1      73.889 -37.962  11.385  1.00  0.00     0.053 C 
BRANCH   5   6
ATOM      6  C   UNL     1      75.044 -37.274  10.728  1.00  0.00     0.041 C 
ATOM      7  O   UNL     1      75.034 -37.066   9.486  1.00  0.00    -0.550 OA
ATOM      8  O   UNL     1      76.153 -36.907  11.478  1.00  0.00    -0.550 OA
ENDBRANCH   5   6
ENDBRANCH   4   5
ENDBRANCH   3   4
ENDBRANCH   2   3
ENDBRANCH   1   2
BRANCH   1   9
ATOM      9  C   UNL     1      70.192 -37.606   8.280  1.00  0.00     0.000 C 
BRANCH   9  10
ATOM     10  C   UNL     1      70.443 -36.126   7.945  1.00  0.00    -0.000 C 
BRANCH  10  11
ATOM     11  C   UNL     1      69.321 -35.511   7.096  1.00  0.00    -0.000 C 
BRANCH  11  12
ATOM     12  C   UNL     1      69.278 -33.985   7.269  1.00  0.00    -0.000 C 
BRANCH  12  13
ATOM     13  C   UNL     1      70.153 -33.249   6.243  1.00  0.00    -0.003 C 
ATOM     14  C   UNL     1      71.519 -32.854   6.805  1.00  0.00     0.004 C 
ENDBRANCH  12  13
ENDBRANCH  11  12
ENDBRANCH  10  11
ENDBRANCH   9  10
ENDBRANCH   1   9
TORSDOF 10
ENDMDL
MODEL 3
REMARK VINA RESULT:    -4.168      1.392      3.263
REMARK INTER + INTRA:          -7.347
REMARK INTER:                  -6.309
REMARK INTRA:                  -1.038
REMARK UNBOUND:                -0.743
REMARK SMILES CCCCCCCCCCCC(=O)[O-]
REMARK SMILES IDX 7 1 8 2 9 3 10 4 11 5 12 6 13 7 14 8 6 9 5 10 4 11 3 12 2 13
REMARK SMILES IDX 1 14
REMARK H PARENT
REMARK Flexibility Score: inf
ROOT
ATOM      1  C   UNL     1      69.073 -36.207   7.982  1.00  0.00     0.000 C 
ENDROOT
BRANCH   1   2
ATOM      2  C   UNL     1      70.279 -36.906   8.631  1.00  0.00     0.000 C 
BRANCH   2   3
ATOM      3  C   UNL     1      71.577 -36.713   7.834  1.00  0.00     0.000 C 
BRANCH   3   4
ATOM      4  C   UNL     1      72.721 -36.261   8.750  1.00  0.00     0.006 C 
BRANCH   4   5
ATOM      5  C   UNL     1      72.709 -37.039  10.070  1.00  0.00     0.053 C 
BRANCH   5   6
ATOM      6  C   UNL     1      74.106 -37.345  10.510  1.00  0.00     0.041 C 
ATOM      7  O   UNL     1      75.084 -37.009   9.791  1.00  0.00    -0.550 OA
ATOM      8  O   UNL     1      74.326 -38.045  11.689  1.00  0.00    -0.550 OA
ENDBRANCH   5   6
ENDBRANCH   4   5
ENDBRANCH   3   4
ENDBRANCH   2   3
ENDBRANCH   1   2
BRANCH   1   9
ATOM      9  C   UNL     1      69.477 -35.305   6.804  1.00  0.00     0.000 C 
BRANCH   9  10
ATOM     10  C   UNL     1      69.457 -33.812   7.169  1.00  0.00    -0.000 C 
BRANCH  10  11
ATOM     11  C   UNL     1      70.375 -32.968   6.272  1.00  0.00    -0.000 C 
BRANCH  11  12
ATOM     12  C   UNL     1      71.849 -33.337   6.497  1.00  0.00    -0.000 C 
BRANCH  12  13
ATOM     13  C   UNL     1      72.618 -33.525   5.180  1.00  0.00    -0.003 C 
ATOM     14  C   UNL     1      73.797 -34.489   5.316  1.00  0.00     0.004 C 
ENDBRANCH  12  13
ENDBRANCH  11  12
ENDBRANCH  10  11
ENDBRANCH   9  10
ENDBRANCH   1   9
TORSDOF 10
ENDMDL
MODEL 4
REMARK VINA RESULT:    -4.124      3.439      6.339
REMARK INTER + INTRA:          -7.278
REMARK INTER:                  -6.496
REMARK INTRA:                  -0.781
REMARK UNBOUND:                -0.743
REMARK SMILES CCCCCCCCCCCC(=O)[O-]
REMARK SMILES IDX 7 1 8 2 9 3 10 4 11 5 12 6 13 7 14 8 6 9 5 10 4 11 3 12 2 13
REMARK SMILES IDX 1 14
REMARK H PARENT
REMARK Flexibility Score: inf
ROOT
ATOM      1  C   UNL     1      70.001 -36.470   8.228  1.00  0.00     0.000 C 
ENDROOT
BRANCH   1   2
ATOM      2  C   UNL     1      69.114 -35.720   7.220  1.00  0.00     0.000 C 
BRANCH   2   3
ATOM      3  C   UNL     1      69.135 -34.199   7.427  1.00  0.00     0.000 C 
BRANCH   3   4
ATOM      4  C   UNL     1      70.039 -33.516   6.393  1.00  0.00     0.006 C 
BRANCH   4   5
ATOM      5  C   UNL     1      71.341 -33.028   7.038  1.00  0.00     0.053 C 
BRANCH   5   6
ATOM      6  C   UNL     1      72.472 -33.945   6.692  1.00  0.00     0.041 C 
ATOM      7  O   UNL     1      72.835 -34.835   7.506  1.00  0.00    -0.550 OA
ATOM      8  O   UNL     1      73.157 -33.784   5.496  1.00  0.00    -0.550 OA
ENDBRANCH   5   6
ENDBRANCH   4   5
ENDBRANCH   3   4
ENDBRANCH   2   3
ENDBRANCH   1   2
BRANCH   1   9
ATOM      9  C   UNL     1      69.194 -37.410   9.139  1.00  0.00     0.000 C 
BRANCH   9  10
ATOM     10  C   UNL     1      69.719 -38.855   9.110  1.00  0.00    -0.000 C 
BRANCH  10  11
ATOM     11  C   UNL     1      70.117 -39.371  10.501  1.00  0.00    -0.000 C 
BRANCH  11  12
ATOM     12  C   UNL     1      70.628 -38.222  11.384  1.00  0.00    -0.000 C 
BRANCH  12  13
ATOM     13  C   UNL     1      72.153 -38.251  11.568  1.00  0.00    -0.003 C 
ATOM     14  C   UNL     1      72.874 -37.226  10.691  1.00  0.00     0.004 C 
ENDBRANCH  12  13
ENDBRANCH  11  12
ENDBRANCH  10  11
ENDBRANCH   9  10
ENDBRANCH   1   9
TORSDOF 10
ENDMDL
MODEL 5
REMARK VINA RESULT:    -4.123     11.750     14.593
REMARK INTER + INTRA:          -7.277
REMARK INTER:                  -6.254
REMARK INTRA:                  -1.023
REMARK UNBOUND:                -0.743
REMARK SMILES CCCCCCCCCCCC(=O)[O-]
REMARK SMILES IDX 7 1 8 2 9 3 10 4 11 5 12 6 13 7 14 8 6 9 5 10 4 11 3 12 2 13
REMARK SMILES IDX 1 14
REMARK H PARENT
REMARK Flexibility Score: inf
ROOT
ATOM      1  C   UNL     1      72.634 -32.847  22.921  1.00  0.00     0.000 C 
ENDROOT
BRANCH   1   2
ATOM      2  C   UNL     1      72.278 -31.875  21.784  1.00  0.00     0.000 C 
BRANCH   2   3
ATOM      3  C   UNL     1      71.692 -32.586  20.556  1.00  0.00     0.000 C 
BRANCH   3   4
ATOM      4  C   UNL     1      71.785 -31.696  19.310  1.00  0.00     0.006 C 
BRANCH   4   5
ATOM      5  C   UNL     1      73.152 -31.012  19.223  1.00  0.00     0.053 C 
BRANCH   5   6
ATOM      6  C   UNL     1      73.262 -30.220  17.958  1.00  0.00     0.041 C 
ATOM      7  O   UNL     1      72.828 -30.695  16.875  1.00  0.00    -0.550 OA
ATOM      8  O   UNL     1      73.888 -28.981  17.965  1.00  0.00    -0.550 OA
ENDBRANCH   5   6
ENDBRANCH   4   5
ENDBRANCH   3   4
ENDBRANCH   2   3
ENDBRANCH   1   2
BRANCH   1   9
ATOM      9  C   UNL     1      74.034 -32.588  23.502  1.00  0.00     0.000 C 
BRANCH   9  10
ATOM     10  C   UNL     1      75.157 -32.906  22.502  1.00  0.00    -0.000 C 
BRANCH  10  11
ATOM     11  C   UNL     1      74.969 -34.264  21.809  1.00  0.00    -0.000 C 
BRANCH  11  12
ATOM     12  C   UNL     1      75.254 -35.419  22.781  1.00  0.00    -0.000 C 
BRANCH  12  13
ATOM     13  C   UNL     1      74.005 -36.262  23.080  1.00  0.00    -0.003 C 
ATOM     14  C   UNL     1      73.068 -36.380  21.877  1.00  0.00     0.004 C 
ENDBRANCH  12  13
ENDBRANCH  11  12
ENDBRANCH  10  11
ENDBRANCH   9  10
ENDBRANCH   1   9
TORSDOF 10
ENDMDL
MODEL 6
REMARK VINA RESULT:    -4.117     11.610     14.560
REMARK INTER + INTRA:          -7.267
REMARK INTER:                  -6.260
REMARK INTRA:                  -1.007
REMARK UNBOUND:                -0.743
REMARK SMILES CCCCCCCCCCCC(=O)[O-]
REMARK SMILES IDX 7 1 8 2 9 3 10 4 11 5 12 6 13 7 14 8 6 9 5 10 4 11 3 12 2 13
REMARK SMILES IDX 1 14
REMARK H PARENT
REMARK Flexibility Score: inf
ROOT
ATOM      1  C   UNL     1      72.476 -32.304  22.743  1.00  0.00     0.000 C 
ENDROOT
BRANCH   1   2
ATOM      2  C   UNL     1      72.359 -32.969  21.362  1.00  0.00     0.000 C 
BRANCH   2   3
ATOM      3  C   UNL     1      71.683 -32.064  20.322  1.00  0.00     0.000 C 
BRANCH   3   4
ATOM      4  C   UNL     1      72.676 -31.040  19.757  1.00  0.00     0.006 C 
BRANCH   4   5
ATOM      5  C   UNL     1      72.873 -31.237  18.251  1.00  0.00     0.053 C 
BRANCH   5   6
ATOM      6  C   UNL     1      73.057 -29.917  17.570  1.00  0.00     0.041 C 
ATOM      7  O   UNL     1      73.950 -29.121  17.963  1.00  0.00    -0.550 OA
ATOM      8  O   UNL     1      72.210 -29.546  16.534  1.00  0.00    -0.550 OA
ENDBRANCH   5   6
ENDBRANCH   4   5
ENDBRANCH   3   4
ENDBRANCH   2   3
ENDBRANCH   1   2
BRANCH   1   9
ATOM      9  C   UNL     1      73.935 -32.148  23.201  1.00  0.00     0.000 C 
BRANCH   9  10
ATOM     10  C   UNL     1      74.930 -32.830  22.248  1.00  0.00    -0.000 C 
BRANCH  10  11
ATOM     11  C   UNL     1      75.598 -34.066  22.871  1.00  0.00    -0.000 C 
BRANCH  11  12
ATOM     12  C   UNL     1      75.092 -35.355  22.205  1.00  0.00    -0.000 C 
BRANCH  12  13
ATOM     13  C   UNL     1      73.970 -36.033  23.007  1.00  0.00    -0.003 C 
ATOM     14  C   UNL     1      72.842 -36.558  22.119  1.00  0.00     0.004 C 
ENDBRANCH  12  13
ENDBRANCH  11  12
ENDBRANCH  10  11
ENDBRANCH   9  10
ENDBRANCH   1   9
TORSDOF 10
ENDMDL
MODEL 7
REMARK VINA RESULT:    -4.049      4.079      7.037
REMARK INTER + INTRA:          -7.159
REMARK INTER:                  -6.159
REMARK INTRA:                  -1.000
REMARK UNBOUND:                -0.743
REMARK SMILES CCCCCCCCCCCC(=O)[O-]
REMARK SMILES IDX 7 1 8 2 9 3 10 4 11 5 12 6 13 7 14 8 6 9 5 10 4 11 3 12 2 13
REMARK SMILES IDX 1 14
REMARK H PARENT
REMARK Flexibility Score: inf
ROOT
ATOM      1  C   UNL     1      69.691 -37.918  10.758  1.00  0.00     0.000 C 
ENDROOT
BRANCH   1   2
ATOM      2  C   UNL     1      69.278 -37.365   9.384  1.00  0.00     0.000 C 
BRANCH   2   3
ATOM      3  C   UNL     1      70.397 -37.474   8.338  1.00  0.00     0.000 C 
BRANCH   3   4
ATOM      4  C   UNL     1      70.963 -36.091   7.994  1.00  0.00     0.006 C 
BRANCH   4   5
ATOM      5  C   UNL     1      70.395 -35.578   6.667  1.00  0.00     0.053 C 
BRANCH   5   6
ATOM      6  C   UNL     1      69.644 -34.301   6.877  1.00  0.00     0.041 C 
ATOM      7  O   UNL     1      68.619 -34.283   7.610  1.00  0.00    -0.550 OA
ATOM      8  O   UNL     1      70.045 -33.143   6.226  1.00  0.00    -0.550 OA
ENDBRANCH   5   6
ENDBRANCH   4   5
ENDBRANCH   3   4
ENDBRANCH   2   3
ENDBRANCH   1   2
BRANCH   1   9
ATOM      9  C   UNL     1      70.995 -38.732  10.699  1.00  0.00     0.000 C 
BRANCH   9  10
ATOM     10  C   UNL     1      72.023 -38.277  11.748  1.00  0.00    -0.000 C 
BRANCH  10  11
ATOM     11  C   UNL     1      72.803 -37.027  11.313  1.00  0.00    -0.000 C 
BRANCH  11  12
ATOM     12  C   UNL     1      73.783 -37.361  10.179  1.00  0.00    -0.000 C 
BRANCH  12  13
ATOM     13  C   UNL     1      75.245 -37.076  10.558  1.00  0.00    -0.003 C 
ATOM     14  C   UNL     1      75.695 -37.845  11.800  1.00  0.00     0.004 C 
ENDBRANCH  12  13
ENDBRANCH  11  12
ENDBRANCH  10  11
ENDBRANCH   9  10
ENDBRANCH   1   9
TORSDOF 10
ENDMDL
MODEL 8
REMARK VINA RESULT:    -4.016     10.867     13.126
REMARK INTER + INTRA:          -7.108
REMARK INTER:                  -6.573
REMARK INTRA:                  -0.534
REMARK UNBOUND:                -0.743
REMARK SMILES CCCCCCCCCCCC(=O)[O-]
REMARK SMILES IDX 7 1 8 2 9 3 10 4 11 5 12 6 13 7 14 8 6 9 5 10 4 11 3 12 2 13
REMARK SMILES IDX 1 14
REMARK H PARENT
REMARK Flexibility Score: inf
ROOT
ATOM      1  C   UNL     1      62.412 -31.214  14.567  1.00  0.00     0.000 C 
ENDROOT
BRANCH   1   2
ATOM      2  C   UNL     1      62.219 -32.673  14.121  1.00  0.00     0.000 C 
BRANCH   2   3
ATOM      3  C   UNL     1      62.883 -33.678  15.072  1.00  0.00     0.000 C 
BRANCH   3   4
ATOM      4  C   UNL     1      63.194 -34.994  14.349  1.00  0.00     0.006 C 
BRANCH   4   5
ATOM      5  C   UNL     1      64.659 -35.398  14.546  1.00  0.00     0.053 C 
BRANCH   5   6
ATOM      6  C   UNL     1      65.408 -35.298  13.255  1.00  0.00     0.041 C 
ATOM      7  O   UNL     1      64.889 -34.716  12.266  1.00  0.00    -0.550 OA
ATOM      8  O   UNL     1      66.657 -35.890  13.128  1.00  0.00    -0.550 OA
ENDBRANCH   5   6
ENDBRANCH   4   5
ENDBRANCH   3   4
ENDBRANCH   2   3
ENDBRANCH   1   2
BRANCH   1   9
ATOM      9  C   UNL     1      61.979 -30.980  16.024  1.00  0.00     0.000 C 
BRANCH   9  10
ATOM     10  C   UNL     1      62.461 -29.628  16.574  1.00  0.00    -0.000 C 
BRANCH  10  11
ATOM     11  C   UNL     1      62.901 -28.658  15.466  1.00  0.00    -0.000 C 
BRANCH  11  12
ATOM     12  C   UNL     1      61.865 -27.541  15.275  1.00  0.00    -0.000 C 
BRANCH  12  13
ATOM     13  C   UNL     1      62.317 -26.484  14.255  1.00  0.00    -0.003 C 
ATOM     14  C   UNL     1      62.361 -27.021  12.825  1.00  0.00     0.004 C 
ENDBRANCH  12  13
ENDBRANCH  11  12
ENDBRANCH  10  11
ENDBRANCH   9  10
ENDBRANCH   1   9
TORSDOF 10
ENDMDL
MODEL 9
REMARK VINA RESULT:    -3.967      2.180      3.931
REMARK INTER + INTRA:          -7.029
REMARK INTER:                  -6.115
REMARK INTRA:                  -0.914
REMARK UNBOUND:                -0.743
REMARK SMILES CCCCCCCCCCCC(=O)[O-]
REMARK SMILES IDX 7 1 8 2 9 3 10 4 11 5 12 6 13 7 14 8 6 9 5 10 4 11 3 12 2 13
REMARK SMILES IDX 1 14
REMARK H PARENT
REMARK Flexibility Score: inf
ROOT
ATOM      1  C   UNL     1      69.500 -33.920   7.127  1.00  0.00     0.000 C 
ENDROOT
BRANCH   1   2
ATOM      2  C   UNL     1      69.789 -35.414   6.907  1.00  0.00     0.000 C 
BRANCH   2   3
ATOM      3  C   UNL     1      69.501 -36.265   8.153  1.00  0.00     0.000 C 
BRANCH   3   4
ATOM      4  C   UNL     1      70.754 -37.029   8.597  1.00  0.00     0.006 C 
BRANCH   4   5
ATOM      5  C   UNL     1      70.497 -37.800   9.895  1.00  0.00     0.053 C 
BRANCH   5   6
ATOM      6  C   UNL     1      71.667 -37.675  10.819  1.00  0.00     0.041 C 
ATOM      7  O   UNL     1      71.605 -38.144  11.986  1.00  0.00    -0.550 OA
ATOM      8  O   UNL     1      72.808 -36.999  10.409  1.00  0.00    -0.550 OA
ENDBRANCH   5   6
ENDBRANCH   4   5
ENDBRANCH   3   4
ENDBRANCH   2   3
ENDBRANCH   1   2
BRANCH   1   9
ATOM      9  C   UNL     1      70.457 -33.012   6.337  1.00  0.00     0.000 C 
BRANCH   9  10
ATOM     10  C   UNL     1      71.936 -33.326   6.618  1.00  0.00    -0.000 C 
BRANCH  10  11
ATOM     11  C   UNL     1      72.778 -33.417   5.336  1.00  0.00    -0.000 C 
BRANCH  11  12
ATOM     12  C   UNL     1      73.671 -34.666   5.356  1.00  0.00    -0.000 C 
BRANCH  12  13
ATOM     13  C   UNL     1      73.411 -35.558   6.580  1.00  0.00    -0.003 C 
ATOM     14  C   UNL     1      74.486 -36.629   6.771  1.00  0.00     0.004 C 
ENDBRANCH  12  13
ENDBRANCH  11  12
ENDBRANCH  10  11
ENDBRANCH   9  10
ENDBRANCH   1   9
TORSDOF 10
ENDMDL
