MODEL 1
REMARK VINA RESULT:    -3.761      0.000      0.000
REMARK INTER + INTRA:          -7.741
REMARK INTER:                  -6.400
REMARK INTRA:                  -1.341
REMARK UNBOUND:                -1.341
REMARK SMILES CCCCCCCCCCCCCC(=O)[O-]
REMARK SMILES IDX 8 1 9 2 10 3 11 4 12 5 13 6 14 7 15 8 16 9 7 10 6 11 5 12
REMARK SMILES IDX 4 13 3 14 2 15 1 16
REMARK H PARENT
REMARK Flexibility Score: inf
ROOT
ATOM      1  C   UNL     1      41.213  12.082  13.702  1.00  0.00     0.000 C 
ENDROOT
BRANCH   1   2
ATOM      2  C   UNL     1      40.819  11.723  15.143  1.00  0.00     0.000 C 
BRANCH   2   3
ATOM      3  C   UNL     1      41.984  11.879  16.134  1.00  0.00     0.000 C 
BRANCH   3   4
ATOM      4  C   UNL     1      41.756  13.021  17.140  1.00  0.00     0.000 C 
BRANCH   4   5
ATOM      5  C   UNL     1      40.371  13.672  16.991  1.00  0.00     0.006 C 
BRANCH   5   6
ATOM      6  C   UNL     1      40.361  15.145  17.419  1.00  0.00     0.053 C 
BRANCH   6   7
ATOM      7  C   UNL     1      40.554  16.035  16.232  1.00  0.00     0.041 C 
ATOM      8  O   UNL     1      40.685  17.278  16.385  1.00  0.00    -0.550 OA
ATOM      9  O   UNL     1      40.541  15.496  14.952  1.00  0.00    -0.550 OA
ENDBRANCH   6   7
ENDBRANCH   5   6
ENDBRANCH   4   5
ENDBRANCH   3   4
ENDBRANCH   2   3
ENDBRANCH   1   2
BRANCH   1  10
ATOM     10  C   UNL     1      39.966  12.314  12.836  1.00  0.00     0.000 C 
BRANCH  10  11
ATOM     11  C   UNL     1      39.888  11.364  11.627  1.00  0.00    -0.000 C 
BRANCH  11  12
ATOM     12  C   UNL     1      41.055  10.367  11.507  1.00  0.00    -0.000 C 
BRANCH  12  13
ATOM     13  C   UNL     1      40.611   8.904  11.657  1.00  0.00    -0.000 C 
BRANCH  13  14
ATOM     14  C   UNL     1      39.081   8.797  11.706  1.00  0.00    -0.000 C 
BRANCH  14  15
ATOM     15  C   UNL     1      38.625   8.001  12.935  1.00  0.00    -0.003 C 
ATOM     16  C   UNL     1      38.773   8.825  14.211  1.00  0.00     0.004 C 
ENDBRANCH  14  15
ENDBRANCH  13  14
ENDBRANCH  12  13
ENDBRANCH  11  12
ENDBRANCH  10  11
ENDBRANCH   1  10
TORSDOF 12
ENDMDL
MODEL 2
REMARK VINA RESULT:    -3.653      0.811      1.831
REMARK INTER + INTRA:          -7.557
REMARK INTER:                  -6.086
REMARK INTRA:                  -1.471
REMARK UNBOUND:                -1.341
REMARK SMILES CCCCCCCCCCCCCC(=O)[O-]
REMARK SMILES IDX 8 1 9 2 10 3 11 4 12 5 13 6 14 7 15 8 16 9 7 10 6 11 5 12
REMARK SMILES IDX 4 13 3 14 2 15 1 16
REMARK H PARENT
REMARK Flexibility Score: inf
ROOT
ATOM      1  C   UNL     1      41.571  11.961  14.729  1.00  0.00     0.000 C 
ENDROOT
BRANCH   1   2
ATOM      2  C   UNL     1      42.157  12.300  16.108  1.00  0.00     0.000 C 
BRANCH   2   3
ATOM      3  C   UNL     1      41.274  11.806  17.266  1.00  0.00     0.000 C 
BRANCH   3   4
ATOM      4  C   UNL     1      40.912  12.929  18.254  1.00  0.00     0.000 C 
BRANCH   4   5
ATOM      5  C   UNL     1      39.851  13.890  17.694  1.00  0.00     0.006 C 
BRANCH   5   6
ATOM      6  C   UNL     1      40.278  15.361  17.786  1.00  0.00     0.053 C 
BRANCH   6   7
ATOM      7  C   UNL     1      40.468  15.935  16.417  1.00  0.00     0.041 C 
ATOM      8  O   UNL     1      40.257  15.227  15.398  1.00  0.00    -0.550 OA
ATOM      9  O   UNL     1      40.927  17.238  16.268  1.00  0.00    -0.550 OA
ENDBRANCH   6   7
ENDBRANCH   5   6
ENDBRANCH   4   5
ENDBRANCH   3   4
ENDBRANCH   2   3
ENDBRANCH   1   2
BRANCH   1  10
ATOM     10  C   UNL     1      40.093  11.559  14.845  1.00  0.00     0.000 C 
BRANCH  10  11
ATOM     11  C   UNL     1      39.207  12.206  13.766  1.00  0.00    -0.000 C 
BRANCH  11  12
ATOM     12  C   UNL     1      39.823  12.244  12.355  1.00  0.00    -0.000 C 
BRANCH  12  13
ATOM     13  C   UNL     1      39.543  10.970  11.544  1.00  0.00    -0.000 C 
BRANCH  13  14
ATOM     14  C   UNL     1      40.800  10.096  11.445  1.00  0.00    -0.000 C 
BRANCH  14  15
ATOM     15  C   UNL     1      40.475   8.629  11.753  1.00  0.00    -0.003 C 
ATOM     16  C   UNL     1      39.220   8.511  12.613  1.00  0.00     0.004 C 
ENDBRANCH  14  15
ENDBRANCH  13  14
ENDBRANCH  12  13
ENDBRANCH  11  12
ENDBRANCH  10  11
ENDBRANCH   1  10
TORSDOF 12
ENDMDL
MODEL 3
REMARK VINA RESULT:    -3.590      3.058      6.300
REMARK INTER + INTRA:          -7.449
REMARK INTER:                  -5.496
REMARK INTRA:                  -1.953
REMARK UNBOUND:                -1.341
REMARK SMILES CCCCCCCCCCCCCC(=O)[O-]
REMARK SMILES IDX 8 1 9 2 10 3 11 4 12 5 13 6 14 7 15 8 16 9 7 10 6 11 5 12
REMARK SMILES IDX 4 13 3 14 2 15 1 16
REMARK H PARENT
REMARK Flexibility Score: inf
ROOT
ATOM      1  C   UNL     1      42.006  12.338  15.767  1.00  0.00     0.000 C 
ENDROOT
BRANCH   1   2
ATOM      2  C   UNL     1      41.390  11.905  14.428  1.00  0.00     0.000 C 
BRANCH   2   3
ATOM      3  C   UNL     1      40.834  13.088  13.619  1.00  0.00     0.000 C 
BRANCH   3   4
ATOM      4  C   UNL     1      39.633  12.694  12.743  1.00  0.00     0.000 C 
BRANCH   4   5
ATOM      5  C   UNL     1      39.186  11.241  12.972  1.00  0.00     0.006 C 
BRANCH   5   6
ATOM      6  C   UNL     1      39.238  10.397  11.691  1.00  0.00     0.053 C 
BRANCH   6   7
ATOM      7  C   UNL     1      40.485   9.572  11.661  1.00  0.00     0.041 C 
ATOM      8  O   UNL     1      41.603  10.118  11.466  1.00  0.00    -0.550 OA
ATOM      9  O   UNL     1      40.408   8.192  11.797  1.00  0.00    -0.550 OA
ENDBRANCH   6   7
ENDBRANCH   5   6
ENDBRANCH   4   5
ENDBRANCH   3   4
ENDBRANCH   2   3
ENDBRANCH   1   2
BRANCH   1  10
ATOM     10  C   UNL     1      41.352  11.589  16.938  1.00  0.00     0.000 C 
BRANCH  10  11
ATOM     11  C   UNL     1      40.118  12.316  17.503  1.00  0.00    -0.000 C 
BRANCH  11  12
ATOM     12  C   UNL     1      38.787  11.972  16.811  1.00  0.00    -0.000 C 
BRANCH  12  13
ATOM     13  C   UNL     1      38.092  13.200  16.205  1.00  0.00    -0.000 C 
BRANCH  13  14
ATOM     14  C   UNL     1      38.765  14.497  16.671  1.00  0.00    -0.000 C 
BRANCH  14  15
ATOM     15  C   UNL     1      38.871  15.506  15.520  1.00  0.00    -0.003 C 
ATOM     16  C   UNL     1      40.252  16.153  15.481  1.00  0.00     0.004 C 
ENDBRANCH  14  15
ENDBRANCH  13  14
ENDBRANCH  12  13
ENDBRANCH  11  12
ENDBRANCH  10  11
ENDBRANCH   1  10
TORSDOF 12
ENDMDL
MODEL 4
REMARK VINA RESULT:    -3.588      2.292      3.886
REMARK INTER + INTRA:          -7.446
REMARK INTER:                  -5.801
REMARK INTRA:                  -1.645
REMARK UNBOUND:                -1.341
REMARK SMILES CCCCCCCCCCCCCC(=O)[O-]
REMARK SMILES IDX 8 1 9 2 10 3 11 4 12 5 13 6 14 7 15 8 16 9 7 10 6 11 5 12
REMARK SMILES IDX 4 13 3 14 2 15 1 16
REMARK H PARENT
REMARK Flexibility Score: inf
ROOT
ATOM      1  C   UNL     1      40.877  10.256  11.176  1.00  0.00     0.000 C 
ENDROOT
BRANCH   1   2
ATOM      2  C   UNL     1      41.177  11.089  12.431  1.00  0.00     0.000 C 
BRANCH   2   3
ATOM      3  C   UNL     1      40.115  12.169  12.696  1.00  0.00     0.000 C 
BRANCH   3   4
ATOM      4  C   UNL     1      40.431  13.018  13.939  1.00  0.00     0.000 C 
BRANCH   4   5
ATOM      5  C   UNL     1      41.435  12.335  14.881  1.00  0.00     0.006 C 
BRANCH   5   6
ATOM      6  C   UNL     1      41.516  13.015  16.255  1.00  0.00     0.053 C 
BRANCH   6   7
ATOM      7  C   UNL     1      42.201  12.122  17.239  1.00  0.00     0.041 C 
ATOM      8  O   UNL     1      42.027  10.875  17.194  1.00  0.00    -0.550 OA
ATOM      9  O   UNL     1      42.993  12.670  18.240  1.00  0.00    -0.550 OA
ENDBRANCH   6   7
ENDBRANCH   5   6
ENDBRANCH   4   5
ENDBRANCH   3   4
ENDBRANCH   2   3
ENDBRANCH   1   2
BRANCH   1  10
ATOM     10  C   UNL     1      40.504   8.814  11.553  1.00  0.00     0.000 C 
BRANCH  10  11
ATOM     11  C   UNL     1      39.004   8.640  11.854  1.00  0.00    -0.000 C 
BRANCH  11  12
ATOM     12  C   UNL     1      38.673   8.230  13.300  1.00  0.00    -0.000 C 
BRANCH  12  13
ATOM     13  C   UNL     1      38.149   9.397  14.150  1.00  0.00    -0.000 C 
BRANCH  13  14
ATOM     14  C   UNL     1      39.096   9.693  15.320  1.00  0.00    -0.000 C 
BRANCH  14  15
ATOM     15  C   UNL     1      38.376  10.473  16.426  1.00  0.00    -0.003 C 
ATOM     16  C   UNL     1      38.641   9.858  17.797  1.00  0.00     0.004 C 
ENDBRANCH  14  15
ENDBRANCH  13  14
ENDBRANCH  12  13
ENDBRANCH  11  12
ENDBRANCH  10  11
ENDBRANCH   1  10
TORSDOF 12
ENDMDL
MODEL 5
REMARK VINA RESULT:    -3.516      1.632      3.060
REMARK INTER + INTRA:          -7.324
REMARK INTER:                  -5.732
REMARK INTRA:                  -1.592
REMARK UNBOUND:                -1.341
REMARK SMILES CCCCCCCCCCCCCC(=O)[O-]
REMARK SMILES IDX 8 1 9 2 10 3 11 4 12 5 13 6 14 7 15 8 16 9 7 10 6 11 5 12
REMARK SMILES IDX 4 13 3 14 2 15 1 16
REMARK H PARENT
REMARK Flexibility Score: inf
ROOT
ATOM      1  C   UNL     1      39.937   9.832  17.203  1.00  0.00     0.000 C 
ENDROOT
BRANCH   1   2
ATOM      2  C   UNL     1      40.430  11.266  17.449  1.00  0.00     0.000 C 
BRANCH   2   3
ATOM      3  C   UNL     1      41.882  11.482  16.992  1.00  0.00     0.000 C 
BRANCH   3   4
ATOM      4  C   UNL     1      42.052  12.753  16.143  1.00  0.00     0.000 C 
BRANCH   4   5
ATOM      5  C   UNL     1      40.914  13.764  16.357  1.00  0.00     0.006 C 
BRANCH   5   6
ATOM      6  C   UNL     1      40.665  14.645  15.125  1.00  0.00     0.053 C 
BRANCH   6   7
ATOM      7  C   UNL     1      40.090  15.964  15.535  1.00  0.00     0.041 C 
ATOM      8  O   UNL     1      38.917  16.277  15.199  1.00  0.00    -0.550 OA
ATOM      9  O   UNL     1      40.867  16.869  16.247  1.00  0.00    -0.550 OA
ENDBRANCH   6   7
ENDBRANCH   5   6
ENDBRANCH   4   5
ENDBRANCH   3   4
ENDBRANCH   2   3
ENDBRANCH   1   2
BRANCH   1  10
ATOM     10  C   UNL     1      38.948   9.788  16.028  1.00  0.00     0.000 C 
BRANCH  10  11
ATOM     11  C   UNL     1      38.244  11.134  15.782  1.00  0.00    -0.000 C 
BRANCH  11  12
ATOM     12  C   UNL     1      38.326  11.658  14.337  1.00  0.00    -0.000 C 
BRANCH  12  13
ATOM     13  C   UNL     1      39.695  11.411  13.687  1.00  0.00    -0.000 C 
BRANCH  13  14
ATOM     14  C   UNL     1      39.771  12.063  12.301  1.00  0.00    -0.000 C 
BRANCH  14  15
ATOM     15  C   UNL     1      40.051  11.017  11.215  1.00  0.00    -0.003 C 
ATOM     16  C   UNL     1      41.296  10.200  11.545  1.00  0.00     0.004 C 
ENDBRANCH  14  15
ENDBRANCH  13  14
ENDBRANCH  12  13
ENDBRANCH  11  12
ENDBRANCH  10  11
ENDBRANCH   1  10
TORSDOF 12
ENDMDL
MODEL 6
REMARK VINA RESULT:    -3.493      3.335      5.889
REMARK INTER + INTRA:          -7.284
REMARK INTER:                  -5.530
REMARK INTRA:                  -1.754
REMARK UNBOUND:                -1.341
REMARK SMILES CCCCCCCCCCCCCC(=O)[O-]
REMARK SMILES IDX 8 1 9 2 10 3 11 4 12 5 13 6 14 7 15 8 16 9 7 10 6 11 5 12
REMARK SMILES IDX 4 13 3 14 2 15 1 16
REMARK H PARENT
REMARK Flexibility Score: inf
ROOT
ATOM      1  C   UNL     1      41.915  12.061  15.857  1.00  0.00     0.000 C 
ENDROOT
BRANCH   1   2
ATOM      2  C   UNL     1      41.050  13.295  15.563  1.00  0.00     0.000 C 
BRANCH   2   3
ATOM      3  C   UNL     1      40.343  13.214  14.200  1.00  0.00     0.000 C 
BRANCH   3   4
ATOM      4  C   UNL     1      40.990  12.184  13.258  1.00  0.00     0.000 C 
BRANCH   4   5
ATOM      5  C   UNL     1      39.998  11.617  12.230  1.00  0.00     0.006 C 
BRANCH   5   6
ATOM      6  C   UNL     1      40.595  10.475  11.398  1.00  0.00     0.053 C 
BRANCH   6   7
ATOM      7  C   UNL     1      39.901   9.186  11.707  1.00  0.00     0.041 C 
ATOM      8  O   UNL     1      40.568   8.130  11.871  1.00  0.00    -0.550 OA
ATOM      9  O   UNL     1      38.514   9.141  11.766  1.00  0.00    -0.550 OA
ENDBRANCH   6   7
ENDBRANCH   5   6
ENDBRANCH   4   5
ENDBRANCH   3   4
ENDBRANCH   2   3
ENDBRANCH   1   2
BRANCH   1  10
ATOM     10  C   UNL     1      42.433  12.088  17.303  1.00  0.00     0.000 C 
BRANCH  10  11
ATOM     11  C   UNL     1      41.527  11.318  18.281  1.00  0.00    -0.000 C 
BRANCH  11  12
ATOM     12  C   UNL     1      41.479   9.795  18.061  1.00  0.00    -0.000 C 
BRANCH  12  13
ATOM     13  C   UNL     1      40.095   9.297  17.619  1.00  0.00    -0.000 C 
BRANCH  13  14
ATOM     14  C   UNL     1      39.064  10.432  17.660  1.00  0.00    -0.000 C 
BRANCH  14  15
ATOM     15  C   UNL     1      38.494  10.708  16.263  1.00  0.00    -0.003 C 
ATOM     16  C   UNL     1      38.992   9.679  15.252  1.00  0.00     0.004 C 
ENDBRANCH  14  15
ENDBRANCH  13  14
ENDBRANCH  12  13
ENDBRANCH  11  12
ENDBRANCH  10  11
ENDBRANCH   1  10
TORSDOF 12
ENDMDL
MODEL 7
REMARK VINA RESULT:    -3.347      1.347      3.123
REMARK INTER + INTRA:          -7.036
REMARK INTER:                  -5.569
REMARK INTRA:                  -1.467
REMARK UNBOUND:                -1.341
REMARK SMILES CCCCCCCCCCCCCC(=O)[O-]
REMARK SMILES IDX 8 1 9 2 10 3 11 4 12 5 13 6 14 7 15 8 16 9 7 10 6 11 5 12
REMARK SMILES IDX 4 13 3 14 2 15 1 16
REMARK H PARENT
REMARK Flexibility Score: inf
ROOT
ATOM      1  C   UNL     1      40.905  10.354  11.385  1.00  0.00     0.000 C 
ENDROOT
BRANCH   1   2
ATOM      2  C   UNL     1      41.012  11.105  12.721  1.00  0.00     0.000 C 
BRANCH   2   3
ATOM      3  C   UNL     1      40.108  12.347  12.779  1.00  0.00     0.000 C 
BRANCH   3   4
ATOM      4  C   UNL     1      40.765  13.523  13.522  1.00  0.00     0.000 C 
BRANCH   4   5
ATOM      5  C   UNL     1      39.903  14.044  14.683  1.00  0.00     0.006 C 
BRANCH   5   6
ATOM      6  C   UNL     1      40.715  14.277  15.965  1.00  0.00     0.053 C 
BRANCH   6   7
ATOM      7  C   UNL     1      40.474  15.657  16.490  1.00  0.00     0.041 C 
ATOM      8  O   UNL     1      40.498  16.646  15.711  1.00  0.00    -0.550 OA
ATOM      9  O   UNL     1      40.272  15.856  17.850  1.00  0.00    -0.550 OA
ENDBRANCH   6   7
ENDBRANCH   5   6
ENDBRANCH   4   5
ENDBRANCH   3   4
ENDBRANCH   2   3
ENDBRANCH   1   2
BRANCH   1  10
ATOM     10  C   UNL     1      40.494   8.891  11.611  1.00  0.00     0.000 C 
BRANCH  10  11
ATOM     11  C   UNL     1      38.981   8.719  11.835  1.00  0.00    -0.000 C 
BRANCH  11  12
ATOM     12  C   UNL     1      38.584   8.213  13.234  1.00  0.00    -0.000 C 
BRANCH  12  13
ATOM     13  C   UNL     1      38.154   9.344  14.180  1.00  0.00    -0.000 C 
BRANCH  13  14
ATOM     14  C   UNL     1      38.963   9.308  15.482  1.00  0.00    -0.000 C 
BRANCH  14  15
ATOM     15  C   UNL     1      39.234  10.726  16.001  1.00  0.00    -0.003 C 
ATOM     16  C   UNL     1      40.302  10.720  17.090  1.00  0.00     0.004 C 
ENDBRANCH  14  15
ENDBRANCH  13  14
ENDBRANCH  12  13
ENDBRANCH  11  12
ENDBRANCH  10  11
ENDBRANCH   1  10
TORSDOF 12
ENDMDL
MODEL 8
REMARK VINA RESULT:    -3.335      3.324      6.361
REMARK INTER + INTRA:          -7.016
REMARK INTER:                  -5.322
REMARK INTRA:                  -1.694
REMARK UNBOUND:                -1.341
REMARK SMILES CCCCCCCCCCCCCC(=O)[O-]
REMARK SMILES IDX 8 1 9 2 10 3 11 4 12 5 13 6 14 7 15 8 16 9 7 10 6 11 5 12
REMARK SMILES IDX 4 13 3 14 2 15 1 16
REMARK H PARENT
REMARK Flexibility Score: inf
ROOT
ATOM      1  C   UNL     1      40.508  14.917  15.032  1.00  0.00     0.000 C 
ENDROOT
BRANCH   1   2
ATOM      2  C   UNL     1      40.692  13.681  14.139  1.00  0.00     0.000 C 
BRANCH   2   3
ATOM      3  C   UNL     1      39.502  12.710  14.215  1.00  0.00     0.000 C 
BRANCH   3   4
ATOM      4  C   UNL     1      39.883  11.275  13.814  1.00  0.00     0.000 C 
BRANCH   4   5
ATOM      5  C   UNL     1      40.940  11.233  12.699  1.00  0.00     0.006 C 
BRANCH   5   6
ATOM      6  C   UNL     1      40.373  10.735  11.363  1.00  0.00     0.053 C 
BRANCH   6   7
ATOM      7  C   UNL     1      39.697   9.413  11.545  1.00  0.00     0.041 C 
ATOM      8  O   UNL     1      38.447   9.317  11.418  1.00  0.00    -0.550 OA
ATOM      9  O   UNL     1      40.440   8.296  11.903  1.00  0.00    -0.550 OA
ENDBRANCH   6   7
ENDBRANCH   5   6
ENDBRANCH   4   5
ENDBRANCH   3   4
ENDBRANCH   2   3
ENDBRANCH   1   2
BRANCH   1  10
ATOM     10  C   UNL     1      39.130  14.903  15.710  1.00  0.00     0.000 C 
BRANCH  10  11
ATOM     11  C   UNL     1      39.214  14.804  17.244  1.00  0.00    -0.000 C 
BRANCH  11  12
ATOM     12  C   UNL     1      40.641  14.681  17.810  1.00  0.00    -0.000 C 
BRANCH  12  13
ATOM     13  C   UNL     1      40.941  13.287  18.380  1.00  0.00    -0.000 C 
BRANCH  13  14
ATOM     14  C   UNL     1      42.260  12.739  17.822  1.00  0.00    -0.000 C 
BRANCH  14  15
ATOM     15  C   UNL     1      42.009  11.565  16.867  1.00  0.00    -0.003 C 
ATOM     16  C   UNL     1      40.787  10.758  17.296  1.00  0.00     0.004 C 
ENDBRANCH  14  15
ENDBRANCH  13  14
ENDBRANCH  12  13
ENDBRANCH  11  12
ENDBRANCH  10  11
ENDBRANCH   1  10
TORSDOF 12
ENDMDL
MODEL 9
REMARK VINA RESULT:    -3.297      1.771      4.630
REMARK INTER + INTRA:          -6.952
REMARK INTER:                  -5.155
REMARK INTRA:                  -1.797
REMARK UNBOUND:                -1.341
REMARK SMILES CCCCCCCCCCCCCC(=O)[O-]
REMARK SMILES IDX 8 1 9 2 10 3 11 4 12 5 13 6 14 7 15 8 16 9 7 10 6 11 5 12
REMARK SMILES IDX 4 13 3 14 2 15 1 16
REMARK H PARENT
REMARK Flexibility Score: inf
ROOT
ATOM      1  C   UNL     1      38.806   8.934  11.989  1.00  0.00     0.000 C 
ENDROOT
BRANCH   1   2
ATOM      2  C   UNL     1      40.261   9.177  11.562  1.00  0.00     0.000 C 
BRANCH   2   3
ATOM      3  C   UNL     1      40.621  10.671  11.502  1.00  0.00     0.000 C 
BRANCH   3   4
ATOM      4  C   UNL     1      41.062  11.229  12.865  1.00  0.00     0.000 C 
BRANCH   4   5
ATOM      5  C   UNL     1      40.577  12.669  13.100  1.00  0.00     0.006 C 
BRANCH   5   6
ATOM      6  C   UNL     1      39.100  12.737  13.512  1.00  0.00     0.053 C 
BRANCH   6   7
ATOM      7  C   UNL     1      38.929  13.646  14.687  1.00  0.00     0.041 C 
ATOM      8  O   UNL     1      37.875  13.602  15.375  1.00  0.00    -0.550 OA
ATOM      9  O   UNL     1      39.912  14.578  14.994  1.00  0.00    -0.550 OA
ENDBRANCH   6   7
ENDBRANCH   5   6
ENDBRANCH   4   5
ENDBRANCH   3   4
ENDBRANCH   2   3
ENDBRANCH   1   2
BRANCH   1  10
ATOM     10  C   UNL     1      38.744   8.307  13.390  1.00  0.00     0.000 C 
BRANCH  10  11
ATOM     11  C   UNL     1      38.225   9.281  14.463  1.00  0.00    -0.000 C 
BRANCH  11  12
ATOM     12  C   UNL     1      39.230   9.615  15.580  1.00  0.00    -0.000 C 
BRANCH  12  13
ATOM     13  C   UNL     1      38.580  10.317  16.781  1.00  0.00    -0.000 C 
BRANCH  13  14
ATOM     14  C   UNL     1      39.570  11.269  17.462  1.00  0.00    -0.000 C 
BRANCH  14  15
ATOM     15  C   UNL     1      40.861  11.397  16.645  1.00  0.00    -0.003 C 
ATOM     16  C   UNL     1      42.086  11.452  17.554  1.00  0.00     0.004 C 
ENDBRANCH  14  15
ENDBRANCH  13  14
ENDBRANCH  12  13
ENDBRANCH  11  12
ENDBRANCH  10  11
ENDBRANCH   1  10
TORSDOF 12
ENDMDL
