MODEL 1
REMARK VINA RESULT:    -6.244      0.000      0.000
REMARK INTER + INTRA:          -7.046
REMARK INTER:                  -6.791
REMARK INTRA:                  -0.255
REMARK UNBOUND:                -0.255
REMARK SMILES C=C1C[C@@]2(O)O[C@@]3(C[C@@H]2C(C)C)[C@H](C)CC[C@@H]13
REMARK SMILES IDX 14 1 13 2 15 3 16 4 17 5 7 6 8 7 9 8 4 9 6 10 3 11 2 12 1 13
REMARK SMILES IDX 10 14 11 15 12 16 5 17
REMARK H PARENT 5 18
REMARK Flexibility Score: inf
ROOT
ATOM      1  C   UNL     1       9.950  -3.319  -3.179  1.00  0.00     0.011 C 
ATOM      2  C   UNL     1       8.536  -2.945  -2.690  1.00  0.00     0.019 C 
ATOM      3  C   UNL     1       7.773  -2.195  -3.791  1.00  0.00     0.007 C 
ATOM      4  C   UNL     1       7.919  -0.698  -3.499  1.00  0.00     0.011 C 
ATOM      5  C   UNL     1       8.666  -0.576  -2.165  1.00  0.00     0.047 C 
ATOM      6  C   UNL     1       8.524  -1.962  -1.505  1.00  0.00     0.081 C 
ATOM      7  C   UNL     1       9.576  -2.205  -0.415  1.00  0.00     0.046 C 
ATOM      8  C   UNL     1       8.888  -1.698   0.853  1.00  0.00     0.054 C 
ATOM      9  C   UNL     1       7.472  -1.304   0.340  1.00  0.00     0.173 C 
ATOM     10  O   UNL     1       7.274  -2.030  -0.852  1.00  0.00    -0.342 OA
ATOM     11  C   UNL     1       7.389   0.209   0.005  1.00  0.00     0.096 C 
ATOM     12  C   UNL     1       8.120   0.536  -1.282  1.00  0.00    -0.066 C 
ATOM     13  C   UNL     1       8.275   1.817  -1.647  1.00  0.00     0.008 C 
ENDROOT
BRANCH   8  14
ATOM     14  C   UNL     1       8.969  -2.746   2.013  1.00  0.00    -0.009 C 
ATOM     15  C   UNL     1       9.547  -2.206   3.338  1.00  0.00     0.008 C 
ATOM     16  C   UNL     1       9.705  -4.023   1.581  1.00  0.00     0.008 C 
ENDBRANCH   8  14
BRANCH   9  17
ATOM     17  O   UNL     1       6.469  -1.617   1.272  1.00  0.00    -0.365 OA
ATOM     18  H   UNL     1       6.910  -1.743   2.153  1.00  0.00     0.214 HD
ENDBRANCH   9  17
TORSDOF 2
ENDMDL
MODEL 2
REMARK VINA RESULT:    -5.478      1.686      4.460
REMARK INTER + INTRA:          -6.214
REMARK INTER:                  -6.082
REMARK INTRA:                  -0.132
REMARK UNBOUND:                -0.255
REMARK SMILES C=C1C[C@@]2(O)O[C@@]3(C[C@@H]2C(C)C)[C@H](C)CC[C@@H]13
REMARK SMILES IDX 14 1 13 2 15 3 16 4 17 5 7 6 8 7 9 8 4 9 6 10 3 11 2 12 1 13
REMARK SMILES IDX 10 14 11 15 12 16 5 17
REMARK H PARENT 5 18
REMARK Flexibility Score: inf
ROOT
ATOM      1  C   UNL     1       7.362  -2.998   0.985  1.00  0.00     0.011 C 
ATOM      2  C   UNL     1       8.601  -2.340   0.344  1.00  0.00     0.019 C 
ATOM      3  C   UNL     1       9.361  -1.509   1.388  1.00  0.00     0.007 C 
ATOM      4  C   UNL     1       8.906  -0.055   1.224  1.00  0.00     0.011 C 
ATOM      5  C   UNL     1       7.968  -0.017   0.011  1.00  0.00     0.047 C 
ATOM      6  C   UNL     1       8.266  -1.320  -0.759  1.00  0.00     0.081 C 
ATOM      7  C   UNL     1       7.133  -1.708  -1.718  1.00  0.00     0.046 C 
ATOM      8  C   UNL     1       7.531  -1.022  -3.025  1.00  0.00     0.054 C 
ATOM      9  C   UNL     1       8.910  -0.389  -2.673  1.00  0.00     0.173 C 
ATOM     10  O   UNL     1       9.402  -1.118  -1.572  1.00  0.00    -0.342 OA
ATOM     11  C   UNL     1       8.762   1.095  -2.245  1.00  0.00     0.096 C 
ATOM     12  C   UNL     1       8.172   1.218  -0.854  1.00  0.00    -0.066 C 
ATOM     13  C   UNL     1       7.839   2.428  -0.382  1.00  0.00     0.008 C 
ENDROOT
BRANCH   8  14
ATOM     14  C   UNL     1       7.479  -2.012  -4.236  1.00  0.00    -0.009 C 
ATOM     15  C   UNL     1       6.064  -2.304  -4.778  1.00  0.00     0.008 C 
ATOM     16  C   UNL     1       8.228  -3.320  -3.939  1.00  0.00     0.008 C 
ENDBRANCH   8  14
BRANCH   9  17
ATOM     17  O   UNL     1       9.811  -0.463  -3.748  1.00  0.00    -0.365 OA
ATOM     18  H   UNL     1      10.349   0.372  -3.743  1.00  0.00     0.214 HD
ENDBRANCH   9  17
TORSDOF 2
ENDMDL
MODEL 3
REMARK VINA RESULT:    -5.221      1.817      4.539
REMARK INTER + INTRA:          -5.934
REMARK INTER:                  -5.660
REMARK INTRA:                  -0.274
REMARK UNBOUND:                -0.255
REMARK SMILES C=C1C[C@@]2(O)O[C@@]3(C[C@@H]2C(C)C)[C@H](C)CC[C@@H]13
REMARK SMILES IDX 14 1 13 2 15 3 16 4 17 5 7 6 8 7 9 8 4 9 6 10 3 11 2 12 1 13
REMARK SMILES IDX 10 14 11 15 12 16 5 17
REMARK H PARENT 5 18
REMARK Flexibility Score: inf
ROOT
ATOM      1  C   UNL     1      10.121   1.299  -2.991  1.00  0.00     0.011 C 
ATOM      2  C   UNL     1       8.625   1.121  -2.662  1.00  0.00     0.019 C 
ATOM      3  C   UNL     1       8.252   1.940  -1.417  1.00  0.00     0.007 C 
ATOM      4  C   UNL     1       8.297   0.985  -0.220  1.00  0.00     0.011 C 
ATOM      5  C   UNL     1       8.581  -0.415  -0.780  1.00  0.00     0.047 C 
ATOM      6  C   UNL     1       8.236  -0.318  -2.279  1.00  0.00     0.081 C 
ATOM      7  C   UNL     1       8.886  -1.436  -3.105  1.00  0.00     0.046 C 
ATOM      8  C   UNL     1       7.831  -2.542  -3.088  1.00  0.00     0.054 C 
ATOM      9  C   UNL     1       6.651  -1.878  -2.318  1.00  0.00     0.173 C 
ATOM     10  O   UNL     1       6.843  -0.486  -2.438  1.00  0.00    -0.342 OA
ATOM     11  C   UNL     1       6.679  -2.243  -0.810  1.00  0.00     0.096 C 
ATOM     12  C   UNL     1       7.782  -1.503  -0.078  1.00  0.00    -0.066 C 
ATOM     13  C   UNL     1       8.045  -1.808   1.201  1.00  0.00     0.008 C 
ENDROOT
BRANCH   8  14
ATOM     14  C   UNL     1       7.538  -3.084  -4.527  1.00  0.00    -0.009 C 
ATOM     15  C   UNL     1       8.315  -4.360  -4.912  1.00  0.00     0.008 C 
ATOM     16  C   UNL     1       7.718  -1.996  -5.596  1.00  0.00     0.008 C 
ENDBRANCH   8  14
BRANCH   9  17
ATOM     17  O   UNL     1       5.404  -2.243  -2.850  1.00  0.00    -0.365 OA
ATOM     18  H   UNL     1       5.572  -2.697  -3.717  1.00  0.00     0.214 HD
ENDBRANCH   9  17
TORSDOF 2
ENDMDL
MODEL 4
REMARK VINA RESULT:    -5.147      2.151      4.639
REMARK INTER + INTRA:          -5.854
REMARK INTER:                  -5.582
REMARK INTRA:                  -0.272
REMARK UNBOUND:                -0.255
REMARK SMILES C=C1C[C@@]2(O)O[C@@]3(C[C@@H]2C(C)C)[C@H](C)CC[C@@H]13
REMARK SMILES IDX 14 1 13 2 15 3 16 4 17 5 7 6 8 7 9 8 4 9 6 10 3 11 2 12 1 13
REMARK SMILES IDX 10 14 11 15 12 16 5 17
REMARK H PARENT 5 18
REMARK Flexibility Score: inf
ROOT
ATOM      1  C   UNL     1      10.002  -0.835  -0.021  1.00  0.00     0.011 C 
ATOM      2  C   UNL     1       8.994  -0.212  -1.008  1.00  0.00     0.019 C 
ATOM      3  C   UNL     1       8.039   0.735  -0.268  1.00  0.00     0.007 C 
ATOM      4  C   UNL     1       6.762  -0.058   0.031  1.00  0.00     0.011 C 
ATOM      5  C   UNL     1       6.925  -1.430  -0.636  1.00  0.00     0.047 C 
ATOM      6  C   UNL     1       8.053  -1.235  -1.669  1.00  0.00     0.081 C 
ATOM      7  C   UNL     1       8.692  -2.562  -2.099  1.00  0.00     0.046 C 
ATOM      8  C   UNL     1       7.857  -2.975  -3.312  1.00  0.00     0.054 C 
ATOM      9  C   UNL     1       6.885  -1.770  -3.484  1.00  0.00     0.173 C 
ATOM     10  O   UNL     1       7.503  -0.678  -2.843  1.00  0.00    -0.342 OA
ATOM     11  C   UNL     1       5.524  -2.034  -2.787  1.00  0.00     0.096 C 
ATOM     12  C   UNL     1       5.640  -1.929  -1.279  1.00  0.00    -0.066 C 
ATOM     13  C   UNL     1       4.595  -2.270  -0.511  1.00  0.00     0.008 C 
ENDROOT
BRANCH   8  14
ATOM     14  C   UNL     1       8.760  -3.354  -4.533  1.00  0.00    -0.009 C 
ATOM     15  C   UNL     1       9.076  -4.858  -4.667  1.00  0.00     0.008 C 
ATOM     16  C   UNL     1      10.052  -2.523  -4.569  1.00  0.00     0.008 C 
ENDBRANCH   8  14
BRANCH   9  17
ATOM     17  O   UNL     1       6.652  -1.473  -4.837  1.00  0.00    -0.365 OA
ATOM     18  H   UNL     1       6.259  -2.282  -5.256  1.00  0.00     0.214 HD
ENDBRANCH   9  17
TORSDOF 2
ENDMDL
MODEL 5
REMARK VINA RESULT:    -5.078      2.967      4.396
REMARK INTER + INTRA:          -5.778
REMARK INTER:                  -5.534
REMARK INTRA:                  -0.244
REMARK UNBOUND:                -0.255
REMARK SMILES C=C1C[C@@]2(O)O[C@@]3(C[C@@H]2C(C)C)[C@H](C)CC[C@@H]13
REMARK SMILES IDX 14 1 13 2 15 3 16 4 17 5 7 6 8 7 9 8 4 9 6 10 3 11 2 12 1 13
REMARK SMILES IDX 10 14 11 15 12 16 5 17
REMARK H PARENT 5 18
REMARK Flexibility Score: inf
ROOT
ATOM      1  C   UNL     1       9.698  -2.225  -6.636  1.00  0.00     0.011 C 
ATOM      2  C   UNL     1       9.242  -2.934  -5.344  1.00  0.00     0.019 C 
ATOM      3  C   UNL     1       8.523  -4.248  -5.683  1.00  0.00     0.007 C 
ATOM      4  C   UNL     1       7.019  -3.954  -5.668  1.00  0.00     0.011 C 
ATOM      5  C   UNL     1       6.855  -2.500  -5.207  1.00  0.00     0.047 C 
ATOM      6  C   UNL     1       8.196  -2.146  -4.535  1.00  0.00     0.081 C 
ATOM      7  C   UNL     1       8.421  -0.632  -4.434  1.00  0.00     0.046 C 
ATOM      8  C   UNL     1       7.818  -0.279  -3.074  1.00  0.00     0.054 C 
ATOM      9  C   UNL     1       7.397  -1.670  -2.515  1.00  0.00     0.173 C 
ATOM     10  O   UNL     1       8.178  -2.619  -3.205  1.00  0.00    -0.342 OA
ATOM     11  C   UNL     1       5.902  -1.970  -2.806  1.00  0.00     0.096 C 
ATOM     12  C   UNL     1       5.675  -2.311  -4.265  1.00  0.00    -0.066 C 
ATOM     13  C   UNL     1       4.423  -2.454  -4.723  1.00  0.00     0.008 C 
ENDROOT
BRANCH   8  14
ATOM     14  C   UNL     1       8.803   0.577  -2.209  1.00  0.00    -0.009 C 
ATOM     15  C   UNL     1       8.174   1.818  -1.543  1.00  0.00     0.008 C 
ATOM     16  C   UNL     1      10.066   0.964  -2.995  1.00  0.00     0.008 C 
ENDBRANCH   8  14
BRANCH   9  17
ATOM     17  O   UNL     1       7.619  -1.770  -1.132  1.00  0.00    -0.365 OA
ATOM     18  H   UNL     1       8.120  -2.612  -0.972  1.00  0.00     0.214 HD
ENDBRANCH   9  17
TORSDOF 2
ENDMDL
MODEL 6
REMARK VINA RESULT:    -5.063     12.106     13.258
REMARK INTER + INTRA:          -5.762
REMARK INTER:                  -5.536
REMARK INTRA:                  -0.227
REMARK UNBOUND:                -0.255
REMARK SMILES C=C1C[C@@]2(O)O[C@@]3(C[C@@H]2C(C)C)[C@H](C)CC[C@@H]13
REMARK SMILES IDX 14 1 13 2 15 3 16 4 17 5 7 6 8 7 9 8 4 9 6 10 3 11 2 12 1 13
REMARK SMILES IDX 10 14 11 15 12 16 5 17
REMARK H PARENT 5 18
REMARK Flexibility Score: inf
ROOT
ATOM      1  C   UNL     1      -2.877  -7.518   1.050  1.00  0.00     0.011 C 
ATOM      2  C   UNL     1      -3.355  -7.540  -0.416  1.00  0.00     0.019 C 
ATOM      3  C   UNL     1      -2.360  -8.318  -1.290  1.00  0.00     0.007 C 
ATOM      4  C   UNL     1      -1.436  -7.287  -1.946  1.00  0.00     0.011 C 
ATOM      5  C   UNL     1      -1.963  -5.902  -1.550  1.00  0.00     0.047 C 
ATOM      6  C   UNL     1      -3.409  -6.151  -1.077  1.00  0.00     0.081 C 
ATOM      7  C   UNL     1      -3.947  -5.008  -0.206  1.00  0.00     0.046 C 
ATOM      8  C   UNL     1      -4.600  -4.071  -1.223  1.00  0.00     0.054 C 
ATOM      9  C   UNL     1      -4.431  -4.848  -2.562  1.00  0.00     0.173 C 
ATOM     10  O   UNL     1      -4.255  -6.201  -2.207  1.00  0.00    -0.342 OA
ATOM     11  C   UNL     1      -3.169  -4.381  -3.335  1.00  0.00     0.096 C 
ATOM     12  C   UNL     1      -1.898  -4.899  -2.691  1.00  0.00    -0.066 C 
ATOM     13  C   UNL     1      -0.709  -4.472  -3.141  1.00  0.00     0.008 C 
ENDROOT
BRANCH   8  14
ATOM     14  C   UNL     1      -6.054  -3.677  -0.796  1.00  0.00    -0.009 C 
ATOM     15  C   UNL     1      -6.431  -2.204  -1.055  1.00  0.00     0.008 C 
ATOM     16  C   UNL     1      -6.347  -4.064   0.662  1.00  0.00     0.008 C 
ENDBRANCH   8  14
BRANCH   9  17
ATOM     17  O   UNL     1      -5.552  -4.707  -3.396  1.00  0.00    -0.365 OA
ATOM     18  H   UNL     1      -5.364  -5.207  -4.234  1.00  0.00     0.214 HD
ENDBRANCH   9  17
TORSDOF 2
ENDMDL
MODEL 7
REMARK VINA RESULT:    -4.984     11.138     13.058
REMARK INTER + INTRA:          -5.676
REMARK INTER:                  -5.420
REMARK INTRA:                  -0.256
REMARK UNBOUND:                -0.255
REMARK SMILES C=C1C[C@@]2(O)O[C@@]3(C[C@@H]2C(C)C)[C@H](C)CC[C@@H]13
REMARK SMILES IDX 14 1 13 2 15 3 16 4 17 5 7 6 8 7 9 8 4 9 6 10 3 11 2 12 1 13
REMARK SMILES IDX 10 14 11 15 12 16 5 17
REMARK H PARENT 5 18
REMARK Flexibility Score: inf
ROOT
ATOM      1  C   UNL     1       1.483 -10.125   8.804  1.00  0.00     0.011 C 
ATOM      2  C   UNL     1       1.933  -8.695   8.442  1.00  0.00     0.019 C 
ATOM      3  C   UNL     1       1.935  -7.804   9.693  1.00  0.00     0.007 C 
ATOM      4  C   UNL     1       0.608  -7.038   9.701  1.00  0.00     0.011 C 
ATOM      5  C   UNL     1      -0.117  -7.391   8.396  1.00  0.00     0.047 C 
ATOM      6  C   UNL     1       0.981  -7.965   7.478  1.00  0.00     0.081 C 
ATOM      7  C   UNL     1       0.406  -8.806   6.330  1.00  0.00     0.046 C 
ATOM      8  C   UNL     1       0.215  -7.783   5.210  1.00  0.00     0.054 C 
ATOM      9  C   UNL     1       0.796  -6.480   5.833  1.00  0.00     0.173 C 
ATOM     10  O   UNL     1       1.665  -6.895   6.862  1.00  0.00    -0.342 OA
ATOM     11  C   UNL     1      -0.320  -5.606   6.465  1.00  0.00     0.096 C 
ATOM     12  C   UNL     1      -0.819  -6.196   7.770  1.00  0.00    -0.066 C 
ATOM     13  C   UNL     1      -1.883  -5.650   8.377  1.00  0.00     0.008 C 
ENDROOT
BRANCH   8  14
ATOM     14  C   UNL     1       0.839  -8.278   3.862  1.00  0.00    -0.009 C 
ATOM     15  C   UNL     1      -0.125  -8.270   2.657  1.00  0.00     0.008 C 
ATOM     16  C   UNL     1       1.508  -9.653   4.012  1.00  0.00     0.008 C 
ENDBRANCH   8  14
BRANCH   9  17
ATOM     17  O   UNL     1       1.493  -5.711   4.888  1.00  0.00    -0.365 OA
ATOM     18  H   UNL     1       2.460  -5.914   4.993  1.00  0.00     0.214 HD
ENDBRANCH   9  17
TORSDOF 2
ENDMDL
MODEL 8
REMARK VINA RESULT:    -4.889      9.482     11.024
REMARK INTER + INTRA:          -5.573
REMARK INTER:                  -5.296
REMARK INTRA:                  -0.277
REMARK UNBOUND:                -0.255
REMARK SMILES C=C1C[C@@]2(O)O[C@@]3(C[C@@H]2C(C)C)[C@H](C)CC[C@@H]13
REMARK SMILES IDX 14 1 13 2 15 3 16 4 17 5 7 6 8 7 9 8 4 9 6 10 3 11 2 12 1 13
REMARK SMILES IDX 10 14 11 15 12 16 5 17
REMARK H PARENT 5 18
REMARK Flexibility Score: inf
ROOT
ATOM      1  C   UNL     1      -2.081  -8.986  -4.161  1.00  0.00     0.011 C 
ATOM      2  C   UNL     1      -1.507  -7.888  -5.078  1.00  0.00     0.019 C 
ATOM      3  C   UNL     1      -0.475  -8.487  -6.045  1.00  0.00     0.007 C 
ATOM      4  C   UNL     1       0.909  -8.247  -5.432  1.00  0.00     0.011 C 
ATOM      5  C   UNL     1       0.694  -7.405  -4.167  1.00  0.00     0.047 C 
ATOM      6  C   UNL     1      -0.715  -6.800  -4.331  1.00  0.00     0.081 C 
ATOM      7  C   UNL     1      -1.309  -6.327  -2.998  1.00  0.00     0.046 C 
ATOM      8  C   UNL     1      -0.857  -4.869  -2.911  1.00  0.00     0.054 C 
ATOM      9  C   UNL     1      -0.123  -4.658  -4.268  1.00  0.00     0.173 C 
ATOM     10  O   UNL     1      -0.623  -5.646  -5.139  1.00  0.00    -0.342 OA
ATOM     11  C   UNL     1       1.408  -4.867  -4.125  1.00  0.00     0.096 C 
ATOM     12  C   UNL     1       1.759  -6.335  -3.984  1.00  0.00    -0.066 C 
ATOM     13  C   UNL     1       3.022  -6.688  -3.704  1.00  0.00     0.008 C 
ENDROOT
BRANCH   8  14
ATOM     14  C   UNL     1      -2.050  -3.913  -2.579  1.00  0.00    -0.009 C 
ATOM     15  C   UNL     1      -2.102  -3.420  -1.118  1.00  0.00     0.008 C 
ATOM     16  C   UNL     1      -3.400  -4.515  -2.996  1.00  0.00     0.008 C 
ENDBRANCH   8  14
BRANCH   9  17
ATOM     17  O   UNL     1      -0.358  -3.379  -4.799  1.00  0.00    -0.365 OA
ATOM     18  H   UNL     1      -0.977  -3.485  -5.568  1.00  0.00     0.214 HD
ENDBRANCH   9  17
TORSDOF 2
ENDMDL
MODEL 9
REMARK VINA RESULT:    -4.871     11.151     12.413
REMARK INTER + INTRA:          -5.553
REMARK INTER:                  -5.371
REMARK INTRA:                  -0.182
REMARK UNBOUND:                -0.255
REMARK SMILES C=C1C[C@@]2(O)O[C@@]3(C[C@@H]2C(C)C)[C@H](C)CC[C@@H]13
REMARK SMILES IDX 14 1 13 2 15 3 16 4 17 5 7 6 8 7 9 8 4 9 6 10 3 11 2 12 1 13
REMARK SMILES IDX 10 14 11 15 12 16 5 17
REMARK H PARENT 5 18
REMARK Flexibility Score: inf
ROOT
ATOM      1  C   UNL     1      -1.298  -9.773   2.665  1.00  0.00     0.011 C 
ATOM      2  C   UNL     1      -0.017  -8.964   2.953  1.00  0.00     0.019 C 
ATOM      3  C   UNL     1       1.181  -9.908   3.131  1.00  0.00     0.007 C 
ATOM      4  C   UNL     1       1.365 -10.122   4.637  1.00  0.00     0.011 C 
ATOM      5  C   UNL     1       0.351  -9.212   5.342  1.00  0.00     0.047 C 
ATOM      6  C   UNL     1      -0.059  -8.177   4.275  1.00  0.00     0.081 C 
ATOM      7  C   UNL     1      -1.387  -7.485   4.608  1.00  0.00     0.046 C 
ATOM      8  C   UNL     1      -0.951  -6.260   5.413  1.00  0.00     0.054 C 
ATOM      9  C   UNL     1       0.602  -6.355   5.364  1.00  0.00     0.173 C 
ATOM     10  O   UNL     1       0.909  -7.150   4.242  1.00  0.00    -0.342 OA
ATOM     11  C   UNL     1       1.169  -7.059   6.626  1.00  0.00     0.096 C 
ATOM     12  C   UNL     1       0.919  -8.554   6.590  1.00  0.00    -0.066 C 
ATOM     13  C   UNL     1       1.211  -9.298   7.667  1.00  0.00     0.008 C 
ENDROOT
BRANCH   8  14
ATOM     14  C   UNL     1      -1.611  -4.948   4.871  1.00  0.00    -0.009 C 
ATOM     15  C   UNL     1      -1.908  -3.879   5.943  1.00  0.00     0.008 C 
ATOM     16  C   UNL     1      -2.867  -5.242   4.036  1.00  0.00     0.008 C 
ENDBRANCH   8  14
BRANCH   9  17
ATOM     17  O   UNL     1       1.202  -5.091   5.243  1.00  0.00    -0.365 OA
ATOM     18  H   UNL     1       1.975  -5.067   5.866  1.00  0.00     0.214 HD
ENDBRANCH   9  17
TORSDOF 2
ENDMDL
