MODEL 1
REMARK VINA RESULT:    -3.644      0.000      0.000
REMARK INTER + INTRA:          -4.432
REMARK INTER:                  -4.283
REMARK INTRA:                  -0.149
REMARK UNBOUND:                -0.149
REMARK SMILES O=C([O-])C=Cc1ccc(O)c(O)c1
REMARK SMILES IDX 6 1 13 2 7 3 11 4 8 5 9 6 5 7 4 8 2 9 1 10 3 11 12 12 10 14
REMARK H PARENT 12 13 10 15
REMARK Flexibility Score: inf
ROOT
ATOM      1  C   UNL     1       7.780 -21.539  12.806  1.00  0.00    -0.022 A 
ATOM      2  C   UNL     1       7.009 -21.954  11.701  1.00  0.00     0.058 A 
ATOM      3  C   UNL     1       8.841 -20.647  12.591  1.00  0.00     0.012 A 
ATOM      4  C   UNL     1       7.276 -21.469  10.414  1.00  0.00     0.157 A 
ATOM      5  C   UNL     1       9.111 -20.158  11.313  1.00  0.00     0.051 A 
ATOM      6  C   UNL     1       8.337 -20.555  10.219  1.00  0.00     0.157 A 
ENDROOT
BRANCH   1   7
ATOM      7  C   UNL     1       7.539 -22.039  14.181  1.00  0.00     0.010 C 
ATOM      8  C   UNL     1       8.001 -21.433  15.285  1.00  0.00     0.025 C 
BRANCH   8   9
ATOM      9  C   UNL     1       7.754 -21.964  16.636  1.00  0.00     0.064 C 
ATOM     10  O   UNL     1       8.305 -23.027  17.029  1.00  0.00    -0.545 OA
ATOM     11  O   UNL     1       6.896 -21.284  17.490  1.00  0.00    -0.545 OA
ENDBRANCH   8   9
ENDBRANCH   1   7
BRANCH   4  12
ATOM     12  O   UNL     1       6.470 -21.924   9.367  1.00  0.00    -0.504 OA
ATOM     13  H   UNL     1       6.663 -22.754   8.826  1.00  0.00     0.293 HD
ENDBRANCH   4  12
BRANCH   6  14
ATOM     14  O   UNL     1       8.654 -20.022   8.967  1.00  0.00    -0.504 OA
ATOM     15  H   UNL     1       8.225 -20.318   8.102  1.00  0.00     0.293 HD
ENDBRANCH   6  14
TORSDOF 4
ENDMDL
MODEL 2
REMARK VINA RESULT:    -3.446     17.877     19.536
REMARK INTER + INTRA:          -4.200
REMARK INTER:                  -4.051
REMARK INTRA:                  -0.149
REMARK UNBOUND:                -0.149
REMARK SMILES O=C([O-])C=Cc1ccc(O)c(O)c1
REMARK SMILES IDX 6 1 13 2 7 3 11 4 8 5 9 6 5 7 4 8 2 9 1 10 3 11 12 12 10 14
REMARK H PARENT 12 13 10 15
REMARK Flexibility Score: inf
ROOT
ATOM      1  C   UNL     1      -9.725 -21.140  19.698  1.00  0.00    -0.022 A 
ATOM      2  C   UNL     1      -9.829 -20.295  20.820  1.00  0.00     0.058 A 
ATOM      3  C   UNL     1      -9.205 -22.431  19.871  1.00  0.00     0.012 A 
ATOM      4  C   UNL     1      -9.446 -20.737  22.093  1.00  0.00     0.157 A 
ATOM      5  C   UNL     1      -8.824 -22.881  21.136  1.00  0.00     0.051 A 
ATOM      6  C   UNL     1      -8.943 -22.049  22.254  1.00  0.00     0.157 A 
ENDROOT
BRANCH   1   7
ATOM      7  C   UNL     1     -10.107 -20.706  18.332  1.00  0.00     0.010 C 
ATOM      8  C   UNL     1      -9.540 -21.183  17.214  1.00  0.00     0.025 C 
BRANCH   8   9
ATOM      9  C   UNL     1      -9.935 -20.719  15.872  1.00  0.00     0.064 C 
ATOM     10  O   UNL     1     -11.121 -20.371  15.627  1.00  0.00    -0.545 OA
ATOM     11  O   UNL     1      -8.984 -20.668  14.861  1.00  0.00    -0.545 OA
ENDBRANCH   8   9
ENDBRANCH   1   7
BRANCH   4  12
ATOM     12  O   UNL     1      -9.577 -19.844  23.159  1.00  0.00    -0.504 OA
ATOM     13  H   UNL     1     -10.088 -18.975  23.108  1.00  0.00     0.293 HD
ENDBRANCH   4  12
BRANCH   6  14
ATOM     14  O   UNL     1      -8.551 -22.561  23.493  1.00  0.00    -0.504 OA
ATOM     15  H   UNL     1      -8.283 -23.522  23.648  1.00  0.00     0.293 HD
ENDBRANCH   6  14
TORSDOF 4
ENDMDL
MODEL 3
REMARK VINA RESULT:    -3.343     16.671     18.555
REMARK INTER + INTRA:          -4.078
REMARK INTER:                  -3.955
REMARK INTRA:                  -0.124
REMARK UNBOUND:                -0.149
REMARK SMILES O=C([O-])C=Cc1ccc(O)c(O)c1
REMARK SMILES IDX 6 1 13 2 7 3 11 4 8 5 9 6 5 7 4 8 2 9 1 10 3 11 12 12 10 14
REMARK H PARENT 12 13 10 15
REMARK Flexibility Score: inf
ROOT
ATOM      1  C   UNL     1      -8.925 -21.780  19.543  1.00  0.00    -0.022 A 
ATOM      2  C   UNL     1      -9.502 -20.510  19.347  1.00  0.00     0.058 A 
ATOM      3  C   UNL     1      -9.004 -22.368  20.814  1.00  0.00     0.012 A 
ATOM      4  C   UNL     1     -10.167 -19.852  20.390  1.00  0.00     0.157 A 
ATOM      5  C   UNL     1      -9.666 -21.720  21.857  1.00  0.00     0.051 A 
ATOM      6  C   UNL     1     -10.256 -20.467  21.659  1.00  0.00     0.157 A 
ENDROOT
BRANCH   1   7
ATOM      7  C   UNL     1      -8.201 -22.503  18.470  1.00  0.00     0.010 C 
ATOM      8  C   UNL     1      -7.089 -22.041  17.880  1.00  0.00     0.025 C 
BRANCH   8   9
ATOM      9  C   UNL     1      -6.403 -22.781  16.807  1.00  0.00     0.064 C 
ATOM     10  O   UNL     1      -7.013 -23.125  15.759  1.00  0.00    -0.545 OA
ATOM     11  O   UNL     1      -5.061 -23.107  16.953  1.00  0.00    -0.545 OA
ENDBRANCH   8   9
ENDBRANCH   1   7
BRANCH   4  12
ATOM     12  O   UNL     1     -10.716 -18.595  20.121  1.00  0.00    -0.504 OA
ATOM     13  H   UNL     1     -11.703 -18.425  19.998  1.00  0.00     0.293 HD
ENDBRANCH   4  12
BRANCH   6  14
ATOM     14  O   UNL     1     -10.911 -19.876  22.742  1.00  0.00    -0.504 OA
ATOM     15  H   UNL     1     -10.477 -19.219  23.375  1.00  0.00     0.293 HD
ENDBRANCH   6  14
TORSDOF 4
ENDMDL
MODEL 4
REMARK VINA RESULT:    -3.307     17.875     19.639
REMARK INTER + INTRA:          -4.036
REMARK INTER:                  -3.887
REMARK INTRA:                  -0.149
REMARK UNBOUND:                -0.149
REMARK SMILES O=C([O-])C=Cc1ccc(O)c(O)c1
REMARK SMILES IDX 6 1 13 2 7 3 11 4 8 5 9 6 5 7 4 8 2 9 1 10 3 11 12 12 10 14
REMARK H PARENT 12 13 10 15
REMARK Flexibility Score: inf
ROOT
ATOM      1  C   UNL     1      -9.863 -20.967  18.979  1.00  0.00    -0.022 A 
ATOM      2  C   UNL     1      -9.122 -21.721  19.910  1.00  0.00     0.058 A 
ATOM      3  C   UNL     1     -10.724 -19.967  19.453  1.00  0.00     0.012 A 
ATOM      4  C   UNL     1      -9.218 -21.465  21.283  1.00  0.00     0.157 A 
ATOM      5  C   UNL     1     -10.823 -19.703  20.819  1.00  0.00     0.051 A 
ATOM      6  C   UNL     1     -10.075 -20.439  21.744  1.00  0.00     0.157 A 
ENDROOT
BRANCH   1   7
ATOM      7  C   UNL     1      -9.800 -21.216  17.518  1.00  0.00     0.010 C 
ATOM      8  C   UNL     1     -10.149 -20.310  16.593  1.00  0.00     0.025 C 
BRANCH   8   9
ATOM      9  C   UNL     1     -10.087 -20.595  15.149  1.00  0.00     0.064 C 
ATOM     10  O   UNL     1     -11.123 -20.560  14.433  1.00  0.00    -0.545 OA
ATOM     11  O   UNL     1      -8.866 -20.911  14.569  1.00  0.00    -0.545 OA
ENDBRANCH   8   9
ENDBRANCH   1   7
BRANCH   4  12
ATOM     12  O   UNL     1      -8.453 -22.252  22.148  1.00  0.00    -0.504 OA
ATOM     13  H   UNL     1      -8.176 -23.203  21.950  1.00  0.00     0.293 HD
ENDBRANCH   4  12
BRANCH   6  14
ATOM     14  O   UNL     1     -10.213 -20.121  23.097  1.00  0.00    -0.504 OA
ATOM     15  H   UNL     1     -10.218 -19.178  23.458  1.00  0.00     0.293 HD
ENDBRANCH   6  14
TORSDOF 4
ENDMDL
MODEL 5
REMARK VINA RESULT:    -3.259     17.643     18.653
REMARK INTER + INTRA:          -3.979
REMARK INTER:                  -3.843
REMARK INTRA:                  -0.136
REMARK UNBOUND:                -0.149
REMARK SMILES O=C([O-])C=Cc1ccc(O)c(O)c1
REMARK SMILES IDX 6 1 13 2 7 3 11 4 8 5 9 6 5 7 4 8 2 9 1 10 3 11 12 12 10 14
REMARK H PARENT 12 13 10 15
REMARK Flexibility Score: inf
ROOT
ATOM      1  C   UNL     1      -9.922 -21.007  18.628  1.00  0.00    -0.022 A 
ATOM      2  C   UNL     1      -8.902 -21.492  17.786  1.00  0.00     0.058 A 
ATOM      3  C   UNL     1     -10.959 -20.249  18.065  1.00  0.00     0.012 A 
ATOM      4  C   UNL     1      -8.930 -21.249  16.406  1.00  0.00     0.157 A 
ATOM      5  C   UNL     1     -10.996 -20.004  16.692  1.00  0.00     0.051 A 
ATOM      6  C   UNL     1      -9.994 -20.500  15.851  1.00  0.00     0.157 A 
ENDROOT
BRANCH   1   7
ATOM      7  C   UNL     1      -9.922 -21.232  20.094  1.00  0.00     0.010 C 
ATOM      8  C   UNL     1      -9.939 -20.242  20.999  1.00  0.00     0.025 C 
BRANCH   8   9
ATOM      9  C   UNL     1      -9.926 -20.502  22.449  1.00  0.00     0.064 C 
ATOM     10  O   UNL     1     -10.990 -20.486  23.123  1.00  0.00    -0.545 OA
ATOM     11  O   UNL     1      -8.719 -20.765  23.083  1.00  0.00    -0.545 OA
ENDBRANCH   8   9
ENDBRANCH   1   7
BRANCH   4  12
ATOM     12  O   UNL     1      -7.885 -21.761  15.633  1.00  0.00    -0.504 OA
ATOM     13  H   UNL     1      -8.001 -22.477  14.931  1.00  0.00     0.293 HD
ENDBRANCH   4  12
BRANCH   6  14
ATOM     14  O   UNL     1     -10.093 -20.226  14.485  1.00  0.00    -0.504 OA
ATOM     15  H   UNL     1      -9.599 -19.477  14.022  1.00  0.00     0.293 HD
ENDBRANCH   6  14
TORSDOF 4
ENDMDL
MODEL 6
REMARK VINA RESULT:    -3.244      1.675      5.853
REMARK INTER + INTRA:          -3.962
REMARK INTER:                  -3.839
REMARK INTRA:                  -0.123
REMARK UNBOUND:                -0.149
REMARK SMILES O=C([O-])C=Cc1ccc(O)c(O)c1
REMARK SMILES IDX 6 1 13 2 7 3 11 4 8 5 9 6 5 7 4 8 2 9 1 10 3 11 12 12 10 14
REMARK H PARENT 12 13 10 15
REMARK Flexibility Score: inf
ROOT
ATOM      1  C   UNL     1       8.207 -22.160  12.712  1.00  0.00    -0.022 A 
ATOM      2  C   UNL     1       8.629 -20.887  13.144  1.00  0.00     0.058 A 
ATOM      3  C   UNL     1       7.880 -23.125  13.676  1.00  0.00     0.012 A 
ATOM      4  C   UNL     1       8.698 -20.575  14.508  1.00  0.00     0.157 A 
ATOM      5  C   UNL     1       7.943 -22.822  15.036  1.00  0.00     0.051 A 
ATOM      6  C   UNL     1       8.345 -21.553  15.466  1.00  0.00     0.157 A 
ENDROOT
BRANCH   1   7
ATOM      7  C   UNL     1       8.133 -22.534  11.279  1.00  0.00     0.010 C 
ATOM      8  C   UNL     1       7.109 -22.209  10.477  1.00  0.00     0.025 C 
BRANCH   8   9
ATOM      9  C   UNL     1       7.062 -22.609   9.060  1.00  0.00     0.064 C 
ATOM     10  O   UNL     1       8.093 -22.566   8.337  1.00  0.00    -0.545 OA
ATOM     11  O   UNL     1       5.861 -23.037   8.511  1.00  0.00    -0.545 OA
ENDBRANCH   8   9
ENDBRANCH   1   7
BRANCH   4  12
ATOM     12  O   UNL     1       9.125 -19.292  14.862  1.00  0.00    -0.504 OA
ATOM     13  H   UNL     1       8.713 -18.745  15.603  1.00  0.00     0.293 HD
ENDBRANCH   4  12
BRANCH   6  14
ATOM     14  O   UNL     1       8.380 -21.311  16.841  1.00  0.00    -0.504 OA
ATOM     15  H   UNL     1       7.971 -21.922  17.534  1.00  0.00     0.293 HD
ENDBRANCH   6  14
TORSDOF 4
ENDMDL
MODEL 7
REMARK VINA RESULT:    -3.012     16.930     18.920
REMARK INTER + INTRA:          -3.690
REMARK INTER:                  -3.567
REMARK INTRA:                  -0.122
REMARK UNBOUND:                -0.149
REMARK SMILES O=C([O-])C=Cc1ccc(O)c(O)c1
REMARK SMILES IDX 6 1 13 2 7 3 11 4 8 5 9 6 5 7 4 8 2 9 1 10 3 11 12 12 10 14
REMARK H PARENT 12 13 10 15
REMARK Flexibility Score: inf
ROOT
ATOM      1  C   UNL     1      -9.275 -21.425  19.530  1.00  0.00    -0.022 A 
ATOM      2  C   UNL     1      -9.130 -22.199  20.699  1.00  0.00     0.058 A 
ATOM      3  C   UNL     1     -10.038 -20.250  19.589  1.00  0.00     0.012 A 
ATOM      4  C   UNL     1      -9.713 -21.794  21.907  1.00  0.00     0.157 A 
ATOM      5  C   UNL     1     -10.619 -19.838  20.789  1.00  0.00     0.051 A 
ATOM      6  C   UNL     1     -10.462 -20.595  21.954  1.00  0.00     0.157 A 
ENDROOT
BRANCH   1   7
ATOM      7  C   UNL     1      -8.686 -21.825  18.229  1.00  0.00     0.010 C 
ATOM      8  C   UNL     1      -7.372 -22.004  18.031  1.00  0.00     0.025 C 
BRANCH   8   9
ATOM      9  C   UNL     1      -6.820 -22.389  16.721  1.00  0.00     0.064 C 
ATOM     10  O   UNL     1      -7.398 -22.065  15.649  1.00  0.00    -0.545 OA
ATOM     11  O   UNL     1      -5.643 -23.125  16.666  1.00  0.00    -0.545 OA
ENDBRANCH   8   9
ENDBRANCH   1   7
BRANCH   4  12
ATOM     12  O   UNL     1      -9.526 -22.610  23.026  1.00  0.00    -0.504 OA
ATOM     13  H   UNL     1      -9.012 -22.332  23.849  1.00  0.00     0.293 HD
ENDBRANCH   4  12
BRANCH   6  14
ATOM     14  O   UNL     1     -11.062 -20.125  23.124  1.00  0.00    -0.504 OA
ATOM     15  H   UNL     1     -10.708 -19.352  23.670  1.00  0.00     0.293 HD
ENDBRANCH   6  14
TORSDOF 4
ENDMDL
MODEL 8
REMARK VINA RESULT:    -2.849      4.024      6.015
REMARK INTER + INTRA:          -3.497
REMARK INTER:                  -3.357
REMARK INTRA:                  -0.140
REMARK UNBOUND:                -0.149
REMARK SMILES O=C([O-])C=Cc1ccc(O)c(O)c1
REMARK SMILES IDX 6 1 13 2 7 3 11 4 8 5 9 6 5 7 4 8 2 9 1 10 3 11 12 12 10 14
REMARK H PARENT 12 13 10 15
REMARK Flexibility Score: inf
ROOT
ATOM      1  C   UNL     1       5.057 -22.624  16.048  1.00  0.00    -0.022 A 
ATOM      2  C   UNL     1       6.037 -22.974  15.097  1.00  0.00     0.058 A 
ATOM      3  C   UNL     1       5.461 -21.987  17.230  1.00  0.00     0.012 A 
ATOM      4  C   UNL     1       7.388 -22.670  15.310  1.00  0.00     0.157 A 
ATOM      5  C   UNL     1       6.804 -21.678  17.448  1.00  0.00     0.051 A 
ATOM      6  C   UNL     1       7.776 -22.008  16.498  1.00  0.00     0.157 A 
ENDROOT
BRANCH   1   7
ATOM      7  C   UNL     1       3.619 -22.940  15.866  1.00  0.00     0.010 C 
ATOM      8  C   UNL     1       2.634 -22.046  16.037  1.00  0.00     0.025 C 
BRANCH   8   9
ATOM      9  C   UNL     1       1.215 -22.397  15.861  1.00  0.00     0.064 C 
ATOM     10  O   UNL     1       0.837 -23.125  14.903  1.00  0.00    -0.545 OA
ATOM     11  O   UNL     1       0.276 -21.916  16.764  1.00  0.00    -0.545 OA
ENDBRANCH   8   9
ENDBRANCH   1   7
BRANCH   4  12
ATOM     12  O   UNL     1       8.303 -23.046  14.323  1.00  0.00    -0.504 OA
ATOM     13  H   UNL     1       8.228 -22.780  13.352  1.00  0.00     0.293 HD
ENDBRANCH   4  12
BRANCH   6  14
ATOM     14  O   UNL     1       9.101 -21.665  16.774  1.00  0.00    -0.504 OA
ATOM     15  H   UNL     1       9.857 -22.333  16.836  1.00  0.00     0.293 HD
ENDBRANCH   6  14
TORSDOF 4
ENDMDL
