MODEL 1
REMARK VINA RESULT:    -4.437      0.000      0.000
REMARK INTER + INTRA:          -4.908
REMARK INTER:                  -4.696
REMARK INTRA:                  -0.211
REMARK UNBOUND:                -0.211
REMARK SMILES CC1=CC[C@H]2[C@H]3[C@@H]1[C@]2(C)CC[C@H]3C(C)C
REMARK SMILES IDX 1 1 2 2 3 3 4 4 5 5 6 6 7 7 8 8 10 9 11 10 12 11 9 12 13 13
REMARK SMILES IDX 14 14 15 15
REMARK H PARENT
REMARK Flexibility Score: inf
ROOT
ATOM      1  C   UNL     1     141.552 137.112 125.244  1.00  0.00     0.039 C 
ATOM      2  C   UNL     1     140.210 136.546 124.893  1.00  0.00    -0.073 C 
ATOM      3  C   UNL     1     139.664 135.501 125.570  1.00  0.00    -0.027 C 
ATOM      4  C   UNL     1     138.289 134.979 125.139  1.00  0.00     0.031 C 
ATOM      5  C   UNL     1     137.727 135.832 123.957  1.00  0.00     0.003 C 
ATOM      6  C   UNL     1     137.937 137.327 124.319  1.00  0.00     0.004 C 
ATOM      7  C   UNL     1     139.371 137.160 123.769  1.00  0.00     0.024 C 
ATOM      8  C   UNL     1     138.796 136.052 122.856  1.00  0.00    -0.022 C 
ATOM      9  C   UNL     1     138.157 136.713 121.595  1.00  0.00     0.008 C 
ATOM     10  C   UNL     1     136.994 137.676 121.953  1.00  0.00     0.005 C 
ATOM     11  C   UNL     1     137.134 138.282 123.382  1.00  0.00    -0.005 C 
ATOM     12  C   UNL     1     139.716 134.875 122.456  1.00  0.00     0.012 C 
ENDROOT
BRANCH  11  13
ATOM     13  C   UNL     1     135.762 138.738 123.967  1.00  0.00    -0.014 C 
ATOM     14  C   UNL     1     134.875 139.377 122.887  1.00  0.00     0.007 C 
ATOM     15  C   UNL     1     135.884 139.687 125.172  1.00  0.00     0.007 C 
ENDBRANCH  11  13
TORSDOF 1
ENDMDL
MODEL 2
REMARK VINA RESULT:    -3.127      1.233      4.636
REMARK INTER + INTRA:          -3.522
REMARK INTER:                  -3.216
REMARK INTRA:                  -0.305
REMARK UNBOUND:                -0.211
REMARK SMILES CC1=CC[C@H]2[C@H]3[C@@H]1[C@]2(C)CC[C@H]3C(C)C
REMARK SMILES IDX 1 1 2 2 3 3 4 4 5 5 6 6 7 7 8 8 10 9 11 10 12 11 9 12 13 13
REMARK SMILES IDX 14 14 15 15
REMARK H PARENT
REMARK Flexibility Score: inf
ROOT
ATOM      1  C   UNL     1     135.669 140.003 124.535  1.00  0.00     0.039 C 
ATOM      2  C   UNL     1     136.310 138.895 123.755  1.00  0.00    -0.073 C 
ATOM      3  C   UNL     1     136.571 139.001 122.425  1.00  0.00    -0.027 C 
ATOM      4  C   UNL     1     137.222 137.817 121.703  1.00  0.00     0.031 C 
ATOM      5  C   UNL     1     137.517 136.659 122.710  1.00  0.00     0.003 C 
ATOM      6  C   UNL     1     138.177 137.290 123.966  1.00  0.00     0.004 C 
ATOM      7  C   UNL     1     136.741 137.599 124.447  1.00  0.00     0.024 C 
ATOM      8  C   UNL     1     136.295 136.371 123.619  1.00  0.00    -0.022 C 
ATOM      9  C   UNL     1     136.531 135.078 124.461  1.00  0.00     0.008 C 
ATOM     10  C   UNL     1     138.024 134.875 124.834  1.00  0.00     0.005 C 
ATOM     11  C   UNL     1     138.814 136.217 124.903  1.00  0.00    -0.005 C 
ATOM     12  C   UNL     1     134.879 136.375 122.999  1.00  0.00     0.012 C 
ENDROOT
BRANCH  11  13
ATOM     13  C   UNL     1     140.344 136.013 124.683  1.00  0.00    -0.014 C 
ATOM     14  C   UNL     1     141.103 137.348 124.741  1.00  0.00     0.007 C 
ATOM     15  C   UNL     1     140.692 135.271 123.380  1.00  0.00     0.007 C 
ENDBRANCH  11  13
TORSDOF 1
ENDMDL
