MODEL 1
REMARK VINA RESULT:    -4.231      0.000      0.000
REMARK INTER + INTRA:          -4.355
REMARK INTER:                  -4.355
REMARK INTRA:                   0.000
REMARK UNBOUND:                 0.000
REMARK SMILES C[C@@H]1CC[C@H]2C(C)(C)[C@H]3C[C@@]12CC[C@@]3(C)O
REMARK SMILES IDX 1 1 2 2 3 3 4 4 5 5 11 6 12 7 13 8 14 9 9 10 10 11 6 12 7 13
REMARK SMILES IDX 8 14 15 15 16 16
REMARK H PARENT 16 17
REMARK Flexibility Score: inf
ROOT
ATOM      1  C   UNL     1     173.102 158.590 170.499  1.00  0.00     0.008 C 
ATOM      2  C   UNL     1     171.871 159.477 170.740  1.00  0.00    -0.008 C 
ATOM      3  C   UNL     1     171.759 159.905 172.202  1.00  0.00     0.004 C 
ATOM      4  C   UNL     1     170.298 160.273 172.385  1.00  0.00     0.005 C 
ATOM      5  C   UNL     1     169.538 159.234 171.548  1.00  0.00     0.001 C 
ATOM      6  C   UNL     1     170.486 158.854 170.386  1.00  0.00    -0.023 C 
ATOM      7  C   UNL     1     170.482 157.311 170.153  1.00  0.00     0.010 C 
ATOM      8  C   UNL     1     169.061 156.738 169.927  1.00  0.00     0.036 C 
ATOM      9  C   UNL     1     168.116 157.657 169.078  1.00  0.00     0.065 C 
ATOM     10  C   UNL     1     168.362 159.187 169.388  1.00  0.00     0.027 C 
ATOM     11  C   UNL     1     169.843 159.499 169.161  1.00  0.00     0.014 C 
ATOM     12  C   UNL     1     168.171 159.635 170.887  1.00  0.00    -0.026 C 
ATOM     13  C   UNL     1     166.985 158.969 171.628  1.00  0.00     0.012 C 
ATOM     14  C   UNL     1     167.876 161.163 170.920  1.00  0.00     0.012 C 
ATOM     15  C   UNL     1     168.334 157.366 167.570  1.00  0.00     0.042 C 
ENDROOT
BRANCH   9  16
ATOM     16  O   UNL     1     166.769 157.355 169.357  1.00  0.00    -0.390 OA
ATOM     17  H   UNL     1     166.627 157.433 170.337  1.00  0.00     0.211 HD
ENDBRANCH   9  16
TORSDOF 1
ENDMDL
MODEL 2
REMARK VINA RESULT:    -4.213     13.272     16.140
REMARK INTER + INTRA:          -4.336
REMARK INTER:                  -4.336
REMARK INTRA:                   0.000
REMARK UNBOUND:                 0.000
REMARK SMILES C[C@@H]1CC[C@H]2C(C)(C)[C@H]3C[C@@]12CC[C@@]3(C)O
REMARK SMILES IDX 1 1 2 2 3 3 4 4 5 5 11 6 12 7 13 8 14 9 9 10 10 11 6 12 7 13
REMARK SMILES IDX 8 14 15 15 16 16
REMARK H PARENT 16 17
REMARK Flexibility Score: inf
ROOT
ATOM      1  C   UNL     1     158.145 172.566 170.272  1.00  0.00     0.008 C 
ATOM      2  C   UNL     1     159.382 171.702 170.559  1.00  0.00    -0.008 C 
ATOM      3  C   UNL     1     159.448 171.277 172.025  1.00  0.00     0.004 C 
ATOM      4  C   UNL     1     160.907 170.936 172.262  1.00  0.00     0.005 C 
ATOM      5  C   UNL     1     161.679 171.988 171.452  1.00  0.00     0.001 C 
ATOM      6  C   UNL     1     160.768 172.350 170.255  1.00  0.00    -0.023 C 
ATOM      7  C   UNL     1     160.752 173.892 170.020  1.00  0.00     0.010 C 
ATOM      8  C   UNL     1     162.170 174.490 169.845  1.00  0.00     0.036 C 
ATOM      9  C   UNL     1     163.162 173.587 169.033  1.00  0.00     0.065 C 
ATOM     10  C   UNL     1     162.932 172.054 169.337  1.00  0.00     0.027 C 
ATOM     11  C   UNL     1     161.467 171.715 169.055  1.00  0.00     0.014 C 
ATOM     12  C   UNL     1     163.076 171.611 170.842  1.00  0.00    -0.026 C 
ATOM     13  C   UNL     1     164.222 172.298 171.626  1.00  0.00     0.012 C 
ATOM     14  C   UNL     1     163.397 170.088 170.888  1.00  0.00     0.012 C 
ATOM     15  C   UNL     1     162.995 173.873 167.518  1.00  0.00     0.042 C 
ENDROOT
BRANCH   9  16
ATOM     16  O   UNL     1     164.493 173.914 169.362  1.00  0.00    -0.390 OA
ATOM     17  H   UNL     1     164.573 174.904 169.397  1.00  0.00     0.211 HD
ENDBRANCH   9  16
TORSDOF 1
ENDMDL
MODEL 3
REMARK VINA RESULT:    -4.136      7.171      8.885
REMARK INTER + INTRA:          -4.257
REMARK INTER:                  -4.257
REMARK INTRA:                   0.000
REMARK UNBOUND:                 0.000
REMARK SMILES C[C@@H]1CC[C@H]2C(C)(C)[C@H]3C[C@@]12CC[C@@]3(C)O
REMARK SMILES IDX 1 1 2 2 3 3 4 4 5 5 11 6 12 7 13 8 14 9 9 10 10 11 6 12 7 13
REMARK SMILES IDX 8 14 15 15 16 16
REMARK H PARENT 16 17
REMARK Flexibility Score: inf
ROOT
ATOM      1  C   UNL     1     164.115 166.018 167.331  1.00  0.00     0.008 C 
ATOM      2  C   UNL     1     164.932 166.055 168.630  1.00  0.00    -0.008 C 
ATOM      3  C   UNL     1     166.247 165.289 168.494  1.00  0.00     0.004 C 
ATOM      4  C   UNL     1     166.649 164.956 169.919  1.00  0.00     0.005 C 
ATOM      5  C   UNL     1     165.323 164.622 170.618  1.00  0.00     0.001 C 
ATOM      6  C   UNL     1     164.244 165.467 169.901  1.00  0.00    -0.023 C 
ATOM      7  C   UNL     1     162.961 164.618 169.639  1.00  0.00     0.010 C 
ATOM      8  C   UNL     1     162.397 163.964 170.925  1.00  0.00     0.036 C 
ATOM      9  C   UNL     1     162.489 164.863 172.207  1.00  0.00     0.065 C 
ATOM     10  C   UNL     1     163.814 165.724 172.217  1.00  0.00     0.027 C 
ATOM     11  C   UNL     1     163.877 166.540 170.924  1.00  0.00     0.014 C 
ATOM     12  C   UNL     1     165.169 164.923 172.152  1.00  0.00    -0.026 C 
ATOM     13  C   UNL     1     165.200 163.611 172.976  1.00  0.00     0.012 C 
ATOM     14  C   UNL     1     166.305 165.809 172.740  1.00  0.00     0.012 C 
ATOM     15  C   UNL     1     161.243 165.782 172.281  1.00  0.00     0.042 C 
ENDROOT
BRANCH   9  16
ATOM     16  O   UNL     1     162.469 164.059 173.364  1.00  0.00    -0.390 OA
ATOM     17  H   UNL     1     161.535 164.016 173.699  1.00  0.00     0.211 HD
ENDBRANCH   9  16
TORSDOF 1
ENDMDL
MODEL 4
REMARK VINA RESULT:    -4.079      2.228      4.401
REMARK INTER + INTRA:          -4.198
REMARK INTER:                  -4.198
REMARK INTRA:                   0.000
REMARK UNBOUND:                 0.000
REMARK SMILES C[C@@H]1CC[C@H]2C(C)(C)[C@H]3C[C@@]12CC[C@@]3(C)O
REMARK SMILES IDX 1 1 2 2 3 3 4 4 5 5 11 6 12 7 13 8 14 9 9 10 10 11 6 12 7 13
REMARK SMILES IDX 8 14 15 15 16 16
REMARK H PARENT 16 17
REMARK Flexibility Score: inf
ROOT
ATOM      1  C   UNL     1     169.370 156.124 166.681  1.00  0.00     0.008 C 
ATOM      2  C   UNL     1     169.072 156.868 167.991  1.00  0.00    -0.008 C 
ATOM      3  C   UNL     1     168.075 158.007 167.780  1.00  0.00     0.004 C 
ATOM      4  C   UNL     1     168.299 158.938 168.958  1.00  0.00     0.005 C 
ATOM      5  C   UNL     1     169.820 158.918 169.172  1.00  0.00     0.001 C 
ATOM      6  C   UNL     1     170.292 157.518 168.714  1.00  0.00    -0.023 C 
ATOM      7  C   UNL     1     171.597 157.625 167.867  1.00  0.00     0.010 C 
ATOM      8  C   UNL     1     172.731 158.387 168.598  1.00  0.00     0.036 C 
ATOM      9  C   UNL     1     172.821 158.099 170.137  1.00  0.00     0.065 C 
ATOM     10  C   UNL     1     171.388 157.913 170.777  1.00  0.00     0.027 C 
ATOM     11  C   UNL     1     170.653 156.807 170.017  1.00  0.00     0.014 C 
ATOM     12  C   UNL     1     170.391 159.122 170.621  1.00  0.00    -0.026 C 
ATOM     13  C   UNL     1     171.028 160.526 170.768  1.00  0.00     0.012 C 
ATOM     14  C   UNL     1     169.316 159.034 171.743  1.00  0.00     0.012 C 
ATOM     15  C   UNL     1     173.691 156.837 170.374  1.00  0.00     0.042 C 
ENDROOT
BRANCH   9  16
ATOM     16  O   UNL     1     173.469 159.165 170.791  1.00  0.00    -0.390 OA
ATOM     17  H   UNL     1     173.840 158.828 171.648  1.00  0.00     0.211 HD
ENDBRANCH   9  16
TORSDOF 1
ENDMDL
MODEL 5
REMARK VINA RESULT:    -4.063     15.445     17.362
REMARK INTER + INTRA:          -4.182
REMARK INTER:                  -4.182
REMARK INTRA:                   0.000
REMARK UNBOUND:                 0.000
REMARK SMILES C[C@@H]1CC[C@H]2C(C)(C)[C@H]3C[C@@]12CC[C@@]3(C)O
REMARK SMILES IDX 1 1 2 2 3 3 4 4 5 5 11 6 12 7 13 8 14 9 9 10 10 11 6 12 7 13
REMARK SMILES IDX 8 14 15 15 16 16
REMARK H PARENT 16 17
REMARK Flexibility Score: inf
ROOT
ATOM      1  C   UNL     1     161.843 175.331 166.536  1.00  0.00     0.008 C 
ATOM      2  C   UNL     1     162.139 174.563 167.833  1.00  0.00    -0.008 C 
ATOM      3  C   UNL     1     163.126 173.421 167.601  1.00  0.00     0.004 C 
ATOM      4  C   UNL     1     162.898 172.472 168.763  1.00  0.00     0.005 C 
ATOM      5  C   UNL     1     161.378 172.501 168.982  1.00  0.00     0.001 C 
ATOM      6  C   UNL     1     160.916 173.911 168.548  1.00  0.00    -0.023 C 
ATOM      7  C   UNL     1     159.607 173.828 167.702  1.00  0.00     0.010 C 
ATOM      8  C   UNL     1     158.470 173.063 168.424  1.00  0.00     0.036 C 
ATOM      9  C   UNL     1     158.385 173.326 169.968  1.00  0.00     0.065 C 
ATOM     10  C   UNL     1     159.821 173.491 170.608  1.00  0.00     0.027 C 
ATOM     11  C   UNL     1     160.562 174.603 169.863  1.00  0.00     0.014 C 
ATOM     12  C   UNL     1     160.809 172.277 170.429  1.00  0.00    -0.026 C 
ATOM     13  C   UNL     1     160.161 170.875 170.555  1.00  0.00     0.012 C 
ATOM     14  C   UNL     1     161.887 172.338 171.550  1.00  0.00     0.012 C 
ATOM     15  C   UNL     1     157.526 174.591 170.227  1.00  0.00     0.042 C 
ENDROOT
BRANCH   9  16
ATOM     16  O   UNL     1     157.731 172.254 170.606  1.00  0.00    -0.390 OA
ATOM     17  H   UNL     1     158.187 172.078 171.470  1.00  0.00     0.211 HD
ENDBRANCH   9  16
TORSDOF 1
ENDMDL
MODEL 6
REMARK VINA RESULT:    -4.030      1.159      3.060
REMARK INTER + INTRA:          -4.148
REMARK INTER:                  -4.148
REMARK INTRA:                   0.000
REMARK UNBOUND:                 0.000
REMARK SMILES C[C@@H]1CC[C@H]2C(C)(C)[C@H]3C[C@@]12CC[C@@]3(C)O
REMARK SMILES IDX 1 1 2 2 3 3 4 4 5 5 11 6 12 7 13 8 14 9 9 10 10 11 6 12 7 13
REMARK SMILES IDX 8 14 15 15 16 16
REMARK H PARENT 16 17
REMARK Flexibility Score: inf
ROOT
ATOM      1  C   UNL     1     172.308 159.631 172.633  1.00  0.00     0.008 C 
ATOM      2  C   UNL     1     171.799 158.936 171.361  1.00  0.00    -0.008 C 
ATOM      3  C   UNL     1     172.449 159.511 170.103  1.00  0.00     0.004 C 
ATOM      4  C   UNL     1     171.498 159.147 168.978  1.00  0.00     0.005 C 
ATOM      5  C   UNL     1     170.101 159.316 169.592  1.00  0.00     0.001 C 
ATOM      6  C   UNL     1     170.263 159.007 171.099  1.00  0.00    -0.023 C 
ATOM      7  C   UNL     1     169.480 160.043 171.963  1.00  0.00     0.010 C 
ATOM      8  C   UNL     1     167.985 160.150 171.570  1.00  0.00     0.036 C 
ATOM      9  C   UNL     1     167.313 158.785 171.189  1.00  0.00     0.065 C 
ATOM     10  C   UNL     1     168.316 157.840 170.417  1.00  0.00     0.027 C 
ATOM     11  C   UNL     1     169.571 157.656 171.272  1.00  0.00     0.014 C 
ATOM     12  C   UNL     1     168.925 158.410 169.080  1.00  0.00    -0.026 C 
ATOM     13  C   UNL     1     167.943 159.227 168.204  1.00  0.00     0.012 C 
ATOM     14  C   UNL     1     169.385 157.220 168.190  1.00  0.00     0.012 C 
ATOM     15  C   UNL     1     166.793 158.091 172.475  1.00  0.00     0.042 C 
ENDROOT
BRANCH   9  16
ATOM     16  O   UNL     1     166.190 159.011 170.370  1.00  0.00    -0.390 OA
ATOM     17  H   UNL     1     166.183 159.969 170.105  1.00  0.00     0.211 HD
ENDBRANCH   9  16
TORSDOF 1
ENDMDL
MODEL 7
REMARK VINA RESULT:    -4.024     14.056     16.114
REMARK INTER + INTRA:          -4.142
REMARK INTER:                  -4.142
REMARK INTRA:                   0.000
REMARK UNBOUND:                 0.000
REMARK SMILES C[C@@H]1CC[C@H]2C(C)(C)[C@H]3C[C@@]12CC[C@@]3(C)O
REMARK SMILES IDX 1 1 2 2 3 3 4 4 5 5 11 6 12 7 13 8 14 9 9 10 10 11 6 12 7 13
REMARK SMILES IDX 8 14 15 15 16 16
REMARK H PARENT 16 17
REMARK Flexibility Score: inf
ROOT
ATOM      1  C   UNL     1     158.890 171.537 172.568  1.00  0.00     0.008 C 
ATOM      2  C   UNL     1     159.408 172.233 171.301  1.00  0.00    -0.008 C 
ATOM      3  C   UNL     1     158.788 171.641 170.036  1.00  0.00     0.004 C 
ATOM      4  C   UNL     1     159.751 172.015 168.924  1.00  0.00     0.005 C 
ATOM      5  C   UNL     1     161.140 171.873 169.562  1.00  0.00     0.001 C 
ATOM      6  C   UNL     1     160.949 172.188 171.064  1.00  0.00    -0.023 C 
ATOM      7  C   UNL     1     161.736 171.170 171.947  1.00  0.00     0.010 C 
ATOM      8  C   UNL     1     163.238 171.087 171.579  1.00  0.00     0.036 C 
ATOM      9  C   UNL     1     163.893 172.461 171.201  1.00  0.00     0.065 C 
ATOM     10  C   UNL     1     162.886 173.385 170.407  1.00  0.00     0.027 C 
ATOM     11  C   UNL     1     161.615 173.551 171.241  1.00  0.00     0.014 C 
ATOM     12  C   UNL     1     162.310 172.796 169.064  1.00  0.00    -0.026 C 
ATOM     13  C   UNL     1     163.320 171.992 168.208  1.00  0.00     0.012 C 
ATOM     14  C   UNL     1     161.844 173.974 168.159  1.00  0.00     0.012 C 
ATOM     15  C   UNL     1     164.380 173.170 172.491  1.00  0.00     0.042 C 
ENDROOT
BRANCH   9  16
ATOM     16  O   UNL     1     165.033 172.249 170.401  1.00  0.00    -0.390 OA
ATOM     17  H   UNL     1     164.757 171.750 169.588  1.00  0.00     0.211 HD
ENDBRANCH   9  16
TORSDOF 1
ENDMDL
MODEL 8
REMARK VINA RESULT:    -3.960     14.057     16.836
REMARK INTER + INTRA:          -4.076
REMARK INTER:                  -4.076
REMARK INTRA:                   0.000
REMARK UNBOUND:                 0.000
REMARK SMILES C[C@@H]1CC[C@H]2C(C)(C)[C@H]3C[C@@]12CC[C@@]3(C)O
REMARK SMILES IDX 1 1 2 2 3 3 4 4 5 5 11 6 12 7 13 8 14 9 9 10 10 11 6 12 7 13
REMARK SMILES IDX 8 14 15 15 16 16
REMARK H PARENT 16 17
REMARK Flexibility Score: inf
ROOT
ATOM      1  C   UNL     1     159.825 175.379 166.885  1.00  0.00     0.008 C 
ATOM      2  C   UNL     1     161.067 174.971 167.691  1.00  0.00    -0.008 C 
ATOM      3  C   UNL     1     162.241 174.617 166.780  1.00  0.00     0.004 C 
ATOM      4  C   UNL     1     163.146 173.751 167.638  1.00  0.00     0.005 C 
ATOM      5  C   UNL     1     162.178 172.891 168.462  1.00  0.00     0.001 C 
ATOM      6  C   UNL     1     160.904 173.749 168.647  1.00  0.00    -0.023 C 
ATOM      7  C   UNL     1     159.622 172.889 168.426  1.00  0.00     0.010 C 
ATOM      8  C   UNL     1     159.580 171.626 169.322  1.00  0.00     0.036 C 
ATOM      9  C   UNL     1     160.137 171.838 170.773  1.00  0.00     0.065 C 
ATOM     10  C   UNL     1     161.366 172.833 170.783  1.00  0.00     0.027 C 
ATOM     11  C   UNL     1     160.938 174.144 170.122  1.00  0.00     0.014 C 
ATOM     12  C   UNL     1     162.604 172.422 169.899  1.00  0.00    -0.026 C 
ATOM     13  C   UNL     1     162.947 170.911 169.906  1.00  0.00     0.012 C 
ATOM     14  C   UNL     1     163.872 173.138 170.449  1.00  0.00     0.012 C 
ATOM     15  C   UNL     1     159.002 172.367 171.687  1.00  0.00     0.042 C 
ENDROOT
BRANCH   9  16
ATOM     16  O   UNL     1     160.553 170.607 171.316  1.00  0.00    -0.390 OA
ATOM     17  H   UNL     1     159.783 169.981 171.300  1.00  0.00     0.211 HD
ENDBRANCH   9  16
TORSDOF 1
ENDMDL
MODEL 9
REMARK VINA RESULT:    -3.927      1.620      3.609
REMARK INTER + INTRA:          -4.042
REMARK INTER:                  -4.042
REMARK INTRA:                   0.000
REMARK UNBOUND:                 0.000
REMARK SMILES C[C@@H]1CC[C@H]2C(C)(C)[C@H]3C[C@@]12CC[C@@]3(C)O
REMARK SMILES IDX 1 1 2 2 3 3 4 4 5 5 11 6 12 7 13 8 14 9 9 10 10 11 6 12 7 13
REMARK SMILES IDX 8 14 15 15 16 16
REMARK H PARENT 16 17
REMARK Flexibility Score: inf
ROOT
ATOM      1  C   UNL     1     166.287 159.674 171.608  1.00  0.00     0.008 C 
ATOM      2  C   UNL     1     167.809 159.670 171.819  1.00  0.00    -0.008 C 
ATOM      3  C   UNL     1     168.351 161.079 172.052  1.00  0.00     0.004 C 
ATOM      4  C   UNL     1     169.825 160.987 171.702  1.00  0.00     0.005 C 
ATOM      5  C   UNL     1     169.868 160.047 170.488  1.00  0.00     0.001 C 
ATOM      6  C   UNL     1     168.670 159.084 170.658  1.00  0.00    -0.023 C 
ATOM      7  C   UNL     1     167.924 158.885 169.302  1.00  0.00     0.010 C 
ATOM      8  C   UNL     1     168.861 158.417 168.161  1.00  0.00     0.036 C 
ATOM      9  C   UNL     1     169.964 157.392 168.603  1.00  0.00     0.065 C 
ATOM     10  C   UNL     1     170.505 157.712 170.053  1.00  0.00     0.027 C 
ATOM     11  C   UNL     1     169.319 157.750 171.019  1.00  0.00     0.014 C 
ATOM     12  C   UNL     1     171.132 159.141 170.265  1.00  0.00    -0.026 C 
ATOM     13  C   UNL     1     171.986 159.669 169.086  1.00  0.00     0.012 C 
ATOM     14  C   UNL     1     172.096 159.090 171.486  1.00  0.00     0.012 C 
ATOM     15  C   UNL     1     169.384 155.955 168.543  1.00  0.00     0.042 C 
ENDROOT
BRANCH   9  16
ATOM     16  O   UNL     1     171.047 157.429 167.703  1.00  0.00    -0.390 OA
ATOM     17  H   UNL     1     171.378 156.502 167.572  1.00  0.00     0.211 HD
ENDBRANCH   9  16
TORSDOF 1
ENDMDL
