MODEL 1
REMARK VINA RESULT:    -4.051      0.000      0.000
REMARK INTER + INTRA:          -7.321
REMARK INTER:                  -6.183
REMARK INTRA:                  -1.138
REMARK UNBOUND:                -1.138
REMARK SMILES CCCCCCCCCCC(=O)[O-]
REMARK SMILES IDX 7 1 8 2 9 3 10 4 11 5 12 6 13 7 6 8 5 9 4 10 3 11 2 12 1 13
REMARK H PARENT
REMARK Flexibility Score: inf
ROOT
ATOM      1  C   UNL     1      -3.152  13.817  -5.016  1.00  0.00     0.000 C 
ENDROOT
BRANCH   1   2
ATOM      2  C   UNL     1      -2.558  13.368  -6.362  1.00  0.00     0.000 C 
BRANCH   2   3
ATOM      3  C   UNL     1      -3.103  12.005  -6.828  1.00  0.00     0.006 C 
BRANCH   3   4
ATOM      4  C   UNL     1      -2.868  11.701  -8.317  1.00  0.00     0.053 C 
BRANCH   4   5
ATOM      5  C   UNL     1      -1.548  11.035  -8.554  1.00  0.00     0.041 C 
ATOM      6  O   UNL     1      -1.452   9.781  -8.493  1.00  0.00    -0.550 OA
ATOM      7  O   UNL     1      -0.418  11.801  -8.810  1.00  0.00    -0.550 OA
ENDBRANCH   4   5
ENDBRANCH   3   4
ENDBRANCH   2   3
ENDBRANCH   1   2
BRANCH   1   8
ATOM      8  C   UNL     1      -3.646  12.635  -4.166  1.00  0.00     0.000 C 
BRANCH   8   9
ATOM      9  C   UNL     1      -4.809  13.017  -3.237  1.00  0.00    -0.000 C 
BRANCH   9  10
ATOM     10  C   UNL     1      -6.160  12.712  -3.896  1.00  0.00    -0.000 C 
BRANCH  10  11
ATOM     11  C   UNL     1      -6.136  11.342  -4.589  1.00  0.00    -0.000 C 
BRANCH  11  12
ATOM     12  C   UNL     1      -6.661  11.402  -6.033  1.00  0.00    -0.003 C 
ATOM     13  C   UNL     1      -6.702  12.824  -6.588  1.00  0.00     0.004 C 
ENDBRANCH  11  12
ENDBRANCH  10  11
ENDBRANCH   9  10
ENDBRANCH   8   9
ENDBRANCH   1   8
TORSDOF 9
ENDMDL
MODEL 2
REMARK VINA RESULT:    -3.879     13.185     15.416
REMARK INTER + INTRA:          -7.058
REMARK INTER:                  -5.954
REMARK INTRA:                  -1.104
REMARK UNBOUND:                -1.138
REMARK SMILES CCCCCCCCCCC(=O)[O-]
REMARK SMILES IDX 7 1 8 2 9 3 10 4 11 5 12 6 13 7 6 8 5 9 4 10 3 11 2 12 1 13
REMARK H PARENT
REMARK Flexibility Score: inf
ROOT
ATOM      1  C   UNL     1       8.152   3.447  -8.616  1.00  0.00     0.000 C 
ENDROOT
BRANCH   1   2
ATOM      2  C   UNL     1       8.222   2.080  -7.913  1.00  0.00     0.000 C 
BRANCH   2   3
ATOM      3  C   UNL     1       9.330   2.015  -6.846  1.00  0.00     0.006 C 
BRANCH   3   4
ATOM      4  C   UNL     1       9.770   0.590  -6.471  1.00  0.00     0.053 C 
BRANCH   4   5
ATOM      5  C   UNL     1       9.396   0.238  -5.064  1.00  0.00     0.041 C 
ATOM      6  O   UNL     1       9.628  -0.917  -4.619  1.00  0.00    -0.550 OA
ATOM      7  O   UNL     1       8.763   1.174  -4.257  1.00  0.00    -0.550 OA
ENDBRANCH   4   5
ENDBRANCH   3   4
ENDBRANCH   2   3
ENDBRANCH   1   2
BRANCH   1   8
ATOM      8  C   UNL     1       6.717   3.839  -9.003  1.00  0.00     0.000 C 
BRANCH   8   9
ATOM      9  C   UNL     1       6.339   5.250  -8.526  1.00  0.00    -0.000 C 
BRANCH   9  10
ATOM     10  C   UNL     1       7.254   5.706  -7.383  1.00  0.00    -0.000 C 
BRANCH  10  11
ATOM     11  C   UNL     1       6.515   5.666  -6.037  1.00  0.00    -0.000 C 
BRANCH  11  12
ATOM     12  C   UNL     1       6.826   4.394  -5.232  1.00  0.00    -0.003 C 
ATOM     13  C   UNL     1       5.767   3.308  -5.410  1.00  0.00     0.004 C 
ENDBRANCH  11  12
ENDBRANCH  10  11
ENDBRANCH   9  10
ENDBRANCH   8   9
ENDBRANCH   1   8
TORSDOF 9
ENDMDL
MODEL 3
REMARK VINA RESULT:    -3.839      3.729      5.258
REMARK INTER + INTRA:          -6.996
REMARK INTER:                  -5.877
REMARK INTRA:                  -1.119
REMARK UNBOUND:                -1.138
REMARK SMILES CCCCCCCCCCC(=O)[O-]
REMARK SMILES IDX 7 1 8 2 9 3 10 4 11 5 12 6 13 7 6 8 5 9 4 10 3 11 2 12 1 13
REMARK H PARENT
REMARK Flexibility Score: inf
ROOT
ATOM      1  C   UNL     1      -6.164  12.256  -7.341  1.00  0.00     0.000 C 
ENDROOT
BRANCH   1   2
ATOM      2  C   UNL     1      -7.252  12.872  -6.444  1.00  0.00     0.000 C 
BRANCH   2   3
ATOM      3  C   UNL     1      -8.249  11.824  -5.913  1.00  0.00     0.006 C 
BRANCH   3   4
ATOM      4  C   UNL     1      -7.690  10.393  -5.843  1.00  0.00     0.053 C 
BRANCH   4   5
ATOM      5  C   UNL     1      -8.502   9.432  -6.655  1.00  0.00     0.041 C 
ATOM      6  O   UNL     1      -9.181   9.846  -7.633  1.00  0.00    -0.550 OA
ATOM      7  O   UNL     1      -8.536   8.087  -6.314  1.00  0.00    -0.550 OA
ENDBRANCH   4   5
ENDBRANCH   3   4
ENDBRANCH   2   3
ENDBRANCH   1   2
BRANCH   1   8
ATOM      8  C   UNL     1      -4.746  12.666  -6.914  1.00  0.00     0.000 C 
BRANCH   8   9
ATOM      9  C   UNL     1      -4.179  11.772  -5.801  1.00  0.00    -0.000 C 
BRANCH   9  10
ATOM     10  C   UNL     1      -3.688  12.615  -4.617  1.00  0.00    -0.000 C 
BRANCH  10  11
ATOM     11  C   UNL     1      -4.644  12.492  -3.420  1.00  0.00    -0.000 C 
BRANCH  11  12
ATOM     12  C   UNL     1      -5.255  13.842  -3.012  1.00  0.00    -0.003 C 
ATOM     13  C   UNL     1      -6.773  13.779  -2.852  1.00  0.00     0.004 C 
ENDBRANCH  11  12
ENDBRANCH  10  11
ENDBRANCH   9  10
ENDBRANCH   8   9
ENDBRANCH   1   8
TORSDOF 9
ENDMDL
MODEL 4
REMARK VINA RESULT:    -3.772      3.695      5.215
REMARK INTER + INTRA:          -6.894
REMARK INTER:                  -5.938
REMARK INTRA:                  -0.956
REMARK UNBOUND:                -1.138
REMARK SMILES CCCCCCCCCCC(=O)[O-]
REMARK SMILES IDX 7 1 8 2 9 3 10 4 11 5 12 6 13 7 6 8 5 9 4 10 3 11 2 12 1 13
REMARK H PARENT
REMARK Flexibility Score: inf
ROOT
ATOM      1  C   UNL     1      -7.414  12.489  -3.951  1.00  0.00     0.000 C 
ENDROOT
BRANCH   1   2
ATOM      2  C   UNL     1      -7.754  12.866  -5.404  1.00  0.00     0.000 C 
BRANCH   2   3
ATOM      3  C   UNL     1      -7.634  11.674  -6.371  1.00  0.00     0.006 C 
BRANCH   3   4
ATOM      4  C   UNL     1      -7.759  10.296  -5.701  1.00  0.00     0.053 C 
BRANCH   4   5
ATOM      5  C   UNL     1      -8.528   9.327  -6.545  1.00  0.00     0.041 C 
ATOM      6  O   UNL     1      -8.523   8.099  -6.263  1.00  0.00    -0.550 OA
ATOM      7  O   UNL     1      -9.223   9.774  -7.661  1.00  0.00    -0.550 OA
ENDBRANCH   4   5
ENDBRANCH   3   4
ENDBRANCH   2   3
ENDBRANCH   1   2
BRANCH   1   8
ATOM      8  C   UNL     1      -7.160  13.721  -3.066  1.00  0.00     0.000 C 
BRANCH   8   9
ATOM      9  C   UNL     1      -5.741  13.747  -2.478  1.00  0.00    -0.000 C 
BRANCH   9  10
ATOM     10  C   UNL     1      -4.771  12.939  -3.350  1.00  0.00    -0.000 C 
BRANCH  10  11
ATOM     11  C   UNL     1      -3.853  13.869  -4.158  1.00  0.00    -0.000 C 
BRANCH  11  12
ATOM     12  C   UNL     1      -3.377  13.232  -5.472  1.00  0.00    -0.003 C 
ATOM     13  C   UNL     1      -3.991  11.856  -5.719  1.00  0.00     0.004 C 
ENDBRANCH  11  12
ENDBRANCH  10  11
ENDBRANCH   9  10
ENDBRANCH   8   9
ENDBRANCH   1   8
TORSDOF 9
ENDMDL
MODEL 5
REMARK VINA RESULT:    -3.692      3.783      5.106
REMARK INTER + INTRA:          -6.773
REMARK INTER:                  -5.799
REMARK INTRA:                  -0.974
REMARK UNBOUND:                -1.138
REMARK SMILES CCCCCCCCCCC(=O)[O-]
REMARK SMILES IDX 7 1 8 2 9 3 10 4 11 5 12 6 13 7 6 8 5 9 4 10 3 11 2 12 1 13
REMARK H PARENT
REMARK Flexibility Score: inf
ROOT
ATOM      1  C   UNL     1      -5.571  11.614  -5.677  1.00  0.00     0.000 C 
ENDROOT
BRANCH   1   2
ATOM      2  C   UNL     1      -6.537  11.868  -6.848  1.00  0.00     0.000 C 
BRANCH   2   3
ATOM      3  C   UNL     1      -8.014  11.684  -6.451  1.00  0.00     0.006 C 
BRANCH   3   4
ATOM      4  C   UNL     1      -8.656  10.389  -6.977  1.00  0.00     0.053 C 
BRANCH   4   5
ATOM      5  C   UNL     1      -8.479   9.246  -6.025  1.00  0.00     0.041 C 
ATOM      6  O   UNL     1      -8.517   8.060  -6.447  1.00  0.00    -0.550 OA
ATOM      7  O   UNL     1      -8.303   9.490  -4.670  1.00  0.00    -0.550 OA
ENDBRANCH   4   5
ENDBRANCH   3   4
ENDBRANCH   2   3
ENDBRANCH   1   2
BRANCH   1   8
ATOM      8  C   UNL     1      -4.330  12.520  -5.729  1.00  0.00     0.000 C 
BRANCH   8   9
ATOM      9  C   UNL     1      -4.341  13.604  -4.640  1.00  0.00    -0.000 C 
BRANCH   9  10
ATOM     10  C   UNL     1      -4.570  12.987  -3.254  1.00  0.00    -0.000 C 
BRANCH  10  11
ATOM     11  C   UNL     1      -5.591  13.806  -2.450  1.00  0.00    -0.000 C 
BRANCH  11  12
ATOM     12  C   UNL     1      -6.859  14.125  -3.257  1.00  0.00    -0.003 C 
ATOM     13  C   UNL     1      -7.968  13.096  -3.047  1.00  0.00     0.004 C 
ENDBRANCH  11  12
ENDBRANCH  10  11
ENDBRANCH   9  10
ENDBRANCH   8   9
ENDBRANCH   1   8
TORSDOF 9
ENDMDL
MODEL 6
REMARK VINA RESULT:    -3.666      3.879      5.537
REMARK INTER + INTRA:          -6.732
REMARK INTER:                  -5.561
REMARK INTRA:                  -1.171
REMARK UNBOUND:                -1.138
REMARK SMILES CCCCCCCCCCC(=O)[O-]
REMARK SMILES IDX 7 1 8 2 9 3 10 4 11 5 12 6 13 7 6 8 5 9 4 10 3 11 2 12 1 13
REMARK H PARENT
REMARK Flexibility Score: inf
ROOT
ATOM      1  C   UNL     1      -6.454  13.783  -2.761  1.00  0.00     0.000 C 
ENDROOT
BRANCH   1   2
ATOM      2  C   UNL     1      -6.801  14.075  -4.231  1.00  0.00     0.000 C 
BRANCH   2   3
ATOM      3  C   UNL     1      -7.867  13.116  -4.793  1.00  0.00     0.006 C 
BRANCH   3   4
ATOM      4  C   UNL     1      -7.488  11.628  -4.716  1.00  0.00     0.053 C 
BRANCH   4   5
ATOM      5  C   UNL     1      -8.475  10.836  -3.915  1.00  0.00     0.041 C 
ATOM      6  O   UNL     1      -8.437   9.577  -3.929  1.00  0.00    -0.550 OA
ATOM      7  O   UNL     1      -9.457  11.487  -3.179  1.00  0.00    -0.550 OA
ENDBRANCH   4   5
ENDBRANCH   3   4
ENDBRANCH   2   3
ENDBRANCH   1   2
BRANCH   1   8
ATOM      8  C   UNL     1      -4.939  13.780  -2.501  1.00  0.00     0.000 C 
BRANCH   8   9
ATOM      9  C   UNL     1      -4.162  12.951  -3.535  1.00  0.00    -0.000 C 
BRANCH   9  10
ATOM     10  C   UNL     1      -3.117  13.813  -4.256  1.00  0.00    -0.000 C 
BRANCH  10  11
ATOM     11  C   UNL     1      -3.029  13.441  -5.744  1.00  0.00    -0.000 C 
BRANCH  11  12
ATOM     12  C   UNL     1      -3.858  12.194  -6.090  1.00  0.00    -0.003 C 
ATOM     13  C   UNL     1      -4.909  12.463  -7.165  1.00  0.00     0.004 C 
ENDBRANCH  11  12
ENDBRANCH  10  11
ENDBRANCH   9  10
ENDBRANCH   8   9
ENDBRANCH   1   8
TORSDOF 9
ENDMDL
MODEL 7
REMARK VINA RESULT:    -3.643     12.559     13.721
REMARK INTER + INTRA:          -6.697
REMARK INTER:                  -5.519
REMARK INTRA:                  -1.178
REMARK UNBOUND:                -1.138
REMARK SMILES CCCCCCCCCCC(=O)[O-]
REMARK SMILES IDX 7 1 8 2 9 3 10 4 11 5 12 6 13 7 6 8 5 9 4 10 3 11 2 12 1 13
REMARK H PARENT
REMARK Flexibility Score: inf
ROOT
ATOM      1  C   UNL     1       6.340   6.096  -6.156  1.00  0.00     0.000 C 
ENDROOT
BRANCH   1   2
ATOM      2  C   UNL     1       6.708   4.772  -5.465  1.00  0.00     0.000 C 
BRANCH   2   3
ATOM      3  C   UNL     1       6.028   3.552  -6.116  1.00  0.00     0.006 C 
BRANCH   3   4
ATOM      4  C   UNL     1       7.004   2.512  -6.690  1.00  0.00     0.053 C 
BRANCH   4   5
ATOM      5  C   UNL     1       7.359   1.460  -5.685  1.00  0.00     0.041 C 
ATOM      6  O   UNL     1       6.709   0.381  -5.641  1.00  0.00    -0.550 OA
ATOM      7  O   UNL     1       8.386   1.682  -4.777  1.00  0.00    -0.550 OA
ENDBRANCH   4   5
ENDBRANCH   3   4
ENDBRANCH   2   3
ENDBRANCH   1   2
BRANCH   1   8
ATOM      8  C   UNL     1       7.190   6.365  -7.408  1.00  0.00     0.000 C 
BRANCH   8   9
ATOM      9  C   UNL     1       6.372   6.963  -8.563  1.00  0.00    -0.000 C 
BRANCH   9  10
ATOM     10  C   UNL     1       5.603   5.868  -9.314  1.00  0.00    -0.000 C 
BRANCH  10  11
ATOM     11  C   UNL     1       6.535   4.713  -9.709  1.00  0.00    -0.000 C 
BRANCH  11  12
ATOM     12  C   UNL     1       5.766   3.440 -10.095  1.00  0.00    -0.003 C 
ATOM     13  C   UNL     1       4.382   3.368  -9.453  1.00  0.00     0.004 C 
ENDBRANCH  11  12
ENDBRANCH  10  11
ENDBRANCH   9  10
ENDBRANCH   8   9
ENDBRANCH   1   8
TORSDOF 9
ENDMDL
MODEL 8
REMARK VINA RESULT:    -3.607      2.292      3.720
REMARK INTER + INTRA:          -6.643
REMARK INTER:                  -5.526
REMARK INTRA:                  -1.117
REMARK UNBOUND:                -1.138
REMARK SMILES CCCCCCCCCCC(=O)[O-]
REMARK SMILES IDX 7 1 8 2 9 3 10 4 11 5 12 6 13 7 6 8 5 9 4 10 3 11 2 12 1 13
REMARK H PARENT
REMARK Flexibility Score: inf
ROOT
ATOM      1  C   UNL     1      -6.857  14.057  -3.394  1.00  0.00     0.000 C 
ENDROOT
BRANCH   1   2
ATOM      2  C   UNL     1      -5.621  13.749  -2.530  1.00  0.00     0.000 C 
BRANCH   2   3
ATOM      3  C   UNL     1      -4.480  13.098  -3.334  1.00  0.00     0.006 C 
BRANCH   3   4
ATOM      4  C   UNL     1      -3.966  13.947  -4.509  1.00  0.00     0.053 C 
BRANCH   4   5
ATOM      5  C   UNL     1      -3.130  13.145  -5.458  1.00  0.00     0.041 C 
ATOM      6  O   UNL     1      -2.147  13.676  -6.039  1.00  0.00    -0.550 OA
ATOM      7  O   UNL     1      -3.456  11.822  -5.727  1.00  0.00    -0.550 OA
ENDBRANCH   4   5
ENDBRANCH   3   4
ENDBRANCH   2   3
ENDBRANCH   1   2
BRANCH   1   8
ATOM      8  C   UNL     1      -8.095  13.256  -2.958  1.00  0.00     0.000 C 
BRANCH   8   9
ATOM      9  C   UNL     1      -8.681  12.405  -4.095  1.00  0.00    -0.000 C 
BRANCH   9  10
ATOM     10  C   UNL     1      -8.037  11.013  -4.127  1.00  0.00    -0.000 C 
BRANCH  10  11
ATOM     11  C   UNL     1      -6.911  10.952  -5.170  1.00  0.00    -0.000 C 
BRANCH  11  12
ATOM     12  C   UNL     1      -7.354  11.472  -6.547  1.00  0.00    -0.003 C 
ATOM     13  C   UNL     1      -6.504  12.643  -7.037  1.00  0.00     0.004 C 
ENDBRANCH  11  12
ENDBRANCH  10  11
ENDBRANCH   9  10
ENDBRANCH   8   9
ENDBRANCH   1   8
TORSDOF 9
ENDMDL
MODEL 9
REMARK VINA RESULT:    -3.601     13.783     15.605
REMARK INTER + INTRA:          -6.634
REMARK INTER:                  -5.708
REMARK INTRA:                  -0.926
REMARK UNBOUND:                -1.138
REMARK SMILES CCCCCCCCCCC(=O)[O-]
REMARK SMILES IDX 7 1 8 2 9 3 10 4 11 5 12 6 13 7 6 8 5 9 4 10 3 11 2 12 1 13
REMARK H PARENT
REMARK Flexibility Score: inf
ROOT
ATOM      1  C   UNL     1       6.944   2.435  -5.392  1.00  0.00     0.000 C 
ENDROOT
BRANCH   1   2
ATOM      2  C   UNL     1       8.069   2.937  -4.470  1.00  0.00     0.000 C 
BRANCH   2   3
ATOM      3  C   UNL     1       9.243   1.946  -4.371  1.00  0.00     0.006 C 
BRANCH   3   4
ATOM      4  C   UNL     1       9.765   1.441  -5.727  1.00  0.00     0.053 C 
BRANCH   4   5
ATOM      5  C   UNL     1       9.762  -0.054  -5.810  1.00  0.00     0.041 C 
ATOM      6  O   UNL     1      10.125  -0.629  -6.870  1.00  0.00    -0.550 OA
ATOM      7  O   UNL     1       9.327  -0.811  -4.730  1.00  0.00    -0.550 OA
ENDBRANCH   4   5
ENDBRANCH   3   4
ENDBRANCH   2   3
ENDBRANCH   1   2
BRANCH   1   8
ATOM      8  C   UNL     1       5.965   3.552  -5.790  1.00  0.00     0.000 C 
BRANCH   8   9
ATOM      9  C   UNL     1       6.616   4.944  -5.776  1.00  0.00    -0.000 C 
BRANCH   9  10
ATOM     10  C   UNL     1       7.043   5.364  -7.188  1.00  0.00    -0.000 C 
BRANCH  10  11
ATOM     11  C   UNL     1       6.191   4.657  -8.253  1.00  0.00    -0.000 C 
BRANCH  11  12
ATOM     12  C   UNL     1       7.030   3.768  -9.185  1.00  0.00    -0.003 C 
ATOM     13  C   UNL     1       8.503   3.714  -8.782  1.00  0.00     0.004 C 
ENDBRANCH  11  12
ENDBRANCH  10  11
ENDBRANCH   9  10
ENDBRANCH   8   9
ENDBRANCH   1   8
TORSDOF 9
ENDMDL
