MODEL 1
REMARK VINA RESULT:    -4.232      0.000      0.000
REMARK INTER + INTRA:          -5.675
REMARK INTER:                  -5.469
REMARK INTRA:                  -0.206
REMARK UNBOUND:                -0.206
REMARK SMILES CCCCCCC(=O)[O-]
REMARK SMILES IDX 5 1 6 2 7 3 8 4 9 5 4 6 3 7 2 8 1 9
REMARK H PARENT
REMARK Flexibility Score: inf
ROOT
ATOM      1  C   UNL     1      79.712  57.059  10.551  1.00  0.00     0.006 C 
ENDROOT
BRANCH   1   2
ATOM      2  C   UNL     1      79.657  58.578  10.341  1.00  0.00     0.053 C 
BRANCH   2   3
ATOM      3  C   UNL     1      81.010  59.206  10.483  1.00  0.00     0.041 C 
ATOM      4  O   UNL     1      82.006  58.503  10.798  1.00  0.00    -0.550 OA
ATOM      5  O   UNL     1      81.164  60.574  10.301  1.00  0.00    -0.550 OA
ENDBRANCH   2   3
ENDBRANCH   1   2
BRANCH   1   6
ATOM      6  C   UNL     1      78.330  56.400  10.394  1.00  0.00     0.000 C 
BRANCH   6   7
ATOM      7  C   UNL     1      77.586  56.880   9.138  1.00  0.00    -0.000 C 
BRANCH   7   8
ATOM      8  C   UNL     1      78.045  56.152   7.866  1.00  0.00    -0.003 C 
ATOM      9  C   UNL     1      77.817  57.014   6.628  1.00  0.00     0.004 C 
ENDBRANCH   7   8
ENDBRANCH   6   7
ENDBRANCH   1   6
TORSDOF 5
ENDMDL
MODEL 2
REMARK VINA RESULT:    -4.176     11.350     11.915
REMARK INTER + INTRA:          -5.604
REMARK INTER:                  -5.426
REMARK INTRA:                  -0.178
REMARK UNBOUND:                -0.206
REMARK SMILES CCCCCCC(=O)[O-]
REMARK SMILES IDX 5 1 6 2 7 3 8 4 9 5 4 6 3 7 2 8 1 9
REMARK H PARENT
REMARK Flexibility Score: inf
ROOT
ATOM      1  C   UNL     1      84.696  64.327  17.188  1.00  0.00     0.006 C 
ENDROOT
BRANCH   1   2
ATOM      2  C   UNL     1      84.475  65.357  18.302  1.00  0.00     0.053 C 
BRANCH   2   3
ATOM      3  C   UNL     1      83.496  64.867  19.324  1.00  0.00     0.041 C 
ATOM      4  O   UNL     1      82.532  65.594  19.680  1.00  0.00    -0.550 OA
ATOM      5  O   UNL     1      83.669  63.619  19.910  1.00  0.00    -0.550 OA
ENDBRANCH   2   3
ENDBRANCH   1   2
BRANCH   1   6
ATOM      6  C   UNL     1      84.856  64.988  15.808  1.00  0.00     0.000 C 
BRANCH   6   7
ATOM      7  C   UNL     1      83.706  65.953  15.477  1.00  0.00    -0.000 C 
BRANCH   7   8
ATOM      8  C   UNL     1      83.927  66.702  14.155  1.00  0.00    -0.003 C 
ATOM      9  C   UNL     1      85.033  66.048  13.331  1.00  0.00     0.004 C 
ENDBRANCH   7   8
ENDBRANCH   6   7
ENDBRANCH   1   6
TORSDOF 5
ENDMDL
MODEL 3
REMARK VINA RESULT:    -4.147      3.005      4.703
REMARK INTER + INTRA:          -5.565
REMARK INTER:                  -5.356
REMARK INTRA:                  -0.209
REMARK UNBOUND:                -0.206
REMARK SMILES CCCCCCC(=O)[O-]
REMARK SMILES IDX 5 1 6 2 7 3 8 4 9 5 4 6 3 7 2 8 1 9
REMARK H PARENT
REMARK Flexibility Score: inf
ROOT
ATOM      1  C   UNL     1      78.920  56.139   9.935  1.00  0.00     0.006 C 
ENDROOT
BRANCH   1   2
ATOM      2  C   UNL     1      77.797  56.753   9.090  1.00  0.00     0.053 C 
BRANCH   2   3
ATOM      3  C   UNL     1      77.800  56.218   7.691  1.00  0.00     0.041 C 
ATOM      4  O   UNL     1      77.802  57.008   6.710  1.00  0.00    -0.550 OA
ATOM      5  O   UNL     1      77.766  54.848   7.470  1.00  0.00    -0.550 OA
ENDBRANCH   2   3
ENDBRANCH   1   2
BRANCH   1   6
ATOM      6  C   UNL     1      79.905  57.202  10.453  1.00  0.00     0.000 C 
BRANCH   6   7
ATOM      7  C   UNL     1      79.386  58.635  10.257  1.00  0.00    -0.000 C 
BRANCH   7   8
ATOM      8  C   UNL     1      80.508  59.681  10.314  1.00  0.00    -0.003 C 
ATOM      9  C   UNL     1      81.812  59.062  10.809  1.00  0.00     0.004 C 
ENDBRANCH   7   8
ENDBRANCH   6   7
ENDBRANCH   1   6
TORSDOF 5
ENDMDL
MODEL 4
REMARK VINA RESULT:    -4.123      9.416     10.582
REMARK INTER + INTRA:          -5.535
REMARK INTER:                  -5.338
REMARK INTRA:                  -0.197
REMARK UNBOUND:                -0.206
REMARK SMILES CCCCCCC(=O)[O-]
REMARK SMILES IDX 5 1 6 2 7 3 8 4 9 5 4 6 3 7 2 8 1 9
REMARK H PARENT
REMARK Flexibility Score: inf
ROOT
ATOM      1  C   UNL     1      84.872  63.638  16.565  1.00  0.00     0.006 C 
ENDROOT
BRANCH   1   2
ATOM      2  C   UNL     1      85.321  62.549  15.583  1.00  0.00     0.053 C 
BRANCH   2   3
ATOM      3  C   UNL     1      85.109  61.176  16.144  1.00  0.00     0.041 C 
ATOM      4  O   UNL     1      85.471  60.908  17.320  1.00  0.00    -0.550 OA
ATOM      5  O   UNL     1      84.542  60.182  15.356  1.00  0.00    -0.550 OA
ENDBRANCH   2   3
ENDBRANCH   1   2
BRANCH   1   6
ATOM      6  C   UNL     1      84.728  65.011  15.884  1.00  0.00     0.000 C 
BRANCH   6   7
ATOM      7  C   UNL     1      85.731  65.210  14.737  1.00  0.00    -0.000 C 
BRANCH   7   8
ATOM      8  C   UNL     1      85.108  65.917  13.525  1.00  0.00    -0.003 C 
ATOM      9  C   UNL     1      83.936  66.799  13.946  1.00  0.00     0.004 C 
ENDBRANCH   7   8
ENDBRANCH   6   7
ENDBRANCH   1   6
TORSDOF 5
ENDMDL
MODEL 5
REMARK VINA RESULT:    -4.107      1.968      3.001
REMARK INTER + INTRA:          -5.514
REMARK INTER:                  -5.116
REMARK INTRA:                  -0.398
REMARK UNBOUND:                -0.206
REMARK SMILES CCCCCCC(=O)[O-]
REMARK SMILES IDX 5 1 6 2 7 3 8 4 9 5 4 6 3 7 2 8 1 9
REMARK H PARENT
REMARK Flexibility Score: inf
ROOT
ATOM      1  C   UNL     1      77.762  56.704   9.617  1.00  0.00     0.006 C 
ENDROOT
BRANCH   1   2
ATOM      2  C   UNL     1      78.922  57.431  10.309  1.00  0.00     0.053 C 
BRANCH   2   3
ATOM      3  C   UNL     1      79.954  56.470  10.815  1.00  0.00     0.041 C 
ATOM      4  O   UNL     1      81.153  56.574  10.445  1.00  0.00    -0.550 OA
ATOM      5  O   UNL     1      79.585  55.439  11.669  1.00  0.00    -0.550 OA
ENDBRANCH   2   3
ENDBRANCH   1   2
BRANCH   1   6
ATOM      6  C   UNL     1      77.776  56.905   8.092  1.00  0.00     0.000 C 
BRANCH   6   7
ATOM      7  C   UNL     1      78.101  55.613   7.327  1.00  0.00    -0.000 C 
BRANCH   7   8
ATOM      8  C   UNL     1      78.217  54.393   8.253  1.00  0.00    -0.003 C 
ATOM      9  C   UNL     1      79.620  53.795   8.200  1.00  0.00     0.004 C 
ENDBRANCH   7   8
ENDBRANCH   6   7
ENDBRANCH   1   6
TORSDOF 5
ENDMDL
MODEL 6
REMARK VINA RESULT:    -4.076      3.382      3.986
REMARK INTER + INTRA:          -5.474
REMARK INTER:                  -5.399
REMARK INTRA:                  -0.075
REMARK UNBOUND:                -0.206
REMARK SMILES CCCCCCC(=O)[O-]
REMARK SMILES IDX 5 1 6 2 7 3 8 4 9 5 4 6 3 7 2 8 1 9
REMARK H PARENT
REMARK Flexibility Score: inf
ROOT
ATOM      1  C   UNL     1      78.531  56.327  11.553  1.00  0.00     0.006 C 
ENDROOT
BRANCH   1   2
ATOM      2  C   UNL     1      79.233  55.286  12.433  1.00  0.00     0.053 C 
BRANCH   2   3
ATOM      3  C   UNL     1      78.557  55.137  13.762  1.00  0.00     0.041 C 
ATOM      4  O   UNL     1      78.695  54.079  14.430  1.00  0.00    -0.550 OA
ATOM      5  O   UNL     1      77.746  56.155  14.247  1.00  0.00    -0.550 OA
ENDBRANCH   2   3
ENDBRANCH   1   2
BRANCH   1   6
ATOM      6  C   UNL     1      79.018  56.279  10.094  1.00  0.00     0.000 C 
BRANCH   6   7
ATOM      7  C   UNL     1      78.035  56.945   9.120  1.00  0.00    -0.000 C 
BRANCH   7   8
ATOM      8  C   UNL     1      77.782  56.097   7.865  1.00  0.00    -0.003 C 
ATOM      9  C   UNL     1      77.751  56.966   6.611  1.00  0.00     0.004 C 
ENDBRANCH   7   8
ENDBRANCH   6   7
ENDBRANCH   1   6
TORSDOF 5
ENDMDL
MODEL 7
REMARK VINA RESULT:    -3.996      3.159      4.773
REMARK INTER + INTRA:          -5.370
REMARK INTER:                  -4.989
REMARK INTRA:                  -0.381
REMARK UNBOUND:                -0.206
REMARK SMILES CCCCCCC(=O)[O-]
REMARK SMILES IDX 5 1 6 2 7 3 8 4 9 5 4 6 3 7 2 8 1 9
REMARK H PARENT
REMARK Flexibility Score: inf
ROOT
ATOM      1  C   UNL     1      77.899  55.539   7.337  1.00  0.00     0.006 C 
ENDROOT
BRANCH   1   2
ATOM      2  C   UNL     1      78.136  54.435   8.375  1.00  0.00     0.053 C 
BRANCH   2   3
ATOM      3  C   UNL     1      79.443  53.737   8.152  1.00  0.00     0.041 C 
ATOM      4  O   UNL     1      79.533  52.491   8.313  1.00  0.00    -0.550 OA
ATOM      5  O   UNL     1      80.570  54.468   7.800  1.00  0.00    -0.550 OA
ENDBRANCH   2   3
ENDBRANCH   1   2
BRANCH   1   6
ATOM      6  C   UNL     1      77.734  56.923   7.988  1.00  0.00     0.000 C 
BRANCH   6   7
ATOM      7  C   UNL     1      77.779  56.864   9.523  1.00  0.00    -0.000 C 
BRANCH   7   8
ATOM      8  C   UNL     1      78.937  57.682  10.111  1.00  0.00    -0.003 C 
ATOM      9  C   UNL     1      80.062  56.772  10.596  1.00  0.00     0.004 C 
ENDBRANCH   7   8
ENDBRANCH   6   7
ENDBRANCH   1   6
TORSDOF 5
ENDMDL
MODEL 8
REMARK VINA RESULT:    -3.886      3.399      4.353
REMARK INTER + INTRA:          -5.229
REMARK INTER:                  -4.876
REMARK INTRA:                  -0.353
REMARK UNBOUND:                -0.206
REMARK SMILES CCCCCCC(=O)[O-]
REMARK SMILES IDX 5 1 6 2 7 3 8 4 9 5 4 6 3 7 2 8 1 9
REMARK H PARENT
REMARK Flexibility Score: inf
ROOT
ATOM      1  C   UNL     1      78.964  56.919   9.912  1.00  0.00     0.006 C 
ENDROOT
BRANCH   1   2
ATOM      2  C   UNL     1      77.617  56.844   9.181  1.00  0.00     0.053 C 
BRANCH   2   3
ATOM      3  C   UNL     1      77.751  56.197   7.837  1.00  0.00     0.041 C 
ATOM      4  O   UNL     1      77.805  54.942   7.740  1.00  0.00    -0.550 OA
ATOM      5  O   UNL     1      77.852  56.980   6.695  1.00  0.00    -0.550 OA
ENDBRANCH   2   3
ENDBRANCH   1   2
BRANCH   1   6
ATOM      6  C   UNL     1      78.998  56.021  11.161  1.00  0.00     0.000 C 
BRANCH   6   7
ATOM      7  C   UNL     1      80.278  55.176  11.248  1.00  0.00    -0.000 C 
BRANCH   7   8
ATOM      8  C   UNL     1      80.891  54.890   9.869  1.00  0.00    -0.003 C 
ATOM      9  C   UNL     1      80.611  53.456   9.431  1.00  0.00     0.004 C 
ENDBRANCH   7   8
ENDBRANCH   6   7
ENDBRANCH   1   6
TORSDOF 5
ENDMDL
MODEL 9
REMARK VINA RESULT:    -3.877      2.474      3.696
REMARK INTER + INTRA:          -5.217
REMARK INTER:                  -4.778
REMARK INTRA:                  -0.438
REMARK UNBOUND:                -0.206
REMARK SMILES CCCCCCC(=O)[O-]
REMARK SMILES IDX 5 1 6 2 7 3 8 4 9 5 4 6 3 7 2 8 1 9
REMARK H PARENT
REMARK Flexibility Score: inf
ROOT
ATOM      1  C   UNL     1      78.111  56.180   8.016  1.00  0.00     0.006 C 
ENDROOT
BRANCH   1   2
ATOM      2  C   UNL     1      77.518  56.823   9.277  1.00  0.00     0.053 C 
BRANCH   2   3
ATOM      3  C   UNL     1      78.558  57.023  10.337  1.00  0.00     0.041 C 
ATOM      4  O   UNL     1      79.374  57.978  10.253  1.00  0.00    -0.550 OA
ATOM      5  O   UNL     1      78.647  56.134  11.400  1.00  0.00    -0.550 OA
ENDBRANCH   2   3
ENDBRANCH   1   2
BRANCH   1   6
ATOM      6  C   UNL     1      78.094  54.643   8.084  1.00  0.00     0.000 C 
BRANCH   6   7
ATOM      7  C   UNL     1      79.488  54.027   7.893  1.00  0.00    -0.000 C 
BRANCH   7   8
ATOM      8  C   UNL     1      80.234  53.830   9.221  1.00  0.00    -0.003 C 
ATOM      9  C   UNL     1      81.392  54.815   9.352  1.00  0.00     0.004 C 
ENDBRANCH   7   8
ENDBRANCH   6   7
ENDBRANCH   1   6
TORSDOF 5
ENDMDL
