MODEL 1
REMARK VINA RESULT:    -3.564      0.000      0.000
REMARK INTER + INTRA:          -4.964
REMARK INTER:                  -4.606
REMARK INTRA:                  -0.358
REMARK UNBOUND:                -0.358
REMARK SMILES CCO[C@@H]1O[C@H](CO)[C@H](O)[C@@H](O)[C@@H]1O
REMARK SMILES IDX 4 1 13 2 11 3 9 4 6 5 5 6 3 7 2 8 1 9 14 10 12 12 7 14 8 15
REMARK SMILES IDX 10 17
REMARK H PARENT 14 11 12 13 8 16 10 18
REMARK Flexibility Score: inf
ROOT
ATOM      1  C   UNL     1       7.331   3.303   2.194  1.00  0.00     0.281 C 
ATOM      2  C   UNL     1       8.571   3.832   1.445  1.00  0.00     0.202 C 
ATOM      3  C   UNL     1       8.886   5.276   1.857  1.00  0.00     0.179 C 
ATOM      4  C   UNL     1       9.011   5.330   3.391  1.00  0.00     0.177 C 
ATOM      5  C   UNL     1       7.776   4.700   4.089  1.00  0.00     0.178 C 
ATOM      6  O   UNL     1       7.485   3.389   3.606  1.00  0.00    -0.341 OA
ENDROOT
BRANCH   1   7
ATOM      7  O   UNL     1       6.161   3.995   1.773  1.00  0.00    -0.350 OA
BRANCH   7   8
ATOM      8  C   UNL     1       5.079   3.116   1.523  1.00  0.00     0.160 C 
ATOM      9  C   UNL     1       4.029   3.198   2.629  1.00  0.00     0.035 C 
ENDBRANCH   7   8
ENDBRANCH   1   7
BRANCH   2  10
ATOM     10  O   UNL     1       8.408   3.720   0.052  1.00  0.00    -0.385 OA
ATOM     11  H   UNL     1       9.311   3.651  -0.357  1.00  0.00     0.211 HD
ENDBRANCH   2  10
BRANCH   3  12
ATOM     12  O   UNL     1      10.095   5.672   1.260  1.00  0.00    -0.387 OA
ATOM     13  H   UNL     1      10.697   5.961   1.995  1.00  0.00     0.211 HD
ENDBRANCH   3  12
BRANCH   5  14
ATOM     14  C   UNL     1       6.520   5.596   4.122  1.00  0.00     0.191 C 
BRANCH  14  15
ATOM     15  O   UNL     1       6.616   6.598   3.147  1.00  0.00    -0.394 OA
ATOM     16  H   UNL     1       5.982   6.344   2.425  1.00  0.00     0.210 HD
ENDBRANCH  14  15
ENDBRANCH   5  14
BRANCH   4  17
ATOM     17  O   UNL     1       9.258   6.636   3.852  1.00  0.00    -0.387 OA
ATOM     18  H   UNL     1       9.693   6.572   4.741  1.00  0.00     0.211 HD
ENDBRANCH   4  17
TORSDOF 7
ENDMDL
MODEL 2
REMARK VINA RESULT:    -3.229      2.912      4.429
REMARK INTER + INTRA:          -4.531
REMARK INTER:                  -4.244
REMARK INTRA:                  -0.287
REMARK UNBOUND:                -0.358
REMARK SMILES CCO[C@@H]1O[C@H](CO)[C@H](O)[C@@H](O)[C@@H]1O
REMARK SMILES IDX 4 1 13 2 11 3 9 4 6 5 5 6 3 7 2 8 1 9 14 10 12 12 7 14 8 15
REMARK SMILES IDX 10 17
REMARK H PARENT 14 11 12 13 8 16 10 18
REMARK Flexibility Score: inf
ROOT
ATOM      1  C   UNL     1      10.545   5.052   3.787  1.00  0.00     0.281 C 
ATOM      2  C   UNL     1      11.952   4.421   3.761  1.00  0.00     0.202 C 
ATOM      3  C   UNL     1      12.789   4.991   2.608  1.00  0.00     0.179 C 
ATOM      4  C   UNL     1      12.793   6.527   2.721  1.00  0.00     0.177 C 
ATOM      5  C   UNL     1      11.354   7.098   2.837  1.00  0.00     0.178 C 
ATOM      6  O   UNL     1      10.600   6.472   3.874  1.00  0.00    -0.341 OA
ENDROOT
BRANCH   1   7
ATOM      7  O   UNL     1       9.796   4.647   2.646  1.00  0.00    -0.350 OA
BRANCH   7   8
ATOM      8  C   UNL     1       8.582   4.010   3.001  1.00  0.00     0.160 C 
ATOM      9  C   UNL     1       8.439   2.656   2.307  1.00  0.00     0.035 C 
ENDBRANCH   7   8
ENDBRANCH   1   7
BRANCH   2  10
ATOM     10  O   UNL     1      11.878   3.018   3.695  1.00  0.00    -0.385 OA
ATOM     11  H   UNL     1      12.781   2.654   3.889  1.00  0.00     0.211 HD
ENDBRANCH   2  10
BRANCH   3  12
ATOM     12  O   UNL     1      14.100   4.497   2.702  1.00  0.00    -0.387 OA
ATOM     13  H   UNL     1      14.166   3.734   2.070  1.00  0.00     0.211 HD
ENDBRANCH   3  12
BRANCH   5  14
ATOM     14  C   UNL     1      10.570   7.160   1.509  1.00  0.00     0.191 C 
BRANCH  14  15
ATOM     15  O   UNL     1      11.085   6.226   0.600  1.00  0.00    -0.394 OA
ATOM     16  H   UNL     1      10.840   6.555  -0.305  1.00  0.00     0.210 HD
ENDBRANCH  14  15
ENDBRANCH   5  14
BRANCH   4  17
ATOM     17  O   UNL     1      13.507   7.129   1.669  1.00  0.00    -0.387 OA
ATOM     18  H   UNL     1      14.467   7.151   1.921  1.00  0.00     0.211 HD
ENDBRANCH   4  17
TORSDOF 7
ENDMDL
MODEL 3
REMARK VINA RESULT:    -3.221     11.316     13.173
REMARK INTER + INTRA:          -4.520
REMARK INTER:                  -4.194
REMARK INTRA:                  -0.326
REMARK UNBOUND:                -0.358
REMARK SMILES CCO[C@@H]1O[C@H](CO)[C@H](O)[C@@H](O)[C@@H]1O
REMARK SMILES IDX 4 1 13 2 11 3 9 4 6 5 5 6 3 7 2 8 1 9 14 10 12 12 7 14 8 15
REMARK SMILES IDX 10 17
REMARK H PARENT 14 11 12 13 8 16 10 18
REMARK Flexibility Score: inf
ROOT
ATOM      1  C   UNL     1      18.644   8.400   2.123  1.00  0.00     0.281 C 
ATOM      2  C   UNL     1      19.076   7.050   1.514  1.00  0.00     0.202 C 
ATOM      3  C   UNL     1      20.556   7.078   1.112  1.00  0.00     0.179 C 
ATOM      4  C   UNL     1      21.387   7.509   2.335  1.00  0.00     0.177 C 
ATOM      5  C   UNL     1      20.848   8.823   2.961  1.00  0.00     0.178 C 
ATOM      6  O   UNL     1      19.450   8.764   3.238  1.00  0.00    -0.341 OA
ENDROOT
BRANCH   1   7
ATOM      7  O   UNL     1      18.664   9.422   1.133  1.00  0.00    -0.350 OA
BRANCH   7   8
ATOM      8  C   UNL     1      17.437  10.125   1.063  1.00  0.00     0.160 C 
ATOM      9  C   UNL     1      16.726   9.874  -0.267  1.00  0.00     0.035 C 
ENDBRANCH   7   8
ENDBRANCH   1   7
BRANCH   2  10
ATOM     10  O   UNL     1      18.256   6.698   0.428  1.00  0.00    -0.385 OA
ATOM     11  H   UNL     1      18.573   5.826   0.074  1.00  0.00     0.211 HD
ENDBRANCH   2  10
BRANCH   3  12
ATOM     12  O   UNL     1      20.945   5.795   0.693  1.00  0.00    -0.387 OA
ATOM     13  H   UNL     1      21.467   5.395   1.437  1.00  0.00     0.211 HD
ENDBRANCH   3  12
BRANCH   5  14
ATOM     14  C   UNL     1      21.233  10.110   2.200  1.00  0.00     0.191 C 
BRANCH  14  15
ATOM     15  O   UNL     1      21.633   9.798   0.894  1.00  0.00    -0.394 OA
ATOM     16  H   UNL     1      21.296  10.533   0.317  1.00  0.00     0.210 HD
ENDBRANCH  14  15
ENDBRANCH   5  14
BRANCH   4  17
ATOM     17  O   UNL     1      22.758   7.601   2.033  1.00  0.00    -0.387 OA
ATOM     18  H   UNL     1      23.065   8.513   2.271  1.00  0.00     0.211 HD
ENDBRANCH   4  17
TORSDOF 7
ENDMDL
MODEL 4
REMARK VINA RESULT:    -3.163      1.808      4.460
REMARK INTER + INTRA:          -4.445
REMARK INTER:                  -4.005
REMARK INTRA:                  -0.440
REMARK UNBOUND:                -0.358
REMARK SMILES CCO[C@@H]1O[C@H](CO)[C@H](O)[C@@H](O)[C@@H]1O
REMARK SMILES IDX 4 1 13 2 11 3 9 4 6 5 5 6 3 7 2 8 1 9 14 10 12 12 7 14 8 15
REMARK SMILES IDX 10 17
REMARK H PARENT 14 11 12 13 8 16 10 18
REMARK Flexibility Score: inf
ROOT
ATOM      1  C   UNL     1       8.054   6.151   3.906  1.00  0.00     0.281 C 
ATOM      2  C   UNL     1       6.947   5.202   3.404  1.00  0.00     0.202 C 
ATOM      3  C   UNL     1       7.156   4.848   1.926  1.00  0.00     0.179 C 
ATOM      4  C   UNL     1       8.582   4.292   1.754  1.00  0.00     0.177 C 
ATOM      5  C   UNL     1       9.646   5.245   2.360  1.00  0.00     0.178 C 
ATOM      6  O   UNL     1       9.354   5.603   3.710  1.00  0.00    -0.341 OA
ENDROOT
BRANCH   1   7
ATOM      7  O   UNL     1       7.945   7.423   3.276  1.00  0.00    -0.350 OA
BRANCH   7   8
ATOM      8  C   UNL     1       8.362   8.478   4.122  1.00  0.00     0.160 C 
ATOM      9  C   UNL     1       8.953   9.636   3.319  1.00  0.00     0.035 C 
ENDBRANCH   7   8
ENDBRANCH   1   7
BRANCH   2  10
ATOM     10  O   UNL     1       5.671   5.752   3.624  1.00  0.00    -0.385 OA
ATOM     11  H   UNL     1       5.450   5.636   4.585  1.00  0.00     0.211 HD
ENDBRANCH   2  10
BRANCH   3  12
ATOM     12  O   UNL     1       6.212   3.879   1.546  1.00  0.00    -0.387 OA
ATOM     13  H   UNL     1       6.405   3.644   0.601  1.00  0.00     0.211 HD
ENDBRANCH   3  12
BRANCH   5  14
ATOM     14  C   UNL     1       9.982   6.479   1.495  1.00  0.00     0.191 C 
BRANCH  14  15
ATOM     15  O   UNL     1      10.806   6.108   0.424  1.00  0.00    -0.394 OA
ATOM     16  H   UNL     1      11.701   6.490   0.618  1.00  0.00     0.210 HD
ENDBRANCH  14  15
ENDBRANCH   5  14
BRANCH   4  17
ATOM     17  O   UNL     1       8.867   3.982   0.412  1.00  0.00    -0.387 OA
ATOM     18  H   UNL     1       9.801   3.654   0.363  1.00  0.00     0.211 HD
ENDBRANCH   4  17
TORSDOF 7
ENDMDL
MODEL 5
REMARK VINA RESULT:    -3.128      3.319      5.954
REMARK INTER + INTRA:          -4.400
REMARK INTER:                  -3.970
REMARK INTRA:                  -0.430
REMARK UNBOUND:                -0.358
REMARK SMILES CCO[C@@H]1O[C@H](CO)[C@H](O)[C@@H](O)[C@@H]1O
REMARK SMILES IDX 4 1 13 2 11 3 9 4 6 5 5 6 3 7 2 8 1 9 14 10 12 12 7 14 8 15
REMARK SMILES IDX 10 17
REMARK H PARENT 14 11 12 13 8 16 10 18
REMARK Flexibility Score: inf
ROOT
ATOM      1  C   UNL     1      11.312   7.437   2.940  1.00  0.00     0.281 C 
ATOM      2  C   UNL     1       9.963   7.093   2.277  1.00  0.00     0.202 C 
ATOM      3  C   UNL     1       9.868   5.592   1.971  1.00  0.00     0.179 C 
ATOM      4  C   UNL     1      10.145   4.811   3.269  1.00  0.00     0.177 C 
ATOM      5  C   UNL     1      11.468   5.265   3.941  1.00  0.00     0.178 C 
ATOM      6  O   UNL     1      11.531   6.678   4.125  1.00  0.00    -0.341 OA
ENDROOT
BRANCH   1   7
ATOM      7  O   UNL     1      12.382   7.252   2.020  1.00  0.00    -0.350 OA
BRANCH   7   8
ATOM      8  C   UNL     1      13.450   8.153   2.251  1.00  0.00     0.160 C 
ATOM      9  C   UNL     1      14.804   7.483   2.023  1.00  0.00     0.035 C 
ENDBRANCH   7   8
ENDBRANCH   1   7
BRANCH   2  10
ATOM     10  O   UNL     1       9.756   7.866   1.120  1.00  0.00    -0.385 OA
ATOM     11  H   UNL     1       8.785   7.847   0.910  1.00  0.00     0.211 HD
ENDBRANCH   2  10
BRANCH   3  12
ATOM     12  O   UNL     1       8.579   5.299   1.497  1.00  0.00    -0.387 OA
ATOM     13  H   UNL     1       8.572   4.335   1.260  1.00  0.00     0.211 HD
ENDBRANCH   3  12
BRANCH   5  14
ATOM     14  C   UNL     1      12.752   4.709   3.288  1.00  0.00     0.191 C 
BRANCH  14  15
ATOM     15  O   UNL     1      12.943   3.371   3.659  1.00  0.00    -0.394 OA
ATOM     16  H   UNL     1      13.907   3.179   3.517  1.00  0.00     0.210 HD
ENDBRANCH  14  15
ENDBRANCH   5  14
BRANCH   4  17
ATOM     17  O   UNL     1      10.118   3.420   3.061  1.00  0.00    -0.387 OA
ATOM     18  H   UNL     1       9.300   3.202   2.544  1.00  0.00     0.211 HD
ENDBRANCH   4  17
TORSDOF 7
ENDMDL
MODEL 6
REMARK VINA RESULT:    -3.032      1.707      3.601
REMARK INTER + INTRA:          -4.276
REMARK INTER:                  -3.792
REMARK INTRA:                  -0.484
REMARK UNBOUND:                -0.358
REMARK SMILES CCO[C@@H]1O[C@H](CO)[C@H](O)[C@@H](O)[C@@H]1O
REMARK SMILES IDX 4 1 13 2 11 3 9 4 6 5 5 6 3 7 2 8 1 9 14 10 12 12 7 14 8 15
REMARK SMILES IDX 10 17
REMARK H PARENT 14 11 12 13 8 16 10 18
REMARK Flexibility Score: inf
ROOT
ATOM      1  C   UNL     1       7.655   5.978   2.365  1.00  0.00     0.281 C 
ATOM      2  C   UNL     1       9.118   5.531   2.563  1.00  0.00     0.202 C 
ATOM      3  C   UNL     1       9.188   4.076   3.043  1.00  0.00     0.179 C 
ATOM      4  C   UNL     1       8.393   3.198   2.059  1.00  0.00     0.177 C 
ATOM      5  C   UNL     1       6.961   3.748   1.826  1.00  0.00     0.178 C 
ATOM      6  O   UNL     1       6.958   5.127   1.461  1.00  0.00    -0.341 OA
ENDROOT
BRANCH   1   7
ATOM      7  O   UNL     1       6.980   6.044   3.616  1.00  0.00    -0.350 OA
BRANCH   7   8
ATOM      8  C   UNL     1       6.181   7.207   3.732  1.00  0.00     0.160 C 
ATOM      9  C   UNL     1       6.667   8.314   2.798  1.00  0.00     0.035 C 
ENDBRANCH   7   8
ENDBRANCH   1   7
BRANCH   2  10
ATOM     10  O   UNL     1       9.796   6.395   3.443  1.00  0.00    -0.385 OA
ATOM     11  H   UNL     1      10.750   6.117   3.470  1.00  0.00     0.211 HD
ENDBRANCH   2  10
BRANCH   3  12
ATOM     12  O   UNL     1      10.531   3.666   3.080  1.00  0.00    -0.387 OA
ATOM     13  H   UNL     1      10.529   2.673   3.070  1.00  0.00     0.211 HD
ENDBRANCH   3  12
BRANCH   5  14
ATOM     14  C   UNL     1       5.958   3.449   2.961  1.00  0.00     0.191 C 
BRANCH  14  15
ATOM     15  O   UNL     1       5.531   2.115   2.889  1.00  0.00    -0.394 OA
ATOM     16  H   UNL     1       4.834   2.010   3.588  1.00  0.00     0.210 HD
ENDBRANCH  14  15
ENDBRANCH   5  14
BRANCH   4  17
ATOM     17  O   UNL     1       8.374   1.849   2.456  1.00  0.00    -0.387 OA
ATOM     18  H   UNL     1       9.083   1.718   3.137  1.00  0.00     0.211 HD
ENDBRANCH   4  17
TORSDOF 7
ENDMDL
MODEL 7
REMARK VINA RESULT:    -2.997      2.058      2.804
REMARK INTER + INTRA:          -4.231
REMARK INTER:                  -3.844
REMARK INTRA:                  -0.387
REMARK UNBOUND:                -0.358
REMARK SMILES CCO[C@@H]1O[C@H](CO)[C@H](O)[C@@H](O)[C@@H]1O
REMARK SMILES IDX 4 1 13 2 11 3 9 4 6 5 5 6 3 7 2 8 1 9 14 10 12 12 7 14 8 15
REMARK SMILES IDX 10 17
REMARK H PARENT 14 11 12 13 8 16 10 18
REMARK Flexibility Score: inf
ROOT
ATOM      1  C   UNL     1       9.234   5.285   2.494  1.00  0.00     0.281 C 
ATOM      2  C   UNL     1      10.250   6.314   1.956  1.00  0.00     0.202 C 
ATOM      3  C   UNL     1       9.621   7.710   1.866  1.00  0.00     0.179 C 
ATOM      4  C   UNL     1       9.034   8.072   3.242  1.00  0.00     0.177 C 
ATOM      5  C   UNL     1       8.093   6.959   3.775  1.00  0.00     0.178 C 
ATOM      6  O   UNL     1       8.706   5.670   3.759  1.00  0.00    -0.341 OA
ENDROOT
BRANCH   1   7
ATOM      7  O   UNL     1       8.186   5.080   1.553  1.00  0.00    -0.350 OA
BRANCH   7   8
ATOM      8  C   UNL     1       8.101   3.731   1.131  1.00  0.00     0.160 C 
ATOM      9  C   UNL     1       8.454   2.769   2.264  1.00  0.00     0.035 C 
ENDBRANCH   7   8
ENDBRANCH   1   7
BRANCH   2  10
ATOM     10  O   UNL     1      10.775   5.906   0.717  1.00  0.00    -0.385 OA
ATOM     11  H   UNL     1      11.766   5.945   0.777  1.00  0.00     0.211 HD
ENDBRANCH   2  10
BRANCH   3  12
ATOM     12  O   UNL     1      10.612   8.639   1.505  1.00  0.00    -0.387 OA
ATOM     13  H   UNL     1      10.634   8.665   0.513  1.00  0.00     0.211 HD
ENDBRANCH   3  12
BRANCH   5  14
ATOM     14  C   UNL     1       6.686   6.937   3.139  1.00  0.00     0.191 C 
BRANCH  14  15
ATOM     15  O   UNL     1       6.002   5.774   3.518  1.00  0.00    -0.394 OA
ATOM     16  H   UNL     1       5.714   5.335   2.675  1.00  0.00     0.210 HD
ENDBRANCH  14  15
ENDBRANCH   5  14
BRANCH   4  17
ATOM     17  O   UNL     1       8.399   9.327   3.229  1.00  0.00    -0.387 OA
ATOM     18  H   UNL     1       7.608   9.266   2.633  1.00  0.00     0.211 HD
ENDBRANCH   4  17
TORSDOF 7
ENDMDL
MODEL 8
REMARK VINA RESULT:    -2.949      2.303      3.990
REMARK INTER + INTRA:          -4.170
REMARK INTER:                  -3.835
REMARK INTRA:                  -0.334
REMARK UNBOUND:                -0.358
REMARK SMILES CCO[C@@H]1O[C@H](CO)[C@H](O)[C@@H](O)[C@@H]1O
REMARK SMILES IDX 4 1 13 2 11 3 9 4 6 5 5 6 3 7 2 8 1 9 14 10 12 12 7 14 8 15
REMARK SMILES IDX 10 17
REMARK H PARENT 14 11 12 13 8 16 10 18
REMARK Flexibility Score: inf
ROOT
ATOM      1  C   UNL     1       7.772   6.855   3.151  1.00  0.00     0.281 C 
ATOM      2  C   UNL     1       7.860   5.322   3.012  1.00  0.00     0.202 C 
ATOM      3  C   UNL     1       9.130   4.911   2.254  1.00  0.00     0.179 C 
ATOM      4  C   UNL     1      10.344   5.547   2.956  1.00  0.00     0.177 C 
ATOM      5  C   UNL     1      10.158   7.076   3.152  1.00  0.00     0.178 C 
ATOM      6  O   UNL     1       8.923   7.399   3.789  1.00  0.00    -0.341 OA
ENDROOT
BRANCH   1   7
ATOM      7  O   UNL     1       7.569   7.460   1.879  1.00  0.00    -0.350 OA
BRANCH   7   8
ATOM      8  C   UNL     1       6.696   8.573   1.948  1.00  0.00     0.160 C 
ATOM      9  C   UNL     1       7.070   9.639   0.920  1.00  0.00     0.035 C 
ENDBRANCH   7   8
ENDBRANCH   1   7
BRANCH   2  10
ATOM     10  O   UNL     1       6.707   4.801   2.398  1.00  0.00    -0.385 OA
ATOM     11  H   UNL     1       6.313   5.515   1.831  1.00  0.00     0.211 HD
ENDBRANCH   2  10
BRANCH   3  12
ATOM     12  O   UNL     1       9.243   3.511   2.269  1.00  0.00    -0.387 OA
ATOM     13  H   UNL     1       9.073   3.219   3.203  1.00  0.00     0.211 HD
ENDBRANCH   3  12
BRANCH   5  14
ATOM     14  C   UNL     1      10.396   7.927   1.886  1.00  0.00     0.191 C 
BRANCH  14  15
ATOM     15  O   UNL     1      10.347   7.117   0.743  1.00  0.00    -0.394 OA
ATOM     16  H   UNL     1       9.479   6.637   0.781  1.00  0.00     0.210 HD
ENDBRANCH  14  15
ENDBRANCH   5  14
BRANCH   4  17
ATOM     17  O   UNL     1      11.549   5.251   2.292  1.00  0.00    -0.387 OA
ATOM     18  H   UNL     1      11.326   4.915   1.386  1.00  0.00     0.211 HD
ENDBRANCH   4  17
TORSDOF 7
ENDMDL
MODEL 9
REMARK VINA RESULT:    -2.901      1.872      2.346
REMARK INTER + INTRA:          -4.107
REMARK INTER:                  -3.694
REMARK INTRA:                  -0.413
REMARK UNBOUND:                -0.358
REMARK SMILES CCO[C@@H]1O[C@H](CO)[C@H](O)[C@@H](O)[C@@H]1O
REMARK SMILES IDX 4 1 13 2 11 3 9 4 6 5 5 6 3 7 2 8 1 9 14 10 12 12 7 14 8 15
REMARK SMILES IDX 10 17
REMARK H PARENT 14 11 12 13 8 16 10 18
REMARK Flexibility Score: inf
ROOT
ATOM      1  C   UNL     1       8.048   5.088   3.586  1.00  0.00     0.281 C 
ATOM      2  C   UNL     1       9.469   4.844   3.038  1.00  0.00     0.202 C 
ATOM      3  C   UNL     1       9.793   5.821   1.900  1.00  0.00     0.179 C 
ATOM      4  C   UNL     1       9.555   7.256   2.406  1.00  0.00     0.177 C 
ATOM      5  C   UNL     1       8.144   7.417   3.031  1.00  0.00     0.178 C 
ATOM      6  O   UNL     1       7.871   6.431   4.025  1.00  0.00    -0.341 OA
ENDROOT
BRANCH   1   7
ATOM      7  O   UNL     1       7.071   4.744   2.611  1.00  0.00    -0.350 OA
BRANCH   7   8
ATOM      8  C   UNL     1       6.056   3.911   3.139  1.00  0.00     0.160 C 
ATOM      9  C   UNL     1       5.275   3.211   2.028  1.00  0.00     0.035 C 
ENDBRANCH   7   8
ENDBRANCH   1   7
BRANCH   2  10
ATOM     10  O   UNL     1       9.632   3.508   2.629  1.00  0.00    -0.385 OA
ATOM     11  H   UNL     1       8.729   3.100   2.549  1.00  0.00     0.211 HD
ENDBRANCH   2  10
BRANCH   3  12
ATOM     12  O   UNL     1      11.137   5.659   1.523  1.00  0.00    -0.387 OA
ATOM     13  H   UNL     1      11.140   5.452   0.552  1.00  0.00     0.211 HD
ENDBRANCH   3  12
BRANCH   5  14
ATOM     14  C   UNL     1       6.992   7.545   2.011  1.00  0.00     0.191 C 
BRANCH  14  15
ATOM     15  O   UNL     1       6.958   8.843   1.482  1.00  0.00    -0.394 OA
ATOM     16  H   UNL     1       6.911   9.458   2.260  1.00  0.00     0.210 HD
ENDBRANCH  14  15
ENDBRANCH   5  14
BRANCH   4  17
ATOM     17  O   UNL     1       9.791   8.212   1.402  1.00  0.00    -0.387 OA
ATOM     18  H   UNL     1      10.220   9.002   1.823  1.00  0.00     0.211 HD
ENDBRANCH   4  17
TORSDOF 7
ENDMDL
