MODEL 1
REMARK VINA RESULT:    -4.113      0.000      0.000
REMARK INTER + INTRA:          -5.184
REMARK INTER:                  -5.796
REMARK INTRA:                   0.611
REMARK UNBOUND:                 0.611
REMARK SMILES CC1=CCC(=C(C)C)C(=O)CC(C)=CCC1
REMARK SMILES IDX 12 1 14 2 13 3 15 4 16 5 2 6 1 7 3 8 11 10 9 11 10 12 5 13
REMARK SMILES IDX 6 14 7 15 8 16 4 17
REMARK H PARENT
REMARK Flexibility Score: 60.00
ROOT
ATOM      1  C   UNL     1      10.373 -12.664  17.895  1.00  0.00    -0.070 C 
ATOM      2  C   UNL     1       9.787 -13.778  18.393  1.00  0.00    -0.027 C 
ATOM      3  C   UNL     1       9.936 -11.328  18.444  1.00  0.00     0.039 C 
ENDROOT
BRANCH   2   4
ATOM      4  C   UNL     1      10.143 -15.195  18.005  1.00  0.00     0.032 C 
BRANCH   4   5
ATOM      5  C   UNL     1       9.716 -15.513  16.565  1.00  0.00     0.034 C 
BRANCH   5   6
ATOM      6  C   UNL     1      10.860 -15.992  15.683  1.00  0.00    -0.077 C 
ATOM      7  C   UNL     1      11.679 -17.176  16.134  1.00  0.00     0.039 C 
ATOM      8  C   UNL     1      11.174 -15.423  14.497  1.00  0.00    -0.023 CG0
ATOM      9  G   UNL     1      10.517 -14.194  13.915  1.00  0.00     0.000 G0
ENDBRANCH   5   6
ENDBRANCH   4   5
ENDBRANCH   2   4
BRANCH   1  10
ATOM     10  C   UNL     1      11.437 -12.702  16.816  1.00  0.00     0.111 C 
BRANCH  10  11
ATOM     11  C   UNL     1      10.901 -12.193  15.507  1.00  0.00     0.163 C 
ATOM     12  O   UNL     1      10.187 -11.154  15.493  1.00  0.00    -0.294 OA
BRANCH  11  13
ATOM     13  C   UNL     1      11.215 -12.878  14.227  1.00  0.00    -0.002 C 
ATOM     14  C   UNL     1      12.118 -12.339  13.364  1.00  0.00    -0.069 C 
ATOM     15  C   UNL     1      12.890 -11.088  13.720  1.00  0.00     0.039 C 
ATOM     16  C   UNL     1      12.413 -12.993  12.034  1.00  0.00     0.039 C 
BRANCH  13  17
ATOM     17  C   UNL     1      10.515 -14.192  13.897  1.00  0.00     0.066 CG0
ATOM     18  G   UNL     1      11.185 -15.406  14.497  1.00  0.00     0.000 G0
ENDBRANCH  13  17
ENDBRANCH  11  13
ENDBRANCH  10  11
ENDBRANCH   1  10
TORSDOF 0
ENDMDL
MODEL 2
REMARK VINA RESULT:    -3.946      1.940      3.940
REMARK INTER + INTRA:          -4.949
REMARK INTER:                  -5.293
REMARK INTRA:                   0.344
REMARK UNBOUND:                 0.611
REMARK SMILES CC1=CCC(=C(C)C)C(=O)CC(C)=CCC1
REMARK SMILES IDX 12 1 14 2 13 3 15 4 16 5 2 6 1 7 3 8 11 10 9 11 10 12 5 13
REMARK SMILES IDX 6 14 7 15 8 16 4 17
REMARK H PARENT
REMARK Flexibility Score: 60.00
ROOT
ATOM      1  C   UNL     1      10.152 -14.765  17.309  1.00  0.00    -0.070 C 
ATOM      2  C   UNL     1      10.102 -15.312  16.071  1.00  0.00    -0.027 C 
ATOM      3  C   UNL     1       9.221 -15.309  18.362  1.00  0.00     0.039 C 
ENDROOT
BRANCH   2   4
ATOM      4  C   UNL     1      11.001 -14.934  14.916  1.00  0.00     0.032 C 
BRANCH   4   5
ATOM      5  C   UNL     1      10.496 -13.677  14.193  1.00  0.00     0.034 C 
BRANCH   5   6
ATOM      6  C   UNL     1      11.554 -12.592  14.051  1.00  0.00    -0.077 C 
ATOM      7  C   UNL     1      12.753 -12.855  13.176  1.00  0.00     0.039 C 
ATOM      8  C   UNL     1      11.468 -11.386  14.657  1.00  0.00    -0.023 CG0
ATOM      9  G   UNL     1      10.384 -10.965  15.622  1.00  0.00     0.000 G0
ENDBRANCH   5   6
ENDBRANCH   4   5
ENDBRANCH   2   4
BRANCH   1  10
ATOM     10  C   UNL     1      11.096 -13.637  17.675  1.00  0.00     0.111 C 
BRANCH  10  11
ATOM     11  C   UNL     1      10.354 -12.338  17.830  1.00  0.00     0.163 C 
ATOM     12  O   UNL     1       9.367 -12.279  18.612  1.00  0.00    -0.294 OA
BRANCH  11  13
ATOM     13  C   UNL     1      10.777 -11.117  17.097  1.00  0.00    -0.002 C 
ATOM     14  C   UNL     1      11.506 -10.157  17.727  1.00  0.00    -0.069 C 
ATOM     15  C   UNL     1      11.983 -10.344  19.151  1.00  0.00     0.039 C 
ATOM     16  C   UNL     1      11.901  -8.884  17.015  1.00  0.00     0.039 C 
BRANCH  13  17
ATOM     17  C   UNL     1      10.385 -10.957  15.632  1.00  0.00     0.066 CG0
ATOM     18  G   UNL     1      11.460 -11.391  14.664  1.00  0.00     0.000 G0
ENDBRANCH  13  17
ENDBRANCH  11  13
ENDBRANCH  10  11
ENDBRANCH   1  10
TORSDOF 0
ENDMDL
MODEL 3
REMARK VINA RESULT:    -3.915     16.652     18.505
REMARK INTER + INTRA:          -4.906
REMARK INTER:                  -5.311
REMARK INTRA:                   0.405
REMARK UNBOUND:                 0.611
REMARK SMILES CC1=CCC(=C(C)C)C(=O)CC(C)=CCC1
REMARK SMILES IDX 12 1 14 2 13 3 15 4 16 5 2 6 1 7 3 8 11 10 9 11 10 12 5 13
REMARK SMILES IDX 6 14 7 15 8 16 4 17
REMARK H PARENT
REMARK Flexibility Score: 60.00
ROOT
ATOM      1  C   UNL     1       0.571 -25.098  14.370  1.00  0.00    -0.070 C 
ATOM      2  C   UNL     1       1.102 -25.446  15.565  1.00  0.00    -0.027 C 
ATOM      3  C   UNL     1       1.417 -24.273  13.432  1.00  0.00     0.039 C 
ENDROOT
BRANCH   2   4
ATOM      4  C   UNL     1       0.424 -26.317  16.598  1.00  0.00     0.032 C 
BRANCH   4   5
ATOM      5  C   UNL     1       0.473 -27.801  16.207  1.00  0.00     0.034 C 
BRANCH   5   6
ATOM      6  C   UNL     1      -0.809 -28.557  16.529  1.00  0.00    -0.077 C 
ATOM      7  C   UNL     1      -1.225 -28.701  17.971  1.00  0.00     0.039 C 
ATOM      8  C   UNL     1      -1.613 -29.094  15.584  1.00  0.00    -0.023 CG0
ATOM      9  G   UNL     1      -1.329 -29.112  14.100  1.00  0.00     0.000 G0
ENDBRANCH   5   6
ENDBRANCH   4   5
ENDBRANCH   2   4
BRANCH   1  10
ATOM     10  C   UNL     1      -0.827 -25.495  13.939  1.00  0.00     0.111 C 
BRANCH  10  11
ATOM     11  C   UNL     1      -0.805 -26.759  13.125  1.00  0.00     0.163 C 
ATOM     12  O   UNL     1       0.080 -26.909  12.240  1.00  0.00    -0.294 OA
BRANCH  11  13
ATOM     13  C   UNL     1      -1.790 -27.845  13.361  1.00  0.00    -0.002 C 
ATOM     14  C   UNL     1      -3.074 -27.712  12.928  1.00  0.00    -0.069 C 
ATOM     15  C   UNL     1      -3.507 -26.509  12.121  1.00  0.00     0.039 C 
ATOM     16  C   UNL     1      -4.104 -28.783  13.203  1.00  0.00     0.039 C 
BRANCH  13  17
ATOM     17  C   UNL     1      -1.344 -29.107  14.090  1.00  0.00     0.066 CG0
ATOM     18  G   UNL     1      -1.614 -29.079  15.576  1.00  0.00     0.000 G0
ENDBRANCH  13  17
ENDBRANCH  11  13
ENDBRANCH  10  11
ENDBRANCH   1  10
TORSDOF 0
ENDMDL
MODEL 4
REMARK VINA RESULT:    -3.806     16.432     17.690
REMARK INTER + INTRA:          -4.752
REMARK INTER:                  -5.678
REMARK INTRA:                   0.927
REMARK UNBOUND:                 0.611
REMARK SMILES CC1=CCC(=C(C)C)C(=O)CC(C)=CCC1
REMARK SMILES IDX 12 1 14 2 13 3 15 4 16 5 2 6 1 7 3 8 11 10 9 11 10 12 5 13
REMARK SMILES IDX 6 14 7 15 8 16 4 17
REMARK H PARENT
REMARK Flexibility Score: 60.00
ROOT
ATOM      1  C   UNL     1      -0.140 -25.058  15.146  1.00  0.00    -0.070 C 
ATOM      2  C   UNL     1       0.294 -25.806  16.187  1.00  0.00    -0.027 C 
ATOM      3  C   UNL     1      -1.123 -23.950  15.431  1.00  0.00     0.039 C 
ENDROOT
BRANCH   2   4
ATOM      4  C   UNL     1       1.320 -26.912  16.095  1.00  0.00     0.032 C 
BRANCH   4   5
ATOM      5  C   UNL     1       0.714 -28.278  16.447  1.00  0.00     0.034 C 
BRANCH   5   6
ATOM      6  C   UNL     1      -0.724 -28.445  15.976  1.00  0.00    -0.077 C 
ATOM      7  C   UNL     1      -1.839 -28.294  16.980  1.00  0.00     0.039 C 
ATOM      8  C   UNL     1      -1.061 -28.703  14.692  1.00  0.00    -0.023 CG0
ATOM      9  G   UNL     1      -0.087 -28.954  13.565  1.00  0.00     0.000 G0
ENDBRANCH   5   6
ENDBRANCH   4   5
ENDBRANCH   2   4
BRANCH   1  10
ATOM     10  C   UNL     1       0.314 -25.286  13.718  1.00  0.00     0.111 C 
BRANCH  10  11
ATOM     11  C   UNL     1      -0.448 -26.415  13.081  1.00  0.00     0.163 C 
ATOM     12  O   UNL     1      -1.672 -26.264  12.818  1.00  0.00    -0.294 OA
BRANCH  11  13
ATOM     13  C   UNL     1       0.220 -27.696  12.732  1.00  0.00    -0.002 C 
ATOM     14  C   UNL     1       1.084 -27.755  11.683  1.00  0.00    -0.069 C 
ATOM     15  C   UNL     1       1.459 -26.512  10.906  1.00  0.00     0.039 C 
ATOM     16  C   UNL     1       1.734 -29.059  11.280  1.00  0.00     0.039 C 
BRANCH  13  17
ATOM     17  C   UNL     1      -0.075 -28.937  13.566  1.00  0.00     0.066 CG0
ATOM     18  G   UNL     1      -1.062 -28.699  14.685  1.00  0.00     0.000 G0
ENDBRANCH  13  17
ENDBRANCH  11  13
ENDBRANCH  10  11
ENDBRANCH   1  10
TORSDOF 0
ENDMDL
MODEL 5
REMARK VINA RESULT:    -3.789      2.090      3.995
REMARK INTER + INTRA:          -4.729
REMARK INTER:                  -5.257
REMARK INTRA:                   0.529
REMARK UNBOUND:                 0.611
REMARK SMILES CC1=CCC(=C(C)C)C(=O)CC(C)=CCC1
REMARK SMILES IDX 12 1 14 2 13 3 15 4 16 5 2 6 1 7 3 8 11 10 9 11 10 12 5 13
REMARK SMILES IDX 6 14 7 15 8 16 4 17
REMARK H PARENT
REMARK Flexibility Score: 60.00
ROOT
ATOM      1  C   UNL     1      10.337 -14.063  17.188  1.00  0.00    -0.070 C 
ATOM      2  C   UNL     1      10.040 -13.362  18.307  1.00  0.00    -0.027 C 
ATOM      3  C   UNL     1       9.508 -15.283  16.875  1.00  0.00     0.039 C 
ENDROOT
BRANCH   2   4
ATOM      4  C   UNL     1      10.723 -12.085  18.741  1.00  0.00     0.032 C 
BRANCH   4   5
ATOM      5  C   UNL     1      10.037 -10.846  18.148  1.00  0.00     0.034 C 
BRANCH   5   6
ATOM      6  C   UNL     1      10.993  -9.915  17.415  1.00  0.00    -0.077 C 
ATOM      7  C   UNL     1      11.844  -8.966  18.220  1.00  0.00     0.039 C 
ATOM      8  C   UNL     1      11.136  -9.905  16.070  1.00  0.00    -0.023 CG0
ATOM      9  G   UNL     1      10.325 -10.728  15.097  1.00  0.00     0.000 G0
ENDBRANCH   5   6
ENDBRANCH   4   5
ENDBRANCH   2   4
BRANCH   1  10
ATOM     10  C   UNL     1      11.460 -13.677  16.246  1.00  0.00     0.111 C 
BRANCH  10  11
ATOM     11  C   UNL     1      10.923 -13.253  14.907  1.00  0.00     0.163 C 
ATOM     12  O   UNL     1      10.304 -14.090  14.196  1.00  0.00    -0.294 OA
BRANCH  11  13
ATOM     13  C   UNL     1      11.088 -11.861  14.416  1.00  0.00    -0.002 C 
ATOM     14  C   UNL     1      11.917 -11.596  13.371  1.00  0.00    -0.069 C 
ATOM     15  C   UNL     1      12.617 -12.709  12.624  1.00  0.00     0.039 C 
ATOM     16  C   UNL     1      12.137 -10.180  12.890  1.00  0.00     0.039 C 
BRANCH  13  17
ATOM     17  C   UNL     1      10.314 -10.738  15.097  1.00  0.00     0.066 CG0
ATOM     18  G   UNL     1      11.142  -9.932  16.071  1.00  0.00     0.000 G0
ENDBRANCH  13  17
ENDBRANCH  11  13
ENDBRANCH  10  11
ENDBRANCH   1  10
TORSDOF 0
ENDMDL
MODEL 6
REMARK VINA RESULT:    -3.714      1.911      3.980
REMARK INTER + INTRA:          -4.623
REMARK INTER:                  -4.946
REMARK INTRA:                   0.323
REMARK UNBOUND:                 0.611
REMARK SMILES CC1=CCC(=C(C)C)C(=O)CC(C)=CCC1
REMARK SMILES IDX 12 1 14 2 13 3 15 4 16 5 2 6 1 7 3 8 11 10 9 11 10 12 5 13
REMARK SMILES IDX 6 14 7 15 8 16 4 17
REMARK H PARENT
REMARK Flexibility Score: 60.00
ROOT
ATOM      1  C   UNL     1      11.926 -13.003  13.526  1.00  0.00    -0.070 C 
ATOM      2  C   UNL     1      11.413 -14.255  13.501  1.00  0.00    -0.027 C 
ATOM      3  C   UNL     1      11.946 -12.219  12.238  1.00  0.00     0.039 C 
ENDROOT
BRANCH   2   4
ATOM      4  C   UNL     1      11.259 -15.156  14.705  1.00  0.00     0.032 C 
BRANCH   4   5
ATOM      5  C   UNL     1      10.064 -14.740  15.575  1.00  0.00     0.034 C 
BRANCH   5   6
ATOM      6  C   UNL     1      10.378 -14.708  17.064  1.00  0.00    -0.077 C 
ATOM      7  C   UNL     1      10.721 -16.000  17.762  1.00  0.00     0.039 C 
ATOM      8  C   UNL     1      10.386 -13.573  17.798  1.00  0.00    -0.023 CG0
ATOM      9  G   UNL     1      10.003 -12.201  17.294  1.00  0.00     0.000 G0
ENDBRANCH   5   6
ENDBRANCH   4   5
ENDBRANCH   2   4
BRANCH   1  10
ATOM     10  C   UNL     1      12.480 -12.362  14.784  1.00  0.00     0.111 C 
BRANCH  10  11
ATOM     11  C   UNL     1      11.513 -11.363  15.355  1.00  0.00     0.163 C 
ATOM     12  O   UNL     1      10.957 -10.532  14.587  1.00  0.00    -0.294 OA
BRANCH  11  13
ATOM     13  C   UNL     1      11.180 -11.353  16.802  1.00  0.00    -0.002 C 
ATOM     14  C   UNL     1      11.920 -10.611  17.671  1.00  0.00    -0.069 C 
ATOM     15  C   UNL     1      13.032  -9.710  17.181  1.00  0.00     0.039 C 
ATOM     16  C   UNL     1      11.630 -10.627  19.154  1.00  0.00     0.039 C 
BRANCH  13  17
ATOM     17  C   UNL     1      10.001 -12.182  17.299  1.00  0.00     0.066 CG0
ATOM     18  G   UNL     1      10.386 -13.564  17.774  1.00  0.00     0.000 G0
ENDBRANCH  13  17
ENDBRANCH  11  13
ENDBRANCH  10  11
ENDBRANCH   1  10
TORSDOF 0
ENDMDL
MODEL 7
REMARK VINA RESULT:    -3.705      1.714      4.108
REMARK INTER + INTRA:          -4.610
REMARK INTER:                  -5.101
REMARK INTRA:                   0.491
REMARK UNBOUND:                 0.611
REMARK SMILES CC1=CCC(=C(C)C)C(=O)CC(C)=CCC1
REMARK SMILES IDX 12 1 14 2 13 3 15 4 16 5 2 6 1 7 3 8 11 10 9 11 10 12 5 13
REMARK SMILES IDX 6 14 7 15 8 16 4 17
REMARK H PARENT
REMARK Flexibility Score: 60.00
ROOT
ATOM      1  C   UNL     1      10.730 -11.159  17.786  1.00  0.00    -0.070 C 
ATOM      2  C   UNL     1      11.598 -10.290  17.217  1.00  0.00    -0.027 C 
ATOM      3  C   UNL     1       9.431 -10.614  18.324  1.00  0.00     0.039 C 
ENDROOT
BRANCH   2   4
ATOM      4  C   UNL     1      12.913 -10.669  16.574  1.00  0.00     0.032 C 
BRANCH   4   5
ATOM      5  C   UNL     1      12.972 -10.230  15.104  1.00  0.00     0.034 C 
BRANCH   5   6
ATOM      6  C   UNL     1      11.861 -10.822  14.248  1.00  0.00    -0.077 C 
ATOM      7  C   UNL     1      10.946  -9.889  13.498  1.00  0.00     0.039 C 
ATOM      8  C   UNL     1      11.660 -12.152  14.107  1.00  0.00    -0.023 CG0
ATOM      9  G   UNL     1      12.426 -13.236  14.830  1.00  0.00     0.000 G0
ENDBRANCH   5   6
ENDBRANCH   4   5
ENDBRANCH   2   4
BRANCH   1  10
ATOM     10  C   UNL     1      11.009 -12.644  17.907  1.00  0.00     0.111 C 
BRANCH  10  11
ATOM     11  C   UNL     1      10.577 -13.379  16.669  1.00  0.00     0.163 C 
ATOM     12  O   UNL     1       9.357 -13.393  16.351  1.00  0.00    -0.294 OA
BRANCH  11  13
ATOM     13  C   UNL     1      11.564 -14.070  15.799  1.00  0.00    -0.002 C 
ATOM     14  C   UNL     1      11.698 -15.423  15.854  1.00  0.00    -0.069 C 
ATOM     15  C   UNL     1      10.792 -16.265  16.725  1.00  0.00     0.039 C 
ATOM     16  C   UNL     1      12.732 -16.139  15.015  1.00  0.00     0.039 C 
BRANCH  13  17
ATOM     17  C   UNL     1      12.419 -13.244  14.846  1.00  0.00     0.066 CG0
ATOM     18  G   UNL     1      11.651 -12.164  14.119  1.00  0.00     0.000 G0
ENDBRANCH  13  17
ENDBRANCH  11  13
ENDBRANCH  10  11
ENDBRANCH   1  10
TORSDOF 0
ENDMDL
MODEL 8
REMARK VINA RESULT:    -3.603     16.853     18.693
REMARK INTER + INTRA:          -4.466
REMARK INTER:                  -5.152
REMARK INTRA:                   0.687
REMARK UNBOUND:                 0.611
REMARK SMILES CC1=CCC(=C(C)C)C(=O)CC(C)=CCC1
REMARK SMILES IDX 12 1 14 2 13 3 15 4 16 5 2 6 1 7 3 8 11 10 9 11 10 12 5 13
REMARK SMILES IDX 6 14 7 15 8 16 4 17
REMARK H PARENT
REMARK Flexibility Score: 60.00
ROOT
ATOM      1  C   UNL     1      -2.487 -26.521  14.266  1.00  0.00    -0.070 C 
ATOM      2  C   UNL     1      -3.328 -27.418  13.700  1.00  0.00    -0.027 C 
ATOM      3  C   UNL     1      -2.519 -26.367  15.766  1.00  0.00     0.039 C 
ENDROOT
BRANCH   2   4
ATOM      4  C   UNL     1      -3.388 -27.744  12.225  1.00  0.00     0.032 C 
BRANCH   4   5
ATOM      5  C   UNL     1      -2.734 -29.099  11.918  1.00  0.00     0.034 C 
BRANCH   5   6
ATOM      6  C   UNL     1      -1.343 -28.978  11.314  1.00  0.00    -0.077 C 
ATOM      7  C   UNL     1      -1.197 -29.003   9.813  1.00  0.00     0.039 C 
ATOM      8  C   UNL     1      -0.220 -28.830  12.053  1.00  0.00    -0.023 CG0
ATOM      9  G   UNL     1      -0.157 -28.852  13.563  1.00  0.00     0.000 G0
ENDBRANCH   5   6
ENDBRANCH   4   5
ENDBRANCH   2   4
BRANCH   1  10
ATOM     10  C   UNL     1      -1.526 -25.668  13.462  1.00  0.00     0.111 C 
BRANCH  10  11
ATOM     11  C   UNL     1      -0.143 -26.260  13.466  1.00  0.00     0.163 C 
ATOM     12  O   UNL     1       0.781 -25.675  12.840  1.00  0.00    -0.294 OA
BRANCH  11  13
ATOM     13  C   UNL     1       0.159 -27.506  14.216  1.00  0.00    -0.002 C 
ATOM     14  C   UNL     1       0.709 -27.442  15.459  1.00  0.00    -0.069 C 
ATOM     15  C   UNL     1       0.939 -26.115  16.146  1.00  0.00     0.039 C 
ATOM     16  C   UNL     1       1.072 -28.699  16.216  1.00  0.00     0.039 C 
BRANCH  13  17
ATOM     17  C   UNL     1      -0.156 -28.853  13.575  1.00  0.00     0.066 CG0
ATOM     18  G   UNL     1      -0.215 -28.809  12.065  1.00  0.00     0.000 G0
ENDBRANCH  13  17
ENDBRANCH  11  13
ENDBRANCH  10  11
ENDBRANCH   1  10
TORSDOF 0
ENDMDL
MODEL 9
REMARK VINA RESULT:    -3.343     16.980     18.666
REMARK INTER + INTRA:          -4.100
REMARK INTER:                  -4.700
REMARK INTRA:                   0.600
REMARK UNBOUND:                 0.611
REMARK SMILES CC1=CCC(=C(C)C)C(=O)CC(C)=CCC1
REMARK SMILES IDX 12 1 14 2 13 3 15 4 16 5 2 6 1 7 3 8 11 10 9 11 10 12 5 13
REMARK SMILES IDX 6 14 7 15 8 16 4 17
REMARK H PARENT
REMARK Flexibility Score: 60.00
ROOT
ATOM      1  C   UNL     1      -0.016 -26.006  14.441  1.00  0.00    -0.070 C 
ATOM      2  C   UNL     1      -1.339 -25.720  14.455  1.00  0.00    -0.027 C 
ATOM      3  C   UNL     1       0.732 -25.969  15.750  1.00  0.00     0.039 C 
ENDROOT
BRANCH   2   4
ATOM      4  C   UNL     1      -2.253 -25.769  13.252  1.00  0.00     0.032 C 
BRANCH   4   5
ATOM      5  C   UNL     1      -3.293 -26.892  13.375  1.00  0.00     0.034 C 
BRANCH   5   6
ATOM      6  C   UNL     1      -2.718 -28.195  13.912  1.00  0.00    -0.077 C 
ATOM      7  C   UNL     1      -3.029 -28.596  15.332  1.00  0.00     0.039 C 
ATOM      8  C   UNL     1      -1.953 -29.031  13.173  1.00  0.00    -0.023 CG0
ATOM      9  G   UNL     1      -1.480 -28.769  11.762  1.00  0.00     0.000 G0
ENDBRANCH   5   6
ENDBRANCH   4   5
ENDBRANCH   2   4
BRANCH   1  10
ATOM     10  C   UNL     1       0.740 -26.355  13.174  1.00  0.00     0.111 C 
BRANCH  10  11
ATOM     11  C   UNL     1       0.673 -27.831  12.892  1.00  0.00     0.163 C 
ATOM     12  O   UNL     1       1.185 -28.640  13.713  1.00  0.00    -0.294 OA
BRANCH  11  13
ATOM     13  C   UNL     1      -0.004 -28.354  11.678  1.00  0.00    -0.002 C 
ATOM     14  C   UNL     1       0.676 -28.459  10.505  1.00  0.00    -0.069 C 
ATOM     15  C   UNL     1       2.152 -28.138  10.423  1.00  0.00     0.039 C 
ATOM     16  C   UNL     1      -0.009 -28.941   9.247  1.00  0.00     0.039 C 
BRANCH  13  17
ATOM     17  C   UNL     1      -1.467 -28.772  11.767  1.00  0.00     0.066 CG0
ATOM     18  G   UNL     1      -1.940 -29.039  13.178  1.00  0.00     0.000 G0
ENDBRANCH  13  17
ENDBRANCH  11  13
ENDBRANCH  10  11
ENDBRANCH   1  10
TORSDOF 0
ENDMDL
