MODEL 1
REMARK VINA RESULT:    -3.365      0.000      0.000
REMARK INTER + INTRA:          -5.116
REMARK INTER:                  -4.644
REMARK INTRA:                  -0.471
REMARK UNBOUND:                -0.471
REMARK SMILES CCCCCCCCO
REMARK SMILES IDX 5 1 4 2 3 3 2 4 1 5 6 6 7 7 8 8 9 9
REMARK H PARENT 9 10
REMARK Flexibility Score: inf
ROOT
ATOM      1  C   UNL     1     145.159 129.690 114.729  1.00  0.00     0.000 C 
ENDROOT
BRANCH   1   2
ATOM      2  C   UNL     1     145.518 128.255 114.312  1.00  0.00    -0.000 C 
BRANCH   2   3
ATOM      3  C   UNL     1     144.611 127.203 114.974  1.00  0.00    -0.000 C 
BRANCH   3   4
ATOM      4  C   UNL     1     143.150 127.668 115.077  1.00  0.00    -0.003 C 
ATOM      5  C   UNL     1     142.553 127.443 116.466  1.00  0.00     0.004 C 
ENDBRANCH   3   4
ENDBRANCH   2   3
ENDBRANCH   1   2
BRANCH   1   6
ATOM      6  C   UNL     1     146.156 130.283 115.736  1.00  0.00     0.002 C 
BRANCH   6   7
ATOM      7  C   UNL     1     145.465 130.600 117.069  1.00  0.00     0.028 C 
BRANCH   7   8
ATOM      8  C   UNL     1     145.445 129.387 118.001  1.00  0.00     0.156 C 
BRANCH   8   9
ATOM      9  O   UNL     1     146.077 129.699 119.212  1.00  0.00    -0.396 OA
ATOM     10  H   UNL     1     147.050 129.723 119.016  1.00  0.00     0.210 HD
ENDBRANCH   8   9
ENDBRANCH   7   8
ENDBRANCH   6   7
ENDBRANCH   1   6
TORSDOF 7
ENDMDL
MODEL 2
REMARK VINA RESULT:    -3.311      1.370      2.897
REMARK INTER + INTRA:          -5.040
REMARK INTER:                  -4.586
REMARK INTRA:                  -0.454
REMARK UNBOUND:                -0.471
REMARK SMILES CCCCCCCCO
REMARK SMILES IDX 5 1 4 2 3 3 2 4 1 5 6 6 7 7 8 8 9 9
REMARK H PARENT 9 10
REMARK Flexibility Score: inf
ROOT
ATOM      1  C   UNL     1     146.006 127.209 115.968  1.00  0.00     0.000 C 
ENDROOT
BRANCH   1   2
ATOM      2  C   UNL     1     145.252 127.507 114.661  1.00  0.00    -0.000 C 
BRANCH   2   3
ATOM      3  C   UNL     1     145.253 129.004 114.306  1.00  0.00    -0.000 C 
BRANCH   3   4
ATOM      4  C   UNL     1     146.052 129.846 115.312  1.00  0.00    -0.003 C 
ATOM      5  C   UNL     1     145.294 131.090 115.778  1.00  0.00     0.004 C 
ENDBRANCH   3   4
ENDBRANCH   2   3
ENDBRANCH   1   2
BRANCH   1   6
ATOM      6  C   UNL     1     145.063 126.876 117.134  1.00  0.00     0.002 C 
BRANCH   6   7
ATOM      7  C   UNL     1     145.609 127.431 118.455  1.00  0.00     0.028 C 
BRANCH   7   8
ATOM      8  C   UNL     1     145.076 128.836 118.745  1.00  0.00     0.156 C 
BRANCH   8   9
ATOM      9  O   UNL     1     146.128 129.682 119.119  1.00  0.00    -0.396 OA
ATOM     10  H   UNL     1     145.713 130.560 119.329  1.00  0.00     0.210 HD
ENDBRANCH   8   9
ENDBRANCH   7   8
ENDBRANCH   6   7
ENDBRANCH   1   6
TORSDOF 7
ENDMDL
MODEL 3
REMARK VINA RESULT:    -3.262      1.795      2.056
REMARK INTER + INTRA:          -4.973
REMARK INTER:                  -4.724
REMARK INTRA:                  -0.249
REMARK UNBOUND:                -0.471
REMARK SMILES CCCCCCCCO
REMARK SMILES IDX 5 1 4 2 3 3 2 4 1 5 6 6 7 7 8 8 9 9
REMARK H PARENT 9 10
REMARK Flexibility Score: inf
ROOT
ATOM      1  C   UNL     1     145.343 129.524 114.476  1.00  0.00     0.000 C 
ENDROOT
BRANCH   1   2
ATOM      2  C   UNL     1     145.446 127.993 114.388  1.00  0.00    -0.000 C 
BRANCH   2   3
ATOM      3  C   UNL     1     144.317 127.279 115.151  1.00  0.00    -0.000 C 
BRANCH   3   4
ATOM      4  C   UNL     1     142.996 128.064 115.115  1.00  0.00    -0.003 C 
ATOM      5  C   UNL     1     141.767 127.154 115.096  1.00  0.00     0.004 C 
ENDBRANCH   3   4
ENDBRANCH   2   3
ENDBRANCH   1   2
BRANCH   1   6
ATOM      6  C   UNL     1     146.236 130.117 115.576  1.00  0.00     0.002 C 
BRANCH   6   7
ATOM      7  C   UNL     1     145.563 131.328 116.236  1.00  0.00     0.028 C 
BRANCH   7   8
ATOM      8  C   UNL     1     146.258 132.638 115.863  1.00  0.00     0.156 C 
BRANCH   8   9
ATOM      9  O   UNL     1     146.818 133.228 117.004  1.00  0.00    -0.396 OA
ATOM     10  H   UNL     1     147.374 132.525 117.432  1.00  0.00     0.210 HD
ENDBRANCH   8   9
ENDBRANCH   7   8
ENDBRANCH   6   7
ENDBRANCH   1   6
TORSDOF 7
ENDMDL
MODEL 4
REMARK VINA RESULT:    -3.244      1.312      2.861
REMARK INTER + INTRA:          -4.948
REMARK INTER:                  -4.492
REMARK INTRA:                  -0.456
REMARK UNBOUND:                -0.471
REMARK SMILES CCCCCCCCO
REMARK SMILES IDX 5 1 4 2 3 3 2 4 1 5 6 6 7 7 8 8 9 9
REMARK H PARENT 9 10
REMARK Flexibility Score: inf
ROOT
ATOM      1  C   UNL     1     144.136 127.276 116.800  1.00  0.00     0.000 C 
ENDROOT
BRANCH   1   2
ATOM      2  C   UNL     1     144.153 127.326 115.263  1.00  0.00    -0.000 C 
BRANCH   2   3
ATOM      3  C   UNL     1     145.501 127.814 114.703  1.00  0.00    -0.000 C 
BRANCH   3   4
ATOM      4  C   UNL     1     145.491 129.314 114.370  1.00  0.00    -0.003 C 
ATOM      5  C   UNL     1     146.083 130.173 115.488  1.00  0.00     0.004 C 
ENDBRANCH   3   4
ENDBRANCH   2   3
ENDBRANCH   1   2
BRANCH   1   6
ATOM      6  C   UNL     1     145.526 127.019 117.401  1.00  0.00     0.002 C 
BRANCH   6   7
ATOM      7  C   UNL     1     145.593 127.505 118.854  1.00  0.00     0.028 C 
BRANCH   7   8
ATOM      8  C   UNL     1     145.033 128.920 119.007  1.00  0.00     0.156 C 
BRANCH   8   9
ATOM      9  O   UNL     1     146.076 129.855 118.989  1.00  0.00    -0.396 OA
ATOM     10  H   UNL     1     146.225 130.084 118.034  1.00  0.00     0.210 HD
ENDBRANCH   8   9
ENDBRANCH   7   8
ENDBRANCH   6   7
ENDBRANCH   1   6
TORSDOF 7
ENDMDL
MODEL 5
REMARK VINA RESULT:    -3.178      1.571      2.178
REMARK INTER + INTRA:          -4.857
REMARK INTER:                  -4.498
REMARK INTRA:                  -0.358
REMARK UNBOUND:                -0.471
REMARK SMILES CCCCCCCCO
REMARK SMILES IDX 5 1 4 2 3 3 2 4 1 5 6 6 7 7 8 8 9 9
REMARK H PARENT 9 10
REMARK Flexibility Score: inf
ROOT
ATOM      1  C   UNL     1     145.762 127.220 115.784  1.00  0.00     0.000 C 
ENDROOT
BRANCH   1   2
ATOM      2  C   UNL     1     144.767 127.612 114.679  1.00  0.00    -0.000 C 
BRANCH   2   3
ATOM      3  C   UNL     1     143.304 127.370 115.088  1.00  0.00    -0.000 C 
BRANCH   3   4
ATOM      4  C   UNL     1     142.459 128.653 115.038  1.00  0.00    -0.003 C 
ATOM      5  C   UNL     1     143.268 129.879 114.614  1.00  0.00     0.004 C 
ENDBRANCH   3   4
ENDBRANCH   2   3
ENDBRANCH   1   2
BRANCH   1   6
ATOM      6  C   UNL     1     145.737 128.189 116.976  1.00  0.00     0.002 C 
BRANCH   6   7
ATOM      7  C   UNL     1     145.550 127.429 118.296  1.00  0.00     0.028 C 
BRANCH   7   8
ATOM      8  C   UNL     1     145.412 128.381 119.485  1.00  0.00     0.156 C 
BRANCH   8   9
ATOM      9  O   UNL     1     146.165 129.540 119.264  1.00  0.00    -0.396 OA
ATOM     10  H   UNL     1     147.069 129.233 118.990  1.00  0.00     0.210 HD
ENDBRANCH   8   9
ENDBRANCH   7   8
ENDBRANCH   6   7
ENDBRANCH   1   6
TORSDOF 7
ENDMDL
MODEL 6
REMARK VINA RESULT:    -3.079      1.056      1.526
REMARK INTER + INTRA:          -4.721
REMARK INTER:                  -4.362
REMARK INTRA:                  -0.359
REMARK UNBOUND:                -0.471
REMARK SMILES CCCCCCCCO
REMARK SMILES IDX 5 1 4 2 3 3 2 4 1 5 6 6 7 7 8 8 9 9
REMARK H PARENT 9 10
REMARK Flexibility Score: inf
ROOT
ATOM      1  C   UNL     1     145.642 127.961 115.295  1.00  0.00     0.000 C 
ENDROOT
BRANCH   1   2
ATOM      2  C   UNL     1     144.332 127.326 114.800  1.00  0.00    -0.000 C 
BRANCH   2   3
ATOM      3  C   UNL     1     143.162 127.551 115.774  1.00  0.00    -0.000 C 
BRANCH   3   4
ATOM      4  C   UNL     1     141.865 127.951 115.052  1.00  0.00    -0.003 C 
ATOM      5  C   UNL     1     141.753 129.459 114.827  1.00  0.00     0.004 C 
ENDBRANCH   3   4
ENDBRANCH   2   3
ENDBRANCH   1   2
BRANCH   1   6
ATOM      6  C   UNL     1     145.690 129.479 115.067  1.00  0.00     0.002 C 
BRANCH   6   7
ATOM      7  C   UNL     1     146.083 130.215 116.355  1.00  0.00     0.028 C 
BRANCH   7   8
ATOM      8  C   UNL     1     145.615 129.464 117.603  1.00  0.00     0.156 C 
BRANCH   8   9
ATOM      9  O   UNL     1     146.083 130.108 118.756  1.00  0.00    -0.396 OA
ATOM     10  H   UNL     1     146.465 130.973 118.452  1.00  0.00     0.210 HD
ENDBRANCH   8   9
ENDBRANCH   7   8
ENDBRANCH   6   7
ENDBRANCH   1   6
TORSDOF 7
ENDMDL
MODEL 7
REMARK VINA RESULT:    -3.072      2.639      3.995
REMARK INTER + INTRA:          -4.711
REMARK INTER:                  -4.220
REMARK INTRA:                  -0.491
REMARK UNBOUND:                -0.471
REMARK SMILES CCCCCCCCO
REMARK SMILES IDX 5 1 4 2 3 3 2 4 1 5 6 6 7 7 8 8 9 9
REMARK H PARENT 9 10
REMARK Flexibility Score: inf
ROOT
ATOM      1  C   UNL     1     145.218 127.458 118.102  1.00  0.00     0.000 C 
ENDROOT
BRANCH   1   2
ATOM      2  C   UNL     1     145.787 128.043 116.799  1.00  0.00    -0.000 C 
BRANCH   2   3
ATOM      3  C   UNL     1     146.088 126.960 115.748  1.00  0.00    -0.000 C 
BRANCH   3   4
ATOM      4  C   UNL     1     145.676 127.387 114.330  1.00  0.00    -0.003 C 
ATOM      5  C   UNL     1     145.318 128.870 114.238  1.00  0.00     0.004 C 
ENDBRANCH   3   4
ENDBRANCH   2   3
ENDBRANCH   1   2
BRANCH   1   6
ATOM      6  C   UNL     1     143.797 126.899 117.931  1.00  0.00     0.002 C 
BRANCH   6   7
ATOM      7  C   UNL     1     142.871 127.942 117.294  1.00  0.00     0.028 C 
BRANCH   7   8
ATOM      8  C   UNL     1     142.236 127.425 116.002  1.00  0.00     0.156 C 
BRANCH   8   9
ATOM      9  O   UNL     1     140.955 126.921 116.262  1.00  0.00    -0.396 OA
ATOM     10  H   UNL     1     140.669 126.456 115.432  1.00  0.00     0.210 HD
ENDBRANCH   8   9
ENDBRANCH   7   8
ENDBRANCH   6   7
ENDBRANCH   1   6
TORSDOF 7
ENDMDL
MODEL 8
REMARK VINA RESULT:    -2.962     20.728     21.300
REMARK INTER + INTRA:          -4.560
REMARK INTER:                  -4.190
REMARK INTRA:                  -0.370
REMARK UNBOUND:                -0.471
REMARK SMILES CCCCCCCCO
REMARK SMILES IDX 5 1 4 2 3 3 2 4 1 5 6 6 7 7 8 8 9 9
REMARK H PARENT 9 10
REMARK Flexibility Score: inf
ROOT
ATOM      1  C   UNL     1     129.141 143.846 113.921  1.00  0.00     0.000 C 
ENDROOT
BRANCH   1   2
ATOM      2  C   UNL     1     127.716 143.505 114.389  1.00  0.00    -0.000 C 
BRANCH   2   3
ATOM      3  C   UNL     1     127.701 142.504 115.557  1.00  0.00    -0.000 C 
BRANCH   3   4
ATOM      4  C   UNL     1     126.895 141.236 115.235  1.00  0.00    -0.003 C 
ATOM      5  C   UNL     1     127.784 140.034 114.913  1.00  0.00     0.004 C 
ENDBRANCH   3   4
ENDBRANCH   2   3
ENDBRANCH   1   2
BRANCH   1   6
ATOM      6  C   UNL     1     130.214 143.004 114.627  1.00  0.00     0.002 C 
BRANCH   6   7
ATOM      7  C   UNL     1     131.187 143.897 115.407  1.00  0.00     0.028 C 
BRANCH   7   8
ATOM      8  C   UNL     1     130.637 144.267 116.787  1.00  0.00     0.156 C 
BRANCH   8   9
ATOM      9  O   UNL     1     130.962 145.594 117.095  1.00  0.00    -0.396 OA
ATOM     10  H   UNL     1     131.561 145.554 117.886  1.00  0.00     0.210 HD
ENDBRANCH   8   9
ENDBRANCH   7   8
ENDBRANCH   6   7
ENDBRANCH   1   6
TORSDOF 7
ENDMDL
