MODEL 1
REMARK VINA RESULT:    -3.532      0.000      0.000
REMARK INTER + INTRA:          -4.401
REMARK INTER:                  -4.358
REMARK INTRA:                  -0.043
REMARK UNBOUND:                -0.043
REMARK SMILES CCCCCC(=O)[O-]
REMARK SMILES IDX 4 1 5 2 6 3 7 4 8 5 3 6 2 7 1 8
REMARK H PARENT
REMARK Flexibility Score: inf
ROOT
ATOM      1  C   UNL     1      -3.816  -9.993  -5.258  1.00  0.00     0.006 C 
ENDROOT
BRANCH   1   2
ATOM      2  C   UNL     1      -4.730 -10.729  -6.241  1.00  0.00     0.053 C 
BRANCH   2   3
ATOM      3  C   UNL     1      -5.576 -11.731  -5.521  1.00  0.00     0.041 C 
ATOM      4  O   UNL     1      -5.040 -12.718  -4.951  1.00  0.00    -0.550 OA
ATOM      5  O   UNL     1      -6.959 -11.602  -5.520  1.00  0.00    -0.550 OA
ENDBRANCH   2   3
ENDBRANCH   1   2
BRANCH   1   6
ATOM      6  C   UNL     1      -3.250  -8.711  -5.888  1.00  0.00     0.000 C 
BRANCH   6   7
ATOM      7  C   UNL     1      -2.489  -7.842  -4.875  1.00  0.00    -0.003 C 
ATOM      8  C   UNL     1      -1.192  -7.269  -5.446  1.00  0.00     0.004 C 
ENDBRANCH   6   7
ENDBRANCH   1   6
TORSDOF 4
ENDMDL
MODEL 2
REMARK VINA RESULT:    -3.486     19.778     20.787
REMARK INTER + INTRA:          -4.344
REMARK INTER:                  -4.249
REMARK INTRA:                  -0.095
REMARK UNBOUND:                -0.043
REMARK SMILES CCCCCC(=O)[O-]
REMARK SMILES IDX 4 1 5 2 6 3 7 4 8 5 3 6 2 7 1 8
REMARK H PARENT
REMARK Flexibility Score: inf
ROOT
ATOM      1  C   UNL     1       8.163  -6.607 -22.084  1.00  0.00     0.006 C 
ENDROOT
BRANCH   1   2
ATOM      2  C   UNL     1       7.671  -6.632 -23.534  1.00  0.00     0.053 C 
BRANCH   2   3
ATOM      3  C   UNL     1       6.258  -6.149 -23.617  1.00  0.00     0.041 C 
ATOM      4  O   UNL     1       5.370  -6.876 -24.134  1.00  0.00    -0.550 OA
ATOM      5  O   UNL     1       5.932  -4.876 -23.167  1.00  0.00    -0.550 OA
ENDBRANCH   2   3
ENDBRANCH   1   2
BRANCH   1   6
ATOM      6  C   UNL     1       8.387  -8.031 -21.555  1.00  0.00     0.000 C 
BRANCH   6   7
ATOM      7  C   UNL     1       7.218  -8.531 -20.691  1.00  0.00    -0.003 C 
ATOM      8  C   UNL     1       7.583  -9.759 -19.857  1.00  0.00     0.004 C 
ENDBRANCH   6   7
ENDBRANCH   1   6
TORSDOF 4
ENDMDL
MODEL 3
REMARK VINA RESULT:    -3.375      1.275      1.891
REMARK INTER + INTRA:          -4.207
REMARK INTER:                  -4.147
REMARK INTRA:                  -0.060
REMARK UNBOUND:                -0.043
REMARK SMILES CCCCCC(=O)[O-]
REMARK SMILES IDX 4 1 5 2 6 3 7 4 8 5 3 6 2 7 1 8
REMARK H PARENT
REMARK Flexibility Score: inf
ROOT
ATOM      1  C   UNL     1      -3.219  -8.624  -5.831  1.00  0.00     0.006 C 
ENDROOT
BRANCH   1   2
ATOM      2  C   UNL     1      -3.781  -9.853  -5.112  1.00  0.00     0.053 C 
BRANCH   2   3
ATOM      3  C   UNL     1      -4.896 -10.460  -5.904  1.00  0.00     0.041 C 
ATOM      4  O   UNL     1      -5.939 -10.860  -5.324  1.00  0.00    -0.550 OA
ATOM      5  O   UNL     1      -4.762 -10.627  -7.276  1.00  0.00    -0.550 OA
ENDBRANCH   2   3
ENDBRANCH   1   2
BRANCH   1   6
ATOM      6  C   UNL     1      -2.381  -7.763  -4.875  1.00  0.00     0.000 C 
BRANCH   6   7
ATOM      7  C   UNL     1      -1.156  -7.138  -5.562  1.00  0.00    -0.003 C 
ATOM      8  C   UNL     1       0.159  -7.506  -4.875  1.00  0.00     0.004 C 
ENDBRANCH   6   7
ENDBRANCH   1   6
TORSDOF 4
ENDMDL
MODEL 4
REMARK VINA RESULT:    -3.008      3.492      5.042
REMARK INTER + INTRA:          -3.754
REMARK INTER:                  -3.703
REMARK INTRA:                  -0.052
REMARK UNBOUND:                -0.043
REMARK SMILES CCCCCC(=O)[O-]
REMARK SMILES IDX 4 1 5 2 6 3 7 4 8 5 3 6 2 7 1 8
REMARK H PARENT
REMARK Flexibility Score: inf
ROOT
ATOM      1  C   UNL     1      -3.642  -9.125  -6.057  1.00  0.00     0.006 C 
ENDROOT
BRANCH   1   2
ATOM      2  C   UNL     1      -2.802  -8.629  -4.878  1.00  0.00     0.053 C 
BRANCH   2   3
ATOM      3  C   UNL     1      -2.209  -7.290  -5.183  1.00  0.00     0.041 C 
ATOM      4  O   UNL     1      -1.055  -7.208  -5.679  1.00  0.00    -0.550 OA
ATOM      5  O   UNL     1      -2.911  -6.132  -4.875  1.00  0.00    -0.550 OA
ENDBRANCH   2   3
ENDBRANCH   1   2
BRANCH   1   6
ATOM      6  C   UNL     1      -3.943 -10.626  -5.925  1.00  0.00     0.000 C 
BRANCH   6   7
ATOM      7  C   UNL     1      -5.243 -10.902  -5.154  1.00  0.00    -0.003 C 
ATOM      8  C   UNL     1      -6.183 -11.848  -5.901  1.00  0.00     0.004 C 
ENDBRANCH   6   7
ENDBRANCH   1   6
TORSDOF 4
ENDMDL
MODEL 5
REMARK VINA RESULT:    -2.852     19.379     20.458
REMARK INTER + INTRA:          -3.562
REMARK INTER:                  -3.482
REMARK INTRA:                  -0.081
REMARK UNBOUND:                -0.043
REMARK SMILES CCCCCC(=O)[O-]
REMARK SMILES IDX 4 1 5 2 6 3 7 4 8 5 3 6 2 7 1 8
REMARK H PARENT
REMARK Flexibility Score: inf
ROOT
ATOM      1  C   UNL     1       7.617  -7.348 -22.246  1.00  0.00     0.006 C 
ENDROOT
BRANCH   1   2
ATOM      2  C   UNL     1       8.622  -8.054 -21.333  1.00  0.00     0.053 C 
BRANCH   2   3
ATOM      3  C   UNL     1       7.987  -9.231 -20.663  1.00  0.00     0.041 C 
ATOM      4  O   UNL     1       7.093  -9.057 -19.793  1.00  0.00    -0.550 OA
ATOM      5  O   UNL     1       8.415 -10.518 -20.964  1.00  0.00    -0.550 OA
ENDBRANCH   2   3
ENDBRANCH   1   2
BRANCH   1   6
ATOM      6  C   UNL     1       8.038  -5.895 -22.509  1.00  0.00     0.000 C 
BRANCH   6   7
ATOM      7  C   UNL     1       7.071  -5.160 -23.449  1.00  0.00    -0.003 C 
ATOM      8  C   UNL     1       5.707  -5.842 -23.546  1.00  0.00     0.004 C 
ENDBRANCH   6   7
ENDBRANCH   1   6
TORSDOF 4
ENDMDL
MODEL 6
REMARK VINA RESULT:    -2.448     20.228     20.990
REMARK INTER + INTRA:          -3.064
REMARK INTER:                  -3.010
REMARK INTRA:                  -0.054
REMARK UNBOUND:                -0.043
REMARK SMILES CCCCCC(=O)[O-]
REMARK SMILES IDX 4 1 5 2 6 3 7 4 8 5 3 6 2 7 1 8
REMARK H PARENT
REMARK Flexibility Score: inf
ROOT
ATOM      1  C   UNL     1       0.252 -16.217 -24.939  1.00  0.00     0.006 C 
ENDROOT
BRANCH   1   2
ATOM      2  C   UNL     1       0.709 -17.667 -25.123  1.00  0.00     0.053 C 
BRANCH   2   3
ATOM      3  C   UNL     1       1.999 -17.905 -24.405  1.00  0.00     0.041 C 
ATOM      4  O   UNL     1       2.049 -18.719 -23.446  1.00  0.00    -0.550 OA
ATOM      5  O   UNL     1       3.136 -17.192 -24.763  1.00  0.00    -0.550 OA
ENDBRANCH   2   3
ENDBRANCH   1   2
BRANCH   1   6
ATOM      6  C   UNL     1      -1.267 -16.092 -25.121  1.00  0.00     0.000 C 
BRANCH   6   7
ATOM      7  C   UNL     1      -1.748 -14.633 -25.097  1.00  0.00    -0.003 C 
ATOM      8  C   UNL     1      -1.998 -14.115 -23.681  1.00  0.00     0.004 C 
ENDBRANCH   6   7
ENDBRANCH   1   6
TORSDOF 4
ENDMDL
MODEL 7
REMARK VINA RESULT:    -2.415      2.514      4.497
REMARK INTER + INTRA:          -3.023
REMARK INTER:                  -2.815
REMARK INTRA:                  -0.208
REMARK UNBOUND:                -0.043
REMARK SMILES CCCCCC(=O)[O-]
REMARK SMILES IDX 4 1 5 2 6 3 7 4 8 5 3 6 2 7 1 8
REMARK H PARENT
REMARK Flexibility Score: inf
ROOT
ATOM      1  C   UNL     1      -4.024 -11.496  -5.262  1.00  0.00     0.006 C 
ENDROOT
BRANCH   1   2
ATOM      2  C   UNL     1      -3.939 -10.017  -4.875  1.00  0.00     0.053 C 
BRANCH   2   3
ATOM      3  C   UNL     1      -3.605  -9.181  -6.070  1.00  0.00     0.041 C 
ATOM      4  O   UNL     1      -2.815  -8.207  -5.960  1.00  0.00    -0.550 OA
ATOM      5  O   UNL     1      -4.205  -9.448  -7.294  1.00  0.00    -0.550 OA
ENDBRANCH   2   3
ENDBRANCH   1   2
BRANCH   1   6
ATOM      6  C   UNL     1      -5.407 -12.073  -4.926  1.00  0.00     0.000 C 
BRANCH   6   7
ATOM      7  C   UNL     1      -6.247 -12.362  -6.180  1.00  0.00    -0.003 C 
ATOM      8  C   UNL     1      -5.391 -12.700  -7.400  1.00  0.00     0.004 C 
ENDBRANCH   6   7
ENDBRANCH   1   6
TORSDOF 4
ENDMDL
MODEL 8
REMARK VINA RESULT:    -2.184     20.165     21.207
REMARK INTER + INTRA:          -2.739
REMARK INTER:                  -2.763
REMARK INTRA:                   0.024
REMARK UNBOUND:                -0.043
REMARK SMILES CCCCCC(=O)[O-]
REMARK SMILES IDX 4 1 5 2 6 3 7 4 8 5 3 6 2 7 1 8
REMARK H PARENT
REMARK Flexibility Score: inf
ROOT
ATOM      1  C   UNL     1       7.468  -8.314 -21.809  1.00  0.00     0.006 C 
ENDROOT
BRANCH   1   2
ATOM      2  C   UNL     1       7.203  -6.942 -22.435  1.00  0.00     0.053 C 
BRANCH   2   3
ATOM      3  C   UNL     1       8.399  -6.476 -23.204  1.00  0.00     0.041 C 
ATOM      4  O   UNL     1       9.123  -5.552 -22.749  1.00  0.00    -0.550 OA
ATOM      5  O   UNL     1       8.686  -7.029 -24.445  1.00  0.00    -0.550 OA
ENDBRANCH   2   3
ENDBRANCH   1   2
BRANCH   1   6
ATOM      6  C   UNL     1       8.935  -8.445 -21.373  1.00  0.00     0.000 C 
BRANCH   6   7
ATOM      7  C   UNL     1       9.125  -9.459 -20.234  1.00  0.00    -0.003 C 
ATOM      8  C   UNL     1       7.821  -9.774 -19.500  1.00  0.00     0.004 C 
ENDBRANCH   6   7
ENDBRANCH   1   6
TORSDOF 4
ENDMDL
