MODEL 1
REMARK VINA RESULT:    -4.766      0.000      0.000
REMARK INTER + INTRA:          -6.046
REMARK INTER:                  -5.880
REMARK INTRA:                  -0.166
REMARK UNBOUND:                -0.166
REMARK SMILES C=CC[C@@H](C)C(=O)CC
REMARK SMILES IDX 4 1 5 2 6 3 7 4 8 5 9 6 3 7 2 8 1 9
REMARK H PARENT
REMARK Flexibility Score: inf
ROOT
ATOM      1  C   UNL     1      97.381 130.171  45.076  1.00  0.00     0.057 C 
ATOM      2  C   UNL     1      98.510 130.292  44.044  1.00  0.00     0.016 C 
ENDROOT
BRANCH   1   3
ATOM      3  C   UNL     1      96.296 129.256  44.551  1.00  0.00     0.135 C 
ATOM      4  O   UNL     1      95.354 128.957  45.272  1.00  0.00    -0.299 OA
BRANCH   3   5
ATOM      5  C   UNL     1      96.354 128.699  43.152  1.00  0.00     0.072 C 
ATOM      6  C   UNL     1      95.006 128.111  42.749  1.00  0.00     0.012 C 
ENDBRANCH   3   5
ENDBRANCH   1   3
BRANCH   1   7
ATOM      7  C   UNL     1      97.899 129.647  46.432  1.00  0.00     0.038 C 
BRANCH   7   8
ATOM      8  C   UNL     1      98.287 128.192  46.375  1.00  0.00    -0.034 C 
ATOM      9  C   UNL     1      97.780 127.295  47.225  1.00  0.00     0.004 C 
ENDBRANCH   7   8
ENDBRANCH   1   7
TORSDOF 4
ENDMDL
MODEL 2
REMARK VINA RESULT:    -4.718      1.001      3.709
REMARK INTER + INTRA:          -5.988
REMARK INTER:                  -5.857
REMARK INTRA:                  -0.130
REMARK UNBOUND:                -0.166
REMARK SMILES C=CC[C@@H](C)C(=O)CC
REMARK SMILES IDX 4 1 5 2 6 3 7 4 8 5 9 6 3 7 2 8 1 9
REMARK H PARENT
REMARK Flexibility Score: inf
ROOT
ATOM      1  C   UNL     1      97.358 129.076  44.571  1.00  0.00     0.057 C 
ATOM      2  C   UNL     1      98.152 130.375  44.375  1.00  0.00     0.016 C 
ENDROOT
BRANCH   1   3
ATOM      3  C   UNL     1      97.234 128.764  46.047  1.00  0.00     0.135 C 
ATOM      4  O   UNL     1      96.438 129.391  46.733  1.00  0.00    -0.299 OA
BRANCH   3   5
ATOM      5  C   UNL     1      98.076 127.696  46.693  1.00  0.00     0.072 C 
ATOM      6  C   UNL     1      97.388 127.142  47.935  1.00  0.00     0.012 C 
ENDBRANCH   3   5
ENDBRANCH   1   3
BRANCH   1   7
ATOM      7  C   UNL     1      95.956 129.162  43.933  1.00  0.00     0.038 C 
BRANCH   7   8
ATOM      8  C   UNL     1      95.725 128.084  42.906  1.00  0.00    -0.034 C 
ATOM      9  C   UNL     1      94.633 128.067  42.137  1.00  0.00     0.004 C 
ENDBRANCH   7   8
ENDBRANCH   1   7
TORSDOF 4
ENDMDL
MODEL 3
REMARK VINA RESULT:    -4.579      8.912     10.175
REMARK INTER + INTRA:          -5.815
REMARK INTER:                  -5.363
REMARK INTRA:                  -0.452
REMARK UNBOUND:                -0.166
REMARK SMILES C=CC[C@@H](C)C(=O)CC
REMARK SMILES IDX 4 1 5 2 6 3 7 4 8 5 9 6 3 7 2 8 1 9
REMARK H PARENT
REMARK Flexibility Score: inf
ROOT
ATOM      1  C   UNL     1     102.634 134.865  51.528  1.00  0.00     0.057 C 
ATOM      2  C   UNL     1     102.767 135.503  52.917  1.00  0.00     0.016 C 
ENDROOT
BRANCH   1   3
ATOM      3  C   UNL     1     102.600 135.943  50.466  1.00  0.00     0.135 C 
ATOM      4  O   UNL     1     103.627 136.545  50.182  1.00  0.00    -0.299 OA
BRANCH   3   5
ATOM      5  C   UNL     1     101.323 136.294  49.750  1.00  0.00     0.072 C 
ATOM      6  C   UNL     1     100.362 135.111  49.746  1.00  0.00     0.012 C 
ENDBRANCH   3   5
ENDBRANCH   1   3
BRANCH   1   7
ATOM      7  C   UNL     1     103.786 133.880  51.239  1.00  0.00     0.038 C 
BRANCH   7   8
ATOM      8  C   UNL     1     103.507 133.003  50.046  1.00  0.00    -0.034 C 
ATOM      9  C   UNL     1     102.816 131.865  50.156  1.00  0.00     0.004 C 
ENDBRANCH   7   8
ENDBRANCH   1   7
TORSDOF 4
ENDMDL
MODEL 4
REMARK VINA RESULT:    -4.524      8.609      9.544
REMARK INTER + INTRA:          -5.748
REMARK INTER:                  -5.295
REMARK INTRA:                  -0.453
REMARK UNBOUND:                -0.166
REMARK SMILES C=CC[C@@H](C)C(=O)CC
REMARK SMILES IDX 4 1 5 2 6 3 7 4 8 5 9 6 3 7 2 8 1 9
REMARK H PARENT
REMARK Flexibility Score: inf
ROOT
ATOM      1  C   UNL     1     101.466 134.838  50.325  1.00  0.00     0.057 C 
ATOM      2  C   UNL     1     101.310 136.257  49.761  1.00  0.00     0.016 C 
ENDROOT
BRANCH   1   3
ATOM      3  C   UNL     1     102.891 134.619  50.787  1.00  0.00     0.135 C 
ATOM      4  O   UNL     1     103.610 135.583  51.009  1.00  0.00    -0.299 OA
BRANCH   3   5
ATOM      5  C   UNL     1     103.447 133.232  50.975  1.00  0.00     0.072 C 
ATOM      6  C   UNL     1     103.141 132.358  49.764  1.00  0.00     0.012 C 
ENDBRANCH   3   5
ENDBRANCH   1   3
BRANCH   1   7
ATOM      7  C   UNL     1     100.491 134.576  51.492  1.00  0.00     0.038 C 
BRANCH   7   8
ATOM      8  C   UNL     1      99.527 133.457  51.196  1.00  0.00    -0.034 C 
ATOM      9  C   UNL     1      99.768 132.201  51.582  1.00  0.00     0.004 C 
ENDBRANCH   7   8
ENDBRANCH   1   7
TORSDOF 4
ENDMDL
MODEL 5
REMARK VINA RESULT:    -4.501      8.576      9.628
REMARK INTER + INTRA:          -5.719
REMARK INTER:                  -5.244
REMARK INTRA:                  -0.476
REMARK UNBOUND:                -0.166
REMARK SMILES C=CC[C@@H](C)C(=O)CC
REMARK SMILES IDX 4 1 5 2 6 3 7 4 8 5 9 6 3 7 2 8 1 9
REMARK H PARENT
REMARK Flexibility Score: inf
ROOT
ATOM      1  C   UNL     1     102.309 133.541  50.470  1.00  0.00     0.057 C 
ATOM      2  C   UNL     1     103.212 132.517  49.769  1.00  0.00     0.016 C 
ENDROOT
BRANCH   1   3
ATOM      3  C   UNL     1     101.730 132.941  51.733  1.00  0.00     0.135 C 
ATOM      4  O   UNL     1     102.441 132.808  52.720  1.00  0.00    -0.299 OA
BRANCH   3   5
ATOM      5  C   UNL     1     100.292 132.498  51.800  1.00  0.00     0.072 C 
ATOM      6  C   UNL     1      99.382 133.510  51.115  1.00  0.00     0.012 C 
ENDBRANCH   3   5
ENDBRANCH   1   3
BRANCH   1   7
ATOM      7  C   UNL     1     103.071 134.839  50.807  1.00  0.00     0.038 C 
BRANCH   7   8
ATOM      8  C   UNL     1     102.168 136.044  50.842  1.00  0.00    -0.034 C 
ATOM      9  C   UNL     1     101.382 136.365  49.810  1.00  0.00     0.004 C 
ENDBRANCH   7   8
ENDBRANCH   1   7
TORSDOF 4
ENDMDL
MODEL 6
REMARK VINA RESULT:    -4.431      8.286      8.808
REMARK INTER + INTRA:          -5.633
REMARK INTER:                  -5.231
REMARK INTRA:                  -0.402
REMARK UNBOUND:                -0.166
REMARK SMILES C=CC[C@@H](C)C(=O)CC
REMARK SMILES IDX 4 1 5 2 6 3 7 4 8 5 9 6 3 7 2 8 1 9
REMARK H PARENT
REMARK Flexibility Score: inf
ROOT
ATOM      1  C   UNL     1     100.290 132.113  51.608  1.00  0.00     0.057 C 
ATOM      2  C   UNL     1      99.542 131.454  52.775  1.00  0.00     0.016 C 
ENDROOT
BRANCH   1   3
ATOM      3  C   UNL     1      99.993 133.597  51.575  1.00  0.00     0.135 C 
ATOM      4  O   UNL     1     100.160 134.270  52.583  1.00  0.00    -0.299 OA
BRANCH   3   5
ATOM      5  C   UNL     1      99.490 134.265  50.323  1.00  0.00     0.072 C 
ATOM      6  C   UNL     1     100.557 135.179  49.732  1.00  0.00     0.012 C 
ENDBRANCH   3   5
ENDBRANCH   1   3
BRANCH   1   7
ATOM      7  C   UNL     1     101.813 131.884  51.703  1.00  0.00     0.038 C 
BRANCH   7   8
ATOM      8  C   UNL     1     102.438 131.610  50.360  1.00  0.00    -0.034 C 
ATOM      9  C   UNL     1     103.249 132.492  49.769  1.00  0.00     0.004 C 
ENDBRANCH   7   8
ENDBRANCH   1   7
TORSDOF 4
ENDMDL
MODEL 7
REMARK VINA RESULT:    -4.415      8.487      9.636
REMARK INTER + INTRA:          -5.613
REMARK INTER:                  -5.186
REMARK INTRA:                  -0.427
REMARK UNBOUND:                -0.166
REMARK SMILES C=CC[C@@H](C)C(=O)CC
REMARK SMILES IDX 4 1 5 2 6 3 7 4 8 5 9 6 3 7 2 8 1 9
REMARK H PARENT
REMARK Flexibility Score: inf
ROOT
ATOM      1  C   UNL     1     100.848 133.998  51.038  1.00  0.00     0.057 C 
ATOM      2  C   UNL     1      99.448 133.551  51.480  1.00  0.00     0.016 C 
ENDROOT
BRANCH   1   3
ATOM      3  C   UNL     1     101.732 132.789  50.820  1.00  0.00     0.135 C 
ATOM      4  O   UNL     1     101.306 131.673  51.083  1.00  0.00    -0.299 OA
BRANCH   3   5
ATOM      5  C   UNL     1     103.134 132.932  50.287  1.00  0.00     0.072 C 
ATOM      6  C   UNL     1     104.052 133.541  51.340  1.00  0.00     0.012 C 
ENDBRANCH   3   5
ENDBRANCH   1   3
BRANCH   1   7
ATOM      7  C   UNL     1     100.797 134.849  49.752  1.00  0.00     0.038 C 
BRANCH   7   8
ATOM      8  C   UNL     1     101.305 136.250  49.969  1.00  0.00    -0.034 C 
ATOM      9  C   UNL     1     102.571 136.588  49.705  1.00  0.00     0.004 C 
ENDBRANCH   7   8
ENDBRANCH   1   7
TORSDOF 4
ENDMDL
MODEL 8
REMARK VINA RESULT:    -4.281      8.643      9.540
REMARK INTER + INTRA:          -5.448
REMARK INTER:                  -5.051
REMARK INTRA:                  -0.397
REMARK UNBOUND:                -0.166
REMARK SMILES C=CC[C@@H](C)C(=O)CC
REMARK SMILES IDX 4 1 5 2 6 3 7 4 8 5 9 6 3 7 2 8 1 9
REMARK H PARENT
REMARK Flexibility Score: inf
ROOT
ATOM      1  C   UNL     1     101.109 132.327  51.582  1.00  0.00     0.057 C 
ATOM      2  C   UNL     1      99.722 132.968  51.432  1.00  0.00     0.016 C 
ENDROOT
BRANCH   1   3
ATOM      3  C   UNL     1     102.169 133.404  51.665  1.00  0.00     0.135 C 
ATOM      4  O   UNL     1     102.012 134.351  52.424  1.00  0.00    -0.299 OA
BRANCH   3   5
ATOM      5  C   UNL     1     103.418 133.337  50.825  1.00  0.00     0.072 C 
ATOM      6  C   UNL     1     103.245 132.349  49.678  1.00  0.00     0.012 C 
ENDBRANCH   3   5
ENDBRANCH   1   3
BRANCH   1   7
ATOM      7  C   UNL     1     101.186 131.417  52.825  1.00  0.00     0.038 C 
BRANCH   7   8
ATOM      8  C   UNL     1     102.426 130.561  52.834  1.00  0.00    -0.034 C 
ATOM      9  C   UNL     1     103.259 130.541  53.878  1.00  0.00     0.004 C 
ENDBRANCH   7   8
ENDBRANCH   1   7
TORSDOF 4
ENDMDL
MODEL 9
REMARK VINA RESULT:    -4.247      8.315      9.004
REMARK INTER + INTRA:          -5.406
REMARK INTER:                  -4.903
REMARK INTRA:                  -0.503
REMARK UNBOUND:                -0.166
REMARK SMILES C=CC[C@@H](C)C(=O)CC
REMARK SMILES IDX 4 1 5 2 6 3 7 4 8 5 9 6 3 7 2 8 1 9
REMARK H PARENT
REMARK Flexibility Score: inf
ROOT
ATOM      1  C   UNL     1     102.129 134.002  51.012  1.00  0.00     0.057 C 
ATOM      2  C   UNL     1     102.980 135.257  51.252  1.00  0.00     0.016 C 
ENDROOT
BRANCH   1   3
ATOM      3  C   UNL     1     100.798 134.390  50.405  1.00  0.00     0.135 C 
ATOM      4  O   UNL     1     100.764 135.190  49.480  1.00  0.00    -0.299 OA
BRANCH   3   5
ATOM      5  C   UNL     1      99.506 133.811  50.921  1.00  0.00     0.072 C 
ATOM      6  C   UNL     1      99.560 133.632  52.433  1.00  0.00     0.012 C 
ENDBRANCH   3   5
ENDBRANCH   1   3
BRANCH   1   7
ATOM      7  C   UNL     1     102.849 132.990  50.096  1.00  0.00     0.038 C 
BRANCH   7   8
ATOM      8  C   UNL     1     102.547 131.562  50.469  1.00  0.00    -0.034 C 
ATOM      9  C   UNL     1     102.425 131.179  51.743  1.00  0.00     0.004 C 
ENDBRANCH   7   8
ENDBRANCH   1   7
TORSDOF 4
ENDMDL
