MODEL 1
REMARK VINA RESULT:    -7.123      0.000      0.000
REMARK INTER + INTRA:          -8.768
REMARK INTER:                  -8.580
REMARK INTRA:                  -0.188
REMARK UNBOUND:                -0.188
REMARK SMILES O=c1c(O)c(-c2ccc(O)c(O)c2)oc2cc(O)cc(O)c12
REMARK SMILES IDX 5 1 3 2 2 3 1 4 22 5 20 6 19 7 17 8 16 9 15 10 14 11 6 12
REMARK SMILES IDX 7 13 8 14 9 15 13 16 11 17 10 18 12 20 4 22 21 24 18 26
REMARK H PARENT 10 19 12 21 4 23 21 25 18 27
REMARK Flexibility Score: inf
ROOT
ATOM      1  C   UNL     1      45.942  40.420  53.512  1.00  0.00     0.180 A 
ATOM      2  C   UNL     1      46.157  40.864  52.196  1.00  0.00     0.208 A 
ATOM      3  C   UNL     1      45.119  41.526  51.522  1.00  0.00     0.238 A 
ATOM      4  O   UNL     1      45.298  41.874  50.325  1.00  0.00    -0.285 OA
ATOM      5  C   UNL     1      43.884  41.752  52.178  1.00  0.00     0.111 A 
ATOM      6  C   UNL     1      42.777  42.448  51.605  1.00  0.00     0.134 A 
ATOM      7  C   UNL     1      41.560  42.497  52.296  1.00  0.00     0.093 A 
ATOM      8  C   UNL     1      41.430  41.933  53.564  1.00  0.00     0.123 A 
ATOM      9  C   UNL     1      42.523  41.303  54.160  1.00  0.00     0.094 A 
ATOM     10  C   UNL     1      43.739  41.205  53.480  1.00  0.00     0.146 A 
ATOM     11  O   UNL     1      44.752  40.588  54.076  1.00  0.00    -0.452 OA
ENDROOT
BRANCH   1  12
ATOM     12  C   UNL     1      46.996  39.737  54.295  1.00  0.00     0.025 A 
ATOM     13  C   UNL     1      47.585  40.397  55.384  1.00  0.00     0.016 A 
ATOM     14  C   UNL     1      48.596  39.780  56.125  1.00  0.00     0.051 A 
ATOM     15  C   UNL     1      49.046  38.499  55.777  1.00  0.00     0.157 A 
ATOM     16  C   UNL     1      47.462  38.459  53.937  1.00  0.00     0.062 A 
ATOM     17  C   UNL     1      48.478  37.838  54.675  1.00  0.00     0.158 A 
BRANCH  15  18
ATOM     18  O   UNL     1      50.053  37.884  56.518  1.00  0.00    -0.504 OA
ATOM     19  H   UNL     1      50.720  38.424  57.057  1.00  0.00     0.293 HD
ENDBRANCH  15  18
BRANCH  17  20
ATOM     20  O   UNL     1      48.912  36.569  54.295  1.00  0.00    -0.504 OA
ATOM     21  H   UNL     1      49.881  36.374  54.075  1.00  0.00     0.293 HD
ENDBRANCH  17  20
ENDBRANCH   1  12
BRANCH   2  22
ATOM     22  O   UNL     1      47.376  40.612  51.559  1.00  0.00    -0.502 OA
ATOM     23  H   UNL     1      48.197  40.298  52.061  1.00  0.00     0.293 HD
ENDBRANCH   2  22
BRANCH   6  24
ATOM     24  O   UNL     1      42.829  43.125  50.384  1.00  0.00    -0.507 OA
ATOM     25  H   UNL     1      42.721  42.690  49.479  1.00  0.00     0.293 HD
ENDBRANCH   6  24
BRANCH   8  26
ATOM     26  O   UNL     1      40.208  42.015  54.230  1.00  0.00    -0.508 OA
ATOM     27  H   UNL     1      40.040  42.714  54.945  1.00  0.00     0.293 HD
ENDBRANCH   8  26
TORSDOF 6
ENDMDL
MODEL 2
REMARK VINA RESULT:    -7.078      1.385      6.575
REMARK INTER + INTRA:          -8.714
REMARK INTER:                  -8.559
REMARK INTRA:                  -0.156
REMARK UNBOUND:                -0.188
REMARK SMILES O=c1c(O)c(-c2ccc(O)c(O)c2)oc2cc(O)cc(O)c12
REMARK SMILES IDX 5 1 3 2 2 3 1 4 22 5 20 6 19 7 17 8 16 9 15 10 14 11 6 12
REMARK SMILES IDX 7 13 8 14 9 15 13 16 11 17 10 18 12 20 4 22 21 24 18 26
REMARK H PARENT 10 19 12 21 4 23 21 25 18 27
REMARK Flexibility Score: inf
ROOT
ATOM      1  C   UNL     1      45.186  40.672  53.248  1.00  0.00     0.180 A 
ATOM      2  C   UNL     1      45.854  40.730  52.012  1.00  0.00     0.208 A 
ATOM      3  C   UNL     1      47.165  40.235  51.923  1.00  0.00     0.238 A 
ATOM      4  O   UNL     1      47.778  40.338  50.828  1.00  0.00    -0.285 OA
ATOM      5  C   UNL     1      47.785  39.672  53.064  1.00  0.00     0.111 A 
ATOM      6  C   UNL     1      49.095  39.104  53.079  1.00  0.00     0.134 A 
ATOM      7  C   UNL     1      49.657  38.696  54.295  1.00  0.00     0.093 A 
ATOM      8  C   UNL     1      48.935  38.775  55.484  1.00  0.00     0.123 A 
ATOM      9  C   UNL     1      47.632  39.273  55.473  1.00  0.00     0.094 A 
ATOM     10  C   UNL     1      47.057  39.722  54.282  1.00  0.00     0.146 A 
ATOM     11  O   UNL     1      45.819  40.200  54.315  1.00  0.00    -0.452 OA
ENDROOT
BRANCH   1  12
ATOM     12  C   UNL     1      43.795  41.151  53.414  1.00  0.00     0.025 A 
ATOM     13  C   UNL     1      43.521  42.165  54.345  1.00  0.00     0.016 A 
ATOM     14  C   UNL     1      42.213  42.619  54.533  1.00  0.00     0.051 A 
ATOM     15  C   UNL     1      41.157  42.054  53.806  1.00  0.00     0.157 A 
ATOM     16  C   UNL     1      42.731  40.573  52.700  1.00  0.00     0.062 A 
ATOM     17  C   UNL     1      41.418  41.022  52.888  1.00  0.00     0.158 A 
BRANCH  15  18
ATOM     18  O   UNL     1      39.854  42.509  53.994  1.00  0.00    -0.504 OA
ATOM     19  H   UNL     1      39.587  43.028  54.823  1.00  0.00     0.293 HD
ENDBRANCH  15  18
BRANCH  17  20
ATOM     20  O   UNL     1      40.389  40.430  52.159  1.00  0.00    -0.504 OA
ATOM     21  H   UNL     1      40.211  40.664  51.190  1.00  0.00     0.293 HD
ENDBRANCH  17  20
ENDBRANCH   1  12
BRANCH   2  22
ATOM     22  O   UNL     1      45.232  41.308  50.902  1.00  0.00    -0.502 OA
ATOM     23  H   UNL     1      44.439  40.881  50.439  1.00  0.00     0.293 HD
ENDBRANCH   2  22
BRANCH   6  24
ATOM     24  O   UNL     1      49.867  38.894  51.933  1.00  0.00    -0.507 OA
ATOM     25  H   UNL     1      50.520  39.561  51.549  1.00  0.00     0.293 HD
ENDBRANCH   6  24
BRANCH   8  26
ATOM     26  O   UNL     1      49.521  38.345  56.673  1.00  0.00    -0.508 OA
ATOM     27  H   UNL     1      50.330  37.735  56.676  1.00  0.00     0.293 HD
ENDBRANCH   8  26
TORSDOF 6
ENDMDL
MODEL 3
REMARK VINA RESULT:    -6.238      2.129      6.717
REMARK INTER + INTRA:          -7.702
REMARK INTER:                  -7.593
REMARK INTRA:                  -0.108
REMARK UNBOUND:                -0.188
REMARK SMILES O=c1c(O)c(-c2ccc(O)c(O)c2)oc2cc(O)cc(O)c12
REMARK SMILES IDX 5 1 3 2 2 3 1 4 22 5 20 6 19 7 17 8 16 9 15 10 14 11 6 12
REMARK SMILES IDX 7 13 8 14 9 15 13 16 11 17 10 18 12 20 4 22 21 24 18 26
REMARK H PARENT 10 19 12 21 4 23 21 25 18 27
REMARK Flexibility Score: inf
ROOT
ATOM      1  C   UNL     1      45.155  40.861  52.858  1.00  0.00     0.180 A 
ATOM      2  C   UNL     1      45.963  40.151  53.763  1.00  0.00     0.208 A 
ATOM      3  C   UNL     1      47.277  39.823  53.392  1.00  0.00     0.238 A 
ATOM      4  O   UNL     1      47.978  39.141  54.184  1.00  0.00    -0.285 OA
ATOM      5  C   UNL     1      47.773  40.224  52.127  1.00  0.00     0.111 A 
ATOM      6  C   UNL     1      49.100  39.981  51.663  1.00  0.00     0.134 A 
ATOM      7  C   UNL     1      49.440  40.306  50.344  1.00  0.00     0.093 A 
ATOM      8  C   UNL     1      48.523  40.923  49.495  1.00  0.00     0.123 A 
ATOM      9  C   UNL     1      47.240  41.220  49.958  1.00  0.00     0.094 A 
ATOM     10  C   UNL     1      46.859  40.874  51.256  1.00  0.00     0.146 A 
ATOM     11  O   UNL     1      45.627  41.164  51.655  1.00  0.00    -0.452 OA
ENDROOT
BRANCH   1  12
ATOM     12  C   UNL     1      43.769  41.263  53.188  1.00  0.00     0.025 A 
ATOM     13  C   UNL     1      43.536  42.088  54.299  1.00  0.00     0.016 A 
ATOM     14  C   UNL     1      42.234  42.464  54.641  1.00  0.00     0.051 A 
ATOM     15  C   UNL     1      41.145  42.007  53.887  1.00  0.00     0.157 A 
ATOM     16  C   UNL     1      42.673  40.791  52.444  1.00  0.00     0.062 A 
ATOM     17  C   UNL     1      41.367  41.162  52.786  1.00  0.00     0.158 A 
BRANCH  15  18
ATOM     18  O   UNL     1      39.848  42.385  54.228  1.00  0.00    -0.504 OA
ATOM     19  H   UNL     1      39.040  41.996  53.756  1.00  0.00     0.293 HD
ENDBRANCH  15  18
BRANCH  17  20
ATOM     20  O   UNL     1      40.304  40.680  52.024  1.00  0.00    -0.504 OA
ATOM     21  H   UNL     1      40.315  40.698  51.011  1.00  0.00     0.293 HD
ENDBRANCH  17  20
ENDBRANCH   1  12
BRANCH   2  22
ATOM     22  O   UNL     1      45.448  39.746  54.998  1.00  0.00    -0.502 OA
ATOM     23  H   UNL     1      44.493  39.932  55.276  1.00  0.00     0.293 HD
ENDBRANCH   2  22
BRANCH   6  24
ATOM     24  O   UNL     1      50.121  39.453  52.458  1.00  0.00    -0.507 OA
ATOM     25  H   UNL     1      50.614  38.594  52.266  1.00  0.00     0.293 HD
ENDBRANCH   6  24
BRANCH   8  26
ATOM     26  O   UNL     1      48.901  41.248  48.194  1.00  0.00    -0.508 OA
ATOM     27  H   UNL     1      49.705  41.835  48.006  1.00  0.00     0.293 HD
ENDBRANCH   8  26
TORSDOF 6
ENDMDL
MODEL 4
REMARK VINA RESULT:    -6.086      1.465      3.000
REMARK INTER + INTRA:          -7.519
REMARK INTER:                  -7.184
REMARK INTRA:                  -0.335
REMARK UNBOUND:                -0.188
REMARK SMILES O=c1c(O)c(-c2ccc(O)c(O)c2)oc2cc(O)cc(O)c12
REMARK SMILES IDX 5 1 3 2 2 3 1 4 22 5 20 6 19 7 17 8 16 9 15 10 14 11 6 12
REMARK SMILES IDX 7 13 8 14 9 15 13 16 11 17 10 18 12 20 4 22 21 24 18 26
REMARK H PARENT 10 19 12 21 4 23 21 25 18 27
REMARK Flexibility Score: inf
ROOT
ATOM      1  C   UNL     1      45.122  41.233  54.006  1.00  0.00     0.180 A 
ATOM      2  C   UNL     1      44.040  41.481  54.869  1.00  0.00     0.208 A 
ATOM      3  C   UNL     1      42.843  41.984  54.333  1.00  0.00     0.238 A 
ATOM      4  O   UNL     1      41.896  42.256  55.117  1.00  0.00    -0.285 OA
ATOM      5  C   UNL     1      42.737  42.216  52.941  1.00  0.00     0.111 A 
ATOM      6  C   UNL     1      41.560  42.686  52.284  1.00  0.00     0.134 A 
ATOM      7  C   UNL     1      41.611  43.005  50.921  1.00  0.00     0.093 A 
ATOM      8  C   UNL     1      42.774  42.810  50.179  1.00  0.00     0.123 A 
ATOM      9  C   UNL     1      43.913  42.294  50.797  1.00  0.00     0.094 A 
ATOM     10  C   UNL     1      43.906  42.002  52.163  1.00  0.00     0.146 A 
ATOM     11  O   UNL     1      45.013  41.523  52.716  1.00  0.00    -0.452 OA
ENDROOT
BRANCH   1  12
ATOM     12  C   UNL     1      46.406  40.679  54.493  1.00  0.00     0.025 A 
ATOM     13  C   UNL     1      47.447  41.554  54.840  1.00  0.00     0.016 A 
ATOM     14  C   UNL     1      48.674  41.053  55.283  1.00  0.00     0.051 A 
ATOM     15  C   UNL     1      48.885  39.671  55.368  1.00  0.00     0.157 A 
ATOM     16  C   UNL     1      46.626  39.292  54.562  1.00  0.00     0.062 A 
ATOM     17  C   UNL     1      47.856  38.787  55.002  1.00  0.00     0.158 A 
BRANCH  15  18
ATOM     18  O   UNL     1      50.108  39.174  55.812  1.00  0.00    -0.504 OA
ATOM     19  H   UNL     1      50.243  38.872  56.770  1.00  0.00     0.293 HD
ENDBRANCH  15  18
BRANCH  17  20
ATOM     20  O   UNL     1      48.038  37.406  55.063  1.00  0.00    -0.504 OA
ATOM     21  H   UNL     1      48.937  36.990  55.270  1.00  0.00     0.293 HD
ENDBRANCH  17  20
ENDBRANCH   1  12
BRANCH   2  22
ATOM     22  O   UNL     1      44.172  41.265  56.244  1.00  0.00    -0.502 OA
ATOM     23  H   UNL     1      44.918  41.677  56.790  1.00  0.00     0.293 HD
ENDBRANCH   2  22
BRANCH   6  24
ATOM     24  O   UNL     1      40.321  42.830  52.913  1.00  0.00    -0.507 OA
ATOM     25  H   UNL     1      40.177  43.273  53.808  1.00  0.00     0.293 HD
ENDBRANCH   6  24
BRANCH   8  26
ATOM     26  O   UNL     1      42.783  43.123  48.821  1.00  0.00    -0.508 OA
ATOM     27  H   UNL     1      43.359  43.871  48.453  1.00  0.00     0.293 HD
ENDBRANCH   8  26
TORSDOF 6
ENDMDL
MODEL 5
REMARK VINA RESULT:    -6.075      1.725      3.088
REMARK INTER + INTRA:          -7.506
REMARK INTER:                  -7.438
REMARK INTRA:                  -0.067
REMARK UNBOUND:                -0.188
REMARK SMILES O=c1c(O)c(-c2ccc(O)c(O)c2)oc2cc(O)cc(O)c12
REMARK SMILES IDX 5 1 3 2 2 3 1 4 22 5 20 6 19 7 17 8 16 9 15 10 14 11 6 12
REMARK SMILES IDX 7 13 8 14 9 15 13 16 11 17 10 18 12 20 4 22 21 24 18 26
REMARK H PARENT 10 19 12 21 4 23 21 25 18 27
REMARK Flexibility Score: inf
ROOT
ATOM      1  C   UNL     1      44.811  40.586  53.398  1.00  0.00     0.180 A 
ATOM      2  C   UNL     1      44.197  41.145  54.533  1.00  0.00     0.208 A 
ATOM      3  C   UNL     1      42.896  41.660  54.419  1.00  0.00     0.238 A 
ATOM      4  O   UNL     1      42.371  42.208  55.423  1.00  0.00    -0.285 OA
ATOM      5  C   UNL     1      42.219  41.595  53.177  1.00  0.00     0.111 A 
ATOM      6  C   UNL     1      40.883  42.050  52.957  1.00  0.00     0.134 A 
ATOM      7  C   UNL     1      40.362  42.056  51.657  1.00  0.00     0.093 A 
ATOM      8  C   UNL     1      41.101  41.565  50.582  1.00  0.00     0.123 A 
ATOM      9  C   UNL     1      42.386  41.062  50.796  1.00  0.00     0.094 A 
ATOM     10  C   UNL     1      42.947  41.077  52.074  1.00  0.00     0.146 A 
ATOM     11  O   UNL     1      44.176  40.600  52.233  1.00  0.00    -0.452 OA
ENDROOT
BRANCH   1  12
ATOM     12  C   UNL     1      46.170  40.001  53.447  1.00  0.00     0.025 A 
ATOM     13  C   UNL     1      47.130  40.403  52.505  1.00  0.00     0.016 A 
ATOM     14  C   UNL     1      48.412  39.850  52.519  1.00  0.00     0.051 A 
ATOM     15  C   UNL     1      48.750  38.872  53.464  1.00  0.00     0.157 A 
ATOM     16  C   UNL     1      46.506  39.006  54.383  1.00  0.00     0.062 A 
ATOM     17  C   UNL     1      47.790  38.446  54.398  1.00  0.00     0.158 A 
BRANCH  15  18
ATOM     18  O   UNL     1      50.030  38.323  53.478  1.00  0.00    -0.504 OA
ATOM     19  H   UNL     1      50.743  38.653  54.120  1.00  0.00     0.293 HD
ENDBRANCH  15  18
BRANCH  17  20
ATOM     20  O   UNL     1      48.090  37.466  55.343  1.00  0.00    -0.504 OA
ATOM     21  H   UNL     1      47.912  36.484  55.176  1.00  0.00     0.293 HD
ENDBRANCH  17  20
ENDBRANCH   1  12
BRANCH   2  22
ATOM     22  O   UNL     1      44.891  41.219  55.744  1.00  0.00    -0.502 OA
ATOM     23  H   UNL     1      45.370  40.423  56.146  1.00  0.00     0.293 HD
ENDBRANCH   2  22
BRANCH   6  24
ATOM     24  O   UNL     1      40.026  42.475  53.975  1.00  0.00    -0.507 OA
ATOM     25  H   UNL     1      40.207  42.367  54.962  1.00  0.00     0.293 HD
ENDBRANCH   6  24
BRANCH   8  26
ATOM     26  O   UNL     1      40.545  41.571  49.305  1.00  0.00    -0.508 OA
ATOM     27  H   UNL     1      39.547  41.677  49.162  1.00  0.00     0.293 HD
ENDBRANCH   8  26
TORSDOF 6
ENDMDL
MODEL 6
REMARK VINA RESULT:    -6.047      1.590      6.996
REMARK INTER + INTRA:          -7.471
REMARK INTER:                  -7.204
REMARK INTRA:                  -0.267
REMARK UNBOUND:                -0.188
REMARK SMILES O=c1c(O)c(-c2ccc(O)c(O)c2)oc2cc(O)cc(O)c12
REMARK SMILES IDX 5 1 3 2 2 3 1 4 22 5 20 6 19 7 17 8 16 9 15 10 14 11 6 12
REMARK SMILES IDX 7 13 8 14 9 15 13 16 11 17 10 18 12 20 4 22 21 24 18 26
REMARK H PARENT 10 19 12 21 4 23 21 25 18 27
REMARK Flexibility Score: inf
ROOT
ATOM      1  C   UNL     1      45.434  40.782  53.802  1.00  0.00     0.180 A 
ATOM      2  C   UNL     1      46.143  41.800  54.464  1.00  0.00     0.208 A 
ATOM      3  C   UNL     1      47.386  41.498  55.042  1.00  0.00     0.238 A 
ATOM      4  O   UNL     1      47.991  42.399  55.680  1.00  0.00    -0.285 OA
ATOM      5  C   UNL     1      47.913  40.188  54.937  1.00  0.00     0.111 A 
ATOM      6  C   UNL     1      49.181  39.781  55.451  1.00  0.00     0.134 A 
ATOM      7  C   UNL     1      49.542  38.428  55.405  1.00  0.00     0.093 A 
ATOM      8  C   UNL     1      48.712  37.481  54.808  1.00  0.00     0.123 A 
ATOM      9  C   UNL     1      47.496  37.878  54.249  1.00  0.00     0.094 A 
ATOM     10  C   UNL     1      47.092  39.213  54.312  1.00  0.00     0.146 A 
ATOM     11  O   UNL     1      45.923  39.548  53.778  1.00  0.00    -0.452 OA
ENDROOT
BRANCH   1  12
ATOM     12  C   UNL     1      44.129  41.029  53.146  1.00  0.00     0.025 A 
ATOM     13  C   UNL     1      42.961  40.491  53.707  1.00  0.00     0.016 A 
ATOM     14  C   UNL     1      41.722  40.694  53.095  1.00  0.00     0.051 A 
ATOM     15  C   UNL     1      41.634  41.424  51.902  1.00  0.00     0.157 A 
ATOM     16  C   UNL     1      44.041  41.745  51.939  1.00  0.00     0.062 A 
ATOM     17  C   UNL     1      42.801  41.948  51.320  1.00  0.00     0.158 A 
BRANCH  15  18
ATOM     18  O   UNL     1      40.397  41.628  51.294  1.00  0.00    -0.504 OA
ATOM     19  H   UNL     1      39.533  41.347  51.743  1.00  0.00     0.293 HD
ENDBRANCH  15  18
BRANCH  17  20
ATOM     20  O   UNL     1      42.749  42.668  50.127  1.00  0.00    -0.504 OA
ATOM     21  H   UNL     1      42.804  43.679  50.105  1.00  0.00     0.293 HD
ENDBRANCH  17  20
ENDBRANCH   1  12
BRANCH   2  22
ATOM     22  O   UNL     1      45.595  43.081  54.574  1.00  0.00    -0.502 OA
ATOM     23  H   UNL     1      44.596  43.245  54.602  1.00  0.00     0.293 HD
ENDBRANCH   2  22
BRANCH   6  24
ATOM     24  O   UNL     1      50.125  40.661  55.986  1.00  0.00    -0.507 OA
ATOM     25  H   UNL     1      50.802  40.418  56.694  1.00  0.00     0.293 HD
ENDBRANCH   6  24
BRANCH   8  26
ATOM     26  O   UNL     1      49.111  36.147  54.766  1.00  0.00    -0.508 OA
ATOM     27  H   UNL     1      49.214  35.598  55.611  1.00  0.00     0.293 HD
ENDBRANCH   8  26
TORSDOF 6
ENDMDL
MODEL 7
REMARK VINA RESULT:    -5.894      2.079      6.861
REMARK INTER + INTRA:          -7.287
REMARK INTER:                  -7.238
REMARK INTRA:                  -0.049
REMARK UNBOUND:                -0.188
REMARK SMILES O=c1c(O)c(-c2ccc(O)c(O)c2)oc2cc(O)cc(O)c12
REMARK SMILES IDX 5 1 3 2 2 3 1 4 22 5 20 6 19 7 17 8 16 9 15 10 14 11 6 12
REMARK SMILES IDX 7 13 8 14 9 15 13 16 11 17 10 18 12 20 4 22 21 24 18 26
REMARK H PARENT 10 19 12 21 4 23 21 25 18 27
REMARK Flexibility Score: inf
ROOT
ATOM      1  C   UNL     1      45.124  41.052  53.645  1.00  0.00     0.180 A 
ATOM      2  C   UNL     1      45.835  40.772  54.825  1.00  0.00     0.208 A 
ATOM      3  C   UNL     1      47.187  40.405  54.734  1.00  0.00     0.238 A 
ATOM      4  O   UNL     1      47.805  40.104  55.789  1.00  0.00    -0.285 OA
ATOM      5  C   UNL     1      47.816  40.340  53.467  1.00  0.00     0.111 A 
ATOM      6  C   UNL     1      49.192  40.019  53.260  1.00  0.00     0.134 A 
ATOM      7  C   UNL     1      49.674  39.855  51.956  1.00  0.00     0.093 A 
ATOM      8  C   UNL     1      48.849  40.064  50.852  1.00  0.00     0.123 A 
ATOM      9  C   UNL     1      47.517  40.437  51.041  1.00  0.00     0.094 A 
ATOM     10  C   UNL     1      46.998  40.572  52.330  1.00  0.00     0.146 A 
ATOM     11  O   UNL     1      45.724  40.917  52.468  1.00  0.00    -0.452 OA
ENDROOT
BRANCH   1  12
ATOM     12  C   UNL     1      43.703  41.468  53.662  1.00  0.00     0.025 A 
ATOM     13  C   UNL     1      43.316  42.572  54.437  1.00  0.00     0.016 A 
ATOM     14  C   UNL     1      41.978  42.971  54.484  1.00  0.00     0.051 A 
ATOM     15  C   UNL     1      41.003  42.261  53.771  1.00  0.00     0.157 A 
ATOM     16  C   UNL     1      42.720  40.746  52.962  1.00  0.00     0.062 A 
ATOM     17  C   UNL     1      41.377  41.141  53.009  1.00  0.00     0.158 A 
BRANCH  15  18
ATOM     18  O   UNL     1      39.670  42.661  53.817  1.00  0.00    -0.504 OA
ATOM     19  H   UNL     1      38.932  42.021  54.089  1.00  0.00     0.293 HD
ENDBRANCH  15  18
BRANCH  17  20
ATOM     20  O   UNL     1      40.430  40.405  52.298  1.00  0.00    -0.504 OA
ATOM     21  H   UNL     1      39.586  40.827  51.931  1.00  0.00     0.293 HD
ENDBRANCH  17  20
ENDBRANCH   1  12
BRANCH   2  22
ATOM     22  O   UNL     1      45.190  40.822  56.064  1.00  0.00    -0.502 OA
ATOM     23  H   UNL     1      44.345  41.358  56.216  1.00  0.00     0.293 HD
ENDBRANCH   2  22
BRANCH   6  24
ATOM     24  O   UNL     1      50.124  39.879  54.292  1.00  0.00    -0.507 OA
ATOM     25  H   UNL     1      51.056  39.510  54.179  1.00  0.00     0.293 HD
ENDBRANCH   6  24
BRANCH   8  26
ATOM     26  O   UNL     1      49.366  39.907  49.568  1.00  0.00    -0.508 OA
ATOM     27  H   UNL     1      50.231  39.405  49.402  1.00  0.00     0.293 HD
ENDBRANCH   8  26
TORSDOF 6
ENDMDL
MODEL 8
REMARK VINA RESULT:    -5.724      2.581      4.597
REMARK INTER + INTRA:          -7.083
REMARK INTER:                  -6.827
REMARK INTRA:                  -0.256
REMARK UNBOUND:                -0.188
REMARK SMILES O=c1c(O)c(-c2ccc(O)c(O)c2)oc2cc(O)cc(O)c12
REMARK SMILES IDX 5 1 3 2 2 3 1 4 22 5 20 6 19 7 17 8 16 9 15 10 14 11 6 12
REMARK SMILES IDX 7 13 8 14 9 15 13 16 11 17 10 18 12 20 4 22 21 24 18 26
REMARK H PARENT 10 19 12 21 4 23 21 25 18 27
REMARK Flexibility Score: inf
ROOT
ATOM      1  C   UNL     1      46.457  41.408  51.820  1.00  0.00     0.180 A 
ATOM      2  C   UNL     1      46.844  41.227  53.159  1.00  0.00     0.208 A 
ATOM      3  C   UNL     1      45.867  41.296  54.166  1.00  0.00     0.238 A 
ATOM      4  O   UNL     1      46.227  41.186  55.367  1.00  0.00    -0.285 OA
ATOM      5  C   UNL     1      44.514  41.527  53.820  1.00  0.00     0.111 A 
ATOM      6  C   UNL     1      43.435  41.576  54.753  1.00  0.00     0.134 A 
ATOM      7  C   UNL     1      42.157  41.943  54.313  1.00  0.00     0.093 A 
ATOM      8  C   UNL     1      41.906  42.198  52.966  1.00  0.00     0.123 A 
ATOM      9  C   UNL     1      42.940  42.095  52.035  1.00  0.00     0.094 A 
ATOM     10  C   UNL     1      44.233  41.767  52.449  1.00  0.00     0.146 A 
ATOM     11  O   UNL     1      45.192  41.690  51.534  1.00  0.00    -0.452 OA
ENDROOT
BRANCH   1  12
ATOM     12  C   UNL     1      47.425  41.325  50.703  1.00  0.00     0.025 A 
ATOM     13  C   UNL     1      47.754  42.486  49.986  1.00  0.00     0.016 A 
ATOM     14  C   UNL     1      48.649  42.428  48.915  1.00  0.00     0.051 A 
ATOM     15  C   UNL     1      49.216  41.205  48.534  1.00  0.00     0.157 A 
ATOM     16  C   UNL     1      47.981  40.096  50.306  1.00  0.00     0.062 A 
ATOM     17  C   UNL     1      48.877  40.033  49.230  1.00  0.00     0.158 A 
BRANCH  15  18
ATOM     18  O   UNL     1      50.111  41.150  47.467  1.00  0.00    -0.504 OA
ATOM     19  H   UNL     1      50.135  41.873  46.756  1.00  0.00     0.293 HD
ENDBRANCH  15  18
BRANCH  17  20
ATOM     20  O   UNL     1      49.413  38.799  48.867  1.00  0.00    -0.504 OA
ATOM     21  H   UNL     1      50.106  38.707  48.135  1.00  0.00     0.293 HD
ENDBRANCH  17  20
ENDBRANCH   1  12
BRANCH   2  22
ATOM     22  O   UNL     1      48.189  41.020  53.482  1.00  0.00    -0.502 OA
ATOM     23  H   UNL     1      48.914  41.683  53.238  1.00  0.00     0.293 HD
ENDBRANCH   2  22
BRANCH   6  24
ATOM     24  O   UNL     1      43.559  41.250  56.106  1.00  0.00    -0.507 OA
ATOM     25  H   UNL     1      42.962  41.601  56.840  1.00  0.00     0.293 HD
ENDBRANCH   6  24
BRANCH   8  26
ATOM     26  O   UNL     1      40.618  42.545  52.561  1.00  0.00    -0.508 OA
ATOM     27  H   UNL     1      40.154  43.371  52.920  1.00  0.00     0.293 HD
ENDBRANCH   8  26
TORSDOF 6
ENDMDL
MODEL 9
REMARK VINA RESULT:    -5.506      1.433      6.719
REMARK INTER + INTRA:          -6.820
REMARK INTER:                  -6.703
REMARK INTRA:                  -0.117
REMARK UNBOUND:                -0.188
REMARK SMILES O=c1c(O)c(-c2ccc(O)c(O)c2)oc2cc(O)cc(O)c12
REMARK SMILES IDX 5 1 3 2 2 3 1 4 22 5 20 6 19 7 17 8 16 9 15 10 14 11 6 12
REMARK SMILES IDX 7 13 8 14 9 15 13 16 11 17 10 18 12 20 4 22 21 24 18 26
REMARK H PARENT 10 19 12 21 4 23 21 25 18 27
REMARK Flexibility Score: inf
ROOT
ATOM      1  C   UNL     1      45.309  40.482  52.645  1.00  0.00     0.180 A 
ATOM      2  C   UNL     1      46.095  40.778  51.517  1.00  0.00     0.208 A 
ATOM      3  C   UNL     1      47.411  40.291  51.457  1.00  0.00     0.238 A 
ATOM      4  O   UNL     1      48.127  40.604  50.471  1.00  0.00    -0.285 OA
ATOM      5  C   UNL     1      47.919  39.501  52.517  1.00  0.00     0.111 A 
ATOM      6  C   UNL     1      49.223  38.922  52.543  1.00  0.00     0.134 A 
ATOM      7  C   UNL     1      49.665  38.270  53.701  1.00  0.00     0.093 A 
ATOM      8  C   UNL     1      48.830  38.119  54.806  1.00  0.00     0.123 A 
ATOM      9  C   UNL     1      47.531  38.628  54.768  1.00  0.00     0.094 A 
ATOM     10  C   UNL     1      47.074  39.316  53.643  1.00  0.00     0.146 A 
ATOM     11  O   UNL     1      45.836  39.795  53.651  1.00  0.00    -0.452 OA
ENDROOT
BRANCH   1  12
ATOM     12  C   UNL     1      43.906  40.938  52.768  1.00  0.00     0.025 A 
ATOM     13  C   UNL     1      42.961  40.533  51.813  1.00  0.00     0.016 A 
ATOM     14  C   UNL     1      41.636  40.968  51.898  1.00  0.00     0.051 A 
ATOM     15  C   UNL     1      41.240  41.829  52.931  1.00  0.00     0.157 A 
ATOM     16  C   UNL     1      43.510  41.817  53.792  1.00  0.00     0.062 A 
ATOM     17  C   UNL     1      42.183  42.258  53.879  1.00  0.00     0.158 A 
BRANCH  15  18
ATOM     18  O   UNL     1      39.917  42.260  53.015  1.00  0.00    -0.504 OA
ATOM     19  H   UNL     1      39.157  41.722  52.614  1.00  0.00     0.293 HD
ENDBRANCH  15  18
BRANCH  17  20
ATOM     20  O   UNL     1      41.824  43.124  54.911  1.00  0.00    -0.504 OA
ATOM     21  H   UNL     1      42.251  44.035  55.023  1.00  0.00     0.293 HD
ENDBRANCH  17  20
ENDBRANCH   1  12
BRANCH   2  22
ATOM     22  O   UNL     1      45.581  41.577  50.491  1.00  0.00    -0.502 OA
ATOM     23  H   UNL     1      45.730  41.367  49.512  1.00  0.00     0.293 HD
ENDBRANCH   2  22
BRANCH   6  24
ATOM     24  O   UNL     1      50.105  38.937  51.459  1.00  0.00    -0.507 OA
ATOM     25  H   UNL     1      50.582  38.125  51.094  1.00  0.00     0.293 HD
ENDBRANCH   6  24
BRANCH   8  26
ATOM     26  O   UNL     1      49.298  37.449  55.935  1.00  0.00    -0.508 OA
ATOM     27  H   UNL     1      49.075  36.475  56.104  1.00  0.00     0.293 HD
ENDBRANCH   8  26
TORSDOF 6
ENDMDL
