MODEL 1
REMARK VINA RESULT:    -4.350      0.000      0.000
REMARK INTER + INTRA:          -9.735
REMARK INTER:                  -7.911
REMARK INTRA:                  -1.824
REMARK UNBOUND:                -1.824
REMARK SMILES CCCCCC=CCC=CCCCCCCCC(=O)[O-]
REMARK SMILES IDX 11 1 12 2 13 3 14 4 15 5 16 6 17 7 18 8 19 9 20 10 10 11
REMARK SMILES IDX 9 12 8 13 7 14 6 15 5 16 4 17 3 18 2 19 1 20
REMARK H PARENT
REMARK Flexibility Score: inf
ROOT
ATOM      1  C   UNL     1      14.624 -16.661  -3.581  1.00  0.00     0.027 C 
ENDROOT
BRANCH   1   2
ATOM      2  C   UNL     1      14.415 -17.798  -4.598  1.00  0.00     0.004 C 
BRANCH   2   3
ATOM      3  C   UNL     1      15.510 -18.885  -4.575  1.00  0.00     0.000 C 
BRANCH   3   4
ATOM      4  C   UNL     1      16.600 -18.689  -3.503  1.00  0.00     0.000 C 
BRANCH   4   5
ATOM      5  C   UNL     1      17.777 -19.678  -3.583  1.00  0.00     0.000 C 
BRANCH   5   6
ATOM      6  C   UNL     1      17.778 -20.700  -2.434  1.00  0.00     0.006 C 
BRANCH   6   7
ATOM      7  C   UNL     1      17.783 -22.146  -2.946  1.00  0.00     0.053 C 
BRANCH   7   8
ATOM      8  C   UNL     1      16.826 -23.010  -2.182  1.00  0.00     0.041 C 
ATOM      9  O   UNL     1      17.145 -23.465  -1.051  1.00  0.00    -0.550 OA
ATOM     10  O   UNL     1      15.570 -23.288  -2.705  1.00  0.00    -0.550 OA
ENDBRANCH   7   8
ENDBRANCH   6   7
ENDBRANCH   5   6
ENDBRANCH   4   5
ENDBRANCH   3   4
ENDBRANCH   2   3
ENDBRANCH   1   2
BRANCH   1  11
ATOM     11  C   UNL     1      13.391 -15.820  -3.395  1.00  0.00    -0.031 C 
ATOM     12  C   UNL     1      12.618 -15.464  -4.432  1.00  0.00    -0.027 C 
BRANCH  12  13
ATOM     13  C   UNL     1      11.351 -14.679  -4.239  1.00  0.00     0.054 C 
BRANCH  13  14
ATOM     14  C   UNL     1      10.154 -15.419  -4.780  1.00  0.00    -0.027 C 
ATOM     15  C   UNL     1       9.487 -16.387  -4.122  1.00  0.00    -0.031 C 
BRANCH  15  16
ATOM     16  C   UNL     1       9.871 -16.932  -2.767  1.00  0.00     0.027 C 
BRANCH  16  17
ATOM     17  C   UNL     1      10.151 -18.444  -2.803  1.00  0.00     0.004 C 
BRANCH  17  18
ATOM     18  C   UNL     1      11.336 -18.848  -3.698  1.00  0.00     0.000 C 
BRANCH  18  19
ATOM     19  C   UNL     1      10.894 -19.552  -4.990  1.00  0.00    -0.003 C 
ATOM     20  C   UNL     1      11.270 -18.730  -6.220  1.00  0.00     0.004 C 
ENDBRANCH  18  19
ENDBRANCH  17  18
ENDBRANCH  16  17
ENDBRANCH  15  16
ENDBRANCH  13  14
ENDBRANCH  12  13
ENDBRANCH   1  11
TORSDOF 14
ENDMDL
MODEL 2
REMARK VINA RESULT:    -4.285      3.038      6.682
REMARK INTER + INTRA:          -9.616
REMARK INTER:                  -8.105
REMARK INTRA:                  -1.511
REMARK UNBOUND:                -1.824
REMARK SMILES CCCCCC=CCC=CCCCCCCCC(=O)[O-]
REMARK SMILES IDX 11 1 12 2 13 3 14 4 15 5 16 6 17 7 18 8 19 9 20 10 10 11
REMARK SMILES IDX 9 12 8 13 7 14 6 15 5 16 4 17 3 18 2 19 1 20
REMARK H PARENT
REMARK Flexibility Score: inf
ROOT
ATOM      1  C   UNL     1      11.454 -14.782  -4.331  1.00  0.00     0.027 C 
ENDROOT
BRANCH   1   2
ATOM      2  C   UNL     1      10.588 -15.292  -3.165  1.00  0.00     0.004 C 
BRANCH   2   3
ATOM      3  C   UNL     1       9.748 -16.544  -3.493  1.00  0.00     0.000 C 
BRANCH   3   4
ATOM      4  C   UNL     1       9.830 -17.675  -2.450  1.00  0.00     0.000 C 
BRANCH   4   5
ATOM      5  C   UNL     1      10.544 -18.952  -2.929  1.00  0.00     0.000 C 
BRANCH   5   6
ATOM      6  C   UNL     1      11.455 -18.707  -4.144  1.00  0.00     0.006 C 
BRANCH   6   7
ATOM      7  C   UNL     1      10.997 -19.493  -5.379  1.00  0.00     0.053 C 
BRANCH   7   8
ATOM      8  C   UNL     1      10.607 -18.583  -6.504  1.00  0.00     0.041 C 
ATOM      9  O   UNL     1      10.900 -17.359  -6.460  1.00  0.00    -0.550 OA
ATOM     10  O   UNL     1       9.945 -19.093  -7.613  1.00  0.00    -0.550 OA
ENDBRANCH   7   8
ENDBRANCH   6   7
ENDBRANCH   5   6
ENDBRANCH   4   5
ENDBRANCH   3   4
ENDBRANCH   2   3
ENDBRANCH   1   2
BRANCH   1  11
ATOM     11  C   UNL     1      12.795 -15.462  -4.395  1.00  0.00    -0.031 C 
ATOM     12  C   UNL     1      13.448 -15.834  -3.284  1.00  0.00    -0.027 C 
BRANCH  12  13
ATOM     13  C   UNL     1      14.757 -16.571  -3.349  1.00  0.00     0.054 C 
BRANCH  13  14
ATOM     14  C   UNL     1      14.688 -17.737  -4.303  1.00  0.00    -0.027 C 
ATOM     15  C   UNL     1      15.593 -18.732  -4.367  1.00  0.00    -0.031 C 
BRANCH  15  16
ATOM     16  C   UNL     1      16.855 -18.805  -3.542  1.00  0.00     0.027 C 
BRANCH  16  17
ATOM     17  C   UNL     1      17.435 -20.229  -3.484  1.00  0.00     0.004 C 
BRANCH  17  18
ATOM     18  C   UNL     1      17.650 -20.766  -2.057  1.00  0.00     0.000 C 
BRANCH  18  19
ATOM     19  C   UNL     1      17.296 -22.255  -1.923  1.00  0.00    -0.003 C 
ATOM     20  C   UNL     1      16.251 -22.667  -2.956  1.00  0.00     0.004 C 
ENDBRANCH  18  19
ENDBRANCH  17  18
ENDBRANCH  16  17
ENDBRANCH  15  16
ENDBRANCH  13  14
ENDBRANCH  12  13
ENDBRANCH   1  11
TORSDOF 14
ENDMDL
MODEL 3
REMARK VINA RESULT:    -4.189      0.878      2.005
REMARK INTER + INTRA:          -9.442
REMARK INTER:                  -7.635
REMARK INTRA:                  -1.807
REMARK UNBOUND:                -1.824
REMARK SMILES CCCCCC=CCC=CCCCCCCCC(=O)[O-]
REMARK SMILES IDX 11 1 12 2 13 3 14 4 15 5 16 6 17 7 18 8 19 9 20 10 10 11
REMARK SMILES IDX 9 12 8 13 7 14 6 15 5 16 4 17 3 18 2 19 1 20
REMARK H PARENT
REMARK Flexibility Score: inf
ROOT
ATOM      1  C   UNL     1      15.178 -18.544  -4.608  1.00  0.00     0.027 C 
ENDROOT
BRANCH   1   2
ATOM      2  C   UNL     1      16.358 -18.437  -3.625  1.00  0.00     0.004 C 
BRANCH   2   3
ATOM      3  C   UNL     1      17.428 -19.536  -3.789  1.00  0.00     0.000 C 
BRANCH   3   4
ATOM      4  C   UNL     1      17.760 -20.318  -2.503  1.00  0.00     0.000 C 
BRANCH   4   5
ATOM      5  C   UNL     1      17.848 -21.845  -2.675  1.00  0.00     0.000 C 
BRANCH   5   6
ATOM      6  C   UNL     1      16.549 -22.461  -3.221  1.00  0.00     0.006 C 
BRANCH   6   7
ATOM      7  C   UNL     1      16.343 -23.902  -2.736  1.00  0.00     0.053 C 
BRANCH   7   8
ATOM      8  C   UNL     1      15.843 -23.947  -1.324  1.00  0.00     0.041 C 
ATOM      9  O   UNL     1      16.647 -24.125  -0.371  1.00  0.00    -0.550 OA
ATOM     10  O   UNL     1      14.492 -23.764  -1.059  1.00  0.00    -0.550 OA
ENDBRANCH   7   8
ENDBRANCH   6   7
ENDBRANCH   5   6
ENDBRANCH   4   5
ENDBRANCH   3   4
ENDBRANCH   2   3
ENDBRANCH   1   2
BRANCH   1  11
ATOM     11  C   UNL     1      14.131 -17.489  -4.371  1.00  0.00    -0.031 C 
ATOM     12  C   UNL     1      14.256 -16.582  -3.390  1.00  0.00    -0.027 C 
BRANCH  12  13
ATOM     13  C   UNL     1      13.243 -15.489  -3.194  1.00  0.00     0.054 C 
BRANCH  13  14
ATOM     14  C   UNL     1      12.574 -15.116  -4.493  1.00  0.00    -0.027 C 
ATOM     15  C   UNL     1      11.243 -15.100  -4.695  1.00  0.00    -0.031 C 
BRANCH  15  16
ATOM     16  C   UNL     1      10.210 -15.518  -3.675  1.00  0.00     0.027 C 
BRANCH  16  17
ATOM     17  C   UNL     1       9.780 -16.985  -3.847  1.00  0.00     0.004 C 
BRANCH  17  18
ATOM     18  C   UNL     1      10.543 -17.977  -2.951  1.00  0.00     0.000 C 
BRANCH  18  19
ATOM     19  C   UNL     1      10.989 -19.239  -3.705  1.00  0.00    -0.003 C 
ATOM     20  C   UNL     1      11.066 -18.981  -5.208  1.00  0.00     0.004 C 
ENDBRANCH  18  19
ENDBRANCH  17  18
ENDBRANCH  16  17
ENDBRANCH  15  16
ENDBRANCH  13  14
ENDBRANCH  12  13
ENDBRANCH   1  11
TORSDOF 14
ENDMDL
MODEL 4
REMARK VINA RESULT:    -3.959      3.271      7.737
REMARK INTER + INTRA:          -9.023
REMARK INTER:                  -7.564
REMARK INTRA:                  -1.459
REMARK UNBOUND:                -1.824
REMARK SMILES CCCCCC=CCC=CCCCCCCCC(=O)[O-]
REMARK SMILES IDX 11 1 12 2 13 3 14 4 15 5 16 6 17 7 18 8 19 9 20 10 10 11
REMARK SMILES IDX 9 12 8 13 7 14 6 15 5 16 4 17 3 18 2 19 1 20
REMARK H PARENT
REMARK Flexibility Score: inf
ROOT
ATOM      1  C   UNL     1      12.334 -18.813  -5.362  1.00  0.00     0.027 C 
ENDROOT
BRANCH   1   2
ATOM      2  C   UNL     1      11.117 -19.271  -4.539  1.00  0.00     0.004 C 
BRANCH   2   3
ATOM      3  C   UNL     1      11.062 -18.699  -3.107  1.00  0.00     0.000 C 
BRANCH   3   4
ATOM      4  C   UNL     1       9.821 -17.839  -2.796  1.00  0.00     0.000 C 
BRANCH   4   5
ATOM      5  C   UNL     1       9.996 -16.330  -3.045  1.00  0.00     0.000 C 
BRANCH   5   6
ATOM      6  C   UNL     1       9.581 -15.907  -4.464  1.00  0.00     0.006 C 
BRANCH   6   7
ATOM      7  C   UNL     1      10.793 -15.649  -5.369  1.00  0.00     0.053 C 
BRANCH   7   8
ATOM      8  C   UNL     1      11.699 -14.600  -4.799  1.00  0.00     0.041 C 
ATOM      9  O   UNL     1      11.432 -13.379  -4.953  1.00  0.00    -0.550 OA
ATOM     10  O   UNL     1      12.823 -14.972  -4.073  1.00  0.00    -0.550 OA
ENDBRANCH   7   8
ENDBRANCH   6   7
ENDBRANCH   5   6
ENDBRANCH   4   5
ENDBRANCH   3   4
ENDBRANCH   2   3
ENDBRANCH   1   2
BRANCH   1  11
ATOM     11  C   UNL     1      13.476 -18.352  -4.497  1.00  0.00    -0.031 C 
ATOM     12  C   UNL     1      14.699 -18.894  -4.599  1.00  0.00    -0.027 C 
BRANCH  12  13
ATOM     13  C   UNL     1      15.855 -18.390  -3.781  1.00  0.00     0.054 C 
BRANCH  13  14
ATOM     14  C   UNL     1      17.171 -18.906  -4.309  1.00  0.00    -0.027 C 
ATOM     15  C   UNL     1      17.970 -19.776  -3.663  1.00  0.00    -0.031 C 
BRANCH  15  16
ATOM     16  C   UNL     1      17.711 -20.322  -2.279  1.00  0.00     0.027 C 
BRANCH  16  17
ATOM     17  C   UNL     1      17.555 -21.852  -2.274  1.00  0.00     0.004 C 
BRANCH  17  18
ATOM     18  C   UNL     1      16.379 -22.372  -3.121  1.00  0.00     0.000 C 
BRANCH  18  19
ATOM     19  C   UNL     1      15.856 -23.734  -2.642  1.00  0.00    -0.003 C 
ATOM     20  C   UNL     1      16.251 -23.995  -1.191  1.00  0.00     0.004 C 
ENDBRANCH  18  19
ENDBRANCH  17  18
ENDBRANCH  16  17
ENDBRANCH  15  16
ENDBRANCH  13  14
ENDBRANCH  12  13
ENDBRANCH   1  11
TORSDOF 14
ENDMDL
MODEL 5
REMARK VINA RESULT:    -3.795      1.012      2.020
REMARK INTER + INTRA:          -8.726
REMARK INTER:                  -6.697
REMARK INTRA:                  -2.029
REMARK UNBOUND:                -1.824
REMARK SMILES CCCCCC=CCC=CCCCCCCCC(=O)[O-]
REMARK SMILES IDX 11 1 12 2 13 3 14 4 15 5 16 6 17 7 18 8 19 9 20 10 10 11
REMARK SMILES IDX 9 12 8 13 7 14 6 15 5 16 4 17 3 18 2 19 1 20
REMARK H PARENT
REMARK Flexibility Score: inf
ROOT
ATOM      1  C   UNL     1      13.977 -15.609  -2.852  1.00  0.00     0.027 C 
ENDROOT
BRANCH   1   2
ATOM      2  C   UNL     1      15.090 -16.620  -3.178  1.00  0.00     0.004 C 
BRANCH   2   3
ATOM      3  C   UNL     1      14.745 -17.606  -4.314  1.00  0.00     0.000 C 
BRANCH   3   4
ATOM      4  C   UNL     1      15.500 -18.949  -4.261  1.00  0.00     0.000 C 
BRANCH   4   5
ATOM      5  C   UNL     1      17.013 -18.836  -4.006  1.00  0.00     0.000 C 
BRANCH   5   6
ATOM      6  C   UNL     1      17.496 -19.740  -2.860  1.00  0.00     0.006 C 
BRANCH   6   7
ATOM      7  C   UNL     1      17.425 -21.228  -3.227  1.00  0.00     0.053 C 
BRANCH   7   8
ATOM      8  C   UNL     1      17.190 -22.087  -2.023  1.00  0.00     0.041 C 
ATOM      9  O   UNL     1      16.323 -23.002  -2.055  1.00  0.00    -0.550 OA
ATOM     10  O   UNL     1      17.947 -21.898  -0.874  1.00  0.00    -0.550 OA
ENDBRANCH   7   8
ENDBRANCH   6   7
ENDBRANCH   5   6
ENDBRANCH   4   5
ENDBRANCH   3   4
ENDBRANCH   2   3
ENDBRANCH   1   2
BRANCH   1  11
ATOM     11  C   UNL     1      12.794 -15.735  -3.773  1.00  0.00    -0.031 C 
ATOM     12  C   UNL     1      11.624 -15.137  -3.502  1.00  0.00    -0.027 C 
BRANCH  12  13
ATOM     13  C   UNL     1      10.462 -15.209  -4.453  1.00  0.00     0.054 C 
BRANCH  13  14
ATOM     14  C   UNL     1      10.917 -15.506  -5.859  1.00  0.00    -0.027 C 
ATOM     15  C   UNL     1      10.776 -16.694  -6.478  1.00  0.00    -0.031 C 
BRANCH  15  16
ATOM     16  C   UNL     1      10.203 -17.937  -5.839  1.00  0.00     0.027 C 
BRANCH  16  17
ATOM     17  C   UNL     1      11.293 -18.945  -5.439  1.00  0.00     0.004 C 
BRANCH  17  18
ATOM     18  C   UNL     1      11.519 -19.064  -3.920  1.00  0.00     0.000 C 
BRANCH  18  19
ATOM     19  C   UNL     1      10.211 -19.252  -3.138  1.00  0.00    -0.003 C 
ATOM     20  C   UNL     1       9.940 -18.059  -2.225  1.00  0.00     0.004 C 
ENDBRANCH  18  19
ENDBRANCH  17  18
ENDBRANCH  16  17
ENDBRANCH  15  16
ENDBRANCH  13  14
ENDBRANCH  12  13
ENDBRANCH   1  11
TORSDOF 14
ENDMDL
MODEL 6
REMARK VINA RESULT:    -3.712      1.007      2.853
REMARK INTER + INTRA:          -8.574
REMARK INTER:                  -6.944
REMARK INTRA:                  -1.630
REMARK UNBOUND:                -1.824
REMARK SMILES CCCCCC=CCC=CCCCCCCCC(=O)[O-]
REMARK SMILES IDX 11 1 12 2 13 3 14 4 15 5 16 6 17 7 18 8 19 9 20 10 10 11
REMARK SMILES IDX 9 12 8 13 7 14 6 15 5 16 4 17 3 18 2 19 1 20
REMARK H PARENT
REMARK Flexibility Score: inf
ROOT
ATOM      1  C   UNL     1      14.060 -19.111  -5.035  1.00  0.00     0.027 C 
ENDROOT
BRANCH   1   2
ATOM      2  C   UNL     1      15.086 -18.372  -4.157  1.00  0.00     0.004 C 
BRANCH   2   3
ATOM      3  C   UNL     1      16.542 -18.853  -4.334  1.00  0.00     0.000 C 
BRANCH   3   4
ATOM      4  C   UNL     1      17.255 -19.265  -3.031  1.00  0.00     0.000 C 
BRANCH   4   5
ATOM      5  C   UNL     1      17.955 -20.635  -3.077  1.00  0.00     0.000 C 
BRANCH   5   6
ATOM      6  C   UNL     1      17.011 -21.800  -2.736  1.00  0.00     0.006 C 
BRANCH   6   7
ATOM      7  C   UNL     1      17.772 -23.035  -2.236  1.00  0.00     0.053 C 
BRANCH   7   8
ATOM      8  C   UNL     1      17.019 -23.753  -1.158  1.00  0.00     0.041 C 
ATOM      9  O   UNL     1      17.610 -24.124  -0.109  1.00  0.00    -0.550 OA
ATOM     10  O   UNL     1      15.657 -23.987  -1.299  1.00  0.00    -0.550 OA
ENDBRANCH   7   8
ENDBRANCH   6   7
ENDBRANCH   5   6
ENDBRANCH   4   5
ENDBRANCH   3   4
ENDBRANCH   2   3
ENDBRANCH   1   2
BRANCH   1  11
ATOM     11  C   UNL     1      12.651 -18.638  -4.798  1.00  0.00    -0.031 C 
ATOM     12  C   UNL     1      11.766 -19.378  -4.113  1.00  0.00    -0.027 C 
BRANCH  12  13
ATOM     13  C   UNL     1      10.379 -18.878  -3.820  1.00  0.00     0.054 C 
BRANCH  13  14
ATOM     14  C   UNL     1      10.382 -17.856  -2.711  1.00  0.00    -0.027 C 
ATOM     15  C   UNL     1       9.913 -16.599  -2.823  1.00  0.00    -0.031 C 
BRANCH  15  16
ATOM     16  C   UNL     1       9.373 -15.990  -4.095  1.00  0.00     0.027 C 
BRANCH  16  17
ATOM     17  C   UNL     1      10.492 -15.541  -5.050  1.00  0.00     0.004 C 
BRANCH  17  18
ATOM     18  C   UNL     1      11.570 -14.660  -4.392  1.00  0.00     0.000 C 
BRANCH  18  19
ATOM     19  C   UNL     1      12.938 -15.353  -4.313  1.00  0.00    -0.003 C 
ATOM     20  C   UNL     1      13.436 -15.424  -2.872  1.00  0.00     0.004 C 
ENDBRANCH  18  19
ENDBRANCH  17  18
ENDBRANCH  16  17
ENDBRANCH  15  16
ENDBRANCH  13  14
ENDBRANCH  12  13
ENDBRANCH   1  11
TORSDOF 14
ENDMDL
MODEL 7
REMARK VINA RESULT:    -3.641      2.926      6.570
REMARK INTER + INTRA:          -8.445
REMARK INTER:                  -7.118
REMARK INTRA:                  -1.328
REMARK UNBOUND:                -1.824
REMARK SMILES CCCCCC=CCC=CCCCCCCCC(=O)[O-]
REMARK SMILES IDX 11 1 12 2 13 3 14 4 15 5 16 6 17 7 18 8 19 9 20 10 10 11
REMARK SMILES IDX 9 12 8 13 7 14 6 15 5 16 4 17 3 18 2 19 1 20
REMARK H PARENT
REMARK Flexibility Score: inf
ROOT
ATOM      1  C   UNL     1      11.471 -14.355  -4.515  1.00  0.00     0.027 C 
ENDROOT
BRANCH   1   2
ATOM      2  C   UNL     1      10.440 -15.096  -5.386  1.00  0.00     0.004 C 
BRANCH   2   3
ATOM      3  C   UNL     1      11.019 -16.272  -6.199  1.00  0.00     0.000 C 
BRANCH   3   4
ATOM      4  C   UNL     1      10.228 -17.591  -6.091  1.00  0.00     0.000 C 
BRANCH   4   5
ATOM      5  C   UNL     1      11.054 -18.810  -5.645  1.00  0.00     0.000 C 
BRANCH   5   6
ATOM      6  C   UNL     1      11.606 -18.669  -4.217  1.00  0.00     0.006 C 
BRANCH   6   7
ATOM      7  C   UNL     1      10.648 -19.244  -3.166  1.00  0.00     0.053 C 
BRANCH   7   8
ATOM      8  C   UNL     1       9.892 -18.165  -2.453  1.00  0.00     0.041 C 
ATOM      9  O   UNL     1       8.962 -18.461  -1.655  1.00  0.00    -0.550 OA
ATOM     10  O   UNL     1      10.233 -16.833  -2.647  1.00  0.00    -0.550 OA
ENDBRANCH   7   8
ENDBRANCH   6   7
ENDBRANCH   5   6
ENDBRANCH   4   5
ENDBRANCH   3   4
ENDBRANCH   2   3
ENDBRANCH   1   2
BRANCH   1  11
ATOM     11  C   UNL     1      12.799 -15.062  -4.465  1.00  0.00    -0.031 C 
ATOM     12  C   UNL     1      13.258 -15.617  -3.333  1.00  0.00    -0.027 C 
BRANCH  12  13
ATOM     13  C   UNL     1      14.553 -16.379  -3.297  1.00  0.00     0.054 C 
BRANCH  13  14
ATOM     14  C   UNL     1      14.543 -17.532  -4.269  1.00  0.00    -0.027 C 
ATOM     15  C   UNL     1      15.483 -18.494  -4.329  1.00  0.00    -0.031 C 
BRANCH  15  16
ATOM     16  C   UNL     1      16.731 -18.536  -3.480  1.00  0.00     0.027 C 
BRANCH  16  17
ATOM     17  C   UNL     1      17.570 -19.800  -3.734  1.00  0.00     0.004 C 
BRANCH  17  18
ATOM     18  C   UNL     1      17.670 -20.747  -2.524  1.00  0.00     0.000 C 
BRANCH  18  19
ATOM     19  C   UNL     1      16.935 -22.077  -2.747  1.00  0.00    -0.003 C 
ATOM     20  C   UNL     1      17.020 -22.966  -1.509  1.00  0.00     0.004 C 
ENDBRANCH  18  19
ENDBRANCH  17  18
ENDBRANCH  16  17
ENDBRANCH  15  16
ENDBRANCH  13  14
ENDBRANCH  12  13
ENDBRANCH   1  11
TORSDOF 14
ENDMDL
MODEL 8
REMARK VINA RESULT:    -3.560      2.445      7.285
REMARK INTER + INTRA:          -8.297
REMARK INTER:                  -7.270
REMARK INTRA:                  -1.027
REMARK UNBOUND:                -1.824
REMARK SMILES CCCCCC=CCC=CCCCCCCCC(=O)[O-]
REMARK SMILES IDX 11 1 12 2 13 3 14 4 15 5 16 6 17 7 18 8 19 9 20 10 10 11
REMARK SMILES IDX 9 12 8 13 7 14 6 15 5 16 4 17 3 18 2 19 1 20
REMARK H PARENT
REMARK Flexibility Score: inf
ROOT
ATOM      1  C   UNL     1      13.340 -15.708  -3.642  1.00  0.00     0.027 C 
ENDROOT
BRANCH   1   2
ATOM      2  C   UNL     1      12.601 -14.971  -4.773  1.00  0.00     0.004 C 
BRANCH   2   3
ATOM      3  C   UNL     1      11.337 -14.210  -4.320  1.00  0.00     0.000 C 
BRANCH   3   4
ATOM      4  C   UNL     1      10.016 -14.989  -4.478  1.00  0.00     0.000 C 
BRANCH   4   5
ATOM      5  C   UNL     1       9.809 -16.129  -3.465  1.00  0.00     0.000 C 
BRANCH   5   6
ATOM      6  C   UNL     1      10.130 -17.515  -4.050  1.00  0.00     0.006 C 
BRANCH   6   7
ATOM      7  C   UNL     1      10.140 -17.507  -5.584  1.00  0.00     0.053 C 
BRANCH   7   8
ATOM      8  C   UNL     1      10.892 -18.678  -6.141  1.00  0.00     0.041 C 
ATOM      9  O   UNL     1      10.493 -19.248  -7.191  1.00  0.00    -0.550 OA
ATOM     10  O   UNL     1      12.050 -19.121  -5.516  1.00  0.00    -0.550 OA
ENDBRANCH   7   8
ENDBRANCH   6   7
ENDBRANCH   5   6
ENDBRANCH   4   5
ENDBRANCH   3   4
ENDBRANCH   2   3
ENDBRANCH   1   2
BRANCH   1  11
ATOM     11  C   UNL     1      13.958 -17.001  -4.103  1.00  0.00    -0.031 C 
ATOM     12  C   UNL     1      15.175 -17.386  -3.689  1.00  0.00    -0.027 C 
BRANCH  12  13
ATOM     13  C   UNL     1      15.766 -18.706  -4.097  1.00  0.00     0.054 C 
BRANCH  13  14
ATOM     14  C   UNL     1      17.205 -18.826  -3.661  1.00  0.00    -0.027 C 
ATOM     15  C   UNL     1      17.764 -19.940  -3.152  1.00  0.00    -0.031 C 
BRANCH  15  16
ATOM     16  C   UNL     1      17.024 -21.226  -2.872  1.00  0.00     0.027 C 
BRANCH  16  17
ATOM     17  C   UNL     1      17.430 -21.853  -1.528  1.00  0.00     0.004 C 
BRANCH  17  18
ATOM     18  C   UNL     1      17.376 -23.392  -1.505  1.00  0.00     0.000 C 
BRANCH  18  19
ATOM     19  C   UNL     1      16.176 -23.957  -2.281  1.00  0.00    -0.003 C 
ATOM     20  C   UNL     1      14.910 -23.928  -1.430  1.00  0.00     0.004 C 
ENDBRANCH  18  19
ENDBRANCH  17  18
ENDBRANCH  16  17
ENDBRANCH  15  16
ENDBRANCH  13  14
ENDBRANCH  12  13
ENDBRANCH   1  11
TORSDOF 14
ENDMDL
MODEL 9
REMARK VINA RESULT:    -3.420      1.047      2.102
REMARK INTER + INTRA:          -8.044
REMARK INTER:                  -6.530
REMARK INTRA:                  -1.514
REMARK UNBOUND:                -1.824
REMARK SMILES CCCCCC=CCC=CCCCCCCCC(=O)[O-]
REMARK SMILES IDX 11 1 12 2 13 3 14 4 15 5 16 6 17 7 18 8 19 9 20 10 10 11
REMARK SMILES IDX 9 12 8 13 7 14 6 15 5 16 4 17 3 18 2 19 1 20
REMARK H PARENT
REMARK Flexibility Score: inf
ROOT
ATOM      1  C   UNL     1      13.755 -15.483  -3.248  1.00  0.00     0.027 C 
ENDROOT
BRANCH   1   2
ATOM      2  C   UNL     1      14.790 -16.622  -3.278  1.00  0.00     0.004 C 
BRANCH   2   3
ATOM      3  C   UNL     1      14.591 -17.636  -4.424  1.00  0.00     0.000 C 
BRANCH   3   4
ATOM      4  C   UNL     1      15.409 -18.936  -4.293  1.00  0.00     0.000 C 
BRANCH   4   5
ATOM      5  C   UNL     1      16.896 -18.736  -3.949  1.00  0.00     0.000 C 
BRANCH   5   6
ATOM      6  C   UNL     1      17.400 -19.722  -2.881  1.00  0.00     0.006 C 
BRANCH   6   7
ATOM      7  C   UNL     1      18.047 -20.967  -3.502  1.00  0.00     0.053 C 
BRANCH   7   8
ATOM      8  C   UNL     1      17.464 -22.232  -2.948  1.00  0.00     0.041 C 
ATOM      9  O   UNL     1      16.887 -22.227  -1.828  1.00  0.00    -0.550 OA
ATOM     10  O   UNL     1      17.534 -23.409  -3.680  1.00  0.00    -0.550 OA
ENDBRANCH   7   8
ENDBRANCH   6   7
ENDBRANCH   5   6
ENDBRANCH   4   5
ENDBRANCH   3   4
ENDBRANCH   2   3
ENDBRANCH   1   2
BRANCH   1  11
ATOM     11  C   UNL     1      12.375 -15.947  -3.631  1.00  0.00    -0.031 C 
ATOM     12  C   UNL     1      11.377 -15.997  -2.736  1.00  0.00    -0.027 C 
BRANCH  12  13
ATOM     13  C   UNL     1       9.983 -16.398  -3.132  1.00  0.00     0.054 C 
BRANCH  13  14
ATOM     14  C   UNL     1       9.584 -17.707  -2.499  1.00  0.00    -0.027 C 
ATOM     15  C   UNL     1      10.221 -18.878  -2.688  1.00  0.00    -0.031 C 
BRANCH  15  16
ATOM     16  C   UNL     1      11.394 -19.082  -3.617  1.00  0.00     0.027 C 
BRANCH  16  17
ATOM     17  C   UNL     1      10.962 -19.603  -4.999  1.00  0.00     0.004 C 
BRANCH  17  18
ATOM     18  C   UNL     1      11.344 -18.681  -6.171  1.00  0.00     0.000 C 
BRANCH  18  19
ATOM     19  C   UNL     1      10.238 -17.675  -6.521  1.00  0.00    -0.003 C 
ATOM     20  C   UNL     1      10.780 -16.248  -6.544  1.00  0.00     0.004 C 
ENDBRANCH  18  19
ENDBRANCH  17  18
ENDBRANCH  16  17
ENDBRANCH  15  16
ENDBRANCH  13  14
ENDBRANCH  12  13
ENDBRANCH   1  11
TORSDOF 14
ENDMDL
