MODEL 1
REMARK VINA RESULT:    -5.125      0.000      0.000
REMARK INTER + INTRA:          -9.801
REMARK INTER:                  -7.821
REMARK INTRA:                  -1.980
REMARK UNBOUND:                -1.980
REMARK SMILES CC(=O)CCC=C(C)CCC=C(C)CCC=C(C)C
REMARK SMILES IDX 10 1 11 2 12 3 13 4 14 5 15 6 16 7 18 8 17 9 19 10 9 11 7 12
REMARK SMILES IDX 6 13 8 14 5 15 4 16 2 17 3 18 1 19
REMARK H PARENT
REMARK Flexibility Score: inf
ROOT
ATOM      1  C   UNL     1     -41.942  18.760  12.826  1.00  0.00     0.032 C 
ENDROOT
BRANCH   1   2
ATOM      2  C   UNL     1     -42.233  19.272  14.216  1.00  0.00    -0.028 C 
ATOM      3  C   UNL     1     -42.212  18.531  15.349  1.00  0.00    -0.077 C 
ATOM      4  C   UNL     1     -42.470  19.227  16.660  1.00  0.00     0.039 C 
BRANCH   3   5
ATOM      5  C   UNL     1     -41.962  17.037  15.354  1.00  0.00     0.034 C 
BRANCH   5   6
ATOM      6  C   UNL     1     -41.123  16.627  16.570  1.00  0.00     0.032 C 
BRANCH   6   7
ATOM      7  C   UNL     1     -39.707  16.291  16.168  1.00  0.00    -0.028 C 
ATOM      8  C   UNL     1     -40.300  13.905  15.737  1.00  0.00     0.039 C 
ATOM      9  C   UNL     1     -39.323  15.056  15.787  1.00  0.00    -0.080 C 
ATOM     10  C   UNL     1     -37.883  14.830  15.404  1.00  0.00     0.039 C 
ENDBRANCH   6   7
ENDBRANCH   5   6
ENDBRANCH   3   5
ENDBRANCH   1   2
BRANCH   1  11
ATOM     11  C   UNL     1     -40.432  18.678  12.559  1.00  0.00     0.034 C 
BRANCH  11  12
ATOM     12  C   UNL     1     -39.986  17.263  12.235  1.00  0.00    -0.077 C 
ATOM     13  C   UNL     1     -38.726  16.819  12.444  1.00  0.00    -0.028 C 
ATOM     14  C   UNL     1     -40.999  16.303  11.664  1.00  0.00     0.039 C 
BRANCH  13  15
ATOM     15  C   UNL     1     -37.601  17.682  12.963  1.00  0.00     0.035 C 
BRANCH  15  16
ATOM     16  C   UNL     1     -36.674  18.164  11.840  1.00  0.00     0.079 C 
BRANCH  16  17
ATOM     17  C   UNL     1     -36.392  17.073  10.840  1.00  0.00     0.130 C 
ATOM     18  O   UNL     1     -35.856  16.038  11.207  1.00  0.00    -0.300 OA
ATOM     19  C   UNL     1     -36.783  17.225   9.401  1.00  0.00     0.087 C 
ENDBRANCH  16  17
ENDBRANCH  15  16
ENDBRANCH  13  15
ENDBRANCH  11  12
ENDBRANCH   1  11
TORSDOF 9
ENDMDL
MODEL 2
REMARK VINA RESULT:    -5.097      1.493      2.503
REMARK INTER + INTRA:          -9.758
REMARK INTER:                  -7.981
REMARK INTRA:                  -1.777
REMARK UNBOUND:                -1.980
REMARK SMILES CC(=O)CCC=C(C)CCC=C(C)CCC=C(C)C
REMARK SMILES IDX 10 1 11 2 12 3 13 4 14 5 15 6 16 7 18 8 17 9 19 10 9 11 7 12
REMARK SMILES IDX 6 13 8 14 5 15 4 16 2 17 3 18 1 19
REMARK H PARENT
REMARK Flexibility Score: inf
ROOT
ATOM      1  C   UNL     1     -42.489  19.096  15.175  1.00  0.00     0.032 C 
ENDROOT
BRANCH   1   2
ATOM      2  C   UNL     1     -43.482  18.654  16.222  1.00  0.00    -0.028 C 
ATOM      3  C   UNL     1     -43.180  18.293  17.492  1.00  0.00    -0.077 C 
ATOM      4  C   UNL     1     -44.313  17.937  18.419  1.00  0.00     0.039 C 
BRANCH   3   5
ATOM      5  C   UNL     1     -41.760  18.214  18.013  1.00  0.00     0.034 C 
BRANCH   5   6
ATOM      6  C   UNL     1     -41.181  16.808  17.813  1.00  0.00     0.032 C 
BRANCH   6   7
ATOM      7  C   UNL     1     -39.940  16.846  16.955  1.00  0.00    -0.028 C 
ATOM      8  C   UNL     1     -40.582  14.740  15.777  1.00  0.00     0.039 C 
ATOM      9  C   UNL     1     -39.659  15.909  16.025  1.00  0.00    -0.080 C 
ATOM     10  C   UNL     1     -38.391  16.045  15.221  1.00  0.00     0.039 C 
ENDBRANCH   6   7
ENDBRANCH   5   6
ENDBRANCH   3   5
ENDBRANCH   1   2
BRANCH   1  11
ATOM     11  C   UNL     1     -42.106  17.941  14.237  1.00  0.00     0.034 C 
BRANCH  11  12
ATOM     12  C   UNL     1     -41.883  18.414  12.811  1.00  0.00    -0.077 C 
ATOM     13  C   UNL     1     -41.132  17.734  11.916  1.00  0.00    -0.028 C 
ATOM     14  C   UNL     1     -42.541  19.696  12.367  1.00  0.00     0.039 C 
BRANCH  13  15
ATOM     15  C   UNL     1     -40.378  16.465  12.237  1.00  0.00     0.035 C 
BRANCH  15  16
ATOM     16  C   UNL     1     -40.060  15.646  10.980  1.00  0.00     0.079 C 
BRANCH  16  17
ATOM     17  C   UNL     1     -38.581  15.612  10.692  1.00  0.00     0.130 C 
ATOM     18  O   UNL     1     -38.061  14.575  10.311  1.00  0.00    -0.300 OA
ATOM     19  C   UNL     1     -37.738  16.844  10.840  1.00  0.00     0.087 C 
ENDBRANCH  16  17
ENDBRANCH  15  16
ENDBRANCH  13  15
ENDBRANCH  11  12
ENDBRANCH   1  11
TORSDOF 9
ENDMDL
MODEL 3
REMARK VINA RESULT:    -5.011      1.390      3.554
REMARK INTER + INTRA:          -9.627
REMARK INTER:                  -7.378
REMARK INTRA:                  -2.249
REMARK UNBOUND:                -1.980
REMARK SMILES CC(=O)CCC=C(C)CCC=C(C)CCC=C(C)C
REMARK SMILES IDX 10 1 11 2 12 3 13 4 14 5 15 6 16 7 18 8 17 9 19 10 9 11 7 12
REMARK SMILES IDX 6 13 8 14 5 15 4 16 2 17 3 18 1 19
REMARK H PARENT
REMARK Flexibility Score: inf
ROOT
ATOM      1  C   UNL     1     -39.772  17.114  13.407  1.00  0.00     0.032 C 
ENDROOT
BRANCH   1   2
ATOM      2  C   UNL     1     -39.772  15.672  13.855  1.00  0.00    -0.028 C 
ATOM      3  C   UNL     1     -39.761  15.246  15.140  1.00  0.00    -0.077 C 
ATOM      4  C   UNL     1     -39.824  13.763  15.399  1.00  0.00     0.039 C 
BRANCH   3   5
ATOM      5  C   UNL     1     -39.667  16.189  16.323  1.00  0.00     0.034 C 
BRANCH   5   6
ATOM      6  C   UNL     1     -41.051  16.444  16.930  1.00  0.00     0.032 C 
BRANCH   6   7
ATOM      7  C   UNL     1     -41.410  17.910  16.873  1.00  0.00    -0.028 C 
ATOM      8  C   UNL     1     -43.226  17.492  15.212  1.00  0.00     0.039 C 
ATOM      9  C   UNL     1     -42.398  18.396  16.094  1.00  0.00    -0.080 C 
ATOM     10  C   UNL     1     -42.675  19.878  16.115  1.00  0.00     0.039 C 
ENDBRANCH   6   7
ENDBRANCH   5   6
ENDBRANCH   3   5
ENDBRANCH   1   2
BRANCH   1  11
ATOM     11  C   UNL     1     -40.883  17.386  12.381  1.00  0.00     0.034 C 
BRANCH  11  12
ATOM     12  C   UNL     1     -40.754  18.762  11.753  1.00  0.00    -0.077 C 
ATOM     13  C   UNL     1     -40.057  18.995  10.618  1.00  0.00    -0.028 C 
ATOM     14  C   UNL     1     -41.448  19.925  12.418  1.00  0.00     0.039 C 
BRANCH  13  15
ATOM     15  C   UNL     1     -39.275  17.937   9.875  1.00  0.00     0.035 C 
BRANCH  15  16
ATOM     16  C   UNL     1     -37.816  17.862  10.339  1.00  0.00     0.079 C 
BRANCH  16  17
ATOM     17  C   UNL     1     -37.370  16.439  10.556  1.00  0.00     0.130 C 
ATOM     18  O   UNL     1     -36.245  16.215  10.979  1.00  0.00    -0.300 OA
ATOM     19  C   UNL     1     -38.295  15.290  10.289  1.00  0.00     0.087 C 
ENDBRANCH  16  17
ENDBRANCH  15  16
ENDBRANCH  13  15
ENDBRANCH  11  12
ENDBRANCH   1  11
TORSDOF 9
ENDMDL
MODEL 4
REMARK VINA RESULT:    -4.986      1.485      5.113
REMARK INTER + INTRA:          -9.590
REMARK INTER:                  -7.703
REMARK INTRA:                  -1.886
REMARK UNBOUND:                -1.980
REMARK SMILES CC(=O)CCC=C(C)CCC=C(C)CCC=C(C)C
REMARK SMILES IDX 10 1 11 2 12 3 13 4 14 5 15 6 16 7 18 8 17 9 19 10 9 11 7 12
REMARK SMILES IDX 6 13 8 14 5 15 4 16 2 17 3 18 1 19
REMARK H PARENT
REMARK Flexibility Score: inf
ROOT
ATOM      1  C   UNL     1     -42.690  17.932  14.594  1.00  0.00     0.032 C 
ENDROOT
BRANCH   1   2
ATOM      2  C   UNL     1     -42.325  18.685  13.337  1.00  0.00    -0.028 C 
ATOM      3  C   UNL     1     -41.360  18.328  12.457  1.00  0.00    -0.077 C 
ATOM      4  C   UNL     1     -41.177  19.171  11.222  1.00  0.00     0.039 C 
BRANCH   3   5
ATOM      5  C   UNL     1     -40.448  17.137  12.669  1.00  0.00     0.034 C 
BRANCH   5   6
ATOM      6  C   UNL     1     -39.045  17.590  13.090  1.00  0.00     0.032 C 
BRANCH   6   7
ATOM      7  C   UNL     1     -38.005  17.146  12.091  1.00  0.00    -0.028 C 
ATOM      8  C   UNL     1     -37.132  19.470  11.830  1.00  0.00     0.039 C 
ATOM      9  C   UNL     1     -37.129  17.993  11.512  1.00  0.00    -0.080 C 
ATOM     10  C   UNL     1     -36.129  17.442  10.528  1.00  0.00     0.039 C 
ENDBRANCH   6   7
ENDBRANCH   5   6
ENDBRANCH   3   5
ENDBRANCH   1   2
BRANCH   1  11
ATOM     11  C   UNL     1     -42.134  18.625  15.848  1.00  0.00     0.034 C 
BRANCH  11  12
ATOM     12  C   UNL     1     -42.241  17.746  17.081  1.00  0.00    -0.077 C 
ATOM     13  C   UNL     1     -41.336  16.789  17.387  1.00  0.00    -0.028 C 
ATOM     14  C   UNL     1     -43.405  17.957  18.016  1.00  0.00     0.039 C 
BRANCH  13  15
ATOM     15  C   UNL     1     -40.151  16.438  16.519  1.00  0.00     0.035 C 
BRANCH  15  16
ATOM     16  C   UNL     1     -40.325  15.082  15.823  1.00  0.00     0.079 C 
BRANCH  16  17
ATOM     17  C   UNL     1     -39.066  14.650  15.117  1.00  0.00     0.130 C 
ATOM     18  O   UNL     1     -39.138  14.125  14.015  1.00  0.00    -0.300 OA
ATOM     19  C   UNL     1     -37.718  14.878  15.732  1.00  0.00     0.087 C 
ENDBRANCH  16  17
ENDBRANCH  15  16
ENDBRANCH  13  15
ENDBRANCH  11  12
ENDBRANCH   1  11
TORSDOF 9
ENDMDL
MODEL 5
REMARK VINA RESULT:    -4.976      1.144      3.460
REMARK INTER + INTRA:          -9.573
REMARK INTER:                  -8.112
REMARK INTRA:                  -1.462
REMARK UNBOUND:                -1.980
REMARK SMILES CC(=O)CCC=C(C)CCC=C(C)CCC=C(C)C
REMARK SMILES IDX 10 1 11 2 12 3 13 4 14 5 15 6 16 7 18 8 17 9 19 10 9 11 7 12
REMARK SMILES IDX 6 13 8 14 5 15 4 16 2 17 3 18 1 19
REMARK H PARENT
REMARK Flexibility Score: inf
ROOT
ATOM      1  C   UNL     1     -40.260  16.754  13.224  1.00  0.00     0.032 C 
ENDROOT
BRANCH   1   2
ATOM      2  C   UNL     1     -39.144  16.128  14.026  1.00  0.00    -0.028 C 
ATOM      3  C   UNL     1     -39.262  15.615  15.273  1.00  0.00    -0.077 C 
ATOM      4  C   UNL     1     -38.049  14.974  15.896  1.00  0.00     0.039 C 
BRANCH   3   5
ATOM      5  C   UNL     1     -40.547  15.674  16.073  1.00  0.00     0.034 C 
BRANCH   5   6
ATOM      6  C   UNL     1     -40.643  16.986  16.860  1.00  0.00     0.032 C 
BRANCH   6   7
ATOM      7  C   UNL     1     -42.058  17.247  17.316  1.00  0.00    -0.028 C 
ATOM      8  C   UNL     1     -42.541  18.650  15.309  1.00  0.00     0.039 C 
ATOM      9  C   UNL     1     -42.929  18.003  16.617  1.00  0.00    -0.080 C 
ATOM     10  C   UNL     1     -44.321  18.197  17.164  1.00  0.00     0.039 C 
ENDBRANCH   6   7
ENDBRANCH   5   6
ENDBRANCH   3   5
ENDBRANCH   1   2
BRANCH   1  11
ATOM     11  C   UNL     1     -39.759  17.269  11.866  1.00  0.00     0.034 C 
BRANCH  11  12
ATOM     12  C   UNL     1     -39.511  18.767  11.881  1.00  0.00    -0.077 C 
ATOM     13  C   UNL     1     -38.283  19.311  12.044  1.00  0.00    -0.028 C 
ATOM     14  C   UNL     1     -40.686  19.694  11.692  1.00  0.00     0.039 C 
BRANCH  13  15
ATOM     15  C   UNL     1     -37.029  18.507  12.292  1.00  0.00     0.035 C 
BRANCH  15  16
ATOM     16  C   UNL     1     -36.182  18.348  11.023  1.00  0.00     0.079 C 
BRANCH  16  17
ATOM     17  C   UNL     1     -36.185  16.926  10.523  1.00  0.00     0.130 C 
ATOM     18  O   UNL     1     -36.083  16.004  11.317  1.00  0.00    -0.300 OA
ATOM     19  C   UNL     1     -36.341  16.622   9.063  1.00  0.00     0.087 C 
ENDBRANCH  16  17
ENDBRANCH  15  16
ENDBRANCH  13  15
ENDBRANCH  11  12
ENDBRANCH   1  11
TORSDOF 9
ENDMDL
MODEL 6
REMARK VINA RESULT:    -4.955      1.485      3.784
REMARK INTER + INTRA:          -9.541
REMARK INTER:                  -8.489
REMARK INTRA:                  -1.053
REMARK UNBOUND:                -1.980
REMARK SMILES CC(=O)CCC=C(C)CCC=C(C)CCC=C(C)C
REMARK SMILES IDX 10 1 11 2 12 3 13 4 14 5 15 6 16 7 18 8 17 9 19 10 9 11 7 12
REMARK SMILES IDX 6 13 8 14 5 15 4 16 2 17 3 18 1 19
REMARK H PARENT
REMARK Flexibility Score: inf
ROOT
ATOM      1  C   UNL     1     -38.620  16.873  14.361  1.00  0.00     0.032 C 
ENDROOT
BRANCH   1   2
ATOM      2  C   UNL     1     -39.205  15.506  14.625  1.00  0.00    -0.028 C 
ATOM      3  C   UNL     1     -39.946  15.162  15.704  1.00  0.00    -0.077 C 
ATOM      4  C   UNL     1     -40.500  13.761  15.769  1.00  0.00     0.039 C 
BRANCH   3   5
ATOM      5  C   UNL     1     -40.226  16.110  16.852  1.00  0.00     0.034 C 
BRANCH   5   6
ATOM      6  C   UNL     1     -41.394  17.044  16.517  1.00  0.00     0.032 C 
BRANCH   6   7
ATOM      7  C   UNL     1     -42.113  17.488  17.768  1.00  0.00    -0.028 C 
ATOM      8  C   UNL     1     -44.198  18.002  16.495  1.00  0.00     0.039 C 
ATOM      9  C   UNL     1     -43.389  17.925  17.768  1.00  0.00    -0.080 C 
ATOM     10  C   UNL     1     -44.013  18.343  19.075  1.00  0.00     0.039 C 
ENDBRANCH   6   7
ENDBRANCH   5   6
ENDBRANCH   3   5
ENDBRANCH   1   2
BRANCH   1  11
ATOM     11  C   UNL     1     -38.378  17.103  12.861  1.00  0.00     0.034 C 
BRANCH  11  12
ATOM     12  C   UNL     1     -39.636  16.884  12.040  1.00  0.00    -0.077 C 
ATOM     13  C   UNL     1     -39.701  16.017  11.004  1.00  0.00    -0.028 C 
ATOM     14  C   UNL     1     -40.877  17.660  12.403  1.00  0.00     0.039 C 
BRANCH  13  15
ATOM     15  C   UNL     1     -38.526  15.212  10.501  1.00  0.00     0.035 C 
BRANCH  15  16
ATOM     16  C   UNL     1     -37.683  15.991   9.484  1.00  0.00     0.079 C 
BRANCH  16  17
ATOM     17  C   UNL     1     -36.479  16.629  10.126  1.00  0.00     0.130 C 
ATOM     18  O   UNL     1     -35.763  15.968  10.863  1.00  0.00    -0.300 OA
ATOM     19  C   UNL     1     -36.126  18.061   9.854  1.00  0.00     0.087 C 
ENDBRANCH  16  17
ENDBRANCH  15  16
ENDBRANCH  13  15
ENDBRANCH  11  12
ENDBRANCH   1  11
TORSDOF 9
ENDMDL
MODEL 7
REMARK VINA RESULT:    -4.943      1.159      2.017
REMARK INTER + INTRA:          -9.524
REMARK INTER:                  -7.656
REMARK INTRA:                  -1.868
REMARK UNBOUND:                -1.980
REMARK SMILES CC(=O)CCC=C(C)CCC=C(C)CCC=C(C)C
REMARK SMILES IDX 10 1 11 2 12 3 13 4 14 5 15 6 16 7 18 8 17 9 19 10 9 11 7 12
REMARK SMILES IDX 6 13 8 14 5 15 4 16 2 17 3 18 1 19
REMARK H PARENT
REMARK Flexibility Score: inf
ROOT
ATOM      1  C   UNL     1     -41.309  17.045  12.215  1.00  0.00     0.032 C 
ENDROOT
BRANCH   1   2
ATOM      2  C   UNL     1     -41.718  18.341  12.873  1.00  0.00    -0.028 C 
ATOM      3  C   UNL     1     -42.159  18.474  14.146  1.00  0.00    -0.077 C 
ATOM      4  C   UNL     1     -42.466  19.860  14.652  1.00  0.00     0.039 C 
BRANCH   3   5
ATOM      5  C   UNL     1     -42.375  17.295  15.073  1.00  0.00     0.034 C 
BRANCH   5   6
ATOM      6  C   UNL     1     -41.164  17.091  15.991  1.00  0.00     0.032 C 
BRANCH   6   7
ATOM      7  C   UNL     1     -40.672  15.665  15.937  1.00  0.00    -0.028 C 
ATOM      8  C   UNL     1     -38.628  16.325  14.664  1.00  0.00     0.039 C 
ATOM      9  C   UNL     1     -39.519  15.307  15.336  1.00  0.00    -0.080 C 
ATOM     10  C   UNL     1     -39.120  13.853  15.343  1.00  0.00     0.039 C 
ENDBRANCH   6   7
ENDBRANCH   5   6
ENDBRANCH   3   5
ENDBRANCH   1   2
BRANCH   1  11
ATOM     11  C   UNL     1     -40.066  17.229  11.331  1.00  0.00     0.034 C 
BRANCH  11  12
ATOM     12  C   UNL     1     -39.538  15.906  10.806  1.00  0.00    -0.077 C 
ATOM     13  C   UNL     1     -38.643  15.815   9.796  1.00  0.00    -0.028 C 
ATOM     14  C   UNL     1     -40.025  14.631  11.449  1.00  0.00     0.039 C 
BRANCH  13  15
ATOM     15  C   UNL     1     -38.110  17.003   9.031  1.00  0.00     0.035 C 
BRANCH  15  16
ATOM     16  C   UNL     1     -36.593  17.163   9.192  1.00  0.00     0.079 C 
BRANCH  16  17
ATOM     17  C   UNL     1     -36.164  17.020  10.629  1.00  0.00     0.130 C 
ATOM     18  O   UNL     1     -35.704  15.959  11.022  1.00  0.00    -0.300 OA
ATOM     19  C   UNL     1     -36.267  18.172  11.583  1.00  0.00     0.087 C 
ENDBRANCH  16  17
ENDBRANCH  15  16
ENDBRANCH  13  15
ENDBRANCH  11  12
ENDBRANCH   1  11
TORSDOF 9
ENDMDL
MODEL 8
REMARK VINA RESULT:    -4.940      1.686      5.286
REMARK INTER + INTRA:          -9.519
REMARK INTER:                  -7.995
REMARK INTRA:                  -1.524
REMARK UNBOUND:                -1.980
REMARK SMILES CC(=O)CCC=C(C)CCC=C(C)CCC=C(C)C
REMARK SMILES IDX 10 1 11 2 12 3 13 4 14 5 15 6 16 7 18 8 17 9 19 10 9 11 7 12
REMARK SMILES IDX 6 13 8 14 5 15 4 16 2 17 3 18 1 19
REMARK H PARENT
REMARK Flexibility Score: inf
ROOT
ATOM      1  C   UNL     1     -42.263  18.733  14.131  1.00  0.00     0.032 C 
ENDROOT
BRANCH   1   2
ATOM      2  C   UNL     1     -41.789  17.692  13.145  1.00  0.00    -0.028 C 
ATOM      3  C   UNL     1     -40.934  17.910  12.119  1.00  0.00    -0.077 C 
ATOM      4  C   UNL     1     -40.525  16.733  11.271  1.00  0.00     0.039 C 
BRANCH   3   5
ATOM      5  C   UNL     1     -40.387  19.281  11.776  1.00  0.00     0.034 C 
BRANCH   5   6
ATOM      6  C   UNL     1     -39.079  19.166  10.984  1.00  0.00     0.032 C 
BRANCH   6   7
ATOM      7  C   UNL     1     -37.938  19.830  11.716  1.00  0.00    -0.028 C 
ATOM      8  C   UNL     1     -37.344  17.712  12.896  1.00  0.00     0.039 C 
ATOM      9  C   UNL     1     -37.142  19.177  12.587  1.00  0.00    -0.080 C 
ATOM     10  C   UNL     1     -36.028  19.936  13.262  1.00  0.00     0.039 C 
ENDBRANCH   6   7
ENDBRANCH   5   6
ENDBRANCH   3   5
ENDBRANCH   1   2
BRANCH   1  11
ATOM     11  C   UNL     1     -42.896  18.087  15.373  1.00  0.00     0.034 C 
BRANCH  11  12
ATOM     12  C   UNL     1     -42.019  18.235  16.603  1.00  0.00    -0.077 C 
ATOM     13  C   UNL     1     -41.057  17.345  16.938  1.00  0.00    -0.028 C 
ATOM     14  C   UNL     1     -42.219  19.439  17.490  1.00  0.00     0.039 C 
BRANCH  13  15
ATOM     15  C   UNL     1     -40.780  16.073  16.171  1.00  0.00     0.035 C 
BRANCH  15  16
ATOM     16  C   UNL     1     -39.291  15.908  15.840  1.00  0.00     0.079 C 
BRANCH  16  17
ATOM     17  C   UNL     1     -38.966  14.502  15.408  1.00  0.00     0.130 C 
ATOM     18  O   UNL     1     -37.872  14.255  14.922  1.00  0.00    -0.300 OA
ATOM     19  C   UNL     1     -39.954  13.389  15.592  1.00  0.00     0.087 C 
ENDBRANCH  16  17
ENDBRANCH  15  16
ENDBRANCH  13  15
ENDBRANCH  11  12
ENDBRANCH   1  11
TORSDOF 9
ENDMDL
MODEL 9
REMARK VINA RESULT:    -4.880      1.391      5.550
REMARK INTER + INTRA:          -9.427
REMARK INTER:                  -7.416
REMARK INTRA:                  -2.012
REMARK UNBOUND:                -1.980
REMARK SMILES CC(=O)CCC=C(C)CCC=C(C)CCC=C(C)C
REMARK SMILES IDX 10 1 11 2 12 3 13 4 14 5 15 6 16 7 18 8 17 9 19 10 9 11 7 12
REMARK SMILES IDX 6 13 8 14 5 15 4 16 2 17 3 18 1 19
REMARK H PARENT
REMARK Flexibility Score: inf
ROOT
ATOM      1  C   UNL     1     -41.400  18.319  13.556  1.00  0.00     0.032 C 
ENDROOT
BRANCH   1   2
ATOM      2  C   UNL     1     -41.075  17.119  12.699  1.00  0.00    -0.028 C 
ATOM      3  C   UNL     1     -39.831  16.673  12.406  1.00  0.00    -0.077 C 
ATOM      4  C   UNL     1     -39.700  15.419  11.581  1.00  0.00     0.039 C 
BRANCH   3   5
ATOM      5  C   UNL     1     -38.571  17.387  12.852  1.00  0.00     0.034 C 
BRANCH   5   6
ATOM      6  C   UNL     1     -38.055  18.323  11.753  1.00  0.00     0.032 C 
BRANCH   6   7
ATOM      7  C   UNL     1     -36.922  17.688  10.984  1.00  0.00    -0.028 C 
ATOM      8  C   UNL     1     -38.295  17.549   8.903  1.00  0.00     0.039 C 
ATOM      9  C   UNL     1     -37.021  17.333   9.686  1.00  0.00    -0.080 C 
ATOM     10  C   UNL     1     -35.827  16.707   9.012  1.00  0.00     0.039 C 
ENDBRANCH   6   7
ENDBRANCH   5   6
ENDBRANCH   3   5
ENDBRANCH   1   2
BRANCH   1  11
ATOM     11  C   UNL     1     -42.500  18.000  14.579  1.00  0.00     0.034 C 
BRANCH  11  12
ATOM     12  C   UNL     1     -42.067  18.316  16.000  1.00  0.00    -0.077 C 
ATOM     13  C   UNL     1     -41.326  17.471  16.752  1.00  0.00    -0.028 C 
ATOM     14  C   UNL     1     -42.470  19.641  16.598  1.00  0.00     0.039 C 
BRANCH  13  15
ATOM     15  C   UNL     1     -40.894  16.095  16.300  1.00  0.00     0.035 C 
BRANCH  15  16
ATOM     16  C   UNL     1     -39.377  16.002  16.096  1.00  0.00     0.079 C 
BRANCH  16  17
ATOM     17  C   UNL     1     -38.978  14.699  15.454  1.00  0.00     0.130 C 
ATOM     18  O   UNL     1     -37.857  14.574  14.985  1.00  0.00    -0.300 OA
ATOM     19  C   UNL     1     -39.927  13.539  15.405  1.00  0.00     0.087 C 
ENDBRANCH  16  17
ENDBRANCH  15  16
ENDBRANCH  13  15
ENDBRANCH  11  12
ENDBRANCH   1  11
TORSDOF 9
ENDMDL
