MODEL 1
REMARK VINA RESULT:    -5.988      0.000      0.000
REMARK INTER + INTRA:          -6.921
REMARK INTER:                  -7.213
REMARK INTRA:                   0.292
REMARK UNBOUND:                 0.292
REMARK SMILES O=c1c(O)c(-c2ccc(O)c(O)c2)oc2cc(O)cc(O)c12
REMARK SMILES IDX 5 1 3 2 2 3 1 4 22 5 20 6 19 7 17 8 16 9 15 10 14 11 6 12
REMARK SMILES IDX 7 13 8 14 9 15 13 16 11 17 10 18 12 20 4 22 21 24 18 26
REMARK H PARENT 10 19 12 21 4 23 21 25 18 27
REMARK Flexibility Score: inf
ROOT
ATOM      1  C   UNL     1      -4.342 -13.951  49.014  1.00  0.00     0.180 A 
ATOM      2  C   UNL     1      -5.630 -13.435  48.791  1.00  0.00     0.208 A 
ATOM      3  C   UNL     1      -6.543 -13.396  49.856  1.00  0.00     0.238 A 
ATOM      4  O   UNL     1      -7.676 -12.882  49.664  1.00  0.00    -0.285 OA
ATOM      5  C   UNL     1      -6.163 -13.890  51.128  1.00  0.00     0.111 A 
ATOM      6  C   UNL     1      -7.020 -13.938  52.268  1.00  0.00     0.134 A 
ATOM      7  C   UNL     1      -6.498 -14.326  53.509  1.00  0.00     0.093 A 
ATOM      8  C   UNL     1      -5.170 -14.731  53.636  1.00  0.00     0.123 A 
ATOM      9  C   UNL     1      -4.339 -14.744  52.516  1.00  0.00     0.094 A 
ATOM     10  C   UNL     1      -4.820 -14.329  51.272  1.00  0.00     0.146 A 
ATOM     11  O   UNL     1      -3.994 -14.347  50.234  1.00  0.00    -0.452 OA
ENDROOT
BRANCH   1  12
ATOM     12  C   UNL     1      -3.333 -14.048  47.934  1.00  0.00     0.025 A 
ATOM     13  C   UNL     1      -2.365 -15.068  47.925  1.00  0.00     0.016 A 
ATOM     14  C   UNL     1      -1.408 -15.125  46.909  1.00  0.00     0.051 A 
ATOM     15  C   UNL     1      -1.396 -14.157  45.896  1.00  0.00     0.157 A 
ATOM     16  C   UNL     1      -3.303 -13.069  46.927  1.00  0.00     0.062 A 
ATOM     17  C   UNL     1      -2.343 -13.127  45.906  1.00  0.00     0.158 A 
BRANCH  15  18
ATOM     18  O   UNL     1      -0.444 -14.212  44.879  1.00  0.00    -0.504 OA
ATOM     19  H   UNL     1      -0.233 -15.077  44.396  1.00  0.00     0.293 HD
ENDBRANCH  15  18
BRANCH  17  20
ATOM     20  O   UNL     1      -2.325 -12.162  44.900  1.00  0.00    -0.504 OA
ATOM     21  H   UNL     1      -2.606 -11.204  45.078  1.00  0.00     0.293 HD
ENDBRANCH  17  20
ENDBRANCH   1  12
BRANCH   2  22
ATOM     22  O   UNL     1      -5.978 -12.932  47.533  1.00  0.00    -0.502 OA
ATOM     23  H   UNL     1      -5.363 -13.001  46.731  1.00  0.00     0.293 HD
ENDBRANCH   2  22
BRANCH   6  24
ATOM     24  O   UNL     1      -8.385 -13.643  52.230  1.00  0.00    -0.507 OA
ATOM     25  H   UNL     1      -9.059 -14.112  51.643  1.00  0.00     0.293 HD
ENDBRANCH   6  24
BRANCH   8  26
ATOM     26  O   UNL     1      -4.689 -15.125  54.883  1.00  0.00    -0.508 OA
ATOM     27  H   UNL     1      -3.699 -15.263  55.049  1.00  0.00     0.293 HD
ENDBRANCH   8  26
TORSDOF 6
ENDMDL
MODEL 2
REMARK VINA RESULT:    -4.139      1.478      2.365
REMARK INTER + INTRA:          -4.694
REMARK INTER:                  -4.784
REMARK INTRA:                   0.091
REMARK UNBOUND:                 0.292
REMARK SMILES O=c1c(O)c(-c2ccc(O)c(O)c2)oc2cc(O)cc(O)c12
REMARK SMILES IDX 5 1 3 2 2 3 1 4 22 5 20 6 19 7 17 8 16 9 15 10 14 11 6 12
REMARK SMILES IDX 7 13 8 14 9 15 13 16 11 17 10 18 12 20 4 22 21 24 18 26
REMARK H PARENT 10 19 12 21 4 23 21 25 18 27
REMARK Flexibility Score: inf
ROOT
ATOM      1  C   UNL     1      -3.108 -14.196  47.810  1.00  0.00     0.180 A 
ATOM      2  C   UNL     1      -4.244 -13.582  47.255  1.00  0.00     0.208 A 
ATOM      3  C   UNL     1      -5.389 -13.422  48.051  1.00  0.00     0.238 A 
ATOM      4  O   UNL     1      -6.384 -12.822  47.566  1.00  0.00    -0.285 OA
ATOM      5  C   UNL     1      -5.390 -13.894  49.386  1.00  0.00     0.111 A 
ATOM      6  C   UNL     1      -6.508 -13.821  50.271  1.00  0.00     0.134 A 
ATOM      7  C   UNL     1      -6.356 -14.200  51.610  1.00  0.00     0.093 A 
ATOM      8  C   UNL     1      -5.146 -14.710  52.081  1.00  0.00     0.123 A 
ATOM      9  C   UNL     1      -4.064 -14.840  51.210  1.00  0.00     0.094 A 
ATOM     10  C   UNL     1      -4.174 -14.437  49.877  1.00  0.00     0.146 A 
ATOM     11  O   UNL     1      -3.118 -14.569  49.085  1.00  0.00    -0.452 OA
ENDROOT
BRANCH   1  12
ATOM     12  C   UNL     1      -1.872 -14.422  47.026  1.00  0.00     0.025 A 
ATOM     13  C   UNL     1      -1.921 -14.868  45.693  1.00  0.00     0.016 A 
ATOM     14  C   UNL     1      -0.741 -15.097  44.980  1.00  0.00     0.051 A 
ATOM     15  C   UNL     1       0.503 -14.899  45.592  1.00  0.00     0.157 A 
ATOM     16  C   UNL     1      -0.621 -14.245  47.640  1.00  0.00     0.062 A 
ATOM     17  C   UNL     1       0.563 -14.475  46.925  1.00  0.00     0.158 A 
BRANCH  15  18
ATOM     18  O   UNL     1       1.681 -15.125  44.884  1.00  0.00    -0.504 OA
ATOM     19  H   UNL     1       1.691 -15.174  43.872  1.00  0.00     0.293 HD
ENDBRANCH  15  18
BRANCH  17  20
ATOM     20  O   UNL     1       1.803 -14.284  47.533  1.00  0.00    -0.504 OA
ATOM     21  H   UNL     1       1.953 -14.502  48.512  1.00  0.00     0.293 HD
ENDBRANCH  17  20
ENDBRANCH   1  12
BRANCH   2  22
ATOM     22  O   UNL     1      -4.214 -13.104  45.942  1.00  0.00    -0.502 OA
ATOM     23  H   UNL     1      -4.325 -13.712  45.140  1.00  0.00     0.293 HD
ENDBRANCH   2  22
BRANCH   6  24
ATOM     24  O   UNL     1      -7.787 -13.414  49.880  1.00  0.00    -0.507 OA
ATOM     25  H   UNL     1      -8.161 -13.510  48.947  1.00  0.00     0.293 HD
ENDBRANCH   6  24
BRANCH   8  26
ATOM     26  O   UNL     1      -5.035 -15.091  53.416  1.00  0.00    -0.508 OA
ATOM     27  H   UNL     1      -4.225 -14.841  53.972  1.00  0.00     0.293 HD
ENDBRANCH   8  26
TORSDOF 6
ENDMDL
MODEL 3
REMARK VINA RESULT:    -3.024      1.756      7.385
REMARK INTER + INTRA:          -3.351
REMARK INTER:                  -3.905
REMARK INTRA:                   0.554
REMARK UNBOUND:                 0.292
REMARK SMILES O=c1c(O)c(-c2ccc(O)c(O)c2)oc2cc(O)cc(O)c12
REMARK SMILES IDX 5 1 3 2 2 3 1 4 22 5 20 6 19 7 17 8 16 9 15 10 14 11 6 12
REMARK SMILES IDX 7 13 8 14 9 15 13 16 11 17 10 18 12 20 4 22 21 24 18 26
REMARK H PARENT 10 19 12 21 4 23 21 25 18 27
REMARK Flexibility Score: inf
ROOT
ATOM      1  C   UNL     1      -4.714 -14.580  50.799  1.00  0.00     0.180 A 
ATOM      2  C   UNL     1      -3.343 -14.885  50.855  1.00  0.00     0.208 A 
ATOM      3  C   UNL     1      -2.600 -14.905  49.665  1.00  0.00     0.238 A 
ATOM      4  O   UNL     1      -1.362 -15.125  49.727  1.00  0.00    -0.285 OA
ATOM      5  C   UNL     1      -3.241 -14.637  48.430  1.00  0.00     0.111 A 
ATOM      6  C   UNL     1      -2.595 -14.670  47.158  1.00  0.00     0.134 A 
ATOM      7  C   UNL     1      -3.295 -14.260  46.017  1.00  0.00     0.093 A 
ATOM      8  C   UNL     1      -4.636 -13.882  46.092  1.00  0.00     0.123 A 
ATOM      9  C   UNL     1      -5.294 -13.903  47.322  1.00  0.00     0.094 A 
ATOM     10  C   UNL     1      -4.612 -14.273  48.483  1.00  0.00     0.146 A 
ATOM     11  O   UNL     1      -5.272 -14.269  49.635  1.00  0.00    -0.452 OA
ENDROOT
BRANCH   1  12
ATOM     12  C   UNL     1      -5.568 -14.563  52.009  1.00  0.00     0.025 A 
ATOM     13  C   UNL     1      -6.927 -14.207  51.942  1.00  0.00     0.016 A 
ATOM     14  C   UNL     1      -7.707 -14.176  53.101  1.00  0.00     0.051 A 
ATOM     15  C   UNL     1      -7.139 -14.486  54.343  1.00  0.00     0.157 A 
ATOM     16  C   UNL     1      -4.999 -14.853  53.261  1.00  0.00     0.062 A 
ATOM     17  C   UNL     1      -5.783 -14.822  54.424  1.00  0.00     0.158 A 
BRANCH  15  18
ATOM     18  O   UNL     1      -7.915 -14.457  55.501  1.00  0.00    -0.504 OA
ATOM     19  H   UNL     1      -8.358 -15.293  55.862  1.00  0.00     0.293 HD
ENDBRANCH  15  18
BRANCH  17  20
ATOM     20  O   UNL     1      -5.219 -15.123  55.662  1.00  0.00    -0.504 OA
ATOM     21  H   UNL     1      -5.669 -15.760  56.310  1.00  0.00     0.293 HD
ENDBRANCH  17  20
ENDBRANCH   1  12
BRANCH   2  22
ATOM     22  O   UNL     1      -2.726 -15.125  52.087  1.00  0.00    -0.502 OA
ATOM     23  H   UNL     1      -2.496 -16.058  52.407  1.00  0.00     0.293 HD
ENDBRANCH   2  22
BRANCH   6  24
ATOM     24  O   UNL     1      -1.287 -15.120  46.959  1.00  0.00    -0.507 OA
ATOM     25  H   UNL     1      -1.004 -15.766  46.238  1.00  0.00     0.293 HD
ENDBRANCH   6  24
BRANCH   8  26
ATOM     26  O   UNL     1      -5.305 -13.496  44.933  1.00  0.00    -0.508 OA
ATOM     27  H   UNL     1      -5.576 -12.531  44.775  1.00  0.00     0.293 HD
ENDBRANCH   8  26
TORSDOF 6
ENDMDL
