MODEL 1
REMARK VINA RESULT:    -6.717      0.000      0.000
REMARK INTER + INTRA:          -8.003
REMARK INTER:                  -8.091
REMARK INTRA:                   0.088
REMARK UNBOUND:                 0.088
REMARK SMILES O=c1c(O)c(-c2ccc(O)c(O)c2)oc2cc(O)cc(O)c12
REMARK SMILES IDX 5 1 3 2 2 3 1 4 22 5 20 6 19 7 17 8 16 9 15 10 14 11 6 12
REMARK SMILES IDX 7 13 8 14 9 15 13 16 11 17 10 18 12 20 4 22 21 24 18 26
REMARK H PARENT 10 19 12 21 4 23 21 25 18 27
REMARK Flexibility Score: inf
ROOT
ATOM      1  C   UNL     1     116.884 116.861  99.763  1.00  0.00     0.180 A 
ATOM      2  C   UNL     1     116.460 116.776  98.427  1.00  0.00     0.208 A 
ATOM      3  C   UNL     1     115.477 115.833  98.083  1.00  0.00     0.238 A 
ATOM      4  O   UNL     1     115.140 115.725  96.875  1.00  0.00    -0.285 OA
ATOM      5  C   UNL     1     114.921 114.999  99.083  1.00  0.00     0.111 A 
ATOM      6  C   UNL     1     113.892 114.037  98.855  1.00  0.00     0.134 A 
ATOM      7  C   UNL     1     113.510 113.176  99.891  1.00  0.00     0.093 A 
ATOM      8  C   UNL     1     114.071 113.285 101.162  1.00  0.00     0.123 A 
ATOM      9  C   UNL     1     115.037 114.261 101.412  1.00  0.00     0.094 A 
ATOM     10  C   UNL     1     115.465 115.111 100.389  1.00  0.00     0.146 A 
ATOM     11  O   UNL     1     116.392 116.020 100.665  1.00  0.00    -0.452 OA
ENDROOT
BRANCH   1  12
ATOM     12  C   UNL     1     117.897 117.846 100.208  1.00  0.00     0.025 A 
ATOM     13  C   UNL     1     117.717 118.603 101.379  1.00  0.00     0.016 A 
ATOM     14  C   UNL     1     118.697 119.510 101.791  1.00  0.00     0.051 A 
ATOM     15  C   UNL     1     119.873 119.666 101.052  1.00  0.00     0.157 A 
ATOM     16  C   UNL     1     119.089 117.990  99.479  1.00  0.00     0.062 A 
ATOM     17  C   UNL     1     120.073 118.901  99.892  1.00  0.00     0.158 A 
BRANCH  15  18
ATOM     18  O   UNL     1     120.832 120.580 101.488  1.00  0.00    -0.504 OA
ATOM     19  H   UNL     1     121.649 120.808 100.935  1.00  0.00     0.293 HD
ENDBRANCH  15  18
BRANCH  17  20
ATOM     20  O   UNL     1     121.247 119.046  99.153  1.00  0.00    -0.504 OA
ATOM     21  H   UNL     1     121.639 119.958  98.953  1.00  0.00     0.293 HD
ENDBRANCH  17  20
ENDBRANCH   1  12
BRANCH   2  22
ATOM     22  O   UNL     1     117.037 117.594  97.452  1.00  0.00    -0.502 OA
ATOM     23  H   UNL     1     116.814 117.508  96.468  1.00  0.00     0.293 HD
ENDBRANCH   2  22
BRANCH   6  24
ATOM     24  O   UNL     1     113.200 113.906  97.648  1.00  0.00    -0.507 OA
ATOM     25  H   UNL     1     113.426 114.401  96.798  1.00  0.00     0.293 HD
ENDBRANCH   6  24
BRANCH   8  26
ATOM     26  O   UNL     1     113.657 112.421 102.174  1.00  0.00    -0.508 OA
ATOM     27  H   UNL     1     112.871 112.644 102.772  1.00  0.00     0.293 HD
ENDBRANCH   8  26
TORSDOF 6
ENDMDL
MODEL 2
REMARK VINA RESULT:    -6.552      1.925      6.749
REMARK INTER + INTRA:          -7.804
REMARK INTER:                  -7.499
REMARK INTRA:                  -0.306
REMARK UNBOUND:                 0.088
REMARK SMILES O=c1c(O)c(-c2ccc(O)c(O)c2)oc2cc(O)cc(O)c12
REMARK SMILES IDX 5 1 3 2 2 3 1 4 22 5 20 6 19 7 17 8 16 9 15 10 14 11 6 12
REMARK SMILES IDX 7 13 8 14 9 15 13 16 11 17 10 18 12 20 4 22 21 24 18 26
REMARK H PARENT 10 19 12 21 4 23 21 25 18 27
REMARK Flexibility Score: inf
ROOT
ATOM      1  C   UNL     1     115.540 114.813 101.353  1.00  0.00     0.180 A 
ATOM      2  C   UNL     1     115.137 114.784 100.008  1.00  0.00     0.208 A 
ATOM      3  C   UNL     1     115.664 115.733  99.118  1.00  0.00     0.238 A 
ATOM      4  O   UNL     1     115.257 115.737  97.927  1.00  0.00    -0.285 OA
ATOM      5  C   UNL     1     116.600 116.689  99.581  1.00  0.00     0.111 A 
ATOM      6  C   UNL     1     117.230 117.672  98.759  1.00  0.00     0.134 A 
ATOM      7  C   UNL     1     118.040 118.650  99.350  1.00  0.00     0.093 A 
ATOM      8  C   UNL     1     118.297 118.642 100.719  1.00  0.00     0.123 A 
ATOM      9  C   UNL     1     117.734 117.650 101.524  1.00  0.00     0.094 A 
ATOM     10  C   UNL     1     116.892 116.683 100.970  1.00  0.00     0.146 A 
ATOM     11  O   UNL     1     116.369 115.762 101.771  1.00  0.00    -0.452 OA
ENDROOT
BRANCH   1  12
ATOM     12  C   UNL     1     115.048 113.830 102.346  1.00  0.00     0.025 A 
ATOM     13  C   UNL     1     115.588 112.534 102.421  1.00  0.00     0.016 A 
ATOM     14  C   UNL     1     115.124 111.630 103.381  1.00  0.00     0.051 A 
ATOM     15  C   UNL     1     114.127 112.008 104.285  1.00  0.00     0.157 A 
ATOM     16  C   UNL     1     114.062 114.213 103.269  1.00  0.00     0.062 A 
ATOM     17  C   UNL     1     113.595 113.307 104.233  1.00  0.00     0.158 A 
BRANCH  15  18
ATOM     18  O   UNL     1     113.684 111.084 105.231  1.00  0.00    -0.504 OA
ATOM     19  H   UNL     1     113.391 111.363 106.160  1.00  0.00     0.293 HD
ENDBRANCH  15  18
BRANCH  17  20
ATOM     20  O   UNL     1     112.606 113.693 105.137  1.00  0.00    -0.504 OA
ATOM     21  H   UNL     1     112.747 114.463 105.780  1.00  0.00     0.293 HD
ENDBRANCH  17  20
ENDBRANCH   1  12
BRANCH   2  22
ATOM     22  O   UNL     1     114.195 113.846  99.576  1.00  0.00    -0.502 OA
ATOM     23  H   UNL     1     114.386 113.187  98.831  1.00  0.00     0.293 HD
ENDBRANCH   2  22
BRANCH   6  24
ATOM     24  O   UNL     1     117.113 117.715  97.367  1.00  0.00    -0.507 OA
ATOM     25  H   UNL     1     117.177 116.912  96.759  1.00  0.00     0.293 HD
ENDBRANCH   6  24
BRANCH   8  26
ATOM     26  O   UNL     1     119.121 119.621 101.270  1.00  0.00    -0.508 OA
ATOM     27  H   UNL     1     119.805 120.116 100.711  1.00  0.00     0.293 HD
ENDBRANCH   8  26
TORSDOF 6
ENDMDL
MODEL 3
REMARK VINA RESULT:    -6.513      8.018     10.448
REMARK INTER + INTRA:          -7.757
REMARK INTER:                  -7.424
REMARK INTRA:                  -0.333
REMARK UNBOUND:                 0.088
REMARK SMILES O=c1c(O)c(-c2ccc(O)c(O)c2)oc2cc(O)cc(O)c12
REMARK SMILES IDX 5 1 3 2 2 3 1 4 22 5 20 6 19 7 17 8 16 9 15 10 14 11 6 12
REMARK SMILES IDX 7 13 8 14 9 15 13 16 11 17 10 18 12 20 4 22 21 24 18 26
REMARK H PARENT 10 19 12 21 4 23 21 25 18 27
REMARK Flexibility Score: inf
ROOT
ATOM      1  C   UNL     1     107.830 113.596 101.288  1.00  0.00     0.180 A 
ATOM      2  C   UNL     1     108.086 113.251  99.950  1.00  0.00     0.208 A 
ATOM      3  C   UNL     1     107.025 113.261  99.030  1.00  0.00     0.238 A 
ATOM      4  O   UNL     1     107.250 112.899  97.845  1.00  0.00    -0.285 OA
ATOM      5  C   UNL     1     105.726 113.630  99.455  1.00  0.00     0.111 A 
ATOM      6  C   UNL     1     104.586 113.713  98.600  1.00  0.00     0.134 A 
ATOM      7  C   UNL     1     103.325 113.962  99.154  1.00  0.00     0.093 A 
ATOM      8  C   UNL     1     103.170 114.195 100.519  1.00  0.00     0.123 A 
ATOM      9  C   UNL     1     104.287 114.175 101.356  1.00  0.00     0.094 A 
ATOM     10  C   UNL     1     105.554 113.893 100.839  1.00  0.00     0.146 A 
ATOM     11  O   UNL     1     106.589 113.874 101.670  1.00  0.00    -0.452 OA
ENDROOT
BRANCH   1  12
ATOM     12  C   UNL     1     108.900 113.634 102.311  1.00  0.00     0.025 A 
ATOM     13  C   UNL     1     109.673 114.790 102.519  1.00  0.00     0.016 A 
ATOM     14  C   UNL     1     110.661 114.810 103.506  1.00  0.00     0.051 A 
ATOM     15  C   UNL     1     110.885 113.687 104.307  1.00  0.00     0.157 A 
ATOM     16  C   UNL     1     109.113 112.514 103.131  1.00  0.00     0.062 A 
ATOM     17  C   UNL     1     110.106 112.533 104.122  1.00  0.00     0.158 A 
BRANCH  15  18
ATOM     18  O   UNL     1     111.880 113.736 105.283  1.00  0.00    -0.504 OA
ATOM     19  H   UNL     1     112.439 114.566 105.441  1.00  0.00     0.293 HD
ENDBRANCH  15  18
BRANCH  17  20
ATOM     20  O   UNL     1     110.318 111.411 104.922  1.00  0.00    -0.504 OA
ATOM     21  H   UNL     1     109.551 110.930 105.376  1.00  0.00     0.293 HD
ENDBRANCH  17  20
ENDBRANCH   1  12
BRANCH   2  22
ATOM     22  O   UNL     1     109.371 112.869  99.556  1.00  0.00    -0.502 OA
ATOM     23  H   UNL     1     109.666 111.900  99.530  1.00  0.00     0.293 HD
ENDBRANCH   2  22
BRANCH   6  24
ATOM     24  O   UNL     1     104.644 113.587  97.209  1.00  0.00    -0.507 OA
ATOM     25  H   UNL     1     105.136 112.856  96.718  1.00  0.00     0.293 HD
ENDBRANCH   6  24
BRANCH   8  26
ATOM     26  O   UNL     1     101.902 114.455 101.033  1.00  0.00    -0.508 OA
ATOM     27  H   UNL     1     101.712 115.283 101.584  1.00  0.00     0.293 HD
ENDBRANCH   8  26
TORSDOF 6
ENDMDL
MODEL 4
REMARK VINA RESULT:    -6.494     11.923     14.654
REMARK INTER + INTRA:          -7.735
REMARK INTER:                  -7.417
REMARK INTRA:                  -0.318
REMARK UNBOUND:                 0.088
REMARK SMILES O=c1c(O)c(-c2ccc(O)c(O)c2)oc2cc(O)cc(O)c12
REMARK SMILES IDX 5 1 3 2 2 3 1 4 22 5 20 6 19 7 17 8 16 9 15 10 14 11 6 12
REMARK SMILES IDX 7 13 8 14 9 15 13 16 11 17 10 18 12 20 4 22 21 24 18 26
REMARK H PARENT 10 19 12 21 4 23 21 25 18 27
REMARK Flexibility Score: inf
ROOT
ATOM      1  C   UNL     1     113.275 108.418 110.433  1.00  0.00     0.180 A 
ATOM      2  C   UNL     1     112.193 109.274 110.165  1.00  0.00     0.208 A 
ATOM      3  C   UNL     1     111.051 109.203 110.978  1.00  0.00     0.238 A 
ATOM      4  O   UNL     1     110.064 109.933 110.699  1.00  0.00    -0.285 OA
ATOM      5  C   UNL     1     111.011 108.289 112.059  1.00  0.00     0.111 A 
ATOM      6  C   UNL     1     109.921 108.160 112.972  1.00  0.00     0.134 A 
ATOM      7  C   UNL     1     109.935 107.133 113.923  1.00  0.00     0.093 A 
ATOM      8  C   UNL     1     111.025 106.273 114.039  1.00  0.00     0.123 A 
ATOM      9  C   UNL     1     112.123 106.427 113.190  1.00  0.00     0.094 A 
ATOM     10  C   UNL     1     112.122 107.419 112.207  1.00  0.00     0.146 A 
ATOM     11  O   UNL     1     113.182 107.527 111.413  1.00  0.00    -0.452 OA
ENDROOT
BRANCH   1  12
ATOM     12  C   UNL     1     114.523 108.452 109.637  1.00  0.00     0.025 A 
ATOM     13  C   UNL     1     115.526 109.405 109.887  1.00  0.00     0.016 A 
ATOM     14  C   UNL     1     116.705 109.403 109.139  1.00  0.00     0.051 A 
ATOM     15  C   UNL     1     116.909 108.445 108.141  1.00  0.00     0.157 A 
ATOM     16  C   UNL     1     114.739 107.478 108.648  1.00  0.00     0.062 A 
ATOM     17  C   UNL     1     115.923 107.475 107.895  1.00  0.00     0.158 A 
BRANCH  15  18
ATOM     18  O   UNL     1     118.096 108.469 107.409  1.00  0.00    -0.504 OA
ATOM     19  H   UNL     1     118.997 108.607 107.849  1.00  0.00     0.293 HD
ENDBRANCH  15  18
BRANCH  17  20
ATOM     20  O   UNL     1     116.122 106.512 106.907  1.00  0.00    -0.504 OA
ATOM     21  H   UNL     1     116.262 105.536 107.137  1.00  0.00     0.293 HD
ENDBRANCH  17  20
ENDBRANCH   1  12
BRANCH   2  22
ATOM     22  O   UNL     1     112.245 110.153 109.079  1.00  0.00    -0.502 OA
ATOM     23  H   UNL     1     111.964 109.880 108.145  1.00  0.00     0.293 HD
ENDBRANCH   2  22
BRANCH   6  24
ATOM     24  O   UNL     1     108.823 109.024 113.002  1.00  0.00    -0.507 OA
ATOM     25  H   UNL     1     108.877 110.019 113.163  1.00  0.00     0.293 HD
ENDBRANCH   6  24
BRANCH   8  26
ATOM     26  O   UNL     1     111.013 105.272 115.008  1.00  0.00    -0.508 OA
ATOM     27  H   UNL     1     111.301 104.324 114.795  1.00  0.00     0.293 HD
ENDBRANCH   8  26
TORSDOF 6
ENDMDL
MODEL 5
REMARK VINA RESULT:    -6.479     13.017     15.694
REMARK INTER + INTRA:          -7.717
REMARK INTER:                  -7.404
REMARK INTRA:                  -0.313
REMARK UNBOUND:                 0.088
REMARK SMILES O=c1c(O)c(-c2ccc(O)c(O)c2)oc2cc(O)cc(O)c12
REMARK SMILES IDX 5 1 3 2 2 3 1 4 22 5 20 6 19 7 17 8 16 9 15 10 14 11 6 12
REMARK SMILES IDX 7 13 8 14 9 15 13 16 11 17 10 18 12 20 4 22 21 24 18 26
REMARK H PARENT 10 19 12 21 4 23 21 25 18 27
REMARK Flexibility Score: inf
ROOT
ATOM      1  C   UNL     1     108.253 112.692 110.408  1.00  0.00     0.180 A 
ATOM      2  C   UNL     1     109.523 113.218 110.121  1.00  0.00     0.208 A 
ATOM      3  C   UNL     1     110.036 114.240 110.937  1.00  0.00     0.238 A 
ATOM      4  O   UNL     1     111.151 114.745 110.643  1.00  0.00    -0.285 OA
ATOM      5  C   UNL     1     109.280 114.710 112.038  1.00  0.00     0.111 A 
ATOM      6  C   UNL     1     109.718 115.712 112.954  1.00  0.00     0.134 A 
ATOM      7  C   UNL     1     108.834 116.192 113.928  1.00  0.00     0.093 A 
ATOM      8  C   UNL     1     107.553 115.661 114.062  1.00  0.00     0.123 A 
ATOM      9  C   UNL     1     107.134 114.639 113.210  1.00  0.00     0.094 A 
ATOM     10  C   UNL     1     107.980 114.165 112.204  1.00  0.00     0.146 A 
ATOM     11  O   UNL     1     107.540 113.198 111.407  1.00  0.00    -0.452 OA
ENDROOT
BRANCH   1  12
ATOM     12  C   UNL     1     107.655 111.596 109.610  1.00  0.00     0.025 A 
ATOM     13  C   UNL     1     108.016 110.254 109.823  1.00  0.00     0.016 A 
ATOM     14  C   UNL     1     107.422 109.236 109.074  1.00  0.00     0.051 A 
ATOM     15  C   UNL     1     106.452 109.536 108.113  1.00  0.00     0.157 A 
ATOM     16  C   UNL     1     106.665 111.893 108.659  1.00  0.00     0.062 A 
ATOM     17  C   UNL     1     106.068 110.871 107.906  1.00  0.00     0.158 A 
BRANCH  15  18
ATOM     18  O   UNL     1     105.877 108.498 107.380  1.00  0.00    -0.504 OA
ATOM     19  H   UNL     1     106.340 108.083 106.582  1.00  0.00     0.293 HD
ENDBRANCH  15  18
BRANCH  17  20
ATOM     20  O   UNL     1     105.096 111.179 106.954  1.00  0.00    -0.504 OA
ATOM     21  H   UNL     1     105.192 111.976 106.336  1.00  0.00     0.293 HD
ENDBRANCH  17  20
ENDBRANCH   1  12
BRANCH   2  22
ATOM     22  O   UNL     1     110.243 112.755 109.017  1.00  0.00    -0.502 OA
ATOM     23  H   UNL     1     110.100 113.119 108.083  1.00  0.00     0.293 HD
ENDBRANCH   2  22
BRANCH   6  24
ATOM     24  O   UNL     1     111.010 116.246 112.966  1.00  0.00    -0.507 OA
ATOM     25  H   UNL     1     111.312 117.011 113.551  1.00  0.00     0.293 HD
ENDBRANCH   6  24
BRANCH   8  26
ATOM     26  O   UNL     1     106.705 116.152 115.053  1.00  0.00    -0.508 OA
ATOM     27  H   UNL     1     106.815 115.887 116.024  1.00  0.00     0.293 HD
ENDBRANCH   8  26
TORSDOF 6
ENDMDL
MODEL 6
REMARK VINA RESULT:    -6.478      9.930     12.238
REMARK INTER + INTRA:          -7.715
REMARK INTER:                  -7.388
REMARK INTRA:                  -0.327
REMARK UNBOUND:                 0.088
REMARK SMILES O=c1c(O)c(-c2ccc(O)c(O)c2)oc2cc(O)cc(O)c12
REMARK SMILES IDX 5 1 3 2 2 3 1 4 22 5 20 6 19 7 17 8 16 9 15 10 14 11 6 12
REMARK SMILES IDX 7 13 8 14 9 15 13 16 11 17 10 18 12 20 4 22 21 24 18 26
REMARK H PARENT 10 19 12 21 4 23 21 25 18 27
REMARK Flexibility Score: inf
ROOT
ATOM      1  C   UNL     1     114.468 114.931 110.427  1.00  0.00     0.180 A 
ATOM      2  C   UNL     1     114.314 113.570 110.117  1.00  0.00     0.208 A 
ATOM      3  C   UNL     1     114.953 112.613 110.922  1.00  0.00     0.238 A 
ATOM      4  O   UNL     1     114.857 111.397 110.607  1.00  0.00    -0.285 OA
ATOM      5  C   UNL     1     115.723 113.028 112.035  1.00  0.00     0.111 A 
ATOM      6  C   UNL     1     116.381 112.144 112.942  1.00  0.00     0.134 A 
ATOM      7  C   UNL     1     117.222 112.669 113.930  1.00  0.00     0.093 A 
ATOM      8  C   UNL     1     117.379 114.044 114.087  1.00  0.00     0.123 A 
ATOM      9  C   UNL     1     116.694 114.920 113.244  1.00  0.00     0.094 A 
ATOM     10  C   UNL     1     115.876 114.426 112.225  1.00  0.00     0.146 A 
ATOM     11  O   UNL     1     115.249 115.293 111.437  1.00  0.00    -0.452 OA
ENDROOT
BRANCH   1  12
ATOM     12  C   UNL     1     113.805 115.998 109.641  1.00  0.00     0.025 A 
ATOM     13  C   UNL     1     112.478 116.381 109.902  1.00  0.00     0.016 A 
ATOM     14  C   UNL     1     111.881 117.406 109.163  1.00  0.00     0.051 A 
ATOM     15  C   UNL     1     112.599 118.071 108.165  1.00  0.00     0.157 A 
ATOM     16  C   UNL     1     114.531 116.682 108.653  1.00  0.00     0.062 A 
ATOM     17  C   UNL     1     113.933 117.711 107.910  1.00  0.00     0.158 A 
BRANCH  15  18
ATOM     18  O   UNL     1     111.976 119.089 107.444  1.00  0.00    -0.504 OA
ATOM     19  H   UNL     1     111.319 118.896 106.698  1.00  0.00     0.293 HD
ENDBRANCH  15  18
BRANCH  17  20
ATOM     20  O   UNL     1     114.658 118.374 106.922  1.00  0.00    -0.504 OA
ATOM     21  H   UNL     1     115.489 117.967 106.509  1.00  0.00     0.293 HD
ENDBRANCH  17  20
ENDBRANCH   1  12
BRANCH   2  22
ATOM     22  O   UNL     1     113.568 113.182 109.001  1.00  0.00    -0.502 OA
ATOM     23  H   UNL     1     112.606 113.467 108.865  1.00  0.00     0.293 HD
ENDBRANCH   2  22
BRANCH   6  24
ATOM     24  O   UNL     1     116.222 110.755 112.930  1.00  0.00    -0.507 OA
ATOM     25  H   UNL     1     116.190 110.186 112.098  1.00  0.00     0.293 HD
ENDBRANCH   6  24
BRANCH   8  26
ATOM     26  O   UNL     1     118.212 114.532 115.092  1.00  0.00    -0.508 OA
ATOM     27  H   UNL     1     117.837 114.956 115.932  1.00  0.00     0.293 HD
ENDBRANCH   8  26
TORSDOF 6
ENDMDL
MODEL 7
REMARK VINA RESULT:    -6.205      9.739     12.718
REMARK INTER + INTRA:          -7.387
REMARK INTER:                  -7.055
REMARK INTRA:                  -0.331
REMARK UNBOUND:                 0.088
REMARK SMILES O=c1c(O)c(-c2ccc(O)c(O)c2)oc2cc(O)cc(O)c12
REMARK SMILES IDX 5 1 3 2 2 3 1 4 22 5 20 6 19 7 17 8 16 9 15 10 14 11 6 12
REMARK SMILES IDX 7 13 8 14 9 15 13 16 11 17 10 18 12 20 4 22 21 24 18 26
REMARK H PARENT 10 19 12 21 4 23 21 25 18 27
REMARK Flexibility Score: inf
ROOT
ATOM      1  C   UNL     1     111.790 109.332 106.581  1.00  0.00     0.180 A 
ATOM      2  C   UNL     1     112.519 110.526 106.453  1.00  0.00     0.208 A 
ATOM      3  C   UNL     1     113.921 110.466 106.406  1.00  0.00     0.238 A 
ATOM      4  O   UNL     1     114.570 111.543 106.346  1.00  0.00    -0.285 OA
ATOM      5  C   UNL     1     114.575 109.212 106.472  1.00  0.00     0.111 A 
ATOM      6  C   UNL     1     115.989 109.030 106.393  1.00  0.00     0.134 A 
ATOM      7  C   UNL     1     116.534 107.757 106.601  1.00  0.00     0.093 A 
ATOM      8  C   UNL     1     115.716 106.651 106.818  1.00  0.00     0.123 A 
ATOM      9  C   UNL     1     114.330 106.806 106.839  1.00  0.00     0.094 A 
ATOM     10  C   UNL     1     113.757 108.070 106.671  1.00  0.00     0.146 A 
ATOM     11  O   UNL     1     112.434 108.178 106.707  1.00  0.00    -0.452 OA
ENDROOT
BRANCH   1  12
ATOM     12  C   UNL     1     110.309 109.311 106.611  1.00  0.00     0.025 A 
ATOM     13  C   UNL     1     109.555 109.194 105.431  1.00  0.00     0.016 A 
ATOM     14  C   UNL     1     108.160 109.153 105.486  1.00  0.00     0.051 A 
ATOM     15  C   UNL     1     107.497 109.215 106.716  1.00  0.00     0.157 A 
ATOM     16  C   UNL     1     109.642 109.352 107.846  1.00  0.00     0.062 A 
ATOM     17  C   UNL     1     108.241 109.312 107.903  1.00  0.00     0.158 A 
BRANCH  15  18
ATOM     18  O   UNL     1     106.103 109.174 106.739  1.00  0.00    -0.504 OA
ATOM     19  H   UNL     1     105.586 108.331 106.521  1.00  0.00     0.293 HD
ENDBRANCH  15  18
BRANCH  17  20
ATOM     20  O   UNL     1     107.588 109.367 109.134  1.00  0.00    -0.504 OA
ATOM     21  H   UNL     1     107.314 108.525 109.627  1.00  0.00     0.293 HD
ENDBRANCH  17  20
ENDBRANCH   1  12
BRANCH   2  22
ATOM     22  O   UNL     1     111.854 111.755 106.411  1.00  0.00    -0.502 OA
ATOM     23  H   UNL     1     112.257 112.576 105.977  1.00  0.00     0.293 HD
ENDBRANCH   2  22
BRANCH   6  24
ATOM     24  O   UNL     1     116.891 110.054 106.090  1.00  0.00    -0.507 OA
ATOM     25  H   UNL     1     116.974 110.919 106.602  1.00  0.00     0.293 HD
ENDBRANCH   6  24
BRANCH   8  26
ATOM     26  O   UNL     1     116.292 105.396 107.006  1.00  0.00    -0.508 OA
ATOM     27  H   UNL     1     115.892 104.561 106.593  1.00  0.00     0.293 HD
ENDBRANCH   8  26
TORSDOF 6
ENDMDL
MODEL 8
REMARK VINA RESULT:    -6.175      8.487     10.838
REMARK INTER + INTRA:          -7.350
REMARK INTER:                  -7.019
REMARK INTRA:                  -0.331
REMARK UNBOUND:                 0.088
REMARK SMILES O=c1c(O)c(-c2ccc(O)c(O)c2)oc2cc(O)cc(O)c12
REMARK SMILES IDX 5 1 3 2 2 3 1 4 22 5 20 6 19 7 17 8 16 9 15 10 14 11 6 12
REMARK SMILES IDX 7 13 8 14 9 15 13 16 11 17 10 18 12 20 4 22 21 24 18 26
REMARK H PARENT 10 19 12 21 4 23 21 25 18 27
REMARK Flexibility Score: inf
ROOT
ATOM      1  C   UNL     1     109.818 113.451 106.599  1.00  0.00     0.180 A 
ATOM      2  C   UNL     1     110.494 112.224 106.504  1.00  0.00     0.208 A 
ATOM      3  C   UNL     1     109.747 111.035 106.487  1.00  0.00     0.238 A 
ATOM      4  O   UNL     1     110.361 109.936 106.456  1.00  0.00    -0.285 OA
ATOM      5  C   UNL     1     108.334 111.089 106.551  1.00  0.00     0.111 A 
ATOM      6  C   UNL     1     107.475 109.950 106.501  1.00  0.00     0.134 A 
ATOM      7  C   UNL     1     106.100 110.113 106.703  1.00  0.00     0.093 A 
ATOM      8  C   UNL     1     105.543 111.377 106.887  1.00  0.00     0.123 A 
ATOM      9  C   UNL     1     106.366 112.504 106.879  1.00  0.00     0.094 A 
ATOM     10  C   UNL     1     107.747 112.371 106.716  1.00  0.00     0.146 A 
ATOM     11  O   UNL     1     108.497 113.467 106.723  1.00  0.00    -0.452 OA
ENDROOT
BRANCH   1  12
ATOM     12  C   UNL     1     110.534 114.748 106.597  1.00  0.00     0.025 A 
ATOM     13  C   UNL     1     110.809 115.430 105.398  1.00  0.00     0.016 A 
ATOM     14  C   UNL     1     111.465 116.663 105.422  1.00  0.00     0.051 A 
ATOM     15  C   UNL     1     111.844 117.240 106.637  1.00  0.00     0.157 A 
ATOM     16  C   UNL     1     110.897 115.340 107.817  1.00  0.00     0.062 A 
ATOM     17  C   UNL     1     111.557 116.579 107.842  1.00  0.00     0.158 A 
BRANCH  15  18
ATOM     18  O   UNL     1     112.499 118.472 106.629  1.00  0.00    -0.504 OA
ATOM     19  H   UNL     1     113.377 118.611 106.144  1.00  0.00     0.293 HD
ENDBRANCH  15  18
BRANCH  17  20
ATOM     20  O   UNL     1     111.925 117.151 109.059  1.00  0.00    -0.504 OA
ATOM     21  H   UNL     1     111.615 118.079 109.324  1.00  0.00     0.293 HD
ENDBRANCH  17  20
ENDBRANCH   1  12
BRANCH   2  22
ATOM     22  O   UNL     1     111.891 112.191 106.464  1.00  0.00    -0.502 OA
ATOM     23  H   UNL     1     112.464 112.897 106.910  1.00  0.00     0.293 HD
ENDBRANCH   2  22
BRANCH   6  24
ATOM     24  O   UNL     1     107.918 108.652 106.232  1.00  0.00    -0.507 OA
ATOM     25  H   UNL     1     107.726 107.847 106.809  1.00  0.00     0.293 HD
ENDBRANCH   6  24
BRANCH   8  26
ATOM     26  O   UNL     1     104.168 111.504 107.070  1.00  0.00    -0.508 OA
ATOM     27  H   UNL     1     103.722 112.411 107.127  1.00  0.00     0.293 HD
ENDBRANCH   8  26
TORSDOF 6
ENDMDL
MODEL 9
REMARK VINA RESULT:    -6.153      7.642      9.843
REMARK INTER + INTRA:          -7.324
REMARK INTER:                  -6.996
REMARK INTRA:                  -0.328
REMARK UNBOUND:                 0.088
REMARK SMILES O=c1c(O)c(-c2ccc(O)c(O)c2)oc2cc(O)cc(O)c12
REMARK SMILES IDX 5 1 3 2 2 3 1 4 22 5 20 6 19 7 17 8 16 9 15 10 14 11 6 12
REMARK SMILES IDX 7 13 8 14 9 15 13 16 11 17 10 18 12 20 4 22 21 24 18 26
REMARK H PARENT 10 19 12 21 4 23 21 25 18 27
REMARK Flexibility Score: inf
ROOT
ATOM      1  C   UNL     1     114.470 113.125 106.688  1.00  0.00     0.180 A 
ATOM      2  C   UNL     1     113.071 113.165 106.563  1.00  0.00     0.208 A 
ATOM      3  C   UNL     1     112.430 114.413 106.497  1.00  0.00     0.238 A 
ATOM      4  O   UNL     1     111.173 114.444 106.441  1.00  0.00    -0.285 OA
ATOM      5  C   UNL     1     113.197 115.602 106.540  1.00  0.00     0.111 A 
ATOM      6  C   UNL     1     112.656 116.920 106.440  1.00  0.00     0.134 A 
ATOM      7  C   UNL     1     113.494 118.026 106.626  1.00  0.00     0.093 A 
ATOM      8  C   UNL     1     114.861 117.866 106.842  1.00  0.00     0.123 A 
ATOM      9  C   UNL     1     115.411 116.584 106.882  1.00  0.00     0.094 A 
ATOM     10  C   UNL     1     114.595 115.459 106.737  1.00  0.00     0.146 A 
ATOM     11  O   UNL     1     115.155 114.257 106.792  1.00  0.00    -0.452 OA
ENDROOT
BRANCH   1  12
ATOM     12  C   UNL     1     115.220 111.848 106.738  1.00  0.00     0.025 A 
ATOM     13  C   UNL     1     115.731 111.253 105.571  1.00  0.00     0.016 A 
ATOM     14  C   UNL     1     116.456 110.061 105.646  1.00  0.00     0.051 A 
ATOM     15  C   UNL     1     116.693 109.452 106.882  1.00  0.00     0.157 A 
ATOM     16  C   UNL     1     115.478 111.245 107.980  1.00  0.00     0.062 A 
ATOM     17  C   UNL     1     116.205 110.048 108.056  1.00  0.00     0.158 A 
BRANCH  15  18
ATOM     18  O   UNL     1     117.418 108.262 106.924  1.00  0.00    -0.504 OA
ATOM     19  H   UNL     1     117.747 107.802 106.084  1.00  0.00     0.293 HD
ENDBRANCH  15  18
BRANCH  17  20
ATOM     20  O   UNL     1     116.443 109.451 109.293  1.00  0.00    -0.504 OA
ATOM     21  H   UNL     1     116.243 108.471 109.457  1.00  0.00     0.293 HD
ENDBRANCH  17  20
ENDBRANCH   1  12
BRANCH   2  22
ATOM     22  O   UNL     1     112.332 111.979 106.545  1.00  0.00    -0.502 OA
ATOM     23  H   UNL     1     112.693 111.108 106.913  1.00  0.00     0.293 HD
ENDBRANCH   2  22
BRANCH   6  24
ATOM     24  O   UNL     1     111.319 117.193 106.136  1.00  0.00    -0.507 OA
ATOM     25  H   UNL     1     110.938 118.116 105.993  1.00  0.00     0.293 HD
ENDBRANCH   6  24
BRANCH   8  26
ATOM     26  O   UNL     1     115.668 118.990 107.007  1.00  0.00    -0.508 OA
ATOM     27  H   UNL     1     115.490 119.850 106.502  1.00  0.00     0.293 HD
ENDBRANCH   8  26
TORSDOF 6
ENDMDL
