MODEL 1
REMARK VINA RESULT:    -6.022      0.000      0.000
REMARK INTER + INTRA:          -9.060
REMARK INTER:                  -7.958
REMARK INTRA:                  -1.102
REMARK UNBOUND:                -1.102
REMARK SMILES CC(C)=CCC[C@@H](C(=O)[O-])[C@H]1CC[C@]2(C)C3=C(CC[C@]12C)[C@@]1(C)CC[C@H](O)C(C)(C)[C@@H]1CC3
REMARK SMILES IDX 6 1 7 2 8 3 9 4 10 5 11 6 12 7 20 8 13 9 14 10 19 11 21 12
REMARK SMILES IDX 15 13 16 14 18 15 17 16 33 17 22 18 32 19 31 20 24 21 23 22
REMARK SMILES IDX 28 23 25 24 26 25 29 26 30 27 27 28 5 30 4 31 2 32 1 33 3 34
REMARK H PARENT 27 29
REMARK Flexibility Score: inf
ROOT
ATOM      1  C   UNL     1      -0.153 -12.212 -40.876  1.00  0.00     0.014 C 
ENDROOT
BRANCH   1   2
ATOM      2  C   UNL     1      -0.729 -10.910 -41.517  1.00  0.00     0.039 C 
BRANCH   2   3
ATOM      3  C   UNL     1       0.181 -10.371 -42.595  1.00  0.00     0.045 C 
ATOM      4  O   UNL     1       0.956 -11.140 -43.226  1.00  0.00    -0.550 OA
ATOM      5  O   UNL     1       0.196  -9.010 -42.874  1.00  0.00    -0.550 OA
ENDBRANCH   2   3
BRANCH   2   6
ATOM      6  C   UNL     1      -2.226 -10.944 -41.998  1.00  0.00     0.004 C 
ATOM      7  C   UNL     1      -2.864 -12.327 -42.211  1.00  0.00     0.006 C 
ATOM      8  C   UNL     1      -3.278 -10.138 -41.168  1.00  0.00    -0.020 C 
ATOM      9  C   UNL     1      -4.361 -12.157 -41.929  1.00  0.00     0.012 C 
ATOM     10  C   UNL     1      -4.625 -10.634 -41.793  1.00  0.00    -0.006 C 
ATOM     11  C   UNL     1      -3.153  -8.609 -41.297  1.00  0.00     0.012 C 
ATOM     12  C   UNL     1      -3.161 -10.470 -39.649  1.00  0.00     0.012 C 
ATOM     13  C   UNL     1      -5.857 -10.377 -40.888  1.00  0.00     0.017 C 
ATOM     14  C   UNL     1      -4.914  -9.981 -43.183  1.00  0.00    -0.064 C 
ATOM     15  C   UNL     1      -3.285  -8.095 -42.719  1.00  0.00     0.032 C 
ATOM     16  C   UNL     1      -4.351  -8.776 -43.562  1.00  0.00    -0.064 C 
ATOM     17  C   UNL     1      -5.883 -10.734 -44.122  1.00  0.00     0.032 C 
ATOM     18  C   UNL     1      -4.873  -8.027 -44.815  1.00  0.00    -0.008 C 
ATOM     19  C   UNL     1      -6.359  -9.997 -45.381  1.00  0.00     0.009 C 
ATOM     20  C   UNL     1      -5.216  -9.116 -45.896  1.00  0.00     0.007 C 
ATOM     21  C   UNL     1      -3.870  -6.985 -45.441  1.00  0.00     0.014 C 
ATOM     22  C   UNL     1      -6.105  -7.225 -44.299  1.00  0.00     0.016 C 
ATOM     23  C   UNL     1      -5.291  -8.614 -47.389  1.00  0.00    -0.006 C 
ATOM     24  C   UNL     1      -3.025  -7.561 -46.575  1.00  0.00     0.033 C 
ATOM     25  C   UNL     1      -3.892  -7.980 -47.784  1.00  0.00     0.120 C 
ATOM     26  C   UNL     1      -5.542  -9.814 -48.342  1.00  0.00     0.014 C 
ATOM     27  C   UNL     1      -6.455  -7.614 -47.610  1.00  0.00     0.014 C 
BRANCH  25  28
ATOM     28  O   UNL     1      -4.046  -6.876 -48.642  1.00  0.00    -0.393 OA
ATOM     29  H   UNL     1      -5.020  -6.760 -48.792  1.00  0.00     0.210 HD
ENDBRANCH  25  28
ENDBRANCH   2   6
ENDBRANCH   1   2
BRANCH   1  30
ATOM     30  C   UNL     1      -0.684 -12.561 -39.470  1.00  0.00     0.028 C 
BRANCH  30  31
ATOM     31  C   UNL     1      -1.274 -13.951 -39.438  1.00  0.00    -0.028 C 
ATOM     32  C   UNL     1      -1.831 -14.534 -38.352  1.00  0.00    -0.080 C 
ATOM     33  C   UNL     1      -1.943 -13.823 -37.024  1.00  0.00     0.039 C 
ATOM     34  C   UNL     1      -2.381 -15.929 -38.493  1.00  0.00     0.039 C 
ENDBRANCH  30  31
ENDBRANCH   1  30
TORSDOF 6
ENDMDL
MODEL 2
REMARK VINA RESULT:    -5.752     11.802     15.180
REMARK INTER + INTRA:          -8.704
REMARK INTER:                  -7.161
REMARK INTRA:                  -1.543
REMARK UNBOUND:                -1.102
REMARK SMILES CC(C)=CCC[C@@H](C(=O)[O-])[C@H]1CC[C@]2(C)C3=C(CC[C@]12C)[C@@]1(C)CC[C@H](O)C(C)(C)[C@@H]1CC3
REMARK SMILES IDX 6 1 7 2 8 3 9 4 10 5 11 6 12 7 20 8 13 9 14 10 19 11 21 12
REMARK SMILES IDX 15 13 16 14 18 15 17 16 33 17 22 18 32 19 31 20 24 21 23 22
REMARK SMILES IDX 28 23 25 24 26 25 29 26 30 27 27 28 5 30 4 31 2 32 1 33 3 34
REMARK H PARENT 27 29
REMARK Flexibility Score: inf
ROOT
ATOM      1  C   UNL     1       1.863 -25.195 -46.451  1.00  0.00     0.014 C 
ENDROOT
BRANCH   1   2
ATOM      2  C   UNL     1       1.927 -25.131 -44.892  1.00  0.00     0.039 C 
BRANCH   2   3
ATOM      3  C   UNL     1       3.262 -25.608 -44.370  1.00  0.00     0.045 C 
ATOM      4  O   UNL     1       3.511 -26.839 -44.273  1.00  0.00    -0.550 OA
ATOM      5  O   UNL     1       4.214 -24.684 -43.956  1.00  0.00    -0.550 OA
ENDBRANCH   2   3
BRANCH   2   6
ATOM      6  C   UNL     1       1.496 -23.781 -44.208  1.00  0.00     0.004 C 
ATOM      7  C   UNL     1       0.926 -22.682 -45.121  1.00  0.00     0.006 C 
ATOM      8  C   UNL     1       0.504 -23.858 -43.002  1.00  0.00    -0.020 C 
ATOM      9  C   UNL     1      -0.052 -21.874 -44.261  1.00  0.00     0.012 C 
ATOM     10  C   UNL     1       0.135 -22.351 -42.795  1.00  0.00    -0.006 C 
ATOM     11  C   UNL     1       1.111 -24.447 -41.716  1.00  0.00     0.012 C 
ATOM     12  C   UNL     1      -0.735 -24.738 -43.356  1.00  0.00     0.012 C 
ATOM     13  C   UNL     1      -1.170 -22.139 -41.987  1.00  0.00     0.017 C 
ATOM     14  C   UNL     1       1.270 -21.552 -42.078  1.00  0.00    -0.064 C 
ATOM     15  C   UNL     1       2.316 -23.685 -41.196  1.00  0.00     0.032 C 
ATOM     16  C   UNL     1       2.219 -22.171 -41.285  1.00  0.00    -0.064 C 
ATOM     17  C   UNL     1       1.280 -20.020 -42.277  1.00  0.00     0.032 C 
ATOM     18  C   UNL     1       3.148 -21.329 -40.372  1.00  0.00    -0.008 C 
ATOM     19  C   UNL     1       2.235 -19.202 -41.397  1.00  0.00     0.009 C 
ATOM     20  C   UNL     1       3.509 -20.020 -41.163  1.00  0.00     0.007 C 
ATOM     21  C   UNL     1       4.481 -22.043 -39.930  1.00  0.00     0.014 C 
ATOM     22  C   UNL     1       2.307 -21.089 -39.083  1.00  0.00     0.016 C 
ATOM     23  C   UNL     1       4.799 -19.249 -40.680  1.00  0.00    -0.006 C 
ATOM     24  C   UNL     1       5.670 -21.724 -40.834  1.00  0.00     0.033 C 
ATOM     25  C   UNL     1       6.044 -20.225 -40.786  1.00  0.00     0.120 C 
ATOM     26  C   UNL     1       5.076 -18.040 -41.613  1.00  0.00     0.014 C 
ATOM     27  C   UNL     1       4.636 -18.683 -39.246  1.00  0.00     0.014 C 
BRANCH  25  28
ATOM     28  O   UNL     1       6.959 -20.016 -39.739  1.00  0.00    -0.393 OA
ATOM     29  H   UNL     1       7.198 -20.910 -39.381  1.00  0.00     0.210 HD
ENDBRANCH  25  28
ENDBRANCH   2   6
ENDBRANCH   1   2
BRANCH   1  30
ATOM     30  C   UNL     1       1.308 -26.506 -47.047  1.00  0.00     0.028 C 
BRANCH  30  31
ATOM     31  C   UNL     1       0.121 -27.005 -46.258  1.00  0.00    -0.028 C 
ATOM     32  C   UNL     1      -1.134 -26.506 -46.344  1.00  0.00    -0.080 C 
ATOM     33  C   UNL     1      -1.490 -25.378 -47.282  1.00  0.00     0.039 C 
ATOM     34  C   UNL     1      -2.208 -27.125 -45.489  1.00  0.00     0.039 C 
ENDBRANCH  30  31
ENDBRANCH   1  30
TORSDOF 6
ENDMDL
MODEL 3
REMARK VINA RESULT:    -5.740     10.139     14.849
REMARK INTER + INTRA:          -8.687
REMARK INTER:                  -7.084
REMARK INTRA:                  -1.604
REMARK UNBOUND:                -1.102
REMARK SMILES CC(C)=CCC[C@@H](C(=O)[O-])[C@H]1CC[C@]2(C)C3=C(CC[C@]12C)[C@@]1(C)CC[C@H](O)C(C)(C)[C@@H]1CC3
REMARK SMILES IDX 6 1 7 2 8 3 9 4 10 5 11 6 12 7 20 8 13 9 14 10 19 11 21 12
REMARK SMILES IDX 15 13 16 14 18 15 17 16 33 17 22 18 32 19 31 20 24 21 23 22
REMARK SMILES IDX 28 23 25 24 26 25 29 26 30 27 27 28 5 30 4 31 2 32 1 33 3 34
REMARK H PARENT 27 29
REMARK Flexibility Score: inf
ROOT
ATOM      1  C   UNL     1       1.331 -26.685 -46.034  1.00  0.00     0.014 C 
ENDROOT
BRANCH   1   2
ATOM      2  C   UNL     1       1.881 -25.555 -45.107  1.00  0.00     0.039 C 
BRANCH   2   3
ATOM      3  C   UNL     1       2.093 -24.266 -45.867  1.00  0.00     0.045 C 
ATOM      4  O   UNL     1       3.061 -24.141 -46.664  1.00  0.00    -0.550 OA
ATOM      5  O   UNL     1       1.236 -23.192 -45.661  1.00  0.00    -0.550 OA
ENDBRANCH   2   3
BRANCH   2   6
ATOM      6  C   UNL     1       1.124 -25.301 -43.752  1.00  0.00     0.004 C 
ATOM      7  C   UNL     1      -0.180 -26.083 -43.519  1.00  0.00     0.006 C 
ATOM      8  C   UNL     1       1.932 -25.458 -42.423  1.00  0.00    -0.020 C 
ATOM      9  C   UNL     1      -0.303 -26.270 -42.002  1.00  0.00     0.012 C 
ATOM     10  C   UNL     1       0.795 -25.390 -41.348  1.00  0.00    -0.006 C 
ATOM     11  C   UNL     1       2.974 -24.353 -42.178  1.00  0.00     0.012 C 
ATOM     12  C   UNL     1       2.703 -26.814 -42.398  1.00  0.00     0.012 C 
ATOM     13  C   UNL     1       1.209 -25.974 -39.973  1.00  0.00     0.017 C 
ATOM     14  C   UNL     1       0.287 -23.932 -41.109  1.00  0.00    -0.064 C 
ATOM     15  C   UNL     1       2.391 -22.952 -42.129  1.00  0.00     0.032 C 
ATOM     16  C   UNL     1       1.063 -22.824 -41.402  1.00  0.00    -0.064 C 
ATOM     17  C   UNL     1      -1.127 -23.774 -40.507  1.00  0.00     0.032 C 
ATOM     18  C   UNL     1       0.645 -21.419 -40.896  1.00  0.00    -0.008 C 
ATOM     19  C   UNL     1      -1.544 -22.369 -40.049  1.00  0.00     0.009 C 
ATOM     20  C   UNL     1      -0.922 -21.339 -40.997  1.00  0.00     0.007 C 
ATOM     21  C   UNL     1       1.271 -20.208 -41.685  1.00  0.00     0.014 C 
ATOM     22  C   UNL     1       1.198 -21.354 -39.441  1.00  0.00     0.016 C 
ATOM     23  C   UNL     1      -1.544 -19.889 -41.015  1.00  0.00    -0.006 C 
ATOM     24  C   UNL     1       0.372 -19.682 -42.803  1.00  0.00     0.033 C 
ATOM     25  C   UNL     1      -0.949 -19.096 -42.253  1.00  0.00     0.120 C 
ATOM     26  C   UNL     1      -3.081 -19.972 -41.214  1.00  0.00     0.014 C 
ATOM     27  C   UNL     1      -1.303 -19.134 -39.683  1.00  0.00     0.014 C 
BRANCH  25  28
ATOM     28  O   UNL     1      -0.755 -17.735 -41.953  1.00  0.00    -0.393 OA
ATOM     29  H   UNL     1      -1.248 -17.552 -41.111  1.00  0.00     0.210 HD
ENDBRANCH  25  28
ENDBRANCH   2   6
ENDBRANCH   1   2
BRANCH   1  30
ATOM     30  C   UNL     1       0.550 -26.212 -47.278  1.00  0.00     0.028 C 
BRANCH  30  31
ATOM     31  C   UNL     1      -0.876 -26.711 -47.250  1.00  0.00    -0.028 C 
ATOM     32  C   UNL     1      -1.942 -25.989 -46.835  1.00  0.00    -0.080 C 
ATOM     33  C   UNL     1      -1.815 -24.560 -46.363  1.00  0.00     0.039 C 
ATOM     34  C   UNL     1      -3.302 -26.636 -46.877  1.00  0.00     0.039 C 
ENDBRANCH  30  31
ENDBRANCH   1  30
TORSDOF 6
ENDMDL
MODEL 4
REMARK VINA RESULT:    -5.670      3.089      9.587
REMARK INTER + INTRA:          -8.595
REMARK INTER:                  -8.043
REMARK INTRA:                  -0.552
REMARK UNBOUND:                -1.102
REMARK SMILES CC(C)=CCC[C@@H](C(=O)[O-])[C@H]1CC[C@]2(C)C3=C(CC[C@]12C)[C@@]1(C)CC[C@H](O)C(C)(C)[C@@H]1CC3
REMARK SMILES IDX 6 1 7 2 8 3 9 4 10 5 11 6 12 7 20 8 13 9 14 10 19 11 21 12
REMARK SMILES IDX 15 13 16 14 18 15 17 16 33 17 22 18 32 19 31 20 24 21 23 22
REMARK SMILES IDX 28 23 25 24 26 25 29 26 30 27 27 28 5 30 4 31 2 32 1 33 3 34
REMARK H PARENT 27 29
REMARK Flexibility Score: inf
ROOT
ATOM      1  C   UNL     1       0.280 -10.225 -42.188  1.00  0.00     0.014 C 
ENDROOT
BRANCH   1   2
ATOM      2  C   UNL     1       0.219 -11.577 -41.408  1.00  0.00     0.039 C 
BRANCH   2   3
ATOM      3  C   UNL     1       1.592 -12.184 -41.240  1.00  0.00     0.045 C 
ATOM      4  O   UNL     1       1.731 -13.330 -40.735  1.00  0.00    -0.550 OA
ATOM      5  O   UNL     1       2.719 -11.461 -41.608  1.00  0.00    -0.550 OA
ENDBRANCH   2   3
BRANCH   2   6
ATOM      6  C   UNL     1      -0.582 -11.593 -40.055  1.00  0.00     0.004 C 
ATOM      7  C   UNL     1      -0.853 -10.237 -39.383  1.00  0.00     0.006 C 
ATOM      8  C   UNL     1      -1.957 -12.338 -40.029  1.00  0.00    -0.020 C 
ATOM      9  C   UNL     1      -2.169 -10.394 -38.612  1.00  0.00     0.012 C 
ATOM     10  C   UNL     1      -2.529 -11.904 -38.637  1.00  0.00    -0.006 C 
ATOM     11  C   UNL     1      -1.851 -13.871 -40.115  1.00  0.00     0.012 C 
ATOM     12  C   UNL     1      -2.858 -11.883 -41.218  1.00  0.00     0.012 C 
ATOM     13  C   UNL     1      -4.062 -12.097 -38.512  1.00  0.00     0.017 C 
ATOM     14  C   UNL     1      -1.857 -12.669 -37.452  1.00  0.00    -0.064 C 
ATOM     15  C   UNL     1      -1.034 -14.498 -39.001  1.00  0.00     0.032 C 
ATOM     16  C   UNL     1      -1.242 -13.896 -37.621  1.00  0.00    -0.064 C 
ATOM     17  C   UNL     1      -1.926 -12.001 -36.060  1.00  0.00     0.032 C 
ATOM     18  C   UNL     1      -0.840 -14.748 -36.389  1.00  0.00    -0.008 C 
ATOM     19  C   UNL     1      -1.485 -12.841 -34.854  1.00  0.00     0.009 C 
ATOM     20  C   UNL     1      -0.331 -13.752 -35.285  1.00  0.00     0.007 C 
ATOM     21  C   UNL     1       0.274 -15.829 -36.655  1.00  0.00     0.014 C 
ATOM     22  C   UNL     1      -2.142 -15.515 -36.010  1.00  0.00     0.016 C 
ATOM     23  C   UNL     1       0.577 -14.372 -34.153  1.00  0.00    -0.006 C 
ATOM     24  C   UNL     1       1.685 -15.339 -36.332  1.00  0.00     0.033 C 
ATOM     25  C   UNL     1       1.855 -15.025 -34.827  1.00  0.00     0.120 C 
ATOM     26  C   UNL     1       1.076 -13.255 -33.199  1.00  0.00     0.014 C 
ATOM     27  C   UNL     1      -0.196 -15.396 -33.282  1.00  0.00     0.014 C 
BRANCH  25  28
ATOM     28  O   UNL     1       2.255 -16.196 -34.158  1.00  0.00    -0.393 OA
ATOM     29  H   UNL     1       2.311 -16.914 -34.842  1.00  0.00     0.210 HD
ENDBRANCH  25  28
ENDBRANCH   2   6
ENDBRANCH   1   2
BRANCH   1  30
ATOM     30  C   UNL     1      -0.701  -9.132 -41.715  1.00  0.00     0.028 C 
BRANCH  30  31
ATOM     31  C   UNL     1      -1.766  -8.869 -42.753  1.00  0.00    -0.028 C 
ATOM     32  C   UNL     1      -3.008  -8.400 -42.489  1.00  0.00    -0.080 C 
ATOM     33  C   UNL     1      -3.462  -8.062 -41.089  1.00  0.00     0.039 C 
ATOM     34  C   UNL     1      -3.950  -8.185 -43.645  1.00  0.00     0.039 C 
ENDBRANCH  30  31
ENDBRANCH   1  30
TORSDOF 6
ENDMDL
MODEL 5
REMARK VINA RESULT:    -5.549      4.841      8.597
REMARK INTER + INTRA:          -8.436
REMARK INTER:                  -7.447
REMARK INTRA:                  -0.989
REMARK UNBOUND:                -1.102
REMARK SMILES CC(C)=CCC[C@@H](C(=O)[O-])[C@H]1CC[C@]2(C)C3=C(CC[C@]12C)[C@@]1(C)CC[C@H](O)C(C)(C)[C@@H]1CC3
REMARK SMILES IDX 6 1 7 2 8 3 9 4 10 5 11 6 12 7 20 8 13 9 14 10 19 11 21 12
REMARK SMILES IDX 15 13 16 14 18 15 17 16 33 17 22 18 32 19 31 20 24 21 23 22
REMARK SMILES IDX 28 23 25 24 26 25 29 26 30 27 27 28 5 30 4 31 2 32 1 33 3 34
REMARK H PARENT 27 29
REMARK Flexibility Score: inf
ROOT
ATOM      1  C   UNL     1       2.615 -15.786 -34.353  1.00  0.00     0.014 C 
ENDROOT
BRANCH   1   2
ATOM      2  C   UNL     1       1.266 -15.008 -34.477  1.00  0.00     0.039 C 
BRANCH   2   3
ATOM      3  C   UNL     1       1.347 -13.648 -33.825  1.00  0.00     0.045 C 
ATOM      4  O   UNL     1       2.263 -12.840 -34.134  1.00  0.00    -0.550 OA
ATOM      5  O   UNL     1       0.426 -13.293 -32.847  1.00  0.00    -0.550 OA
ENDBRANCH   2   3
BRANCH   2   6
ATOM      6  C   UNL     1       0.615 -14.919 -35.906  1.00  0.00     0.004 C 
ATOM      7  C   UNL     1       1.324 -15.665 -37.049  1.00  0.00     0.006 C 
ATOM      8  C   UNL     1      -0.893 -15.306 -36.047  1.00  0.00    -0.020 C 
ATOM      9  C   UNL     1       0.229 -16.065 -38.044  1.00  0.00     0.012 C 
ATOM     10  C   UNL     1      -1.070 -15.341 -37.602  1.00  0.00    -0.006 C 
ATOM     11  C   UNL     1      -1.869 -14.298 -35.414  1.00  0.00     0.012 C 
ATOM     12  C   UNL     1      -1.178 -16.685 -35.377  1.00  0.00     0.012 C 
ATOM     13  C   UNL     1      -2.317 -16.138 -38.063  1.00  0.00     0.017 C 
ATOM     14  C   UNL     1      -1.165 -13.912 -38.224  1.00  0.00    -0.064 C 
ATOM     15  C   UNL     1      -1.761 -12.893 -35.981  1.00  0.00     0.032 C 
ATOM     16  C   UNL     1      -1.558 -12.811 -37.484  1.00  0.00    -0.064 C 
ATOM     17  C   UNL     1      -0.816 -13.777 -39.723  1.00  0.00     0.032 C 
ATOM     18  C   UNL     1      -1.910 -11.476 -38.192  1.00  0.00    -0.008 C 
ATOM     19  C   UNL     1      -1.131 -12.436 -40.401  1.00  0.00     0.009 C 
ATOM     20  C   UNL     1      -0.905 -11.309 -39.389  1.00  0.00     0.007 C 
ATOM     21  C   UNL     1      -1.838 -10.193 -37.280  1.00  0.00     0.014 C 
ATOM     22  C   UNL     1      -3.397 -11.649 -38.622  1.00  0.00     0.016 C 
ATOM     23  C   UNL     1      -0.727  -9.844 -39.948  1.00  0.00    -0.006 C 
ATOM     24  C   UNL     1      -0.495  -9.469 -37.357  1.00  0.00     0.033 C 
ATOM     25  C   UNL     1      -0.223  -8.908 -38.771  1.00  0.00     0.120 C 
ATOM     26  C   UNL     1       0.361  -9.826 -41.054  1.00  0.00     0.014 C 
ATOM     27  C   UNL     1      -2.031  -9.303 -40.590  1.00  0.00     0.014 C 
BRANCH  25  28
ATOM     28  O   UNL     1      -0.771  -7.616 -38.864  1.00  0.00    -0.393 OA
ATOM     29  H   UNL     1      -1.055  -7.357 -37.949  1.00  0.00     0.210 HD
ENDBRANCH  25  28
ENDBRANCH   2   6
ENDBRANCH   1   2
BRANCH   1  30
ATOM     30  C   UNL     1       2.720 -16.764 -33.164  1.00  0.00     0.028 C 
BRANCH  30  31
ATOM     31  C   UNL     1       4.040 -16.610 -32.445  1.00  0.00    -0.028 C 
ATOM     32  C   UNL     1       5.159 -17.320 -32.718  1.00  0.00    -0.080 C 
ATOM     33  C   UNL     1       5.210 -18.355 -33.815  1.00  0.00     0.039 C 
ATOM     34  C   UNL     1       6.399 -17.036 -31.909  1.00  0.00     0.039 C 
ENDBRANCH  30  31
ENDBRANCH   1  30
TORSDOF 6
ENDMDL
MODEL 6
REMARK VINA RESULT:    -5.545      3.215      6.432
REMARK INTER + INTRA:          -8.431
REMARK INTER:                  -7.563
REMARK INTRA:                  -0.868
REMARK UNBOUND:                -1.102
REMARK SMILES CC(C)=CCC[C@@H](C(=O)[O-])[C@H]1CC[C@]2(C)C3=C(CC[C@]12C)[C@@]1(C)CC[C@H](O)C(C)(C)[C@@H]1CC3
REMARK SMILES IDX 6 1 7 2 8 3 9 4 10 5 11 6 12 7 20 8 13 9 14 10 19 11 21 12
REMARK SMILES IDX 15 13 16 14 18 15 17 16 33 17 22 18 32 19 31 20 24 21 23 22
REMARK SMILES IDX 28 23 25 24 26 25 29 26 30 27 27 28 5 30 4 31 2 32 1 33 3 34
REMARK H PARENT 27 29
REMARK Flexibility Score: inf
ROOT
ATOM      1  C   UNL     1      -0.525  -9.083 -42.134  1.00  0.00     0.014 C 
ENDROOT
BRANCH   1   2
ATOM      2  C   UNL     1      -1.700 -10.062 -41.820  1.00  0.00     0.039 C 
BRANCH   2   3
ATOM      3  C   UNL     1      -1.342 -11.022 -40.709  1.00  0.00     0.045 C 
ATOM      4  O   UNL     1      -1.281 -12.262 -40.926  1.00  0.00    -0.550 OA
ATOM      5  O   UNL     1      -1.113 -10.541 -39.426  1.00  0.00    -0.550 OA
ENDBRANCH   2   3
BRANCH   2   6
ATOM      6  C   UNL     1      -3.123  -9.431 -41.592  1.00  0.00     0.004 C 
ATOM      7  C   UNL     1      -3.189  -8.115 -40.800  1.00  0.00     0.006 C 
ATOM      8  C   UNL     1      -4.025  -9.193 -42.847  1.00  0.00    -0.020 C 
ATOM      9  C   UNL     1      -4.413  -7.358 -41.327  1.00  0.00     0.012 C 
ATOM     10  C   UNL     1      -5.190  -8.339 -42.244  1.00  0.00    -0.006 C 
ATOM     11  C   UNL     1      -4.573 -10.480 -43.489  1.00  0.00     0.012 C 
ATOM     12  C   UNL     1      -3.238  -8.436 -43.962  1.00  0.00     0.012 C 
ATOM     13  C   UNL     1      -5.999  -7.558 -43.311  1.00  0.00     0.017 C 
ATOM     14  C   UNL     1      -6.201  -9.204 -41.425  1.00  0.00    -0.064 C 
ATOM     15  C   UNL     1      -5.408 -11.332 -42.551  1.00  0.00     0.032 C 
ATOM     16  C   UNL     1      -6.344 -10.565 -41.632  1.00  0.00    -0.064 C 
ATOM     17  C   UNL     1      -7.061  -8.467 -40.374  1.00  0.00     0.032 C 
ATOM     18  C   UNL     1      -7.539 -11.331 -41.009  1.00  0.00    -0.008 C 
ATOM     19  C   UNL     1      -8.215  -9.251 -39.734  1.00  0.00     0.009 C 
ATOM     20  C   UNL     1      -7.791 -10.715 -39.584  1.00  0.00     0.007 C 
ATOM     21  C   UNL     1      -7.338 -12.887 -40.864  1.00  0.00     0.014 C 
ATOM     22  C   UNL     1      -8.705 -11.111 -42.018  1.00  0.00     0.016 C 
ATOM     23  C   UNL     1      -8.600 -11.614 -38.571  1.00  0.00    -0.006 C 
ATOM     24  C   UNL     1      -6.812 -13.306 -39.492  1.00  0.00     0.033 C 
ATOM     25  C   UNL     1      -7.818 -12.978 -38.365  1.00  0.00     0.120 C 
ATOM     26  C   UNL     1      -8.683 -10.914 -37.188  1.00  0.00     0.014 C 
ATOM     27  C   UNL     1     -10.057 -11.855 -39.041  1.00  0.00     0.014 C 
BRANCH  25  28
ATOM     28  O   UNL     1      -8.699 -14.064 -38.209  1.00  0.00    -0.393 OA
ATOM     29  H   UNL     1      -9.588 -13.684 -37.984  1.00  0.00     0.210 HD
ENDBRANCH  25  28
ENDBRANCH   2   6
ENDBRANCH   1   2
BRANCH   1  30
ATOM     30  C   UNL     1       0.896  -9.651 -41.933  1.00  0.00     0.028 C 
BRANCH  30  31
ATOM     31  C   UNL     1       1.329 -10.474 -43.123  1.00  0.00    -0.028 C 
ATOM     32  C   UNL     1       1.927 -11.685 -43.052  1.00  0.00    -0.080 C 
ATOM     33  C   UNL     1       2.214 -12.368 -41.736  1.00  0.00     0.039 C 
ATOM     34  C   UNL     1       2.289 -12.379 -44.340  1.00  0.00     0.039 C 
ENDBRANCH  30  31
ENDBRANCH   1  30
TORSDOF 6
ENDMDL
MODEL 7
REMARK VINA RESULT:    -5.484      4.830      8.249
REMARK INTER + INTRA:          -8.350
REMARK INTER:                  -6.744
REMARK INTRA:                  -1.606
REMARK UNBOUND:                -1.102
REMARK SMILES CC(C)=CCC[C@@H](C(=O)[O-])[C@H]1CC[C@]2(C)C3=C(CC[C@]12C)[C@@]1(C)CC[C@H](O)C(C)(C)[C@@H]1CC3
REMARK SMILES IDX 6 1 7 2 8 3 9 4 10 5 11 6 12 7 20 8 13 9 14 10 19 11 21 12
REMARK SMILES IDX 15 13 16 14 18 15 17 16 33 17 22 18 32 19 31 20 24 21 23 22
REMARK SMILES IDX 28 23 25 24 26 25 29 26 30 27 27 28 5 30 4 31 2 32 1 33 3 34
REMARK H PARENT 27 29
REMARK Flexibility Score: inf
ROOT
ATOM      1  C   UNL     1       2.299 -15.844 -34.246  1.00  0.00     0.014 C 
ENDROOT
BRANCH   1   2
ATOM      2  C   UNL     1       1.043 -14.935 -34.430  1.00  0.00     0.039 C 
BRANCH   2   3
ATOM      3  C   UNL     1       1.250 -13.570 -33.817  1.00  0.00     0.045 C 
ATOM      4  O   UNL     1       2.208 -12.839 -34.186  1.00  0.00    -0.550 OA
ATOM      5  O   UNL     1       0.402 -13.126 -32.811  1.00  0.00    -0.550 OA
ENDBRANCH   2   3
BRANCH   2   6
ATOM      6  C   UNL     1       0.438 -14.825 -35.878  1.00  0.00     0.004 C 
ATOM      7  C   UNL     1       1.164 -15.584 -37.001  1.00  0.00     0.006 C 
ATOM      8  C   UNL     1      -1.074 -15.175 -36.066  1.00  0.00    -0.020 C 
ATOM      9  C   UNL     1       0.091 -15.954 -38.032  1.00  0.00     0.012 C 
ATOM     10  C   UNL     1      -1.204 -15.201 -37.626  1.00  0.00    -0.006 C 
ATOM     11  C   UNL     1      -2.045 -14.146 -35.460  1.00  0.00     0.012 C 
ATOM     12  C   UNL     1      -1.413 -16.550 -35.411  1.00  0.00     0.012 C 
ATOM     13  C   UNL     1      -2.455 -15.966 -38.129  1.00  0.00     0.017 C 
ATOM     14  C   UNL     1      -1.246 -13.767 -38.245  1.00  0.00    -0.064 C 
ATOM     15  C   UNL     1      -1.886 -12.743 -36.016  1.00  0.00     0.032 C 
ATOM     16  C   UNL     1      -1.635 -12.660 -37.513  1.00  0.00    -0.064 C 
ATOM     17  C   UNL     1      -0.848 -13.635 -39.732  1.00  0.00     0.032 C 
ATOM     18  C   UNL     1      -1.933 -11.315 -38.225  1.00  0.00    -0.008 C 
ATOM     19  C   UNL     1      -1.110 -12.285 -40.413  1.00  0.00     0.009 C 
ATOM     20  C   UNL     1      -0.888 -11.167 -39.390  1.00  0.00     0.007 C 
ATOM     21  C   UNL     1      -1.858 -10.037 -37.306  1.00  0.00     0.014 C 
ATOM     22  C   UNL     1      -3.410 -11.450 -38.702  1.00  0.00     0.016 C 
ATOM     23  C   UNL     1      -0.658  -9.705 -39.937  1.00  0.00    -0.006 C 
ATOM     24  C   UNL     1      -0.496  -9.345 -37.338  1.00  0.00     0.033 C 
ATOM     25  C   UNL     1      -0.168  -8.786 -38.742  1.00  0.00     0.120 C 
ATOM     26  C   UNL     1       0.464  -9.709 -41.010  1.00  0.00     0.014 C 
ATOM     27  C   UNL     1      -1.928  -9.131 -40.616  1.00  0.00     0.014 C 
BRANCH  25  28
ATOM     28  O   UNL     1      -0.682  -7.481 -38.845  1.00  0.00    -0.393 OA
ATOM     29  H   UNL     1      -0.029  -6.954 -39.377  1.00  0.00     0.210 HD
ENDBRANCH  25  28
ENDBRANCH   2   6
ENDBRANCH   1   2
BRANCH   1  30
ATOM     30  C   UNL     1       2.335 -16.689 -32.956  1.00  0.00     0.028 C 
BRANCH  30  31
ATOM     31  C   UNL     1       0.941 -17.058 -32.506  1.00  0.00    -0.028 C 
ATOM     32  C   UNL     1       0.356 -18.262 -32.699  1.00  0.00    -0.080 C 
ATOM     33  C   UNL     1       1.067 -19.404 -33.386  1.00  0.00     0.039 C 
ATOM     34  C   UNL     1      -1.043 -18.468 -32.180  1.00  0.00     0.039 C 
ENDBRANCH  30  31
ENDBRANCH   1  30
TORSDOF 6
ENDMDL
MODEL 8
REMARK VINA RESULT:    -5.400      9.760     13.849
REMARK INTER + INTRA:          -8.238
REMARK INTER:                  -6.473
REMARK INTRA:                  -1.764
REMARK UNBOUND:                -1.102
REMARK SMILES CC(C)=CCC[C@@H](C(=O)[O-])[C@H]1CC[C@]2(C)C3=C(CC[C@]12C)[C@@]1(C)CC[C@H](O)C(C)(C)[C@@H]1CC3
REMARK SMILES IDX 6 1 7 2 8 3 9 4 10 5 11 6 12 7 20 8 13 9 14 10 19 11 21 12
REMARK SMILES IDX 15 13 16 14 18 15 17 16 33 17 22 18 32 19 31 20 24 21 23 22
REMARK SMILES IDX 28 23 25 24 26 25 29 26 30 27 27 28 5 30 4 31 2 32 1 33 3 34
REMARK H PARENT 27 29
REMARK Flexibility Score: inf
ROOT
ATOM      1  C   UNL     1       2.092 -18.014 -42.118  1.00  0.00     0.014 C 
ENDROOT
BRANCH   1   2
ATOM      2  C   UNL     1       1.012 -19.090 -41.782  1.00  0.00     0.039 C 
BRANCH   2   3
ATOM      3  C   UNL     1      -0.228 -18.916 -42.626  1.00  0.00     0.045 C 
ATOM      4  O   UNL     1      -1.159 -18.153 -42.251  1.00  0.00    -0.550 OA
ATOM      5  O   UNL     1      -0.366 -19.629 -43.810  1.00  0.00    -0.550 OA
ENDBRANCH   2   3
BRANCH   2   6
ATOM      6  C   UNL     1       1.476 -20.593 -41.753  1.00  0.00     0.004 C 
ATOM      7  C   UNL     1       2.991 -20.860 -41.756  1.00  0.00     0.006 C 
ATOM      8  C   UNL     1       0.907 -21.512 -40.624  1.00  0.00    -0.020 C 
ATOM      9  C   UNL     1       3.195 -22.180 -41.004  1.00  0.00     0.012 C 
ATOM     10  C   UNL     1       1.788 -22.796 -40.782  1.00  0.00    -0.006 C 
ATOM     11  C   UNL     1      -0.585 -21.858 -40.778  1.00  0.00     0.012 C 
ATOM     12  C   UNL     1       1.068 -20.840 -39.225  1.00  0.00     0.012 C 
ATOM     13  C   UNL     1       1.787 -23.705 -39.527  1.00  0.00     0.017 C 
ATOM     14  C   UNL     1       1.352 -23.672 -42.000  1.00  0.00    -0.064 C 
ATOM     15  C   UNL     1      -0.926 -22.563 -42.079  1.00  0.00     0.032 C 
ATOM     16  C   UNL     1       0.078 -23.608 -42.535  1.00  0.00    -0.064 C 
ATOM     17  C   UNL     1       2.409 -24.639 -42.580  1.00  0.00     0.032 C 
ATOM     18  C   UNL     1      -0.401 -24.680 -43.548  1.00  0.00    -0.008 C 
ATOM     19  C   UNL     1       1.929 -25.667 -43.614  1.00  0.00     0.009 C 
ATOM     20  C   UNL     1       0.827 -25.031 -44.465  1.00  0.00     0.007 C 
ATOM     21  C   UNL     1      -1.612 -24.250 -44.459  1.00  0.00     0.014 C 
ATOM     22  C   UNL     1      -0.894 -25.859 -42.657  1.00  0.00     0.016 C 
ATOM     23  C   UNL     1       0.489 -25.703 -45.852  1.00  0.00    -0.006 C 
ATOM     24  C   UNL     1      -1.184 -23.677 -45.809  1.00  0.00     0.033 C 
ATOM     25  C   UNL     1      -0.452 -24.728 -46.675  1.00  0.00     0.120 C 
ATOM     26  C   UNL     1       1.789 -25.899 -46.679  1.00  0.00     0.014 C 
ATOM     27  C   UNL     1      -0.150 -27.105 -45.680  1.00  0.00     0.014 C 
BRANCH  25  28
ATOM     28  O   UNL     1      -1.402 -25.438 -47.431  1.00  0.00    -0.393 OA
ATOM     29  H   UNL     1      -2.254 -24.930 -47.375  1.00  0.00     0.210 HD
ENDBRANCH  25  28
ENDBRANCH   2   6
ENDBRANCH   1   2
BRANCH   1  30
ATOM     30  C   UNL     1       2.257 -16.880 -41.084  1.00  0.00     0.028 C 
BRANCH  30  31
ATOM     31  C   UNL     1       2.365 -17.432 -39.682  1.00  0.00    -0.028 C 
ATOM     32  C   UNL     1       3.496 -17.926 -39.127  1.00  0.00    -0.080 C 
ATOM     33  C   UNL     1       4.811 -17.958 -39.870  1.00  0.00     0.039 C 
ATOM     34  C   UNL     1       3.434 -18.433 -37.710  1.00  0.00     0.039 C 
ENDBRANCH  30  31
ENDBRANCH   1  30
TORSDOF 6
ENDMDL
MODEL 9
REMARK VINA RESULT:    -5.359      9.111     13.802
REMARK INTER + INTRA:          -8.185
REMARK INTER:                  -7.021
REMARK INTRA:                  -1.163
REMARK UNBOUND:                -1.102
REMARK SMILES CC(C)=CCC[C@@H](C(=O)[O-])[C@H]1CC[C@]2(C)C3=C(CC[C@]12C)[C@@]1(C)CC[C@H](O)C(C)(C)[C@@H]1CC3
REMARK SMILES IDX 6 1 7 2 8 3 9 4 10 5 11 6 12 7 20 8 13 9 14 10 19 11 21 12
REMARK SMILES IDX 15 13 16 14 18 15 17 16 33 17 22 18 32 19 31 20 24 21 23 22
REMARK SMILES IDX 28 23 25 24 26 25 29 26 30 27 27 28 5 30 4 31 2 32 1 33 3 34
REMARK H PARENT 27 29
REMARK Flexibility Score: inf
ROOT
ATOM      1  C   UNL     1      -1.721 -26.310 -43.153  1.00  0.00     0.014 C 
ENDROOT
BRANCH   1   2
ATOM      2  C   UNL     1      -1.808 -24.750 -43.135  1.00  0.00     0.039 C 
BRANCH   2   3
ATOM      3  C   UNL     1      -3.197 -24.275 -42.778  1.00  0.00     0.045 C 
ATOM      4  O   UNL     1      -3.369 -23.411 -41.878  1.00  0.00    -0.550 OA
ATOM      5  O   UNL     1      -4.301 -24.820 -43.420  1.00  0.00    -0.550 OA
ENDBRANCH   2   3
BRANCH   2   6
ATOM      6  C   UNL     1      -0.711 -23.977 -42.314  1.00  0.00     0.004 C 
ATOM      7  C   UNL     1      -0.328 -24.551 -40.940  1.00  0.00     0.006 C 
ATOM      8  C   UNL     1       0.651 -23.674 -43.019  1.00  0.00    -0.020 C 
ATOM      9  C   UNL     1       1.136 -24.160 -40.705  1.00  0.00     0.012 C 
ATOM     10  C   UNL     1       1.520 -23.156 -41.825  1.00  0.00    -0.006 C 
ATOM     11  C   UNL     1       0.569 -22.610 -44.129  1.00  0.00     0.012 C 
ATOM     12  C   UNL     1       1.235 -24.962 -43.676  1.00  0.00     0.012 C 
ATOM     13  C   UNL     1       3.044 -23.212 -42.101  1.00  0.00     0.017 C 
ATOM     14  C   UNL     1       1.167 -21.689 -41.421  1.00  0.00    -0.064 C 
ATOM     15  C   UNL     1       0.053 -21.262 -43.657  1.00  0.00     0.032 C 
ATOM     16  C   UNL     1       0.562 -20.808 -42.299  1.00  0.00    -0.064 C 
ATOM     17  C   UNL     1       1.541 -21.249 -39.987  1.00  0.00     0.032 C 
ATOM     18  C   UNL     1       0.483 -19.297 -41.963  1.00  0.00    -0.008 C 
ATOM     19  C   UNL     1       1.418 -19.756 -39.655  1.00  0.00     0.009 C 
ATOM     20  C   UNL     1       0.220 -19.180 -40.417  1.00  0.00     0.007 C 
ATOM     21  C   UNL     1      -0.633 -18.495 -42.733  1.00  0.00     0.014 C 
ATOM     22  C   UNL     1       1.858 -18.727 -42.424  1.00  0.00     0.016 C 
ATOM     23  C   UNL     1      -0.380 -17.810 -39.916  1.00  0.00    -0.006 C 
ATOM     24  C   UNL     1      -1.941 -18.374 -41.954  1.00  0.00     0.033 C 
ATOM     25  C   UNL     1      -1.762 -17.560 -40.651  1.00  0.00     0.120 C 
ATOM     26  C   UNL     1      -0.672 -17.883 -38.393  1.00  0.00     0.014 C 
ATOM     27  C   UNL     1       0.603 -16.630 -40.129  1.00  0.00     0.014 C 
BRANCH  25  28
ATOM     28  O   UNL     1      -1.962 -16.196 -40.933  1.00  0.00    -0.393 OA
ATOM     29  H   UNL     1      -2.294 -15.774 -40.098  1.00  0.00     0.210 HD
ENDBRANCH  25  28
ENDBRANCH   2   6
ENDBRANCH   1   2
BRANCH   1  30
ATOM     30  C   UNL     1      -2.113 -26.989 -44.482  1.00  0.00     0.028 C 
BRANCH  30  31
ATOM     31  C   UNL     1      -0.920 -27.125 -45.398  1.00  0.00    -0.028 C 
ATOM     32  C   UNL     1      -0.645 -26.306 -46.440  1.00  0.00    -0.080 C 
ATOM     33  C   UNL     1      -1.519 -25.126 -46.791  1.00  0.00     0.039 C 
ATOM     34  C   UNL     1       0.595 -26.577 -47.253  1.00  0.00     0.039 C 
ENDBRANCH  30  31
ENDBRANCH   1  30
TORSDOF 6
ENDMDL
