MODEL 1
REMARK VINA RESULT:    -2.761      0.000      0.000
REMARK INTER + INTRA:          -3.003
REMARK INTER:                  -3.003
REMARK INTRA:                   0.000
REMARK UNBOUND:                 0.000
REMARK SMILES [NH3+]CC(=O)[O-]
REMARK SMILES IDX 2 1 1 2 3 6 4 7 5 8
REMARK H PARENT 1 3 1 4 1 5
REMARK Flexibility Score: inf
ROOT
ATOM      1  C   UNL     1      15.808  -8.711 -34.781  1.00  0.00     0.312 C 
ENDROOT
BRANCH   1   2
ATOM      2  N   UNL     1      16.905  -9.156 -33.925  1.00  0.00    -0.353 N 
ATOM      3  H   UNL     1      17.814  -8.782 -34.282  1.00  0.00     0.344 HD
ATOM      4  H   UNL     1      16.750  -8.796 -32.955  1.00  0.00     0.344 HD
ATOM      5  H   UNL     1      16.938 -10.201 -33.897  1.00  0.00     0.344 HD
ENDBRANCH   1   2
BRANCH   1   6
ATOM      6  C   UNL     1      16.221  -8.732 -36.221  1.00  0.00     0.096 C 
ATOM      7  O   UNL     1      17.143  -7.977 -36.627  1.00  0.00    -0.544 OA
ATOM      8  O   UNL     1      15.552  -9.549 -37.124  1.00  0.00    -0.544 OA
ENDBRANCH   1   6
TORSDOF 2
ENDMDL
MODEL 2
REMARK VINA RESULT:    -2.689      8.338      8.531
REMARK INTER + INTRA:          -2.924
REMARK INTER:                  -2.924
REMARK INTRA:                   0.000
REMARK UNBOUND:                 0.000
REMARK SMILES [NH3+]CC(=O)[O-]
REMARK SMILES IDX 2 1 1 2 3 6 4 7 5 8
REMARK H PARENT 1 3 1 4 1 5
REMARK Flexibility Score: inf
ROOT
ATOM      1  C   UNL     1      12.414  -0.398 -34.895  1.00  0.00     0.312 C 
ENDROOT
BRANCH   1   2
ATOM      2  N   UNL     1      12.280   0.084 -33.522  1.00  0.00    -0.353 N 
ATOM      3  H   UNL     1      11.548   0.830 -33.472  1.00  0.00     0.344 HD
ATOM      4  H   UNL     1      11.992  -0.713 -32.907  1.00  0.00     0.344 HD
ATOM      5  H   UNL     1      13.195   0.460 -33.182  1.00  0.00     0.344 HD
ENDBRANCH   1   2
BRANCH   1   6
ATOM      6  C   UNL     1      12.740  -1.860 -34.911  1.00  0.00     0.096 C 
ATOM      7  O   UNL     1      12.437  -2.588 -33.930  1.00  0.00    -0.544 OA
ATOM      8  O   UNL     1      13.425  -2.408 -35.990  1.00  0.00    -0.544 OA
ENDBRANCH   1   6
TORSDOF 2
ENDMDL
MODEL 3
REMARK VINA RESULT:    -2.646      7.779      8.058
REMARK INTER + INTRA:          -2.878
REMARK INTER:                  -2.878
REMARK INTRA:                   0.000
REMARK UNBOUND:                 0.000
REMARK SMILES [NH3+]CC(=O)[O-]
REMARK SMILES IDX 2 1 1 2 3 6 4 7 5 8
REMARK H PARENT 1 3 1 4 1 5
REMARK Flexibility Score: inf
ROOT
ATOM      1  C   UNL     1      13.034  -2.270 -35.725  1.00  0.00     0.312 C 
ENDROOT
BRANCH   1   2
ATOM      2  N   UNL     1      13.435  -3.675 -35.683  1.00  0.00    -0.353 N 
ATOM      3  H   UNL     1      13.884  -3.948 -36.587  1.00  0.00     0.344 HD
ATOM      4  H   UNL     1      14.125  -3.810 -34.908  1.00  0.00     0.344 HD
ATOM      5  H   UNL     1      12.602  -4.281 -35.503  1.00  0.00     0.344 HD
ENDBRANCH   1   2
BRANCH   1   6
ATOM      6  C   UNL     1      12.435  -1.853 -34.417  1.00  0.00     0.096 C 
ATOM      7  O   UNL     1      12.034  -2.721 -33.598  1.00  0.00    -0.544 OA
ATOM      8  O   UNL     1      12.274  -0.504 -34.125  1.00  0.00    -0.544 OA
ENDBRANCH   1   6
TORSDOF 2
ENDMDL
MODEL 4
REMARK VINA RESULT:    -2.643      7.728      7.914
REMARK INTER + INTRA:          -2.874
REMARK INTER:                  -2.874
REMARK INTRA:                   0.000
REMARK UNBOUND:                 0.000
REMARK SMILES [NH3+]CC(=O)[O-]
REMARK SMILES IDX 2 1 1 2 3 6 4 7 5 8
REMARK H PARENT 1 3 1 4 1 5
REMARK Flexibility Score: inf
ROOT
ATOM      1  C   UNL     1      13.132  -2.271 -35.765  1.00  0.00     0.312 C 
ENDROOT
BRANCH   1   2
ATOM      2  N   UNL     1      13.456  -3.695 -35.700  1.00  0.00    -0.353 N 
ATOM      3  H   UNL     1      14.091  -3.955 -36.490  1.00  0.00     0.344 HD
ATOM      4  H   UNL     1      13.944  -3.893 -34.795  1.00  0.00     0.344 HD
ATOM      5  H   UNL     1      12.580  -4.265 -35.745  1.00  0.00     0.344 HD
ENDBRANCH   1   2
BRANCH   1   6
ATOM      6  C   UNL     1      12.491  -1.818 -34.489  1.00  0.00     0.096 C 
ATOM      7  O   UNL     1      12.410  -0.590 -34.221  1.00  0.00    -0.544 OA
ATOM      8  O   UNL     1      12.027  -2.755 -33.573  1.00  0.00    -0.544 OA
ENDBRANCH   1   6
TORSDOF 2
ENDMDL
MODEL 5
REMARK VINA RESULT:    -2.623     11.895     12.099
REMARK INTER + INTRA:          -2.853
REMARK INTER:                  -2.853
REMARK INTRA:                   0.000
REMARK UNBOUND:                 0.000
REMARK SMILES [NH3+]CC(=O)[O-]
REMARK SMILES IDX 2 1 1 2 3 6 4 7 5 8
REMARK H PARENT 1 3 1 4 1 5
REMARK Flexibility Score: inf
ROOT
ATOM      1  C   UNL     1      11.966   1.163 -34.893  1.00  0.00     0.312 C 
ENDROOT
BRANCH   1   2
ATOM      2  N   UNL     1      11.925   0.546 -33.569  1.00  0.00    -0.353 N 
ATOM      3  H   UNL     1      12.406  -0.383 -33.590  1.00  0.00     0.344 HD
ATOM      4  H   UNL     1      12.420   1.167 -32.887  1.00  0.00     0.344 HD
ATOM      5  H   UNL     1      10.934   0.426 -33.259  1.00  0.00     0.344 HD
ENDBRANCH   1   2
BRANCH   1   6
ATOM      6  C   UNL     1      11.285   2.496 -34.875  1.00  0.00     0.096 C 
ATOM      7  O   UNL     1      11.848   3.503 -35.378  1.00  0.00    -0.544 OA
ATOM      8  O   UNL     1      10.047   2.636 -34.257  1.00  0.00    -0.544 OA
ENDBRANCH   1   6
TORSDOF 2
ENDMDL
MODEL 6
REMARK VINA RESULT:    -2.612     11.247     11.459
REMARK INTER + INTRA:          -2.841
REMARK INTER:                  -2.841
REMARK INTRA:                   0.000
REMARK UNBOUND:                 0.000
REMARK SMILES [NH3+]CC(=O)[O-]
REMARK SMILES IDX 2 1 1 2 3 6 4 7 5 8
REMARK H PARENT 1 3 1 4 1 5
REMARK Flexibility Score: inf
ROOT
ATOM      1  C   UNL     1      11.448   2.351 -34.982  1.00  0.00     0.312 C 
ENDROOT
BRANCH   1   2
ATOM      2  N   UNL     1      10.037   2.453 -34.615  1.00  0.00    -0.353 N 
ATOM      3  H   UNL     1       9.436   2.132 -35.409  1.00  0.00     0.344 HD
ATOM      4  H   UNL     1       9.855   1.843 -33.785  1.00  0.00     0.344 HD
ATOM      5  H   UNL     1       9.801   3.441 -34.367  1.00  0.00     0.344 HD
ENDBRANCH   1   2
BRANCH   1   6
ATOM      6  C   UNL     1      11.968   0.974 -34.698  1.00  0.00     0.096 C 
ATOM      7  O   UNL     1      12.488   0.291 -35.619  1.00  0.00    -0.544 OA
ATOM      8  O   UNL     1      11.832   0.428 -33.428  1.00  0.00    -0.544 OA
ENDBRANCH   1   6
TORSDOF 2
ENDMDL
MODEL 7
REMARK VINA RESULT:    -2.596     14.516     14.740
REMARK INTER + INTRA:          -2.824
REMARK INTER:                  -2.824
REMARK INTRA:                   0.000
REMARK UNBOUND:                 0.000
REMARK SMILES [NH3+]CC(=O)[O-]
REMARK SMILES IDX 2 1 1 2 3 6 4 7 5 8
REMARK H PARENT 1 3 1 4 1 5
REMARK Flexibility Score: inf
ROOT
ATOM      1  C   UNL     1       8.485   4.453 -33.832  1.00  0.00     0.312 C 
ENDROOT
BRANCH   1   2
ATOM      2  N   UNL     1       7.762   3.290 -33.323  1.00  0.00    -0.353 N 
ATOM      3  H   UNL     1       8.404   2.686 -32.759  1.00  0.00     0.344 HD
ATOM      4  H   UNL     1       6.979   3.615 -32.709  1.00  0.00     0.344 HD
ATOM      5  H   UNL     1       7.362   2.739 -34.117  1.00  0.00     0.344 HD
ENDBRANCH   1   2
BRANCH   1   6
ATOM      6  C   UNL     1       9.638   4.023 -34.687  1.00  0.00     0.096 C 
ATOM      7  O   UNL     1      10.128   2.871 -34.558  1.00  0.00    -0.544 OA
ATOM      8  O   UNL     1      10.202   4.915 -35.592  1.00  0.00    -0.544 OA
ENDBRANCH   1   6
TORSDOF 2
ENDMDL
MODEL 8
REMARK VINA RESULT:    -2.571     13.933     14.119
REMARK INTER + INTRA:          -2.797
REMARK INTER:                  -2.797
REMARK INTRA:                   0.000
REMARK UNBOUND:                 0.000
REMARK SMILES [NH3+]CC(=O)[O-]
REMARK SMILES IDX 2 1 1 2 3 6 4 7 5 8
REMARK H PARENT 1 3 1 4 1 5
REMARK Flexibility Score: inf
ROOT
ATOM      1  C   UNL     1      10.739   4.741 -35.677  1.00  0.00     0.312 C 
ENDROOT
BRANCH   1   2
ATOM      2  N   UNL     1      12.197   4.655 -35.639  1.00  0.00    -0.353 N 
ATOM      3  H   UNL     1      12.494   3.669 -35.453  1.00  0.00     0.344 HD
ATOM      4  H   UNL     1      12.582   4.953 -36.566  1.00  0.00     0.344 HD
ATOM      5  H   UNL     1      12.576   5.286 -34.897  1.00  0.00     0.344 HD
ENDBRANCH   1   2
BRANCH   1   6
ATOM      6  C   UNL     1      10.124   3.639 -34.869  1.00  0.00     0.096 C 
ATOM      7  O   UNL     1       9.152   3.879 -34.106  1.00  0.00    -0.544 OA
ATOM      8  O   UNL     1      10.659   2.357 -34.922  1.00  0.00    -0.544 OA
ENDBRANCH   1   6
TORSDOF 2
ENDMDL
MODEL 9
REMARK VINA RESULT:    -2.555     14.926     15.108
REMARK INTER + INTRA:          -2.779
REMARK INTER:                  -2.779
REMARK INTRA:                   0.000
REMARK UNBOUND:                 0.000
REMARK SMILES [NH3+]CC(=O)[O-]
REMARK SMILES IDX 2 1 1 2 3 6 4 7 5 8
REMARK H PARENT 1 3 1 4 1 5
REMARK Flexibility Score: inf
ROOT
ATOM      1  C   UNL     1       9.936   3.961 -34.953  1.00  0.00     0.312 C 
ENDROOT
BRANCH   1   2
ATOM      2  N   UNL     1       9.924   2.537 -34.626  1.00  0.00    -0.353 N 
ATOM      3  H   UNL     1      10.837   2.259 -34.195  1.00  0.00     0.344 HD
ATOM      4  H   UNL     1       9.156   2.350 -33.940  1.00  0.00     0.344 HD
ATOM      5  H   UNL     1       9.752   1.971 -35.489  1.00  0.00     0.344 HD
ENDBRANCH   1   2
BRANCH   1   6
ATOM      6  C   UNL     1       8.931   4.701 -34.124  1.00  0.00     0.096 C 
ATOM      7  O   UNL     1       8.970   5.957 -34.053  1.00  0.00    -0.544 OA
ATOM      8  O   UNL     1       7.983   3.998 -33.390  1.00  0.00    -0.544 OA
ENDBRANCH   1   6
TORSDOF 2
ENDMDL
