MODEL 1
REMARK VINA RESULT:    -4.531      0.000      0.000
REMARK INTER + INTRA:          -6.078
REMARK INTER:                  -5.855
REMARK INTRA:                  -0.223
REMARK UNBOUND:                -0.223
REMARK SMILES C=CC(=O)CCCCC
REMARK SMILES IDX 6 1 7 2 8 3 9 4 5 5 3 6 4 7 2 8 1 9
REMARK H PARENT
REMARK Flexibility Score: inf
ROOT
ATOM      1  C   UNL     1     -25.511  19.581 -33.124  1.00  0.00     0.008 C 
ENDROOT
BRANCH   1   2
ATOM      2  C   UNL     1     -26.939  19.699 -33.705  1.00  0.00     0.000 C 
BRANCH   2   3
ATOM      3  C   UNL     1     -27.284  21.111 -34.205  1.00  0.00    -0.003 C 
ATOM      4  C   UNL     1     -27.863  22.006 -33.111  1.00  0.00     0.004 C 
ENDBRANCH   2   3
ENDBRANCH   1   2
BRANCH   1   5
ATOM      5  C   UNL     1     -24.415  19.964 -34.135  1.00  0.00     0.080 C 
BRANCH   5   6
ATOM      6  C   UNL     1     -23.108  20.377 -33.494  1.00  0.00     0.155 C 
ATOM      7  O   UNL     1     -22.016  20.144 -34.080  1.00  0.00    -0.295 OA
BRANCH   6   8
ATOM      8  C   UNL     1     -23.063  21.089 -32.199  1.00  0.00     0.039 C 
ATOM      9  C   UNL     1     -22.703  20.513 -31.053  1.00  0.00     0.012 C 
ENDBRANCH   6   8
ENDBRANCH   5   6
ENDBRANCH   1   5
TORSDOF 5
ENDMDL
MODEL 2
REMARK VINA RESULT:    -4.416      2.011      4.385
REMARK INTER + INTRA:          -5.930
REMARK INTER:                  -5.592
REMARK INTRA:                  -0.338
REMARK UNBOUND:                -0.223
REMARK SMILES C=CC(=O)CCCCC
REMARK SMILES IDX 6 1 7 2 8 3 9 4 5 5 3 6 4 7 2 8 1 9
REMARK H PARENT
REMARK Flexibility Score: inf
ROOT
ATOM      1  C   UNL     1     -24.290  19.818 -34.221  1.00  0.00     0.008 C 
ENDROOT
BRANCH   1   2
ATOM      2  C   UNL     1     -23.663  20.665 -33.091  1.00  0.00     0.000 C 
BRANCH   2   3
ATOM      3  C   UNL     1     -23.020  19.822 -31.977  1.00  0.00    -0.003 C 
ATOM      4  C   UNL     1     -23.527  18.381 -31.951  1.00  0.00     0.004 C 
ENDBRANCH   2   3
ENDBRANCH   1   2
BRANCH   1   5
ATOM      5  C   UNL     1     -25.666  20.341 -34.676  1.00  0.00     0.080 C 
BRANCH   5   6
ATOM      6  C   UNL     1     -26.807  19.922 -33.776  1.00  0.00     0.155 C 
ATOM      7  O   UNL     1     -26.773  18.805 -33.191  1.00  0.00    -0.295 OA
BRANCH   6   8
ATOM      8  C   UNL     1     -27.968  20.802 -33.523  1.00  0.00     0.039 C 
ATOM      9  C   UNL     1     -27.861  22.051 -33.071  1.00  0.00     0.012 C 
ENDBRANCH   6   8
ENDBRANCH   5   6
ENDBRANCH   1   5
TORSDOF 5
ENDMDL
MODEL 3
REMARK VINA RESULT:    -4.147      8.184      9.177
REMARK INTER + INTRA:          -5.582
REMARK INTER:                  -5.117
REMARK INTRA:                  -0.465
REMARK UNBOUND:                -0.223
REMARK SMILES C=CC(=O)CCCCC
REMARK SMILES IDX 6 1 7 2 8 3 9 4 5 5 3 6 4 7 2 8 1 9
REMARK H PARENT
REMARK Flexibility Score: inf
ROOT
ATOM      1  C   UNL     1     -29.503  12.971 -30.135  1.00  0.00     0.008 C 
ENDROOT
BRANCH   1   2
ATOM      2  C   UNL     1     -29.608  11.944 -28.985  1.00  0.00     0.000 C 
BRANCH   2   3
ATOM      3  C   UNL     1     -28.517  12.107 -27.914  1.00  0.00    -0.003 C 
ATOM      4  C   UNL     1     -27.575  10.907 -27.835  1.00  0.00     0.004 C 
ENDBRANCH   2   3
ENDBRANCH   1   2
BRANCH   1   5
ATOM      5  C   UNL     1     -28.179  12.870 -30.915  1.00  0.00     0.080 C 
BRANCH   5   6
ATOM      6  C   UNL     1     -27.367  14.146 -30.910  1.00  0.00     0.155 C 
ATOM      7  O   UNL     1     -27.896  15.233 -31.267  1.00  0.00    -0.295 OA
BRANCH   6   8
ATOM      8  C   UNL     1     -25.959  14.175 -30.459  1.00  0.00     0.039 C 
ATOM      9  C   UNL     1     -25.411  13.234 -29.691  1.00  0.00     0.012 C 
ENDBRANCH   6   8
ENDBRANCH   5   6
ENDBRANCH   1   5
TORSDOF 5
ENDMDL
MODEL 4
REMARK VINA RESULT:    -4.084     11.084     13.014
REMARK INTER + INTRA:          -5.501
REMARK INTER:                  -5.184
REMARK INTRA:                  -0.317
REMARK UNBOUND:                -0.223
REMARK SMILES C=CC(=O)CCCCC
REMARK SMILES IDX 6 1 7 2 8 3 9 4 5 5 3 6 4 7 2 8 1 9
REMARK H PARENT
REMARK Flexibility Score: inf
ROOT
ATOM      1  C   UNL     1     -14.050  14.920 -31.604  1.00  0.00     0.008 C 
ENDROOT
BRANCH   1   2
ATOM      2  C   UNL     1     -13.290  14.685 -30.279  1.00  0.00     0.000 C 
BRANCH   2   3
ATOM      3  C   UNL     1     -11.950  13.953 -30.461  1.00  0.00    -0.003 C 
ATOM      4  C   UNL     1     -11.013  14.661 -31.439  1.00  0.00     0.004 C 
ENDBRANCH   2   3
ENDBRANCH   1   2
BRANCH   1   5
ATOM      5  C   UNL     1     -14.800  13.670 -32.100  1.00  0.00     0.080 C 
BRANCH   5   6
ATOM      6  C   UNL     1     -16.299  13.740 -31.913  1.00  0.00     0.155 C 
ATOM      7  O   UNL     1     -17.004  14.423 -32.706  1.00  0.00    -0.295 OA
BRANCH   6   8
ATOM      8  C   UNL     1     -16.988  12.997 -30.836  1.00  0.00     0.039 C 
ATOM      9  C   UNL     1     -16.381  12.116 -30.043  1.00  0.00     0.012 C 
ENDBRANCH   6   8
ENDBRANCH   5   6
ENDBRANCH   1   5
TORSDOF 5
ENDMDL
MODEL 5
REMARK VINA RESULT:    -4.072      8.508      9.720
REMARK INTER + INTRA:          -5.485
REMARK INTER:                  -5.006
REMARK INTRA:                  -0.479
REMARK UNBOUND:                -0.223
REMARK SMILES C=CC(=O)CCCCC
REMARK SMILES IDX 6 1 7 2 8 3 9 4 5 5 3 6 4 7 2 8 1 9
REMARK H PARENT
REMARK Flexibility Score: inf
ROOT
ATOM      1  C   UNL     1     -29.088  13.282 -30.539  1.00  0.00     0.008 C 
ENDROOT
BRANCH   1   2
ATOM      2  C   UNL     1     -29.461  12.426 -29.308  1.00  0.00     0.000 C 
BRANCH   2   3
ATOM      3  C   UNL     1     -28.345  12.346 -28.254  1.00  0.00    -0.003 C 
ATOM      4  C   UNL     1     -27.894  10.914 -27.970  1.00  0.00     0.004 C 
ENDBRANCH   2   3
ENDBRANCH   1   2
BRANCH   1   5
ATOM      5  C   UNL     1     -27.569  13.476 -30.702  1.00  0.00     0.080 C 
BRANCH   5   6
ATOM      6  C   UNL     1     -26.972  12.691 -31.849  1.00  0.00     0.155 C 
ATOM      7  O   UNL     1     -26.373  13.292 -32.782  1.00  0.00    -0.295 OA
BRANCH   6   8
ATOM      8  C   UNL     1     -27.032  11.214 -31.901  1.00  0.00     0.039 C 
ATOM      9  C   UNL     1     -27.784  10.537 -32.767  1.00  0.00     0.012 C 
ENDBRANCH   6   8
ENDBRANCH   5   6
ENDBRANCH   1   5
TORSDOF 5
ENDMDL
MODEL 6
REMARK VINA RESULT:    -4.067      2.375      4.817
REMARK INTER + INTRA:          -5.478
REMARK INTER:                  -5.322
REMARK INTRA:                  -0.156
REMARK UNBOUND:                -0.223
REMARK SMILES C=CC(=O)CCCCC
REMARK SMILES IDX 6 1 7 2 8 3 9 4 5 5 3 6 4 7 2 8 1 9
REMARK H PARENT
REMARK Flexibility Score: inf
ROOT
ATOM      1  C   UNL     1     -25.636  19.985 -33.459  1.00  0.00     0.008 C 
ENDROOT
BRANCH   1   2
ATOM      2  C   UNL     1     -24.266  19.991 -34.174  1.00  0.00     0.000 C 
BRANCH   2   3
ATOM      3  C   UNL     1     -23.132  20.588 -33.324  1.00  0.00    -0.003 C 
ATOM      4  C   UNL     1     -22.975  19.898 -31.970  1.00  0.00     0.004 C 
ENDBRANCH   2   3
ENDBRANCH   1   2
BRANCH   1   5
ATOM      5  C   UNL     1     -26.725  20.749 -34.234  1.00  0.00     0.080 C 
BRANCH   5   6
ATOM      6  C   UNL     1     -27.780  21.375 -33.350  1.00  0.00     0.155 C 
ATOM      7  O   UNL     1     -27.690  22.589 -33.020  1.00  0.00    -0.295 OA
BRANCH   6   8
ATOM      8  C   UNL     1     -28.956  20.614 -32.877  1.00  0.00     0.039 C 
ATOM      9  C   UNL     1     -29.278  19.401 -33.323  1.00  0.00     0.012 C 
ENDBRANCH   6   8
ENDBRANCH   5   6
ENDBRANCH   1   5
TORSDOF 5
ENDMDL
MODEL 7
REMARK VINA RESULT:    -3.999     10.884     12.784
REMARK INTER + INTRA:          -5.391
REMARK INTER:                  -5.177
REMARK INTRA:                  -0.214
REMARK UNBOUND:                -0.223
REMARK SMILES C=CC(=O)CCCCC
REMARK SMILES IDX 6 1 7 2 8 3 9 4 5 5 3 6 4 7 2 8 1 9
REMARK H PARENT
REMARK Flexibility Score: inf
ROOT
ATOM      1  C   UNL     1     -14.291  14.676 -31.442  1.00  0.00     0.008 C 
ENDROOT
BRANCH   1   2
ATOM      2  C   UNL     1     -12.807  14.732 -31.872  1.00  0.00     0.000 C 
BRANCH   2   3
ATOM      3  C   UNL     1     -11.825  14.414 -30.732  1.00  0.00    -0.003 C 
ATOM      4  C   UNL     1     -12.502  14.340 -29.365  1.00  0.00     0.004 C 
ENDBRANCH   2   3
ENDBRANCH   1   2
BRANCH   1   5
ATOM      5  C   UNL     1     -15.096  13.599 -32.193  1.00  0.00     0.080 C 
BRANCH   5   6
ATOM      6  C   UNL     1     -16.591  13.695 -31.981  1.00  0.00     0.155 C 
ATOM      7  O   UNL     1     -17.289  14.429 -32.732  1.00  0.00    -0.295 OA
BRANCH   6   8
ATOM      8  C   UNL     1     -17.283  12.918 -30.931  1.00  0.00     0.039 C 
ATOM      9  C   UNL     1     -16.648  12.216 -29.993  1.00  0.00     0.012 C 
ENDBRANCH   6   8
ENDBRANCH   5   6
ENDBRANCH   1   5
TORSDOF 5
ENDMDL
MODEL 8
REMARK VINA RESULT:    -3.995      8.351      9.244
REMARK INTER + INTRA:          -5.385
REMARK INTER:                  -4.852
REMARK INTRA:                  -0.534
REMARK UNBOUND:                -0.223
REMARK SMILES C=CC(=O)CCCCC
REMARK SMILES IDX 6 1 7 2 8 3 9 4 5 5 3 6 4 7 2 8 1 9
REMARK H PARENT
REMARK Flexibility Score: inf
ROOT
ATOM      1  C   UNL     1     -28.541  10.943 -31.762  1.00  0.00     0.008 C 
ENDROOT
BRANCH   1   2
ATOM      2  C   UNL     1     -29.215  10.655 -30.401  1.00  0.00     0.000 C 
BRANCH   2   3
ATOM      3  C   UNL     1     -29.893  11.886 -29.777  1.00  0.00    -0.003 C 
ATOM      4  C   UNL     1     -29.266  12.301 -28.447  1.00  0.00     0.004 C 
ENDBRANCH   2   3
ENDBRANCH   1   2
BRANCH   1   5
ATOM      5  C   UNL     1     -27.061  11.347 -31.628  1.00  0.00     0.080 C 
BRANCH   5   6
ATOM      6  C   UNL     1     -26.792  12.801 -31.948  1.00  0.00     0.155 C 
ATOM      7  O   UNL     1     -26.467  13.141 -33.118  1.00  0.00    -0.295 OA
BRANCH   6   8
ATOM      8  C   UNL     1     -26.932  13.864 -30.930  1.00  0.00     0.039 C 
ATOM      9  C   UNL     1     -26.174  13.944 -29.837  1.00  0.00     0.012 C 
ENDBRANCH   6   8
ENDBRANCH   5   6
ENDBRANCH   1   5
TORSDOF 5
ENDMDL
MODEL 9
REMARK VINA RESULT:    -3.982     11.858     13.656
REMARK INTER + INTRA:          -5.369
REMARK INTER:                  -4.970
REMARK INTRA:                  -0.399
REMARK UNBOUND:                -0.223
REMARK SMILES C=CC(=O)CCCCC
REMARK SMILES IDX 6 1 7 2 8 3 9 4 5 5 3 6 4 7 2 8 1 9
REMARK H PARENT
REMARK Flexibility Score: inf
ROOT
ATOM      1  C   UNL     1     -12.715  14.446 -29.944  1.00  0.00     0.008 C 
ENDROOT
BRANCH   1   2
ATOM      2  C   UNL     1     -11.428  14.553 -30.793  1.00  0.00     0.000 C 
BRANCH   2   3
ATOM      3  C   UNL     1     -11.693  14.581 -32.308  1.00  0.00    -0.003 C 
ATOM      4  C   UNL     1     -10.547  15.206 -33.102  1.00  0.00     0.004 C 
ENDBRANCH   2   3
ENDBRANCH   1   2
BRANCH   1   5
ATOM      5  C   UNL     1     -13.915  15.181 -30.570  1.00  0.00     0.080 C 
BRANCH   5   6
ATOM      6  C   UNL     1     -15.221  14.427 -30.457  1.00  0.00     0.155 C 
ATOM      7  O   UNL     1     -16.084  14.781 -29.608  1.00  0.00    -0.295 OA
BRANCH   6   8
ATOM      8  C   UNL     1     -15.547  13.290 -31.345  1.00  0.00     0.039 C 
ATOM      9  C   UNL     1     -15.169  13.218 -32.621  1.00  0.00     0.012 C 
ENDBRANCH   6   8
ENDBRANCH   5   6
ENDBRANCH   1   5
TORSDOF 5
ENDMDL
