MODEL 1
REMARK VINA RESULT:    -4.889      0.000      0.000
REMARK INTER + INTRA:          -5.234
REMARK INTER:                  -5.175
REMARK INTRA:                  -0.059
REMARK UNBOUND:                -0.059
REMARK SMILES CC(=O)c1ccccc1
REMARK SMILES IDX 4 1 5 2 6 3 7 4 8 5 9 6 2 7 1 8 3 9
REMARK H PARENT
REMARK Flexibility Score: inf
ROOT
ATOM      1  C   UNL     1     -34.117  45.128  38.960  1.00  0.00     0.017 A 
ATOM      2  C   UNL     1     -34.902  45.657  37.917  1.00  0.00     0.012 A 
ATOM      3  C   UNL     1     -34.302  46.138  36.748  1.00  0.00     0.001 A 
ATOM      4  C   UNL     1     -32.914  46.097  36.605  1.00  0.00     0.000 A 
ATOM      5  C   UNL     1     -32.123  45.575  37.630  1.00  0.00     0.001 A 
ATOM      6  C   UNL     1     -32.716  45.092  38.800  1.00  0.00     0.012 A 
ENDROOT
BRANCH   1   7
ATOM      7  C   UNL     1     -34.767  44.619  40.197  1.00  0.00     0.159 C 
ATOM      8  C   UNL     1     -34.952  43.152  40.451  1.00  0.00     0.093 C 
ATOM      9  O   UNL     1     -35.181  45.434  41.068  1.00  0.00    -0.295 OA
ENDBRANCH   1   7
TORSDOF 1
ENDMDL
MODEL 2
REMARK VINA RESULT:    -4.889      0.037      1.614
REMARK INTER + INTRA:          -5.233
REMARK INTER:                  -5.174
REMARK INTRA:                  -0.059
REMARK UNBOUND:                -0.059
REMARK SMILES CC(=O)c1ccccc1
REMARK SMILES IDX 4 1 5 2 6 3 7 4 8 5 9 6 2 7 1 8 3 9
REMARK H PARENT
REMARK Flexibility Score: inf
ROOT
ATOM      1  C   UNL     1     -34.116  45.145  38.960  1.00  0.00     0.017 A 
ATOM      2  C   UNL     1     -32.714  45.098  38.819  1.00  0.00     0.012 A 
ATOM      3  C   UNL     1     -32.101  45.566  37.652  1.00  0.00     0.001 A 
ATOM      4  C   UNL     1     -32.875  46.085  36.613  1.00  0.00     0.000 A 
ATOM      5  C   UNL     1     -34.264  46.138  36.739  1.00  0.00     0.001 A 
ATOM      6  C   UNL     1     -34.884  45.673  37.903  1.00  0.00     0.012 A 
ENDROOT
BRANCH   1   7
ATOM      7  C   UNL     1     -34.755  44.645  40.207  1.00  0.00     0.159 C 
ATOM      8  C   UNL     1     -34.902  43.179  40.490  1.00  0.00     0.093 C 
ATOM      9  O   UNL     1     -35.191  45.466  41.060  1.00  0.00    -0.295 OA
ENDBRANCH   1   7
TORSDOF 1
ENDMDL
MODEL 3
REMARK VINA RESULT:    -4.620     11.164     14.083
REMARK INTER + INTRA:          -4.949
REMARK INTER:                  -4.891
REMARK INTRA:                  -0.058
REMARK UNBOUND:                -0.059
REMARK SMILES CC(=O)c1ccccc1
REMARK SMILES IDX 4 1 5 2 6 3 7 4 8 5 9 6 2 7 1 8 3 9
REMARK H PARENT
REMARK Flexibility Score: inf
ROOT
ATOM      1  C   UNL     1     -40.142  37.806  47.862  1.00  0.00     0.017 A 
ATOM      2  C   UNL     1     -40.812  38.386  48.958  1.00  0.00     0.012 A 
ATOM      3  C   UNL     1     -41.323  37.587  49.985  1.00  0.00     0.001 A 
ATOM      4  C   UNL     1     -41.173  36.199  49.933  1.00  0.00     0.000 A 
ATOM      5  C   UNL     1     -40.512  35.610  48.854  1.00  0.00     0.001 A 
ATOM      6  C   UNL     1     -39.998  36.404  47.825  1.00  0.00     0.012 A 
ENDROOT
BRANCH   1   7
ATOM      7  C   UNL     1     -39.603  38.669  46.777  1.00  0.00     0.159 C 
ATOM      8  C   UNL     1     -38.188  39.167  46.788  1.00  0.00     0.093 C 
ATOM      9  O   UNL     1     -40.346  38.999  45.812  1.00  0.00    -0.295 OA
ENDBRANCH   1   7
TORSDOF 1
ENDMDL
MODEL 4
REMARK VINA RESULT:    -4.601     11.177     14.213
REMARK INTER + INTRA:          -4.929
REMARK INTER:                  -4.862
REMARK INTRA:                  -0.067
REMARK UNBOUND:                -0.059
REMARK SMILES CC(=O)c1ccccc1
REMARK SMILES IDX 4 1 5 2 6 3 7 4 8 5 9 6 2 7 1 8 3 9
REMARK H PARENT
REMARK Flexibility Score: inf
ROOT
ATOM      1  C   UNL     1     -39.755  37.359  47.899  1.00  0.00     0.017 A 
ATOM      2  C   UNL     1     -40.048  36.001  48.134  1.00  0.00     0.012 A 
ATOM      3  C   UNL     1     -40.888  35.626  49.187  1.00  0.00     0.001 A 
ATOM      4  C   UNL     1     -41.446  36.599  50.018  1.00  0.00     0.000 A 
ATOM      5  C   UNL     1     -41.165  37.948  49.798  1.00  0.00     0.001 A 
ATOM      6  C   UNL     1     -40.327  38.330  48.746  1.00  0.00     0.012 A 
ENDROOT
BRANCH   1   7
ATOM      7  C   UNL     1     -38.860  37.744  46.774  1.00  0.00     0.159 C 
ATOM      8  C   UNL     1     -38.986  39.066  46.077  1.00  0.00     0.093 C 
ATOM      9  O   UNL     1     -37.964  36.945  46.385  1.00  0.00    -0.295 OA
ENDBRANCH   1   7
TORSDOF 1
ENDMDL
MODEL 5
REMARK VINA RESULT:    -4.522     11.332     13.142
REMARK INTER + INTRA:          -4.845
REMARK INTER:                  -4.787
REMARK INTRA:                  -0.059
REMARK UNBOUND:                -0.059
REMARK SMILES CC(=O)c1ccccc1
REMARK SMILES IDX 4 1 5 2 6 3 7 4 8 5 9 6 2 7 1 8 3 9
REMARK H PARENT
REMARK Flexibility Score: inf
ROOT
ATOM      1  C   UNL     1     -40.138  37.913  48.155  1.00  0.00     0.017 A 
ATOM      2  C   UNL     1     -40.829  38.343  47.005  1.00  0.00     0.012 A 
ATOM      3  C   UNL     1     -40.145  38.963  45.954  1.00  0.00     0.001 A 
ATOM      4  C   UNL     1     -38.766  39.162  46.037  1.00  0.00     0.000 A 
ATOM      5  C   UNL     1     -38.068  38.741  47.170  1.00  0.00     0.001 A 
ATOM      6  C   UNL     1     -38.745  38.120  48.223  1.00  0.00     0.012 A 
ENDROOT
BRANCH   1   7
ATOM      7  C   UNL     1     -40.877  37.255  49.266  1.00  0.00     0.159 C 
ATOM      8  C   UNL     1     -40.870  35.766  49.450  1.00  0.00     0.093 C 
ATOM      9  O   UNL     1     -41.534  37.956  50.084  1.00  0.00    -0.295 OA
ENDBRANCH   1   7
TORSDOF 1
ENDMDL
MODEL 6
REMARK VINA RESULT:    -4.505      1.730      3.846
REMARK INTER + INTRA:          -4.827
REMARK INTER:                  -4.769
REMARK INTRA:                  -0.059
REMARK UNBOUND:                -0.059
REMARK SMILES CC(=O)c1ccccc1
REMARK SMILES IDX 4 1 5 2 6 3 7 4 8 5 9 6 2 7 1 8 3 9
REMARK H PARENT
REMARK Flexibility Score: inf
ROOT
ATOM      1  C   UNL     1     -34.315  44.856  38.734  1.00  0.00     0.017 A 
ATOM      2  C   UNL     1     -34.824  45.539  39.857  1.00  0.00     0.012 A 
ATOM      3  C   UNL     1     -35.264  44.831  40.980  1.00  0.00     0.001 A 
ATOM      4  C   UNL     1     -35.204  43.437  40.998  1.00  0.00     0.000 A 
ATOM      5  C   UNL     1     -34.702  42.747  39.893  1.00  0.00     0.001 A 
ATOM      6  C   UNL     1     -34.259  43.448  38.767  1.00  0.00     0.012 A 
ENDROOT
BRANCH   1   7
ATOM      7  C   UNL     1     -33.849  45.621  37.546  1.00  0.00     0.159 C 
ATOM      8  C   UNL     1     -32.392  45.837  37.263  1.00  0.00     0.093 C 
ATOM      9  O   UNL     1     -34.692  46.107  36.743  1.00  0.00    -0.295 OA
ENDBRANCH   1   7
TORSDOF 1
ENDMDL
MODEL 7
REMARK VINA RESULT:    -4.480      1.701      3.912
REMARK INTER + INTRA:          -4.801
REMARK INTER:                  -4.742
REMARK INTRA:                  -0.059
REMARK UNBOUND:                -0.059
REMARK SMILES CC(=O)c1ccccc1
REMARK SMILES IDX 4 1 5 2 6 3 7 4 8 5 9 6 2 7 1 8 3 9
REMARK H PARENT
REMARK Flexibility Score: inf
ROOT
ATOM      1  C   UNL     1     -34.320  44.884  38.780  1.00  0.00     0.017 A 
ATOM      2  C   UNL     1     -34.305  43.477  38.711  1.00  0.00     0.012 A 
ATOM      3  C   UNL     1     -34.735  42.706  39.796  1.00  0.00     0.001 A 
ATOM      4  C   UNL     1     -35.184  43.328  40.962  1.00  0.00     0.000 A 
ATOM      5  C   UNL     1     -35.205  44.721  41.046  1.00  0.00     0.001 A 
ATOM      6  C   UNL     1     -34.777  45.497  39.964  1.00  0.00     0.012 A 
ENDROOT
BRANCH   1   7
ATOM      7  C   UNL     1     -33.860  45.691  37.618  1.00  0.00     0.159 C 
ATOM      8  C   UNL     1     -32.405  45.917  37.335  1.00  0.00     0.093 C 
ATOM      9  O   UNL     1     -34.708  46.207  36.839  1.00  0.00    -0.295 OA
ENDBRANCH   1   7
TORSDOF 1
ENDMDL
MODEL 8
REMARK VINA RESULT:    -4.400      2.008      4.481
REMARK INTER + INTRA:          -4.716
REMARK INTER:                  -4.657
REMARK INTRA:                  -0.059
REMARK UNBOUND:                -0.059
REMARK SMILES CC(=O)c1ccccc1
REMARK SMILES IDX 4 1 5 2 6 3 7 4 8 5 9 6 2 7 1 8 3 9
REMARK H PARENT
REMARK Flexibility Score: inf
ROOT
ATOM      1  C   UNL     1     -34.023  43.486  40.099  1.00  0.00     0.017 A 
ATOM      2  C   UNL     1     -35.130  43.917  40.857  1.00  0.00     0.012 A 
ATOM      3  C   UNL     1     -35.462  43.280  42.057  1.00  0.00     0.001 A 
ATOM      4  C   UNL     1     -34.695  42.207  42.517  1.00  0.00     0.000 A 
ATOM      5  C   UNL     1     -33.595  41.769  41.777  1.00  0.00     0.001 A 
ATOM      6  C   UNL     1     -33.258  42.402  40.577  1.00  0.00     0.012 A 
ENDROOT
BRANCH   1   7
ATOM      7  C   UNL     1     -33.680  44.172  38.825  1.00  0.00     0.159 C 
ATOM      8  C   UNL     1     -32.516  45.111  38.717  1.00  0.00     0.093 C 
ATOM      9  O   UNL     1     -34.381  43.968  37.795  1.00  0.00    -0.295 OA
ENDBRANCH   1   7
TORSDOF 1
ENDMDL
MODEL 9
REMARK VINA RESULT:    -4.281      2.091      2.880
REMARK INTER + INTRA:          -4.590
REMARK INTER:                  -4.520
REMARK INTRA:                  -0.069
REMARK UNBOUND:                -0.059
REMARK SMILES CC(=O)c1ccccc1
REMARK SMILES IDX 4 1 5 2 6 3 7 4 8 5 9 6 2 7 1 8 3 9
REMARK H PARENT
REMARK Flexibility Score: inf
ROOT
ATOM      1  C   UNL     1     -34.739  43.603  40.383  1.00  0.00     0.017 A 
ATOM      2  C   UNL     1     -34.355  43.237  39.078  1.00  0.00     0.012 A 
ATOM      3  C   UNL     1     -34.358  44.179  38.044  1.00  0.00     0.001 A 
ATOM      4  C   UNL     1     -34.742  45.497  38.299  1.00  0.00     0.000 A 
ATOM      5  C   UNL     1     -35.124  45.875  39.586  1.00  0.00     0.001 A 
ATOM      6  C   UNL     1     -35.124  44.938  40.624  1.00  0.00     0.012 A 
ENDROOT
BRANCH   1   7
ATOM      7  C   UNL     1     -34.731  42.591  41.473  1.00  0.00     0.159 C 
ATOM      8  C   UNL     1     -35.389  42.846  42.797  1.00  0.00     0.093 C 
ATOM      9  O   UNL     1     -34.159  41.481  41.293  1.00  0.00    -0.295 OA
ENDBRANCH   1   7
TORSDOF 1
ENDMDL
