MODEL 1
REMARK VINA RESULT:    -2.920      0.000      0.000
REMARK INTER + INTRA:         -12.318
REMARK INTER:                  -7.616
REMARK INTRA:                  -4.703
REMARK UNBOUND:                -4.703
REMARK SMILES CCCCCCCCCCCCCCCCCCCCCCCCCCCCCO
REMARK SMILES IDX 16 1 15 2 14 3 13 4 12 5 11 6 10 7 9 8 8 9 7 10 6 11 5 12
REMARK SMILES IDX 4 13 3 14 2 15 1 16 17 17 18 18 19 19 20 20 21 21 22 22
REMARK SMILES IDX 23 23 24 24 25 25 26 26 27 27 28 28 29 29 30 30
REMARK H PARENT 30 31
REMARK Flexibility Score: inf
ROOT
ATOM      1  C   UNL     1     155.967 147.988 136.331  1.00  0.00     0.000 C 
ENDROOT
BRANCH   1   2
ATOM      2  C   UNL     1     155.438 149.434 136.209  1.00  0.00     0.000 C 
BRANCH   2   3
ATOM      3  C   UNL     1     154.767 150.000 137.481  1.00  0.00     0.000 C 
BRANCH   3   4
ATOM      4  C   UNL     1     155.524 151.145 138.186  1.00  0.00     0.000 C 
BRANCH   4   5
ATOM      5  C   UNL     1     156.248 150.753 139.488  1.00  0.00     0.000 C 
BRANCH   5   6
ATOM      6  C   UNL     1     157.785 150.757 139.405  1.00  0.00     0.000 C 
BRANCH   6   7
ATOM      7  C   UNL     1     158.308 151.214 138.031  1.00  0.00     0.000 C 
BRANCH   7   8
ATOM      8  C   UNL     1     159.420 152.271 138.148  1.00  0.00    -0.000 C 
BRANCH   8   9
ATOM      9  C   UNL     1     159.455 152.934 139.536  1.00  0.00    -0.000 C 
BRANCH   9  10
ATOM     10  C   UNL     1     158.740 154.297 139.569  1.00  0.00    -0.000 C 
BRANCH  10  11
ATOM     11  C   UNL     1     157.292 154.268 140.095  1.00  0.00    -0.000 C 
BRANCH  11  12
ATOM     12  C   UNL     1     156.259 154.672 139.030  1.00  0.00    -0.000 C 
BRANCH  12  13
ATOM     13  C   UNL     1     156.899 155.026 137.675  1.00  0.00    -0.000 C 
BRANCH  13  14
ATOM     14  C   UNL     1     156.452 154.150 136.486  1.00  0.00    -0.000 C 
BRANCH  14  15
ATOM     15  C   UNL     1     157.463 154.049 135.331  1.00  0.00    -0.003 C 
ATOM     16  C   UNL     1     158.755 154.816 135.602  1.00  0.00     0.004 C 
ENDBRANCH  14  15
ENDBRANCH  13  14
ENDBRANCH  12  13
ENDBRANCH  11  12
ENDBRANCH  10  11
ENDBRANCH   9  10
ENDBRANCH   8   9
ENDBRANCH   7   8
ENDBRANCH   6   7
ENDBRANCH   5   6
ENDBRANCH   4   5
ENDBRANCH   3   4
ENDBRANCH   2   3
ENDBRANCH   1   2
BRANCH   1  17
ATOM     17  C   UNL     1     157.013 147.786 137.442  1.00  0.00     0.000 C 
BRANCH  17  18
ATOM     18  C   UNL     1     156.484 146.964 138.629  1.00  0.00     0.000 C 
BRANCH  18  19
ATOM     19  C   UNL     1     155.282 146.079 138.247  1.00  0.00     0.000 C 
BRANCH  19  20
ATOM     20  C   UNL     1     154.972 144.970 139.271  1.00  0.00     0.000 C 
BRANCH  20  21
ATOM     21  C   UNL     1     154.425 143.693 138.608  1.00  0.00     0.000 C 
BRANCH  21  22
ATOM     22  C   UNL     1     154.009 142.628 139.637  1.00  0.00     0.000 C 
BRANCH  22  23
ATOM     23  C   UNL     1     152.722 141.891 139.236  1.00  0.00     0.000 C 
BRANCH  23  24
ATOM     24  C   UNL     1     152.369 142.167 137.767  1.00  0.00     0.000 C 
BRANCH  24  25
ATOM     25  C   UNL     1     150.941 142.711 137.591  1.00  0.00     0.000 C 
BRANCH  25  26
ATOM     26  C   UNL     1     150.906 144.024 136.789  1.00  0.00     0.000 C 
BRANCH  26  27
ATOM     27  C   UNL     1     151.249 145.257 137.645  1.00  0.00     0.002 C 
BRANCH  27  28
ATOM     28  C   UNL     1     150.736 145.206 139.096  1.00  0.00     0.028 C 
BRANCH  28  29
ATOM     29  C   UNL     1     151.661 145.924 140.086  1.00  0.00     0.156 C 
BRANCH  29  30
ATOM     30  O   UNL     1     151.522 145.373 141.366  1.00  0.00    -0.396 OA
ATOM     31  H   UNL     1     152.410 145.445 141.805  1.00  0.00     0.210 HD
ENDBRANCH  29  30
ENDBRANCH  28  29
ENDBRANCH  27  28
ENDBRANCH  26  27
ENDBRANCH  25  26
ENDBRANCH  24  25
ENDBRANCH  23  24
ENDBRANCH  22  23
ENDBRANCH  21  22
ENDBRANCH  20  21
ENDBRANCH  19  20
ENDBRANCH  18  19
ENDBRANCH  17  18
ENDBRANCH   1  17
TORSDOF 28
ENDMDL
MODEL 2
REMARK VINA RESULT:    -2.860      2.057      4.655
REMARK INTER + INTRA:         -12.160
REMARK INTER:                  -6.775
REMARK INTRA:                  -5.385
REMARK UNBOUND:                -4.703
REMARK SMILES CCCCCCCCCCCCCCCCCCCCCCCCCCCCCO
REMARK SMILES IDX 16 1 15 2 14 3 13 4 12 5 11 6 10 7 9 8 8 9 7 10 6 11 5 12
REMARK SMILES IDX 4 13 3 14 2 15 1 16 17 17 18 18 19 19 20 20 21 21 22 22
REMARK SMILES IDX 23 23 24 24 25 25 26 26 27 27 28 28 29 29 30 30
REMARK H PARENT 30 31
REMARK Flexibility Score: inf
ROOT
ATOM      1  C   UNL     1     155.859 152.083 140.159  1.00  0.00     0.000 C 
ENDROOT
BRANCH   1   2
ATOM      2  C   UNL     1     156.018 152.995 138.922  1.00  0.00     0.000 C 
BRANCH   2   3
ATOM      3  C   UNL     1     156.684 154.362 139.191  1.00  0.00     0.000 C 
BRANCH   3   4
ATOM      4  C   UNL     1     157.970 154.326 140.043  1.00  0.00     0.000 C 
BRANCH   4   5
ATOM      5  C   UNL     1     159.244 153.883 139.298  1.00  0.00     0.000 C 
BRANCH   5   6
ATOM      6  C   UNL     1     159.813 152.521 139.735  1.00  0.00     0.000 C 
BRANCH   6   7
ATOM      7  C   UNL     1     159.783 151.472 138.608  1.00  0.00     0.000 C 
BRANCH   7   8
ATOM      8  C   UNL     1     159.331 152.068 137.264  1.00  0.00    -0.000 C 
BRANCH   8   9
ATOM      9  C   UNL     1     159.178 150.998 136.169  1.00  0.00    -0.000 C 
BRANCH   9  10
ATOM     10  C   UNL     1     158.187 151.406 135.064  1.00  0.00    -0.000 C 
BRANCH  10  11
ATOM     11  C   UNL     1     156.864 152.020 135.560  1.00  0.00    -0.000 C 
BRANCH  11  12
ATOM     12  C   UNL     1     155.671 151.693 134.645  1.00  0.00    -0.000 C 
BRANCH  12  13
ATOM     13  C   UNL     1     154.333 152.232 135.186  1.00  0.00    -0.000 C 
BRANCH  13  14
ATOM     14  C   UNL     1     153.803 151.530 136.453  1.00  0.00    -0.000 C 
BRANCH  14  15
ATOM     15  C   UNL     1     152.840 150.358 136.196  1.00  0.00    -0.003 C 
ATOM     16  C   UNL     1     152.636 149.475 137.426  1.00  0.00     0.004 C 
ENDBRANCH  14  15
ENDBRANCH  13  14
ENDBRANCH  12  13
ENDBRANCH  11  12
ENDBRANCH  10  11
ENDBRANCH   9  10
ENDBRANCH   8   9
ENDBRANCH   7   8
ENDBRANCH   6   7
ENDBRANCH   5   6
ENDBRANCH   4   5
ENDBRANCH   3   4
ENDBRANCH   2   3
ENDBRANCH   1   2
BRANCH   1  17
ATOM     17  C   UNL     1     156.587 150.732 140.050  1.00  0.00     0.000 C 
BRANCH  17  18
ATOM     18  C   UNL     1     156.380 150.041 138.691  1.00  0.00     0.000 C 
BRANCH  18  19
ATOM     19  C   UNL     1     156.837 148.570 138.701  1.00  0.00     0.000 C 
BRANCH  19  20
ATOM     20  C   UNL     1     157.105 147.990 137.299  1.00  0.00     0.000 C 
BRANCH  20  21
ATOM     21  C   UNL     1     156.101 148.502 136.249  1.00  0.00     0.000 C 
BRANCH  21  22
ATOM     22  C   UNL     1     155.777 147.445 135.180  1.00  0.00     0.000 C 
BRANCH  22  23
ATOM     23  C   UNL     1     154.301 147.016 135.203  1.00  0.00     0.000 C 
BRANCH  23  24
ATOM     24  C   UNL     1     154.177 145.485 135.173  1.00  0.00     0.000 C 
BRANCH  24  25
ATOM     25  C   UNL     1     153.706 144.902 136.516  1.00  0.00     0.000 C 
BRANCH  25  26
ATOM     26  C   UNL     1     154.879 144.560 137.452  1.00  0.00     0.000 C 
BRANCH  26  27
ATOM     27  C   UNL     1     154.775 145.259 138.820  1.00  0.00     0.002 C 
BRANCH  27  28
ATOM     28  C   UNL     1     153.997 144.479 139.894  1.00  0.00     0.028 C 
BRANCH  28  29
ATOM     29  C   UNL     1     154.358 142.989 139.934  1.00  0.00     0.156 C 
BRANCH  29  30
ATOM     30  O   UNL     1     154.868 142.648 141.193  1.00  0.00    -0.396 OA
ATOM     31  H   UNL     1     154.238 141.987 141.585  1.00  0.00     0.210 HD
ENDBRANCH  29  30
ENDBRANCH  28  29
ENDBRANCH  27  28
ENDBRANCH  26  27
ENDBRANCH  25  26
ENDBRANCH  24  25
ENDBRANCH  23  24
ENDBRANCH  22  23
ENDBRANCH  21  22
ENDBRANCH  20  21
ENDBRANCH  19  20
ENDBRANCH  18  19
ENDBRANCH  17  18
ENDBRANCH   1  17
TORSDOF 28
ENDMDL
MODEL 3
REMARK VINA RESULT:    -2.840      6.320     10.056
REMARK INTER + INTRA:         -12.108
REMARK INTER:                  -6.552
REMARK INTRA:                  -5.556
REMARK UNBOUND:                -4.703
REMARK SMILES CCCCCCCCCCCCCCCCCCCCCCCCCCCCCO
REMARK SMILES IDX 16 1 15 2 14 3 13 4 12 5 11 6 10 7 9 8 8 9 7 10 6 11 5 12
REMARK SMILES IDX 4 13 3 14 2 15 1 16 17 17 18 18 19 19 20 20 21 21 22 22
REMARK SMILES IDX 23 23 24 24 25 25 26 26 27 27 28 28 29 29 30 30
REMARK H PARENT 30 31
REMARK Flexibility Score: inf
ROOT
ATOM      1  C   UNL     1     152.868 157.550 136.709  1.00  0.00     0.000 C 
ENDROOT
BRANCH   1   2
ATOM      2  C   UNL     1     151.603 158.271 136.194  1.00  0.00     0.000 C 
BRANCH   2   3
ATOM      3  C   UNL     1     150.418 157.348 135.833  1.00  0.00     0.000 C 
BRANCH   3   4
ATOM      4  C   UNL     1     150.650 155.839 136.059  1.00  0.00     0.000 C 
BRANCH   4   5
ATOM      5  C   UNL     1     149.724 155.179 137.099  1.00  0.00     0.000 C 
BRANCH   5   6
ATOM      6  C   UNL     1     150.364 154.938 138.479  1.00  0.00     0.000 C 
BRANCH   6   7
ATOM      7  C   UNL     1     149.699 155.761 139.598  1.00  0.00     0.000 C 
BRANCH   7   8
ATOM      8  C   UNL     1     150.478 157.047 139.921  1.00  0.00    -0.000 C 
BRANCH   8   9
ATOM      9  C   UNL     1     149.803 158.304 139.344  1.00  0.00    -0.000 C 
BRANCH   9  10
ATOM     10  C   UNL     1     148.266 158.249 139.420  1.00  0.00    -0.000 C 
BRANCH  10  11
ATOM     11  C   UNL     1     147.531 158.488 138.088  1.00  0.00    -0.000 C 
BRANCH  11  12
ATOM     12  C   UNL     1     146.727 157.264 137.618  1.00  0.00    -0.000 C 
BRANCH  12  13
ATOM     13  C   UNL     1     146.243 156.380 138.783  1.00  0.00    -0.000 C 
BRANCH  13  14
ATOM     14  C   UNL     1     145.838 154.943 138.395  1.00  0.00    -0.000 C 
BRANCH  14  15
ATOM     15  C   UNL     1     146.078 154.571 136.921  1.00  0.00    -0.003 C 
ATOM     16  C   UNL     1     145.158 153.455 136.431  1.00  0.00     0.004 C 
ENDBRANCH  14  15
ENDBRANCH  13  14
ENDBRANCH  12  13
ENDBRANCH  11  12
ENDBRANCH  10  11
ENDBRANCH   9  10
ENDBRANCH   8   9
ENDBRANCH   7   8
ENDBRANCH   6   7
ENDBRANCH   5   6
ENDBRANCH   4   5
ENDBRANCH   3   4
ENDBRANCH   2   3
ENDBRANCH   1   2
BRANCH   1  17
ATOM     17  C   UNL     1     153.413 158.096 138.041  1.00  0.00     0.000 C 
BRANCH  17  18
ATOM     18  C   UNL     1     153.982 156.999 138.957  1.00  0.00     0.000 C 
BRANCH  18  19
ATOM     19  C   UNL     1     154.237 155.677 138.208  1.00  0.00     0.000 C 
BRANCH  19  20
ATOM     20  C   UNL     1     155.576 155.004 138.568  1.00  0.00     0.000 C 
BRANCH  20  21
ATOM     21  C   UNL     1     156.557 154.976 137.382  1.00  0.00     0.000 C 
BRANCH  21  22
ATOM     22  C   UNL     1     156.202 153.893 136.350  1.00  0.00     0.000 C 
BRANCH  22  23
ATOM     23  C   UNL     1     155.466 154.462 135.127  1.00  0.00     0.000 C 
BRANCH  23  24
ATOM     24  C   UNL     1     154.042 153.893 135.033  1.00  0.00     0.000 C 
BRANCH  24  25
ATOM     25  C   UNL     1     153.845 152.638 135.900  1.00  0.00     0.000 C 
BRANCH  25  26
ATOM     26  C   UNL     1     152.502 152.646 136.650  1.00  0.00     0.000 C 
BRANCH  26  27
ATOM     27  C   UNL     1     152.340 151.445 137.600  1.00  0.00     0.002 C 
BRANCH  27  28
ATOM     28  C   UNL     1     150.891 151.134 138.016  1.00  0.00     0.028 C 
BRANCH  28  29
ATOM     29  C   UNL     1     150.649 151.298 139.521  1.00  0.00     0.156 C 
BRANCH  29  30
ATOM     30  O   UNL     1     151.781 150.896 140.241  1.00  0.00    -0.396 OA
ATOM     31  H   UNL     1     152.340 151.707 140.369  1.00  0.00     0.210 HD
ENDBRANCH  29  30
ENDBRANCH  28  29
ENDBRANCH  27  28
ENDBRANCH  26  27
ENDBRANCH  25  26
ENDBRANCH  24  25
ENDBRANCH  23  24
ENDBRANCH  22  23
ENDBRANCH  21  22
ENDBRANCH  20  21
ENDBRANCH  19  20
ENDBRANCH  18  19
ENDBRANCH  17  18
ENDBRANCH   1  17
TORSDOF 28
ENDMDL
MODEL 4
REMARK VINA RESULT:    -2.745      5.988     10.238
REMARK INTER + INTRA:         -11.861
REMARK INTER:                  -7.052
REMARK INTRA:                  -4.809
REMARK UNBOUND:                -4.703
REMARK SMILES CCCCCCCCCCCCCCCCCCCCCCCCCCCCCO
REMARK SMILES IDX 16 1 15 2 14 3 13 4 12 5 11 6 10 7 9 8 8 9 7 10 6 11 5 12
REMARK SMILES IDX 4 13 3 14 2 15 1 16 17 17 18 18 19 19 20 20 21 21 22 22
REMARK SMILES IDX 23 23 24 24 25 25 26 26 27 27 28 28 29 29 30 30
REMARK H PARENT 30 31
REMARK Flexibility Score: inf
ROOT
ATOM      1  C   UNL     1     148.089 146.442 135.257  1.00  0.00     0.000 C 
ENDROOT
BRANCH   1   2
ATOM      2  C   UNL     1     147.219 145.666 136.271  1.00  0.00     0.000 C 
BRANCH   2   3
ATOM      3  C   UNL     1     147.024 146.357 137.638  1.00  0.00     0.000 C 
BRANCH   3   4
ATOM      4  C   UNL     1     146.107 145.621 138.638  1.00  0.00     0.000 C 
BRANCH   4   5
ATOM      5  C   UNL     1     144.746 146.294 138.903  1.00  0.00     0.000 C 
BRANCH   5   6
ATOM      6  C   UNL     1     143.911 146.591 137.643  1.00  0.00     0.000 C 
BRANCH   6   7
ATOM      7  C   UNL     1     142.591 147.318 137.960  1.00  0.00     0.000 C 
BRANCH   7   8
ATOM      8  C   UNL     1     142.498 147.749 139.434  1.00  0.00    -0.000 C 
BRANCH   8   9
ATOM      9  C   UNL     1     142.126 149.234 139.588  1.00  0.00    -0.000 C 
BRANCH   9  10
ATOM     10  C   UNL     1     143.074 150.174 138.820  1.00  0.00    -0.000 C 
BRANCH  10  11
ATOM     11  C   UNL     1     144.348 150.588 139.581  1.00  0.00    -0.000 C 
BRANCH  11  12
ATOM     12  C   UNL     1     145.584 149.771 139.170  1.00  0.00    -0.000 C 
BRANCH  12  13
ATOM     13  C   UNL     1     146.451 150.481 138.113  1.00  0.00    -0.000 C 
BRANCH  13  14
ATOM     14  C   UNL     1     146.598 149.734 136.771  1.00  0.00    -0.000 C 
BRANCH  14  15
ATOM     15  C   UNL     1     145.287 149.521 135.994  1.00  0.00    -0.003 C 
ATOM     16  C   UNL     1     144.679 150.827 135.484  1.00  0.00     0.004 C 
ENDBRANCH  14  15
ENDBRANCH  13  14
ENDBRANCH  12  13
ENDBRANCH  11  12
ENDBRANCH  10  11
ENDBRANCH   9  10
ENDBRANCH   8   9
ENDBRANCH   7   8
ENDBRANCH   6   7
ENDBRANCH   5   6
ENDBRANCH   4   5
ENDBRANCH   3   4
ENDBRANCH   2   3
ENDBRANCH   1   2
BRANCH   1  17
ATOM     17  C   UNL     1     149.387 145.722 134.851  1.00  0.00     0.000 C 
BRANCH  17  18
ATOM     18  C   UNL     1     150.306 145.413 136.045  1.00  0.00     0.000 C 
BRANCH  18  19
ATOM     19  C   UNL     1     150.454 143.901 136.301  1.00  0.00     0.000 C 
BRANCH  19  20
ATOM     20  C   UNL     1     150.160 143.482 137.754  1.00  0.00     0.000 C 
BRANCH  20  21
ATOM     21  C   UNL     1     150.010 144.691 138.695  1.00  0.00     0.000 C 
BRANCH  21  22
ATOM     22  C   UNL     1     150.687 144.465 140.057  1.00  0.00     0.000 C 
BRANCH  22  23
ATOM     23  C   UNL     1     151.850 145.437 140.308  1.00  0.00     0.000 C 
BRANCH  23  24
ATOM     24  C   UNL     1     152.241 146.166 139.013  1.00  0.00     0.000 C 
BRANCH  24  25
ATOM     25  C   UNL     1     153.689 145.879 138.584  1.00  0.00     0.000 C 
BRANCH  25  26
ATOM     26  C   UNL     1     153.796 144.661 137.650  1.00  0.00     0.000 C 
BRANCH  26  27
ATOM     27  C   UNL     1     154.624 143.513 138.256  1.00  0.00     0.002 C 
BRANCH  27  28
ATOM     28  C   UNL     1     153.812 142.275 138.675  1.00  0.00     0.028 C 
BRANCH  28  29
ATOM     29  C   UNL     1     153.806 142.044 140.191  1.00  0.00     0.156 C 
BRANCH  29  30
ATOM     30  O   UNL     1     154.870 142.732 140.790  1.00  0.00    -0.396 OA
ATOM     31  H   UNL     1     155.705 142.325 140.438  1.00  0.00     0.210 HD
ENDBRANCH  29  30
ENDBRANCH  28  29
ENDBRANCH  27  28
ENDBRANCH  26  27
ENDBRANCH  25  26
ENDBRANCH  24  25
ENDBRANCH  23  24
ENDBRANCH  22  23
ENDBRANCH  21  22
ENDBRANCH  20  21
ENDBRANCH  19  20
ENDBRANCH  18  19
ENDBRANCH  17  18
ENDBRANCH   1  17
TORSDOF 28
ENDMDL
MODEL 5
REMARK VINA RESULT:    -2.718      3.064      7.135
REMARK INTER + INTRA:         -11.790
REMARK INTER:                  -5.955
REMARK INTRA:                  -5.836
REMARK UNBOUND:                -4.703
REMARK SMILES CCCCCCCCCCCCCCCCCCCCCCCCCCCCCO
REMARK SMILES IDX 16 1 15 2 14 3 13 4 12 5 11 6 10 7 9 8 8 9 7 10 6 11 5 12
REMARK SMILES IDX 4 13 3 14 2 15 1 16 17 17 18 18 19 19 20 20 21 21 22 22
REMARK SMILES IDX 23 23 24 24 25 25 26 26 27 27 28 28 29 29 30 30
REMARK H PARENT 30 31
REMARK Flexibility Score: inf
ROOT
ATOM      1  C   UNL     1     156.650 150.079 139.443  1.00  0.00     0.000 C 
ENDROOT
BRANCH   1   2
ATOM      2  C   UNL     1     157.349 149.006 138.579  1.00  0.00     0.000 C 
BRANCH   2   3
ATOM      3  C   UNL     1     156.890 147.553 138.832  1.00  0.00     0.000 C 
BRANCH   3   4
ATOM      4  C   UNL     1     156.108 146.886 137.681  1.00  0.00     0.000 C 
BRANCH   4   5
ATOM      5  C   UNL     1     154.573 146.941 137.809  1.00  0.00     0.000 C 
BRANCH   5   6
ATOM      6  C   UNL     1     153.886 148.013 136.943  1.00  0.00     0.000 C 
BRANCH   6   7
ATOM      7  C   UNL     1     154.682 148.353 135.670  1.00  0.00     0.000 C 
BRANCH   7   8
ATOM      8  C   UNL     1     155.034 149.847 135.579  1.00  0.00    -0.000 C 
BRANCH   8   9
ATOM      9  C   UNL     1     156.122 150.132 134.529  1.00  0.00    -0.000 C 
BRANCH   9  10
ATOM     10  C   UNL     1     157.549 150.019 135.096  1.00  0.00    -0.000 C 
BRANCH  10  11
ATOM     11  C   UNL     1     158.172 151.343 135.577  1.00  0.00    -0.000 C 
BRANCH  11  12
ATOM     12  C   UNL     1     159.394 151.134 136.487  1.00  0.00    -0.000 C 
BRANCH  12  13
ATOM     13  C   UNL     1     159.959 152.453 137.048  1.00  0.00    -0.000 C 
BRANCH  13  14
ATOM     14  C   UNL     1     160.193 152.474 138.573  1.00  0.00    -0.000 C 
BRANCH  14  15
ATOM     15  C   UNL     1     160.670 153.821 139.143  1.00  0.00    -0.003 C 
ATOM     16  C   UNL     1     160.505 153.918 140.659  1.00  0.00     0.004 C 
ENDBRANCH  14  15
ENDBRANCH  13  14
ENDBRANCH  12  13
ENDBRANCH  11  12
ENDBRANCH  10  11
ENDBRANCH   9  10
ENDBRANCH   8   9
ENDBRANCH   7   8
ENDBRANCH   6   7
ENDBRANCH   5   6
ENDBRANCH   4   5
ENDBRANCH   3   4
ENDBRANCH   2   3
ENDBRANCH   1   2
BRANCH   1  17
ATOM     17  C   UNL     1     156.166 151.310 138.657  1.00  0.00     0.000 C 
BRANCH  17  18
ATOM     18  C   UNL     1     155.772 152.490 139.562  1.00  0.00     0.000 C 
BRANCH  18  19
ATOM     19  C   UNL     1     156.944 153.456 139.818  1.00  0.00     0.000 C 
BRANCH  19  20
ATOM     20  C   UNL     1     156.795 154.819 139.115  1.00  0.00     0.000 C 
BRANCH  20  21
ATOM     21  C   UNL     1     157.119 154.743 137.612  1.00  0.00     0.000 C 
BRANCH  21  22
ATOM     22  C   UNL     1     155.867 154.893 136.731  1.00  0.00     0.000 C 
BRANCH  22  23
ATOM     23  C   UNL     1     155.573 153.632 135.904  1.00  0.00     0.000 C 
BRANCH  23  24
ATOM     24  C   UNL     1     154.061 153.450 135.704  1.00  0.00     0.000 C 
BRANCH  24  25
ATOM     25  C   UNL     1     153.271 153.557 137.019  1.00  0.00     0.000 C 
BRANCH  25  26
ATOM     26  C   UNL     1     152.181 152.478 137.140  1.00  0.00     0.000 C 
BRANCH  26  27
ATOM     27  C   UNL     1     152.616 151.282 138.007  1.00  0.00     0.002 C 
BRANCH  27  28
ATOM     28  C   UNL     1     151.463 150.444 138.586  1.00  0.00     0.028 C 
BRANCH  28  29
ATOM     29  C   UNL     1     150.229 151.282 138.943  1.00  0.00     0.156 C 
BRANCH  29  30
ATOM     30  O   UNL     1     150.386 151.860 140.209  1.00  0.00    -0.396 OA
ATOM     31  H   UNL     1     150.907 151.213 140.754  1.00  0.00     0.210 HD
ENDBRANCH  29  30
ENDBRANCH  28  29
ENDBRANCH  27  28
ENDBRANCH  26  27
ENDBRANCH  25  26
ENDBRANCH  24  25
ENDBRANCH  23  24
ENDBRANCH  22  23
ENDBRANCH  21  22
ENDBRANCH  20  21
ENDBRANCH  19  20
ENDBRANCH  18  19
ENDBRANCH  17  18
ENDBRANCH   1  17
TORSDOF 28
ENDMDL
MODEL 6
REMARK VINA RESULT:    -2.711      7.204     10.210
REMARK INTER + INTRA:         -11.773
REMARK INTER:                  -6.677
REMARK INTRA:                  -5.097
REMARK UNBOUND:                -4.703
REMARK SMILES CCCCCCCCCCCCCCCCCCCCCCCCCCCCCO
REMARK SMILES IDX 16 1 15 2 14 3 13 4 12 5 11 6 10 7 9 8 8 9 7 10 6 11 5 12
REMARK SMILES IDX 4 13 3 14 2 15 1 16 17 17 18 18 19 19 20 20 21 21 22 22
REMARK SMILES IDX 23 23 24 24 25 25 26 26 27 27 28 28 29 29 30 30
REMARK H PARENT 30 31
REMARK Flexibility Score: inf
ROOT
ATOM      1  C   UNL     1     146.394 156.744 138.993  1.00  0.00     0.000 C 
ENDROOT
BRANCH   1   2
ATOM      2  C   UNL     1     147.668 157.157 139.763  1.00  0.00     0.000 C 
BRANCH   2   3
ATOM      3  C   UNL     1     148.995 156.962 138.996  1.00  0.00     0.000 C 
BRANCH   3   4
ATOM      4  C   UNL     1     149.888 155.802 139.483  1.00  0.00     0.000 C 
BRANCH   4   5
ATOM      5  C   UNL     1     149.799 154.508 138.651  1.00  0.00     0.000 C 
BRANCH   5   6
ATOM      6  C   UNL     1     149.879 154.708 137.126  1.00  0.00     0.000 C 
BRANCH   6   7
ATOM      7  C   UNL     1     150.722 153.626 136.425  1.00  0.00     0.000 C 
BRANCH   7   8
ATOM      8  C   UNL     1     151.469 152.725 137.425  1.00  0.00    -0.000 C 
BRANCH   8   9
ATOM      9  C   UNL     1     151.144 151.235 137.227  1.00  0.00    -0.000 C 
BRANCH   9  10
ATOM     10  C   UNL     1     150.428 150.609 138.439  1.00  0.00    -0.000 C 
BRANCH  10  11
ATOM     11  C   UNL     1     148.987 150.133 138.177  1.00  0.00    -0.000 C 
BRANCH  11  12
ATOM     12  C   UNL     1     148.126 151.190 137.464  1.00  0.00    -0.000 C 
BRANCH  12  13
ATOM     13  C   UNL     1     147.784 150.807 136.012  1.00  0.00    -0.000 C 
BRANCH  13  14
ATOM     14  C   UNL     1     147.780 149.293 135.713  1.00  0.00    -0.000 C 
BRANCH  14  15
ATOM     15  C   UNL     1     146.386 148.661 135.557  1.00  0.00    -0.003 C 
ATOM     16  C   UNL     1     145.493 149.423 134.579  1.00  0.00     0.004 C 
ENDBRANCH  14  15
ENDBRANCH  13  14
ENDBRANCH  12  13
ENDBRANCH  11  12
ENDBRANCH  10  11
ENDBRANCH   9  10
ENDBRANCH   8   9
ENDBRANCH   7   8
ENDBRANCH   6   7
ENDBRANCH   5   6
ENDBRANCH   4   5
ENDBRANCH   3   4
ENDBRANCH   2   3
ENDBRANCH   1   2
BRANCH   1  17
ATOM     17  C   UNL     1     146.587 156.607 137.473  1.00  0.00     0.000 C 
BRANCH  17  18
ATOM     18  C   UNL     1     146.104 155.255 136.920  1.00  0.00     0.000 C 
BRANCH  18  19
ATOM     19  C   UNL     1     146.213 154.120 137.956  1.00  0.00     0.000 C 
BRANCH  19  20
ATOM     20  C   UNL     1     144.873 153.422 138.261  1.00  0.00     0.000 C 
BRANCH  20  21
ATOM     21  C   UNL     1     144.538 152.322 137.237  1.00  0.00     0.000 C 
BRANCH  21  22
ATOM     22  C   UNL     1     144.520 150.918 137.865  1.00  0.00     0.000 C 
BRANCH  22  23
ATOM     23  C   UNL     1     144.612 150.957 139.399  1.00  0.00     0.000 C 
BRANCH  23  24
ATOM     24  C   UNL     1     145.557 149.862 139.916  1.00  0.00     0.000 C 
BRANCH  24  25
ATOM     25  C   UNL     1     145.603 148.632 138.995  1.00  0.00     0.000 C 
BRANCH  25  26
ATOM     26  C   UNL     1     144.623 147.530 139.434  1.00  0.00     0.000 C 
BRANCH  26  27
ATOM     27  C   UNL     1     145.046 146.128 138.959  1.00  0.00     0.002 C 
BRANCH  27  28
ATOM     28  C   UNL     1     146.427 146.059 138.283  1.00  0.00     0.028 C 
BRANCH  28  29
ATOM     29  C   UNL     1     147.092 144.684 138.413  1.00  0.00     0.156 C 
BRANCH  29  30
ATOM     30  O   UNL     1     146.871 144.158 139.692  1.00  0.00    -0.396 OA
ATOM     31  H   UNL     1     146.073 143.570 139.625  1.00  0.00     0.210 HD
ENDBRANCH  29  30
ENDBRANCH  28  29
ENDBRANCH  27  28
ENDBRANCH  26  27
ENDBRANCH  25  26
ENDBRANCH  24  25
ENDBRANCH  23  24
ENDBRANCH  22  23
ENDBRANCH  21  22
ENDBRANCH  20  21
ENDBRANCH  19  20
ENDBRANCH  18  19
ENDBRANCH  17  18
ENDBRANCH   1  17
TORSDOF 28
ENDMDL
MODEL 7
REMARK VINA RESULT:    -2.703      1.341      2.526
REMARK INTER + INTRA:         -11.751
REMARK INTER:                  -7.319
REMARK INTRA:                  -4.432
REMARK UNBOUND:                -4.703
REMARK SMILES CCCCCCCCCCCCCCCCCCCCCCCCCCCCCO
REMARK SMILES IDX 16 1 15 2 14 3 13 4 12 5 11 6 10 7 9 8 8 9 7 10 6 11 5 12
REMARK SMILES IDX 4 13 3 14 2 15 1 16 17 17 18 18 19 19 20 20 21 21 22 22
REMARK SMILES IDX 23 23 24 24 25 25 26 26 27 27 28 28 29 29 30 30
REMARK H PARENT 30 31
REMARK Flexibility Score: inf
ROOT
ATOM      1  C   UNL     1     155.889 148.480 136.671  1.00  0.00     0.000 C 
ENDROOT
BRANCH   1   2
ATOM      2  C   UNL     1     157.315 149.050 136.508  1.00  0.00     0.000 C 
BRANCH   2   3
ATOM      3  C   UNL     1     158.150 149.118 137.806  1.00  0.00     0.000 C 
BRANCH   3   4
ATOM      4  C   UNL     1     158.732 150.503 138.158  1.00  0.00     0.000 C 
BRANCH   4   5
ATOM      5  C   UNL     1     158.116 151.180 139.398  1.00  0.00     0.000 C 
BRANCH   5   6
ATOM      6  C   UNL     1     156.805 150.549 139.901  1.00  0.00     0.000 C 
BRANCH   6   7
ATOM      7  C   UNL     1     155.703 151.591 140.165  1.00  0.00     0.000 C 
BRANCH   7   8
ATOM      8  C   UNL     1     155.423 152.473 138.936  1.00  0.00    -0.000 C 
BRANCH   8   9
ATOM      9  C   UNL     1     154.486 151.790 137.925  1.00  0.00    -0.000 C 
BRANCH   9  10
ATOM     10  C   UNL     1     154.909 152.022 136.462  1.00  0.00    -0.000 C 
BRANCH  10  11
ATOM     11  C   UNL     1     156.329 152.586 136.269  1.00  0.00    -0.000 C 
BRANCH  11  12
ATOM     12  C   UNL     1     156.335 154.066 135.850  1.00  0.00    -0.000 C 
BRANCH  12  13
ATOM     13  C   UNL     1     157.653 154.784 136.195  1.00  0.00    -0.000 C 
BRANCH  13  14
ATOM     14  C   UNL     1     158.253 154.434 137.572  1.00  0.00    -0.000 C 
BRANCH  14  15
ATOM     15  C   UNL     1     159.745 154.057 137.559  1.00  0.00    -0.003 C 
ATOM     16  C   UNL     1     160.172 153.362 136.268  1.00  0.00     0.004 C 
ENDBRANCH  14  15
ENDBRANCH  13  14
ENDBRANCH  12  13
ENDBRANCH  11  12
ENDBRANCH  10  11
ENDBRANCH   9  10
ENDBRANCH   8   9
ENDBRANCH   7   8
ENDBRANCH   6   7
ENDBRANCH   5   6
ENDBRANCH   4   5
ENDBRANCH   3   4
ENDBRANCH   2   3
ENDBRANCH   1   2
BRANCH   1  17
ATOM     17  C   UNL     1     155.718 147.528 137.868  1.00  0.00     0.000 C 
BRANCH  17  18
ATOM     18  C   UNL     1     155.004 146.216 137.501  1.00  0.00     0.000 C 
BRANCH  18  19
ATOM     19  C   UNL     1     154.535 145.431 138.741  1.00  0.00     0.000 C 
BRANCH  19  20
ATOM     20  C   UNL     1     154.850 143.924 138.682  1.00  0.00     0.000 C 
BRANCH  20  21
ATOM     21  C   UNL     1     154.434 143.186 139.967  1.00  0.00     0.000 C 
BRANCH  21  22
ATOM     22  C   UNL     1     153.567 141.948 139.681  1.00  0.00     0.000 C 
BRANCH  22  23
ATOM     23  C   UNL     1     153.666 141.483 138.220  1.00  0.00     0.000 C 
BRANCH  23  24
ATOM     24  C   UNL     1     152.276 141.434 137.567  1.00  0.00     0.000 C 
BRANCH  24  25
ATOM     25  C   UNL     1     151.270 142.382 138.241  1.00  0.00     0.000 C 
BRANCH  25  26
ATOM     26  C   UNL     1     151.291 143.794 137.628  1.00  0.00     0.000 C 
BRANCH  26  27
ATOM     27  C   UNL     1     150.539 144.829 138.486  1.00  0.00     0.002 C 
BRANCH  27  28
ATOM     28  C   UNL     1     150.645 144.616 140.006  1.00  0.00     0.028 C 
BRANCH  28  29
ATOM     29  C   UNL     1     151.646 145.564 140.677  1.00  0.00     0.156 C 
BRANCH  29  30
ATOM     30  O   UNL     1     151.452 146.874 140.223  1.00  0.00    -0.396 OA
ATOM     31  H   UNL     1     152.178 147.060 139.571  1.00  0.00     0.210 HD
ENDBRANCH  29  30
ENDBRANCH  28  29
ENDBRANCH  27  28
ENDBRANCH  26  27
ENDBRANCH  25  26
ENDBRANCH  24  25
ENDBRANCH  23  24
ENDBRANCH  22  23
ENDBRANCH  21  22
ENDBRANCH  20  21
ENDBRANCH  19  20
ENDBRANCH  18  19
ENDBRANCH  17  18
ENDBRANCH   1  17
TORSDOF 28
ENDMDL
MODEL 8
REMARK VINA RESULT:    -2.690      5.938     10.108
REMARK INTER + INTRA:         -11.717
REMARK INTER:                  -6.779
REMARK INTRA:                  -4.938
REMARK UNBOUND:                -4.703
REMARK SMILES CCCCCCCCCCCCCCCCCCCCCCCCCCCCCO
REMARK SMILES IDX 16 1 15 2 14 3 13 4 12 5 11 6 10 7 9 8 8 9 7 10 6 11 5 12
REMARK SMILES IDX 4 13 3 14 2 15 1 16 17 17 18 18 19 19 20 20 21 21 22 22
REMARK SMILES IDX 23 23 24 24 25 25 26 26 27 27 28 28 29 29 30 30
REMARK H PARENT 30 31
REMARK Flexibility Score: inf
ROOT
ATOM      1  C   UNL     1     146.543 146.210 137.758  1.00  0.00     0.000 C 
ENDROOT
BRANCH   1   2
ATOM      2  C   UNL     1     147.640 145.196 137.366  1.00  0.00     0.000 C 
BRANCH   2   3
ATOM      3  C   UNL     1     148.360 144.513 138.550  1.00  0.00     0.000 C 
BRANCH   3   4
ATOM      4  C   UNL     1     149.425 143.463 138.172  1.00  0.00     0.000 C 
BRANCH   4   5
ATOM      5  C   UNL     1     150.783 143.614 138.885  1.00  0.00     0.000 C 
BRANCH   5   6
ATOM      6  C   UNL     1     150.866 144.782 139.885  1.00  0.00     0.000 C 
BRANCH   6   7
ATOM      7  C   UNL     1     152.310 145.259 140.127  1.00  0.00     0.000 C 
BRANCH   7   8
ATOM      8  C   UNL     1     153.352 144.199 139.732  1.00  0.00    -0.000 C 
BRANCH   8   9
ATOM      9  C   UNL     1     154.621 144.821 139.125  1.00  0.00    -0.000 C 
BRANCH   9  10
ATOM     10  C   UNL     1     154.737 144.591 137.607  1.00  0.00    -0.000 C 
BRANCH  10  11
ATOM     11  C   UNL     1     154.696 145.865 136.743  1.00  0.00    -0.000 C 
BRANCH  11  12
ATOM     12  C   UNL     1     153.394 146.665 136.916  1.00  0.00    -0.000 C 
BRANCH  12  13
ATOM     13  C   UNL     1     152.149 145.901 136.427  1.00  0.00    -0.000 C 
BRANCH  13  14
ATOM     14  C   UNL     1     150.855 146.737 136.339  1.00  0.00    -0.000 C 
BRANCH  14  15
ATOM     15  C   UNL     1     150.510 147.542 137.605  1.00  0.00    -0.003 C 
ATOM     16  C   UNL     1     150.133 148.992 137.303  1.00  0.00     0.004 C 
ENDBRANCH  14  15
ENDBRANCH  13  14
ENDBRANCH  12  13
ENDBRANCH  11  12
ENDBRANCH  10  11
ENDBRANCH   9  10
ENDBRANCH   8   9
ENDBRANCH   7   8
ENDBRANCH   6   7
ENDBRANCH   5   6
ENDBRANCH   4   5
ENDBRANCH   3   4
ENDBRANCH   2   3
ENDBRANCH   1   2
BRANCH   1  17
ATOM     17  C   UNL     1     145.735 145.821 139.009  1.00  0.00     0.000 C 
BRANCH  17  18
ATOM     18  C   UNL     1     144.292 146.353 138.987  1.00  0.00     0.000 C 
BRANCH  18  19
ATOM     19  C   UNL     1     143.890 146.917 137.611  1.00  0.00     0.000 C 
BRANCH  19  20
ATOM     20  C   UNL     1     143.030 148.193 137.687  1.00  0.00     0.000 C 
BRANCH  20  21
ATOM     21  C   UNL     1     143.043 148.829 139.089  1.00  0.00     0.000 C 
BRANCH  21  22
ATOM     22  C   UNL     1     143.435 150.315 139.058  1.00  0.00     0.000 C 
BRANCH  22  23
ATOM     23  C   UNL     1     144.680 150.616 139.907  1.00  0.00     0.000 C 
BRANCH  23  24
ATOM     24  C   UNL     1     145.743 149.523 139.722  1.00  0.00     0.000 C 
BRANCH  24  25
ATOM     25  C   UNL     1     146.833 149.918 138.711  1.00  0.00     0.000 C 
BRANCH  25  26
ATOM     26  C   UNL     1     146.396 149.686 137.254  1.00  0.00     0.000 C 
BRANCH  26  27
ATOM     27  C   UNL     1     146.278 150.993 136.449  1.00  0.00     0.002 C 
BRANCH  27  28
ATOM     28  C   UNL     1     146.977 152.211 137.078  1.00  0.00     0.028 C 
BRANCH  28  29
ATOM     29  C   UNL     1     146.102 153.470 137.083  1.00  0.00     0.156 C 
BRANCH  29  30
ATOM     30  O   UNL     1     144.760 153.127 137.295  1.00  0.00    -0.396 OA
ATOM     31  H   UNL     1     144.654 152.190 136.985  1.00  0.00     0.210 HD
ENDBRANCH  29  30
ENDBRANCH  28  29
ENDBRANCH  27  28
ENDBRANCH  26  27
ENDBRANCH  25  26
ENDBRANCH  24  25
ENDBRANCH  23  24
ENDBRANCH  22  23
ENDBRANCH  21  22
ENDBRANCH  20  21
ENDBRANCH  19  20
ENDBRANCH  18  19
ENDBRANCH  17  18
ENDBRANCH   1  17
TORSDOF 28
ENDMDL
MODEL 9
REMARK VINA RESULT:    -2.663      6.886     10.596
REMARK INTER + INTRA:         -11.648
REMARK INTER:                  -6.489
REMARK INTRA:                  -5.159
REMARK UNBOUND:                -4.703
REMARK SMILES CCCCCCCCCCCCCCCCCCCCCCCCCCCCCO
REMARK SMILES IDX 16 1 15 2 14 3 13 4 12 5 11 6 10 7 9 8 8 9 7 10 6 11 5 12
REMARK SMILES IDX 4 13 3 14 2 15 1 16 17 17 18 18 19 19 20 20 21 21 22 22
REMARK SMILES IDX 23 23 24 24 25 25 26 26 27 27 28 28 29 29 30 30
REMARK H PARENT 30 31
REMARK Flexibility Score: inf
ROOT
ATOM      1  C   UNL     1     148.410 153.356 137.206  1.00  0.00     0.000 C 
ENDROOT
BRANCH   1   2
ATOM      2  C   UNL     1     148.171 154.120 135.885  1.00  0.00     0.000 C 
BRANCH   2   3
ATOM      3  C   UNL     1     149.038 155.384 135.688  1.00  0.00     0.000 C 
BRANCH   3   4
ATOM      4  C   UNL     1     148.271 156.721 135.621  1.00  0.00     0.000 C 
BRANCH   4   5
ATOM      5  C   UNL     1     146.824 156.678 136.152  1.00  0.00     0.000 C 
BRANCH   5   6
ATOM      6  C   UNL     1     146.588 157.456 137.460  1.00  0.00     0.000 C 
BRANCH   6   7
ATOM      7  C   UNL     1     146.448 156.535 138.685  1.00  0.00     0.000 C 
BRANCH   7   8
ATOM      8  C   UNL     1     147.438 156.895 139.806  1.00  0.00    -0.000 C 
BRANCH   8   9
ATOM      9  C   UNL     1     148.693 156.005 139.790  1.00  0.00    -0.000 C 
BRANCH   9  10
ATOM     10  C   UNL     1     150.003 156.813 139.823  1.00  0.00    -0.000 C 
BRANCH  10  11
ATOM     11  C   UNL     1     150.615 157.132 138.447  1.00  0.00    -0.000 C 
BRANCH  11  12
ATOM     12  C   UNL     1     151.030 158.606 138.302  1.00  0.00    -0.000 C 
BRANCH  12  13
ATOM     13  C   UNL     1     150.176 159.558 139.161  1.00  0.00    -0.000 C 
BRANCH  13  14
ATOM     14  C   UNL     1     149.301 160.554 138.371  1.00  0.00    -0.000 C 
BRANCH  14  15
ATOM     15  C   UNL     1     148.927 160.108 136.946  1.00  0.00    -0.003 C 
ATOM     16  C   UNL     1     149.327 161.125 135.880  1.00  0.00     0.004 C 
ENDBRANCH  14  15
ENDBRANCH  13  14
ENDBRANCH  12  13
ENDBRANCH  11  12
ENDBRANCH  10  11
ENDBRANCH   9  10
ENDBRANCH   8   9
ENDBRANCH   7   8
ENDBRANCH   6   7
ENDBRANCH   5   6
ENDBRANCH   4   5
ENDBRANCH   3   4
ENDBRANCH   2   3
ENDBRANCH   1   2
BRANCH   1  17
ATOM     17  C   UNL     1     149.863 153.399 137.710  1.00  0.00     0.000 C 
BRANCH  17  18
ATOM     18  C   UNL     1     150.442 152.006 138.010  1.00  0.00     0.000 C 
BRANCH  18  19
ATOM     19  C   UNL     1     151.600 151.631 137.065  1.00  0.00     0.000 C 
BRANCH  19  20
ATOM     20  C   UNL     1     152.947 152.275 137.442  1.00  0.00     0.000 C 
BRANCH  20  21
ATOM     21  C   UNL     1     153.750 152.726 136.208  1.00  0.00     0.000 C 
BRANCH  21  22
ATOM     22  C   UNL     1     152.997 153.770 135.366  1.00  0.00     0.000 C 
BRANCH  22  23
ATOM     23  C   UNL     1     152.747 155.078 136.132  1.00  0.00     0.000 C 
BRANCH  23  24
ATOM     24  C   UNL     1     154.072 155.789 136.445  1.00  0.00     0.000 C 
BRANCH  24  25
ATOM     25  C   UNL     1     154.193 156.194 137.924  1.00  0.00     0.000 C 
BRANCH  25  26
ATOM     26  C   UNL     1     155.231 155.348 138.682  1.00  0.00     0.000 C 
BRANCH  26  27
ATOM     27  C   UNL     1     156.399 154.892 137.789  1.00  0.00     0.002 C 
BRANCH  27  28
ATOM     28  C   UNL     1     157.674 154.480 138.545  1.00  0.00     0.028 C 
BRANCH  28  29
ATOM     29  C   UNL     1     157.439 154.253 140.043  1.00  0.00     0.156 C 
BRANCH  29  30
ATOM     30  O   UNL     1     158.489 154.805 140.788  1.00  0.00    -0.396 OA
ATOM     31  H   UNL     1     158.100 155.103 141.652  1.00  0.00     0.210 HD
ENDBRANCH  29  30
ENDBRANCH  28  29
ENDBRANCH  27  28
ENDBRANCH  26  27
ENDBRANCH  25  26
ENDBRANCH  24  25
ENDBRANCH  23  24
ENDBRANCH  22  23
ENDBRANCH  21  22
ENDBRANCH  20  21
ENDBRANCH  19  20
ENDBRANCH  18  19
ENDBRANCH  17  18
ENDBRANCH   1  17
TORSDOF 28
ENDMDL
