MODEL 1
REMARK VINA RESULT:    65.536      0.000      0.000
REMARK INTER + INTRA:          98.272
REMARK INTER:                  96.186
REMARK INTRA:                   2.086
REMARK UNBOUND:                 2.086
REMARK SMILES Cc1cc2c(C(C)C)c(O)c(O)c(C=O)c2c(O)c1-c1c(C)cc2c(C(C)C)c(O)c(O)c(C=O)c2c1O
REMARK SMILES IDX 1 1 2 2 3 3 4 4 16 5 13 6 11 7 9 8 5 9 17 10 19 11 20 12
REMARK SMILES IDX 37 13 21 14 36 15 23 16 22 17 24 18 33 19 25 20 31 21 29 22
REMARK SMILES IDX 38 23 34 25 35 26 26 27 27 28 28 29 32 30 30 32 18 34 6 36
REMARK SMILES IDX 7 37 8 38 14 39 15 40 10 41 12 43
REMARK H PARENT 38 24 32 31 30 33 18 35 10 42 12 44
REMARK Flexibility Score: inf
ROOT
ATOM      1  C   UNL     1      38.910 107.717 263.935  1.00  0.00     0.045 C 
ATOM      2  C   UNL     1      38.018 106.640 263.367  1.00  0.00    -0.039 A 
ATOM      3  C   UNL     1      38.225 106.196 262.060  1.00  0.00     0.013 A 
ATOM      4  C   UNL     1      37.420 105.193 261.478  1.00  0.00    -0.006 A 
ATOM      5  C   UNL     1      36.467 104.518 262.298  1.00  0.00     0.039 A 
ATOM      6  C   UNL     1      35.806 103.363 261.780  1.00  0.00     0.072 A 
ATOM      7  C   UNL     1      36.106 102.911 260.477  1.00  0.00     0.169 A 
ATOM      8  C   UNL     1      36.965 103.640 259.651  1.00  0.00     0.162 A 
ATOM      9  C   UNL     1      37.566 104.834 260.104  1.00  0.00     0.008 A 
ATOM     10  C   UNL     1      36.199 105.033 263.604  1.00  0.00     0.132 A 
ATOM     11  C   UNL     1      36.975 106.088 264.128  1.00  0.00     0.031 A 
ENDROOT
BRANCH  11  12
ATOM     12  C   UNL     1      36.706 106.609 265.494  1.00  0.00     0.031 A 
ATOM     13  C   UNL     1      36.165 107.901 265.667  1.00  0.00     0.132 A 
ATOM     14  C   UNL     1      37.000 105.815 266.614  1.00  0.00    -0.039 A 
ATOM     15  C   UNL     1      35.931 108.413 266.977  1.00  0.00     0.039 A 
ATOM     16  C   UNL     1      36.663 106.272 267.889  1.00  0.00     0.013 A 
ATOM     17  C   UNL     1      37.651 104.462 266.458  1.00  0.00     0.045 C 
ATOM     18  C   UNL     1      36.054 107.530 268.090  1.00  0.00    -0.006 A 
ATOM     19  C   UNL     1      35.554 109.769 267.210  1.00  0.00     0.072 A 
ATOM     20  C   UNL     1      35.591 107.934 269.380  1.00  0.00     0.008 A 
ATOM     21  C   UNL     1      35.236 110.194 268.515  1.00  0.00     0.169 A 
ATOM     22  C   UNL     1      35.257 109.290 269.584  1.00  0.00     0.162 A 
BRANCH  13  23
ATOM     23  O   UNL     1      35.820 108.660 264.543  1.00  0.00    -0.507 OA
ATOM     24  H   UNL     1      35.158 108.357 263.839  1.00  0.00     0.293 HD
ENDBRANCH  13  23
BRANCH  19  25
ATOM     25  C   UNL     1      35.598 110.794 266.146  1.00  0.00     0.264 C 
ATOM     26  O   UNL     1      35.382 112.005 266.416  1.00  0.00    -0.298 OA
ENDBRANCH  19  25
BRANCH  20  27
ATOM     27  C   UNL     1      35.451 106.929 270.537  1.00  0.00     0.017 C 
ATOM     28  C   UNL     1      34.937 105.578 270.030  1.00  0.00     0.012 C 
ATOM     29  C   UNL     1      36.736 106.763 271.371  1.00  0.00     0.012 C 
ENDBRANCH  20  27
BRANCH  21  30
ATOM     30  O   UNL     1      34.907 111.527 268.789  1.00  0.00    -0.504 OA
ATOM     31  H   UNL     1      35.364 112.090 269.495  1.00  0.00     0.293 HD
ENDBRANCH  21  30
BRANCH  22  32
ATOM     32  O   UNL     1      34.968 109.749 270.871  1.00  0.00    -0.504 OA
ATOM     33  H   UNL     1      34.066 110.128 271.133  1.00  0.00     0.293 HD
ENDBRANCH  22  32
ENDBRANCH  11  12
BRANCH  10  34
ATOM     34  O   UNL     1      35.145 104.514 264.367  1.00  0.00    -0.507 OA
ATOM     35  H   UNL     1      34.994 103.525 264.522  1.00  0.00     0.293 HD
ENDBRANCH  10  34
BRANCH   9  36
ATOM     36  C   UNL     1      38.367 105.706 259.122  1.00  0.00     0.017 C 
ATOM     37  C   UNL     1      37.457 106.282 258.033  1.00  0.00     0.012 C 
ATOM     38  C   UNL     1      39.191 106.814 259.806  1.00  0.00     0.012 C 
ENDBRANCH   9  36
BRANCH   6  39
ATOM     39  C   UNL     1      34.878 102.560 262.602  1.00  0.00     0.264 C 
ATOM     40  O   UNL     1      35.163 102.275 263.795  1.00  0.00    -0.298 OA
ENDBRANCH   6  39
BRANCH   8  41
ATOM     41  O   UNL     1      37.250 103.161 258.370  1.00  0.00    -0.504 OA
ATOM     42  H   UNL     1      37.225 102.178 258.129  1.00  0.00     0.293 HD
ENDBRANCH   8  41
BRANCH   7  43
ATOM     43  O   UNL     1      35.574 101.716 259.978  1.00  0.00    -0.504 OA
ATOM     44  H   UNL     1      36.008 100.809 260.095  1.00  0.00     0.293 HD
ENDBRANCH   7  43
TORSDOF 11
ENDMDL
