MODEL 1
REMARK VINA RESULT:    -4.788      0.000      0.000
REMARK INTER + INTRA:          -5.922
REMARK INTER:                  -5.627
REMARK INTRA:                  -0.295
REMARK UNBOUND:                -0.295
REMARK SMILES O=c1cc(-c2ccc(O)c(O)c2)oc2cc(O)cc(O)c12
REMARK SMILES IDX 4 1 3 2 2 3 1 4 21 5 19 6 18 7 16 8 15 9 14 10 13 11 5 12
REMARK SMILES IDX 6 13 7 14 8 15 12 16 10 17 9 18 11 20 20 22 17 24
REMARK H PARENT 9 19 11 21 20 23 17 25
REMARK Flexibility Score: inf
ROOT
ATOM      1  C   UNL     1       2.214   7.868  -5.159  1.00  0.00     0.138 A 
ATOM      2  C   UNL     1       3.438   8.209  -5.751  1.00  0.00     0.100 A 
ATOM      3  C   UNL     1       3.652   9.515  -6.190  1.00  0.00     0.197 A 
ATOM      4  O   UNL     1       4.737   9.775  -6.773  1.00  0.00    -0.289 OA
ATOM      5  C   UNL     1       2.646  10.494  -6.006  1.00  0.00     0.107 A 
ATOM      6  C   UNL     1       2.770  11.866  -6.377  1.00  0.00     0.134 A 
ATOM      7  C   UNL     1       1.665  12.716  -6.252  1.00  0.00     0.093 A 
ATOM      8  C   UNL     1       0.462  12.261  -5.716  1.00  0.00     0.123 A 
ATOM      9  C   UNL     1       0.347  10.933  -5.299  1.00  0.00     0.094 A 
ATOM     10  C   UNL     1       1.419  10.052  -5.442  1.00  0.00     0.146 A 
ATOM     11  O   UNL     1       1.265   8.792  -5.047  1.00  0.00    -0.456 OA
ENDROOT
BRANCH   1  12
ATOM     12  C   UNL     1       1.933   6.494  -4.673  1.00  0.00     0.021 A 
ATOM     13  C   UNL     1       2.878   5.765  -3.926  1.00  0.00     0.016 A 
ATOM     14  C   UNL     1       2.583   4.477  -3.473  1.00  0.00     0.051 A 
ATOM     15  C   UNL     1       1.339   3.896  -3.750  1.00  0.00     0.157 A 
ATOM     16  C   UNL     1       0.680   5.909  -4.934  1.00  0.00     0.062 A 
ATOM     17  C   UNL     1       0.383   4.618  -4.482  1.00  0.00     0.158 A 
BRANCH  15  18
ATOM     18  O   UNL     1       1.049   2.611  -3.296  1.00  0.00    -0.504 OA
ATOM     19  H   UNL     1       0.652   2.449  -2.378  1.00  0.00     0.293 HD
ENDBRANCH  15  18
BRANCH  17  20
ATOM     20  O   UNL     1      -0.867   4.071  -4.770  1.00  0.00    -0.504 OA
ATOM     21  H   UNL     1      -1.619   4.623  -5.164  1.00  0.00     0.293 HD
ENDBRANCH  17  20
ENDBRANCH   1  12
BRANCH   6  22
ATOM     22  O   UNL     1       3.954  12.445  -6.845  1.00  0.00    -0.507 OA
ATOM     23  H   UNL     1       4.773  11.932  -7.132  1.00  0.00     0.293 HD
ENDBRANCH   6  22
BRANCH   8  24
ATOM     24  O   UNL     1      -0.613  13.139  -5.592  1.00  0.00    -0.508 OA
ATOM     25  H   UNL     1      -0.476  14.142  -5.545  1.00  0.00     0.293 HD
ENDBRANCH   8  24
TORSDOF 5
ENDMDL
MODEL 2
REMARK VINA RESULT:    -4.712      2.849      3.839
REMARK INTER + INTRA:          -5.833
REMARK INTER:                  -5.518
REMARK INTRA:                  -0.315
REMARK UNBOUND:                -0.295
REMARK SMILES O=c1cc(-c2ccc(O)c(O)c2)oc2cc(O)cc(O)c12
REMARK SMILES IDX 4 1 3 2 2 3 1 4 21 5 19 6 18 7 16 8 15 9 14 10 13 11 5 12
REMARK SMILES IDX 6 13 7 14 8 15 12 16 10 17 9 18 11 20 20 22 17 24
REMARK H PARENT 9 19 11 21 20 23 17 25
REMARK Flexibility Score: inf
ROOT
ATOM      1  C   UNL     1       2.196   7.050  -5.398  1.00  0.00     0.138 A 
ATOM      2  C   UNL     1       2.333   7.916  -4.304  1.00  0.00     0.100 A 
ATOM      3  C   UNL     1       3.330   8.892  -4.318  1.00  0.00     0.197 A 
ATOM      4  O   UNL     1       3.468   9.613  -3.296  1.00  0.00    -0.289 OA
ATOM      5  C   UNL     1       4.173   9.021  -5.447  1.00  0.00     0.107 A 
ATOM      6  C   UNL     1       5.196  10.005  -5.588  1.00  0.00     0.134 A 
ATOM      7  C   UNL     1       6.045   9.963  -6.701  1.00  0.00     0.093 A 
ATOM      8  C   UNL     1       5.871   9.012  -7.705  1.00  0.00     0.123 A 
ATOM      9  C   UNL     1       4.838   8.077  -7.603  1.00  0.00     0.094 A 
ATOM     10  C   UNL     1       3.997   8.072  -6.489  1.00  0.00     0.146 A 
ATOM     11  O   UNL     1       3.036   7.157  -6.422  1.00  0.00    -0.456 OA
ENDROOT
BRANCH   1  12
ATOM     12  C   UNL     1       1.152   5.995  -5.437  1.00  0.00     0.021 A 
ATOM     13  C   UNL     1       0.445   5.610  -4.282  1.00  0.00     0.016 A 
ATOM     14  C   UNL     1      -0.539   4.621  -4.350  1.00  0.00     0.051 A 
ATOM     15  C   UNL     1      -0.840   4.003  -5.570  1.00  0.00     0.157 A 
ATOM     16  C   UNL     1       0.835   5.380  -6.662  1.00  0.00     0.062 A 
ATOM     17  C   UNL     1      -0.150   4.388  -6.732  1.00  0.00     0.158 A 
BRANCH  15  18
ATOM     18  O   UNL     1      -1.822   3.017  -5.634  1.00  0.00    -0.504 OA
ATOM     19  H   UNL     1      -1.994   2.389  -4.857  1.00  0.00     0.293 HD
ENDBRANCH  15  18
BRANCH  17  20
ATOM     20  O   UNL     1      -0.429   3.797  -7.963  1.00  0.00    -0.504 OA
ATOM     21  H   UNL     1       0.272   3.287  -8.488  1.00  0.00     0.293 HD
ENDBRANCH  17  20
ENDBRANCH   1  12
BRANCH   6  22
ATOM     22  O   UNL     1       5.403  11.053  -4.685  1.00  0.00    -0.507 OA
ATOM     23  H   UNL     1       5.767  10.947  -3.751  1.00  0.00     0.293 HD
ENDBRANCH   6  22
BRANCH   8  24
ATOM     24  O   UNL     1       6.725   9.009  -8.806  1.00  0.00    -0.508 OA
ATOM     25  H   UNL     1       6.380   8.840  -9.744  1.00  0.00     0.293 HD
ENDBRANCH   8  24
TORSDOF 5
ENDMDL
MODEL 3
REMARK VINA RESULT:    -4.640      2.375      3.386
REMARK INTER + INTRA:          -5.749
REMARK INTER:                  -5.485
REMARK INTRA:                  -0.264
REMARK UNBOUND:                -0.295
REMARK SMILES O=c1cc(-c2ccc(O)c(O)c2)oc2cc(O)cc(O)c12
REMARK SMILES IDX 4 1 3 2 2 3 1 4 21 5 19 6 18 7 16 8 15 9 14 10 13 11 5 12
REMARK SMILES IDX 6 13 7 14 8 15 12 16 10 17 9 18 11 20 20 22 17 24
REMARK H PARENT 9 19 11 21 20 23 17 25
REMARK Flexibility Score: inf
ROOT
ATOM      1  C   UNL     1       3.364   7.492  -6.424  1.00  0.00     0.138 A 
ATOM      2  C   UNL     1       4.604   7.119  -5.888  1.00  0.00     0.100 A 
ATOM      3  C   UNL     1       5.490   8.103  -5.447  1.00  0.00     0.197 A 
ATOM      4  O   UNL     1       6.620   7.741  -5.029  1.00  0.00    -0.289 OA
ATOM      5  C   UNL     1       5.117   9.467  -5.516  1.00  0.00     0.107 A 
ATOM      6  C   UNL     1       5.921  10.553  -5.059  1.00  0.00     0.134 A 
ATOM      7  C   UNL     1       5.497  11.868  -5.284  1.00  0.00     0.093 A 
ATOM      8  C   UNL     1       4.273  12.136  -5.894  1.00  0.00     0.123 A 
ATOM      9  C   UNL     1       3.453  11.080  -6.296  1.00  0.00     0.094 A 
ATOM     10  C   UNL     1       3.863   9.758  -6.117  1.00  0.00     0.146 A 
ATOM     11  O   UNL     1       3.060   8.782  -6.527  1.00  0.00    -0.456 OA
ENDROOT
BRANCH   1  12
ATOM     12  C   UNL     1       2.384   6.486  -6.906  1.00  0.00     0.021 A 
ATOM     13  C   UNL     1       2.409   6.002  -8.227  1.00  0.00     0.016 A 
ATOM     14  C   UNL     1       1.480   5.049  -8.650  1.00  0.00     0.051 A 
ATOM     15  C   UNL     1       0.514   4.557  -7.763  1.00  0.00     0.157 A 
ATOM     16  C   UNL     1       1.420   5.977  -6.016  1.00  0.00     0.062 A 
ATOM     17  C   UNL     1       0.487   5.023  -6.438  1.00  0.00     0.158 A 
BRANCH  15  18
ATOM     18  O   UNL     1      -0.411   3.606  -8.190  1.00  0.00    -0.504 OA
ATOM     19  H   UNL     1      -0.782   3.613  -9.133  1.00  0.00     0.293 HD
ENDBRANCH  15  18
BRANCH  17  20
ATOM     20  O   UNL     1      -0.457   4.550  -5.528  1.00  0.00    -0.504 OA
ATOM     21  H   UNL     1      -0.780   5.109  -4.747  1.00  0.00     0.293 HD
ENDBRANCH  17  20
ENDBRANCH   1  12
BRANCH   6  22
ATOM     22  O   UNL     1       7.123  10.396  -4.361  1.00  0.00    -0.507 OA
ATOM     23  H   UNL     1       7.270   9.746  -3.604  1.00  0.00     0.293 HD
ENDBRANCH   6  22
BRANCH   8  24
ATOM     24  O   UNL     1       3.875  13.458  -6.089  1.00  0.00    -0.508 OA
ATOM     25  H   UNL     1       3.910  13.892  -7.003  1.00  0.00     0.293 HD
ENDBRANCH   8  24
TORSDOF 5
ENDMDL
MODEL 4
REMARK VINA RESULT:    -4.570      2.388      6.738
REMARK INTER + INTRA:          -5.666
REMARK INTER:                  -5.374
REMARK INTRA:                  -0.292
REMARK UNBOUND:                -0.295
REMARK SMILES O=c1cc(-c2ccc(O)c(O)c2)oc2cc(O)cc(O)c12
REMARK SMILES IDX 4 1 3 2 2 3 1 4 21 5 19 6 18 7 16 8 15 9 14 10 13 11 5 12
REMARK SMILES IDX 6 13 7 14 8 15 12 16 10 17 9 18 11 20 20 22 17 24
REMARK H PARENT 9 19 11 21 20 23 17 25
REMARK Flexibility Score: inf
ROOT
ATOM      1  C   UNL     1       0.798  10.162  -4.638  1.00  0.00     0.138 A 
ATOM      2  C   UNL     1       0.589   9.072  -3.782  1.00  0.00     0.100 A 
ATOM      3  C   UNL     1       1.361   7.920  -3.929  1.00  0.00     0.197 A 
ATOM      4  O   UNL     1       1.108   6.936  -3.186  1.00  0.00    -0.289 OA
ATOM      5  C   UNL     1       2.370   7.871  -4.921  1.00  0.00     0.107 A 
ATOM      6  C   UNL     1       3.245   6.765  -5.135  1.00  0.00     0.134 A 
ATOM      7  C   UNL     1       4.128   6.785  -6.222  1.00  0.00     0.093 A 
ATOM      8  C   UNL     1       4.210   7.892  -7.063  1.00  0.00     0.123 A 
ATOM      9  C   UNL     1       3.397   9.003  -6.830  1.00  0.00     0.094 A 
ATOM     10  C   UNL     1       2.482   9.000  -5.776  1.00  0.00     0.146 A 
ATOM     11  O   UNL     1       1.715  10.070  -5.596  1.00  0.00    -0.456 OA
ENDROOT
BRANCH   1  12
ATOM     12  C   UNL     1       0.006  11.413  -4.525  1.00  0.00     0.021 A 
ATOM     13  C   UNL     1       0.392  12.595  -5.184  1.00  0.00     0.016 A 
ATOM     14  C   UNL     1      -0.378  13.755  -5.067  1.00  0.00     0.051 A 
ATOM     15  C   UNL     1      -1.548  13.755  -4.297  1.00  0.00     0.157 A 
ATOM     16  C   UNL     1      -1.178  11.416  -3.764  1.00  0.00     0.062 A 
ATOM     17  C   UNL     1      -1.950  12.578  -3.645  1.00  0.00     0.158 A 
BRANCH  15  18
ATOM     18  O   UNL     1      -2.312  14.915  -4.182  1.00  0.00    -0.504 OA
ATOM     19  H   UNL     1      -1.900  15.834  -4.292  1.00  0.00     0.293 HD
ENDBRANCH  15  18
BRANCH  17  20
ATOM     20  O   UNL     1      -3.111  12.542  -2.875  1.00  0.00    -0.504 OA
ATOM     21  H   UNL     1      -3.263  11.841  -2.160  1.00  0.00     0.293 HD
ENDBRANCH  17  20
ENDBRANCH   1  12
BRANCH   6  22
ATOM     22  O   UNL     1       3.305   5.643  -4.303  1.00  0.00    -0.507 OA
ATOM     23  H   UNL     1       2.710   4.833  -4.383  1.00  0.00     0.293 HD
ENDBRANCH   6  22
BRANCH   8  24
ATOM     24  O   UNL     1       5.112   7.884  -8.126  1.00  0.00    -0.508 OA
ATOM     25  H   UNL     1       4.876   7.464  -9.018  1.00  0.00     0.293 HD
ENDBRANCH   8  24
TORSDOF 5
ENDMDL
MODEL 5
REMARK VINA RESULT:    -4.489      1.860      2.671
REMARK INTER + INTRA:          -5.571
REMARK INTER:                  -5.309
REMARK INTRA:                  -0.263
REMARK UNBOUND:                -0.295
REMARK SMILES O=c1cc(-c2ccc(O)c(O)c2)oc2cc(O)cc(O)c12
REMARK SMILES IDX 4 1 3 2 2 3 1 4 21 5 19 6 18 7 16 8 15 9 14 10 13 11 5 12
REMARK SMILES IDX 6 13 7 14 8 15 12 16 10 17 9 18 11 20 20 22 17 24
REMARK H PARENT 9 19 11 21 20 23 17 25
REMARK Flexibility Score: inf
ROOT
ATOM      1  C   UNL     1       2.125   6.779  -5.618  1.00  0.00     0.138 A 
ATOM      2  C   UNL     1       3.477   6.455  -5.443  1.00  0.00     0.100 A 
ATOM      3  C   UNL     1       4.440   7.464  -5.478  1.00  0.00     0.197 A 
ATOM      4  O   UNL     1       5.650   7.133  -5.380  1.00  0.00    -0.289 OA
ATOM      5  C   UNL     1       4.042   8.810  -5.657  1.00  0.00     0.107 A 
ATOM      6  C   UNL     1       4.931   9.926  -5.668  1.00  0.00     0.134 A 
ATOM      7  C   UNL     1       4.435  11.200  -5.969  1.00  0.00     0.093 A 
ATOM      8  C   UNL     1       3.077  11.409  -6.201  1.00  0.00     0.123 A 
ATOM      9  C   UNL     1       2.190  10.333  -6.139  1.00  0.00     0.094 A 
ATOM     10  C   UNL     1       2.658   9.045  -5.875  1.00  0.00     0.146 A 
ATOM     11  O   UNL     1       1.783   8.045  -5.839  1.00  0.00    -0.456 OA
ENDROOT
BRANCH   1  12
ATOM     12  C   UNL     1       1.060   5.746  -5.589  1.00  0.00     0.021 A 
ATOM     13  C   UNL     1       0.385   5.413  -4.399  1.00  0.00     0.016 A 
ATOM     14  C   UNL     1      -0.621   4.443  -4.403  1.00  0.00     0.051 A 
ATOM     15  C   UNL     1      -0.975   3.794  -5.593  1.00  0.00     0.157 A 
ATOM     16  C   UNL     1       0.688   5.100  -6.783  1.00  0.00     0.062 A 
ATOM     17  C   UNL     1      -0.318   4.127  -6.788  1.00  0.00     0.158 A 
BRANCH  15  18
ATOM     18  O   UNL     1      -1.978   2.826  -5.592  1.00  0.00    -0.504 OA
ATOM     19  H   UNL     1      -2.958   3.078  -5.534  1.00  0.00     0.293 HD
ENDBRANCH  15  18
BRANCH  17  20
ATOM     20  O   UNL     1      -0.650   3.504  -7.990  1.00  0.00    -0.504 OA
ATOM     21  H   UNL     1      -0.211   2.642  -8.290  1.00  0.00     0.293 HD
ENDBRANCH  17  20
ENDBRANCH   1  12
BRANCH   6  22
ATOM     22  O   UNL     1       6.294   9.841  -5.366  1.00  0.00    -0.507 OA
ATOM     23  H   UNL     1       6.680   9.839  -4.435  1.00  0.00     0.293 HD
ENDBRANCH   6  22
BRANCH   8  24
ATOM     24  O   UNL     1       2.617  12.694  -6.483  1.00  0.00    -0.508 OA
ATOM     25  H   UNL     1       3.014  13.246  -7.234  1.00  0.00     0.293 HD
ENDBRANCH   8  24
TORSDOF 5
ENDMDL
MODEL 6
REMARK VINA RESULT:    -4.487      2.377      7.184
REMARK INTER + INTRA:          -5.568
REMARK INTER:                  -5.294
REMARK INTRA:                  -0.275
REMARK UNBOUND:                -0.295
REMARK SMILES O=c1cc(-c2ccc(O)c(O)c2)oc2cc(O)cc(O)c12
REMARK SMILES IDX 4 1 3 2 2 3 1 4 21 5 19 6 18 7 16 8 15 9 14 10 13 11 5 12
REMARK SMILES IDX 6 13 7 14 8 15 12 16 10 17 9 18 11 20 20 22 17 24
REMARK H PARENT 9 19 11 21 20 23 17 25
REMARK Flexibility Score: inf
ROOT
ATOM      1  C   UNL     1       3.428   9.018  -6.128  1.00  0.00     0.138 A 
ATOM      2  C   UNL     1       2.623   8.955  -4.983  1.00  0.00     0.100 A 
ATOM      3  C   UNL     1       1.718   7.904  -4.832  1.00  0.00     0.197 A 
ATOM      4  O   UNL     1       0.966   7.909  -3.823  1.00  0.00    -0.289 OA
ATOM      5  C   UNL     1       1.643   6.893  -5.819  1.00  0.00     0.107 A 
ATOM      6  C   UNL     1       0.787   5.753  -5.751  1.00  0.00     0.134 A 
ATOM      7  C   UNL     1       0.715   4.879  -6.843  1.00  0.00     0.093 A 
ATOM      8  C   UNL     1       1.508   5.069  -7.973  1.00  0.00     0.123 A 
ATOM      9  C   UNL     1       2.389   6.151  -8.027  1.00  0.00     0.094 A 
ATOM     10  C   UNL     1       2.459   7.059  -6.970  1.00  0.00     0.146 A 
ATOM     11  O   UNL     1       3.300   8.085  -7.066  1.00  0.00    -0.456 OA
ENDROOT
BRANCH   1  12
ATOM     12  C   UNL     1       4.409  10.112  -6.339  1.00  0.00     0.021 A 
ATOM     13  C   UNL     1       5.713   9.858  -6.803  1.00  0.00     0.016 A 
ATOM     14  C   UNL     1       6.612  10.909  -7.001  1.00  0.00     0.051 A 
ATOM     15  C   UNL     1       6.225  12.230  -6.748  1.00  0.00     0.157 A 
ATOM     16  C   UNL     1       4.022  11.444  -6.100  1.00  0.00     0.062 A 
ATOM     17  C   UNL     1       4.922  12.498  -6.297  1.00  0.00     0.158 A 
BRANCH  15  18
ATOM     18  O   UNL     1       7.125  13.275  -6.947  1.00  0.00    -0.504 OA
ATOM     19  H   UNL     1       7.847  13.490  -6.269  1.00  0.00     0.293 HD
ENDBRANCH  15  18
BRANCH  17  20
ATOM     20  O   UNL     1       4.502  13.803  -6.041  1.00  0.00    -0.504 OA
ATOM     21  H   UNL     1       3.932  14.037  -5.237  1.00  0.00     0.293 HD
ENDBRANCH  17  20
ENDBRANCH   1  12
BRANCH   6  22
ATOM     22  O   UNL     1       0.014   5.422  -4.634  1.00  0.00    -0.507 OA
ATOM     23  H   UNL     1       0.308   5.533  -3.676  1.00  0.00     0.293 HD
ENDBRANCH   6  22
BRANCH   8  24
ATOM     24  O   UNL     1       1.421   4.171  -9.034  1.00  0.00    -0.508 OA
ATOM     25  H   UNL     1       2.032   4.240  -9.839  1.00  0.00     0.293 HD
ENDBRANCH   8  24
TORSDOF 5
ENDMDL
MODEL 7
REMARK VINA RESULT:    -4.479      2.354      6.640
REMARK INTER + INTRA:          -5.560
REMARK INTER:                  -5.257
REMARK INTRA:                  -0.303
REMARK UNBOUND:                -0.295
REMARK SMILES O=c1cc(-c2ccc(O)c(O)c2)oc2cc(O)cc(O)c12
REMARK SMILES IDX 4 1 3 2 2 3 1 4 21 5 19 6 18 7 16 8 15 9 14 10 13 11 5 12
REMARK SMILES IDX 6 13 7 14 8 15 12 16 10 17 9 18 11 20 20 22 17 24
REMARK H PARENT 9 19 11 21 20 23 17 25
REMARK Flexibility Score: inf
ROOT
ATOM      1  C   UNL     1       2.179  11.465  -5.356  1.00  0.00     0.138 A 
ATOM      2  C   UNL     1       3.470  11.728  -5.833  1.00  0.00     0.100 A 
ATOM      3  C   UNL     1       4.235  10.689  -6.365  1.00  0.00     0.197 A 
ATOM      4  O   UNL     1       5.412  10.944  -6.728  1.00  0.00    -0.289 OA
ATOM      5  C   UNL     1       3.690   9.385  -6.447  1.00  0.00     0.107 A 
ATOM      6  C   UNL     1       4.362   8.258  -7.007  1.00  0.00     0.134 A 
ATOM      7  C   UNL     1       3.768   6.993  -6.928  1.00  0.00     0.093 A 
ATOM      8  C   UNL     1       2.504   6.823  -6.366  1.00  0.00     0.123 A 
ATOM      9  C   UNL     1       1.814   7.928  -5.864  1.00  0.00     0.094 A 
ATOM     10  C   UNL     1       2.394   9.197  -5.896  1.00  0.00     0.146 A 
ATOM     11  O   UNL     1       1.711  10.221  -5.395  1.00  0.00    -0.456 OA
ENDROOT
BRANCH   1  12
ATOM     12  C   UNL     1       1.322  12.533  -4.782  1.00  0.00     0.021 A 
ATOM     13  C   UNL     1       1.868  13.617  -4.069  1.00  0.00     0.016 A 
ATOM     14  C   UNL     1       1.038  14.613  -3.548  1.00  0.00     0.051 A 
ATOM     15  C   UNL     1      -0.348  14.549  -3.735  1.00  0.00     0.157 A 
ATOM     16  C   UNL     1      -0.070  12.483  -4.978  1.00  0.00     0.062 A 
ATOM     17  C   UNL     1      -0.904  13.479  -4.455  1.00  0.00     0.158 A 
BRANCH  15  18
ATOM     18  O   UNL     1      -1.172  15.544  -3.213  1.00  0.00    -0.504 OA
ATOM     19  H   UNL     1      -0.800  16.437  -2.912  1.00  0.00     0.293 HD
ENDBRANCH  15  18
BRANCH  17  20
ATOM     20  O   UNL     1      -2.279  13.389  -4.664  1.00  0.00    -0.504 OA
ATOM     21  H   UNL     1      -2.853  14.205  -4.836  1.00  0.00     0.293 HD
ENDBRANCH  17  20
ENDBRANCH   1  12
BRANCH   6  22
ATOM     22  O   UNL     1       5.592   8.331  -7.669  1.00  0.00    -0.507 OA
ATOM     23  H   UNL     1       6.372   8.898  -7.376  1.00  0.00     0.293 HD
ENDBRANCH   6  22
BRANCH   8  24
ATOM     24  O   UNL     1       1.937   5.551  -6.319  1.00  0.00    -0.508 OA
ATOM     25  H   UNL     1       1.451   5.157  -7.116  1.00  0.00     0.293 HD
ENDBRANCH   8  24
TORSDOF 5
ENDMDL
MODEL 8
REMARK VINA RESULT:    -4.457      2.662      4.318
REMARK INTER + INTRA:          -5.534
REMARK INTER:                  -5.243
REMARK INTRA:                  -0.291
REMARK UNBOUND:                -0.295
REMARK SMILES O=c1cc(-c2ccc(O)c(O)c2)oc2cc(O)cc(O)c12
REMARK SMILES IDX 4 1 3 2 2 3 1 4 21 5 19 6 18 7 16 8 15 9 14 10 13 11 5 12
REMARK SMILES IDX 6 13 7 14 8 15 12 16 10 17 9 18 11 20 20 22 17 24
REMARK H PARENT 9 19 11 21 20 23 17 25
REMARK Flexibility Score: inf
ROOT
ATOM      1  C   UNL     1       1.980  11.053  -5.473  1.00  0.00     0.138 A 
ATOM      2  C   UNL     1       2.867  12.135  -5.557  1.00  0.00     0.100 A 
ATOM      3  C   UNL     1       2.445  13.406  -5.166  1.00  0.00     0.197 A 
ATOM      4  O   UNL     1       3.243  14.367  -5.312  1.00  0.00    -0.289 OA
ATOM      5  C   UNL     1       1.136  13.587  -4.660  1.00  0.00     0.107 A 
ATOM      6  C   UNL     1       0.610  14.829  -4.193  1.00  0.00     0.134 A 
ATOM      7  C   UNL     1      -0.738  14.911  -3.822  1.00  0.00     0.093 A 
ATOM      8  C   UNL     1      -1.561  13.787  -3.843  1.00  0.00     0.123 A 
ATOM      9  C   UNL     1      -1.042  12.555  -4.245  1.00  0.00     0.094 A 
ATOM     10  C   UNL     1       0.287  12.447  -4.654  1.00  0.00     0.146 A 
ATOM     11  O   UNL     1       0.739  11.260  -5.045  1.00  0.00    -0.456 OA
ENDROOT
BRANCH   1  12
ATOM     12  C   UNL     1       2.378   9.679  -5.874  1.00  0.00     0.021 A 
ATOM     13  C   UNL     1       1.645   8.548  -5.466  1.00  0.00     0.016 A 
ATOM     14  C   UNL     1       2.037   7.269  -5.866  1.00  0.00     0.051 A 
ATOM     15  C   UNL     1       3.161   7.094  -6.683  1.00  0.00     0.157 A 
ATOM     16  C   UNL     1       3.497   9.498  -6.706  1.00  0.00     0.062 A 
ATOM     17  C   UNL     1       3.892   8.216  -7.107  1.00  0.00     0.158 A 
BRANCH  15  18
ATOM     18  O   UNL     1       3.548   5.816  -7.079  1.00  0.00    -0.504 OA
ATOM     19  H   UNL     1       3.744   5.087  -6.402  1.00  0.00     0.293 HD
ENDBRANCH  15  18
BRANCH  17  20
ATOM     20  O   UNL     1       5.013   8.077  -7.925  1.00  0.00    -0.504 OA
ATOM     21  H   UNL     1       5.021   8.398  -8.886  1.00  0.00     0.293 HD
ENDBRANCH  17  20
ENDBRANCH   1  12
BRANCH   6  22
ATOM     22  O   UNL     1       1.369  15.995  -4.052  1.00  0.00    -0.507 OA
ATOM     23  H   UNL     1       1.733  16.344  -3.179  1.00  0.00     0.293 HD
ENDBRANCH   6  22
BRANCH   8  24
ATOM     24  O   UNL     1      -2.894  13.903  -3.452  1.00  0.00    -0.508 OA
ATOM     25  H   UNL     1      -3.148  14.208  -2.520  1.00  0.00     0.293 HD
ENDBRANCH   8  24
TORSDOF 5
ENDMDL
MODEL 9
REMARK VINA RESULT:    -4.328      1.861      2.330
REMARK INTER + INTRA:          -5.382
REMARK INTER:                  -5.087
REMARK INTRA:                  -0.295
REMARK UNBOUND:                -0.295
REMARK SMILES O=c1cc(-c2ccc(O)c(O)c2)oc2cc(O)cc(O)c12
REMARK SMILES IDX 4 1 3 2 2 3 1 4 21 5 19 6 18 7 16 8 15 9 14 10 13 11 5 12
REMARK SMILES IDX 6 13 7 14 8 15 12 16 10 17 9 18 11 20 20 22 17 24
REMARK H PARENT 9 19 11 21 20 23 17 25
REMARK Flexibility Score: inf
ROOT
ATOM      1  C   UNL     1       2.760   8.148  -6.016  1.00  0.00     0.138 A 
ATOM      2  C   UNL     1       3.959   7.963  -6.719  1.00  0.00     0.100 A 
ATOM      3  C   UNL     1       4.792   9.055  -6.963  1.00  0.00     0.197 A 
ATOM      4  O   UNL     1       5.829   8.869  -7.650  1.00  0.00    -0.289 OA
ATOM      5  C   UNL     1       4.436  10.335  -6.473  1.00  0.00     0.107 A 
ATOM      6  C   UNL     1       5.228  11.512  -6.626  1.00  0.00     0.134 A 
ATOM      7  C   UNL     1       4.720  12.745  -6.199  1.00  0.00     0.093 A 
ATOM      8  C   UNL     1       3.478  12.835  -5.572  1.00  0.00     0.123 A 
ATOM      9  C   UNL     1       2.719  11.681  -5.368  1.00  0.00     0.094 A 
ATOM     10  C   UNL     1       3.183  10.442  -5.813  1.00  0.00     0.146 A 
ATOM     11  O   UNL     1       2.424   9.369  -5.613  1.00  0.00    -0.456 OA
ENDROOT
BRANCH   1  12
ATOM     12  C   UNL     1       1.838   7.021  -5.727  1.00  0.00     0.021 A 
ATOM     13  C   UNL     1       1.554   6.032  -6.688  1.00  0.00     0.016 A 
ATOM     14  C   UNL     1       0.689   4.978  -6.385  1.00  0.00     0.051 A 
ATOM     15  C   UNL     1       0.099   4.886  -5.119  1.00  0.00     0.157 A 
ATOM     16  C   UNL     1       1.252   6.915  -4.452  1.00  0.00     0.062 A 
ATOM     17  C   UNL     1       0.385   5.860  -4.147  1.00  0.00     0.158 A 
BRANCH  15  18
ATOM     18  O   UNL     1      -0.763   3.833  -4.821  1.00  0.00    -0.504 OA
ATOM     19  H   UNL     1      -1.746   3.990  -4.630  1.00  0.00     0.293 HD
ENDBRANCH  15  18
BRANCH  17  20
ATOM     20  O   UNL     1      -0.182   5.795  -2.875  1.00  0.00    -0.504 OA
ATOM     21  H   UNL     1      -0.538   6.617  -2.402  1.00  0.00     0.293 HD
ENDBRANCH  17  20
ENDBRANCH   1  12
BRANCH   6  22
ATOM     22  O   UNL     1       6.520  11.521  -7.162  1.00  0.00    -0.507 OA
ATOM     23  H   UNL     1       7.282  12.087  -6.822  1.00  0.00     0.293 HD
ENDBRANCH   6  22
BRANCH   8  24
ATOM     24  O   UNL     1       3.011  14.077  -5.147  1.00  0.00    -0.508 OA
ATOM     25  H   UNL     1       3.500  14.934  -5.375  1.00  0.00     0.293 HD
ENDBRANCH   8  24
TORSDOF 5
ENDMDL
