MODEL 1
REMARK VINA RESULT:     3.707      0.000      0.000
REMARK INTER + INTRA:           3.816
REMARK INTER:                   3.816
REMARK INTRA:                   0.000
REMARK UNBOUND:                 0.000
REMARK SMILES Nc1ncnc2nc[nH]c12
REMARK SMILES IDX 8 1 7 2 6 3 5 4 4 5 3 6 2 7 10 8 9 9 1 11
REMARK H PARENT 9 10 1 12 1 13
REMARK Flexibility Score: inf
ROOT
ATOM      1  C   UNL     1      84.079 106.045 101.875  1.00  0.00     0.199 A 
ATOM      2  N   UNL     1      82.839 106.605 101.923  1.00  0.00    -0.217 NA
ATOM      3  C   UNL     1      82.873 107.274 103.087  1.00  0.00     0.182 A 
ATOM      4  N   UNL     1      81.875 108.016 103.623  1.00  0.00    -0.215 NA
ATOM      5  C   UNL     1      82.097 108.627 104.826  1.00  0.00     0.226 A 
ATOM      6  N   UNL     1      83.303 108.485 105.465  1.00  0.00    -0.217 NA
ATOM      7  C   UNL     1      84.312 107.738 104.927  1.00  0.00     0.152 A 
ATOM      8  C   UNL     1      84.070 107.122 103.702  1.00  0.00     0.127 A 
ATOM      9  N   UNL     1      84.855 106.344 102.948  1.00  0.00    -0.340 N 
ATOM     10  H   UNL     1      85.834 106.032 103.131  1.00  0.00     0.168 HD
ENDROOT
BRANCH   7  11
ATOM     11  N   UNL     1      85.559 107.605 105.611  1.00  0.00    -0.382 N 
ATOM     12  H   UNL     1      85.671 106.946 106.413  1.00  0.00     0.158 HD
ATOM     13  H   UNL     1      86.382 108.173 105.313  1.00  0.00     0.158 HD
ENDBRANCH   7  11
TORSDOF 1
ENDMDL
MODEL 2
REMARK VINA RESULT:     3.968      1.496      2.511
REMARK INTER + INTRA:           4.084
REMARK INTER:                   4.084
REMARK INTRA:                   0.000
REMARK UNBOUND:                 0.000
REMARK SMILES Nc1ncnc2nc[nH]c12
REMARK SMILES IDX 8 1 7 2 6 3 5 4 4 5 3 6 2 7 10 8 9 9 1 11
REMARK H PARENT 9 10 1 12 1 13
REMARK Flexibility Score: inf
ROOT
ATOM      1  C   UNL     1      82.403 107.857 101.882  1.00  0.00     0.199 A 
ATOM      2  N   UNL     1      83.739 108.119 101.897  1.00  0.00    -0.217 NA
ATOM      3  C   UNL     1      84.030 108.041 103.206  1.00  0.00     0.182 A 
ATOM      4  N   UNL     1      85.244 108.222 103.777  1.00  0.00    -0.215 NA
ATOM      5  C   UNL     1      85.345 108.102 105.135  1.00  0.00     0.226 A 
ATOM      6  N   UNL     1      84.239 107.806 105.891  1.00  0.00    -0.217 NA
ATOM      7  C   UNL     1      83.013 107.622 105.318  1.00  0.00     0.152 A 
ATOM      8  C   UNL     1      82.927 107.748 103.934  1.00  0.00     0.127 A 
ATOM      9  N   UNL     1      81.878 107.626 103.111  1.00  0.00    -0.340 N 
ATOM     10  H   UNL     1      80.885 107.405 103.348  1.00  0.00     0.168 HD
ENDROOT
BRANCH   7  11
ATOM     11  N   UNL     1      81.875 107.314 106.125  1.00  0.00    -0.382 N 
ATOM     12  H   UNL     1      81.956 107.213 107.161  1.00  0.00     0.158 HD
ATOM     13  H   UNL     1      80.939 107.186 105.682  1.00  0.00     0.158 HD
ENDBRANCH   7  11
TORSDOF 1
ENDMDL
MODEL 3
REMARK VINA RESULT:     4.004     20.496     21.793
REMARK INTER + INTRA:           4.121
REMARK INTER:                   4.121
REMARK INTRA:                   0.000
REMARK UNBOUND:                 0.000
REMARK SMILES Nc1ncnc2nc[nH]c12
REMARK SMILES IDX 8 1 7 2 6 3 5 4 4 5 3 6 2 7 10 8 9 9 1 11
REMARK H PARENT 9 10 1 12 1 13
REMARK Flexibility Score: inf
ROOT
ATOM      1  C   UNL     1      85.553 123.122 116.309  1.00  0.00     0.199 A 
ATOM      2  N   UNL     1      84.641 123.120 117.319  1.00  0.00    -0.217 NA
ATOM      3  C   UNL     1      85.424 123.116 118.411  1.00  0.00     0.182 A 
ATOM      4  N   UNL     1      85.014 123.112 119.701  1.00  0.00    -0.215 NA
ATOM      5  C   UNL     1      85.966 123.108 120.683  1.00  0.00     0.226 A 
ATOM      6  N   UNL     1      87.298 123.108 120.358  1.00  0.00    -0.217 NA
ATOM      7  C   UNL     1      87.716 123.113 119.057  1.00  0.00     0.152 A 
ATOM      8  C   UNL     1      86.734 123.116 118.070  1.00  0.00     0.127 A 
ATOM      9  N   UNL     1      86.841 123.120 116.736  1.00  0.00    -0.340 N 
ATOM     10  H   UNL     1      87.705 123.122 116.150  1.00  0.00     0.168 HD
ENDROOT
BRANCH   7  11
ATOM     11  N   UNL     1      89.110 123.113 118.744  1.00  0.00    -0.382 N 
ATOM     12  H   UNL     1      89.450 123.317 117.778  1.00  0.00     0.158 HD
ATOM     13  H   UNL     1      89.812 122.905 119.488  1.00  0.00     0.158 HD
ENDBRANCH   7  11
TORSDOF 1
ENDMDL
MODEL 4
REMARK VINA RESULT:     4.824      1.508      3.610
REMARK INTER + INTRA:           4.965
REMARK INTER:                   4.965
REMARK INTRA:                   0.000
REMARK UNBOUND:                 0.000
REMARK SMILES Nc1ncnc2nc[nH]c12
REMARK SMILES IDX 8 1 7 2 6 3 5 4 4 5 3 6 2 7 10 8 9 9 1 11
REMARK H PARENT 9 10 1 12 1 13
REMARK Flexibility Score: inf
ROOT
ATOM      1  C   UNL     1      83.412 107.703 106.278  1.00  0.00     0.199 A 
ATOM      2  N   UNL     1      84.419 108.480 105.792  1.00  0.00    -0.217 NA
ATOM      3  C   UNL     1      84.289 108.320 104.465  1.00  0.00     0.182 A 
ATOM      4  N   UNL     1      85.056 108.886 103.503  1.00  0.00    -0.215 NA
ATOM      5  C   UNL     1      84.768 108.603 102.197  1.00  0.00     0.226 A 
ATOM      6  N   UNL     1      83.728 107.766 101.880  1.00  0.00    -0.217 NA
ATOM      7  C   UNL     1      82.952 107.194 102.848  1.00  0.00     0.152 A 
ATOM      8  C   UNL     1      83.258 107.493 104.173  1.00  0.00     0.127 A 
ATOM      9  N   UNL     1      82.684 107.087 105.312  1.00  0.00    -0.340 N 
ATOM     10  H   UNL     1      81.869 106.447 105.441  1.00  0.00     0.168 HD
ENDROOT
BRANCH   7  11
ATOM     11  N   UNL     1      81.875 106.326 102.493  1.00  0.00    -0.382 N 
ATOM     12  H   UNL     1      81.077 106.155 103.145  1.00  0.00     0.158 HD
ATOM     13  H   UNL     1      81.874 105.846 101.566  1.00  0.00     0.158 HD
ENDBRANCH   7  11
TORSDOF 1
ENDMDL
MODEL 5
REMARK VINA RESULT:     5.646     20.431     21.891
REMARK INTER + INTRA:           5.811
REMARK INTER:                   5.811
REMARK INTRA:                   0.000
REMARK UNBOUND:                 0.000
REMARK SMILES Nc1ncnc2nc[nH]c12
REMARK SMILES IDX 8 1 7 2 6 3 5 4 4 5 3 6 2 7 10 8 9 9 1 11
REMARK H PARENT 9 10 1 12 1 13
REMARK Flexibility Score: inf
ROOT
ATOM      1  C   UNL     1      85.031 123.106 116.641  1.00  0.00     0.199 A 
ATOM      2  N   UNL     1      86.367 123.117 116.386  1.00  0.00    -0.217 NA
ATOM      3  C   UNL     1      86.894 123.116 117.621  1.00  0.00     0.182 A 
ATOM      4  N   UNL     1      88.210 123.125 117.940  1.00  0.00    -0.215 NA
ATOM      5  C   UNL     1      88.556 123.123 119.263  1.00  0.00     0.226 A 
ATOM      6  N   UNL     1      87.587 123.111 120.234  1.00  0.00    -0.217 NA
ATOM      7  C   UNL     1      86.258 123.101 119.916  1.00  0.00     0.152 A 
ATOM      8  C   UNL     1      85.923 123.104 118.564  1.00  0.00     0.127 A 
ATOM      9  N   UNL     1      84.727 123.097 117.964  1.00  0.00    -0.340 N 
ATOM     10  H   UNL     1      83.778 123.088 118.399  1.00  0.00     0.168 HD
ENDROOT
BRANCH   7  11
ATOM     11  N   UNL     1      85.268 123.089 120.945  1.00  0.00    -0.382 N 
ATOM     12  H   UNL     1      84.259 123.253 120.730  1.00  0.00     0.158 HD
ATOM     13  H   UNL     1      85.545 122.914 121.935  1.00  0.00     0.158 HD
ENDBRANCH   7  11
TORSDOF 1
ENDMDL
MODEL 6
REMARK VINA RESULT:     5.759      1.424      3.017
REMARK INTER + INTRA:           5.928
REMARK INTER:                   5.928
REMARK INTRA:                   0.000
REMARK UNBOUND:                 0.000
REMARK SMILES Nc1ncnc2nc[nH]c12
REMARK SMILES IDX 8 1 7 2 6 3 5 4 4 5 3 6 2 7 10 8 9 9 1 11
REMARK H PARENT 9 10 1 12 1 13
REMARK Flexibility Score: inf
ROOT
ATOM      1  C   UNL     1      84.520 108.069 106.082  1.00  0.00     0.199 A 
ATOM      2  N   UNL     1      83.213 107.706 105.971  1.00  0.00    -0.217 NA
ATOM      3  C   UNL     1      83.023 107.723 104.642  1.00  0.00     0.182 A 
ATOM      4  N   UNL     1      81.875 107.435 103.985  1.00  0.00    -0.215 NA
ATOM      5  C   UNL     1      81.876 107.508 102.619  1.00  0.00     0.226 A 
ATOM      6  N   UNL     1      83.014 107.864 101.942  1.00  0.00    -0.217 NA
ATOM      7  C   UNL     1      84.175 108.154 102.603  1.00  0.00     0.152 A 
ATOM      8  C   UNL     1      84.158 108.076 103.993  1.00  0.00     0.127 A 
ATOM      9  N   UNL     1      85.125 108.301 104.890  1.00  0.00    -0.340 N 
ATOM     10  H   UNL     1      86.115 108.588 104.724  1.00  0.00     0.168 HD
ENDROOT
BRANCH   7  11
ATOM     11  N   UNL     1      85.348 108.523 101.876  1.00  0.00    -0.382 N 
ATOM     12  H   UNL     1      86.281 108.577 102.342  1.00  0.00     0.158 HD
ATOM     13  H   UNL     1      85.284 108.746 100.859  1.00  0.00     0.158 HD
ENDBRANCH   7  11
TORSDOF 1
ENDMDL
MODEL 7
REMARK VINA RESULT:     6.282      1.143      3.308
REMARK INTER + INTRA:           6.466
REMARK INTER:                   6.466
REMARK INTRA:                   0.000
REMARK UNBOUND:                 0.000
REMARK SMILES Nc1ncnc2nc[nH]c12
REMARK SMILES IDX 8 1 7 2 6 3 5 4 4 5 3 6 2 7 10 8 9 9 1 11
REMARK H PARENT 9 10 1 12 1 13
REMARK Flexibility Score: inf
ROOT
ATOM      1  C   UNL     1      85.270 107.692 105.629  1.00  0.00     0.199 A 
ATOM      2  N   UNL     1      85.474 106.717 104.701  1.00  0.00    -0.217 NA
ATOM      3  C   UNL     1      84.499 106.964 103.810  1.00  0.00     0.182 A 
ATOM      4  N   UNL     1      84.249 106.272 102.673  1.00  0.00    -0.215 NA
ATOM      5  C   UNL     1      83.205 106.675 101.887  1.00  0.00     0.226 A 
ATOM      6  N   UNL     1      82.438 107.753 102.250  1.00  0.00    -0.217 NA
ATOM      7  C   UNL     1      82.688 108.453 103.396  1.00  0.00     0.152 A 
ATOM      8  C   UNL     1      83.754 108.030 104.186  1.00  0.00     0.127 A 
ATOM      9  N   UNL     1      84.227 108.511 105.342  1.00  0.00    -0.340 N 
ATOM     10  H   UNL     1      83.883 109.323 105.900  1.00  0.00     0.168 HD
ENDROOT
BRANCH   7  11
ATOM     11  N   UNL     1      81.875 109.572 103.753  1.00  0.00    -0.382 N 
ATOM     12  H   UNL     1      81.485 109.675 104.716  1.00  0.00     0.158 HD
ATOM     13  H   UNL     1      81.659 110.308 103.045  1.00  0.00     0.158 HD
ENDBRANCH   7  11
TORSDOF 1
ENDMDL
MODEL 8
REMARK VINA RESULT:     6.520     20.695     22.107
REMARK INTER + INTRA:           6.711
REMARK INTER:                   6.711
REMARK INTRA:                   0.000
REMARK UNBOUND:                 0.000
REMARK SMILES Nc1ncnc2nc[nH]c12
REMARK SMILES IDX 8 1 7 2 6 3 5 4 4 5 3 6 2 7 10 8 9 9 1 11
REMARK H PARENT 9 10 1 12 1 13
REMARK Flexibility Score: inf
ROOT
ATOM      1  C   UNL     1      89.171 123.125 119.132  1.00  0.00     0.199 A 
ATOM      2  N   UNL     1      88.367 123.113 120.230  1.00  0.00    -0.217 NA
ATOM      3  C   UNL     1      87.140 123.107 119.684  1.00  0.00     0.182 A 
ATOM      4  N   UNL     1      85.959 123.096 120.348  1.00  0.00    -0.215 NA
ATOM      5  C   UNL     1      84.805 123.092 119.615  1.00  0.00     0.226 A 
ATOM      6  N   UNL     1      84.852 123.099 118.244  1.00  0.00    -0.217 NA
ATOM      7  C   UNL     1      86.042 123.110 117.571  1.00  0.00     0.152 A 
ATOM      8  C   UNL     1      87.208 123.114 118.332  1.00  0.00     0.127 A 
ATOM      9  N   UNL     1      88.492 123.125 117.957  1.00  0.00    -0.340 N 
ATOM     10  H   UNL     1      88.891 123.133 116.992  1.00  0.00     0.168 HD
ENDROOT
BRANCH   7  11
ATOM     11  N   UNL     1      86.066 123.117 116.143  1.00  0.00    -0.382 N 
ATOM     12  H   UNL     1      85.201 123.297 115.586  1.00  0.00     0.158 HD
ATOM     13  H   UNL     1      86.960 122.941 115.635  1.00  0.00     0.158 HD
ENDBRANCH   7  11
TORSDOF 1
ENDMDL
