MODEL 1
REMARK VINA RESULT:     6.559      0.000      0.000
REMARK INTER + INTRA:           9.230
REMARK INTER:                   8.285
REMARK INTRA:                   0.945
REMARK UNBOUND:                 0.945
REMARK SMILES CC(C)[C@@H](C)C=C[C@H](C)[C@@H]1CC[C@H]2C3=CC=C4C[C@@H](O)CC[C@@]4(C)[C@@H]3CC[C@@]21C
REMARK SMILES IDX 8 1 9 2 7 3 6 4 4 5 5 6 2 7 1 8 3 9 10 10 11 11 28 12 12 13
REMARK SMILES IDX 13 14 27 15 29 16 14 17 26 18 25 19 15 20 23 21 16 22 17 23
REMARK SMILES IDX 22 24 24 25 18 26 21 27 19 28 20 29
REMARK H PARENT 20 30
REMARK Flexibility Score: inf
ROOT
ATOM      1  C   UNL     1      14.078  17.846  25.001  1.00  0.00     0.012 C 
ATOM      2  C   UNL     1      15.392  17.038  24.936  1.00  0.00     0.012 C 
ENDROOT
BRANCH   1   3
ATOM      3  C   UNL     1      13.595  18.076  23.579  1.00  0.00    -0.028 C 
ATOM      4  C   UNL     1      13.627  17.120  22.634  1.00  0.00    -0.028 C 
BRANCH   4   5
ATOM      5  C   UNL     1      13.058  17.351  21.251  1.00  0.00     0.011 C 
ATOM      6  C   UNL     1      14.091  18.103  20.399  1.00  0.00     0.012 C 
BRANCH   5   7
ATOM      7  C   UNL     1      11.670  18.054  21.332  1.00  0.00    -0.011 C 
ATOM      8  C   UNL     1      10.815  17.892  20.062  1.00  0.00     0.008 C 
ATOM      9  C   UNL     1      10.873  17.597  22.564  1.00  0.00     0.008 C 
ENDBRANCH   5   7
ENDBRANCH   4   5
ENDBRANCH   1   3
BRANCH   1  10
ATOM     10  C   UNL     1      13.000  17.142  25.896  1.00  0.00     0.002 C 
ATOM     11  C   UNL     1      12.301  18.124  26.884  1.00  0.00     0.005 C 
ATOM     12  C   UNL     1      13.459  15.922  26.795  1.00  0.00    -0.023 C 
ATOM     13  C   UNL     1      12.254  17.450  28.250  1.00  0.00     0.009 C 
ATOM     14  C   UNL     1      13.451  16.523  28.211  1.00  0.00     0.021 C 
ATOM     15  C   UNL     1      14.870  15.269  26.558  1.00  0.00     0.008 C 
ATOM     16  C   UNL     1      12.375  14.809  26.624  1.00  0.00     0.012 C 
ATOM     17  C   UNL     1      13.595  15.450  29.265  1.00  0.00    -0.063 C 
ATOM     18  C   UNL     1      15.585  14.756  27.847  1.00  0.00     0.009 C 
ATOM     19  C   UNL     1      14.638  14.368  29.024  1.00  0.00     0.025 C 
ATOM     20  C   UNL     1      12.891  15.446  30.406  1.00  0.00    -0.000 C 
ATOM     21  C   UNL     1      15.376  13.977  30.359  1.00  0.00    -0.005 C 
ATOM     22  C   UNL     1      13.194  14.477  31.469  1.00  0.00    -0.000 C 
ATOM     23  C   UNL     1      14.322  13.740  31.451  1.00  0.00    -0.061 C 
ATOM     24  C   UNL     1      16.204  12.677  30.119  1.00  0.00     0.014 C 
ATOM     25  C   UNL     1      16.314  15.115  30.841  1.00  0.00     0.017 C 
ATOM     26  C   UNL     1      14.662  12.917  32.674  1.00  0.00     0.063 C 
ATOM     27  C   UNL     1      16.657  11.986  31.411  1.00  0.00     0.033 C 
ATOM     28  C   UNL     1      15.473  11.658  32.331  1.00  0.00     0.118 C 
BRANCH  28  29
ATOM     29  O   UNL     1      14.662  10.646  31.781  1.00  0.00    -0.393 OA
ATOM     30  H   UNL     1      15.071   9.767  31.991  1.00  0.00     0.210 HD
ENDBRANCH  28  29
ENDBRANCH   1  10
TORSDOF 5
ENDMDL
