MODEL 1
REMARK VINA RESULT:    -4.856      0.000      0.000
REMARK INTER + INTRA:          -8.942
REMARK INTER:                  -7.410
REMARK INTRA:                  -1.531
REMARK UNBOUND:                -1.531
REMARK SMILES CC(=O)CCC=C(C)CCC=C(C)CCC=C(C)C
REMARK SMILES IDX 10 1 11 2 12 3 13 4 14 5 15 6 16 7 18 8 17 9 19 10 9 11 7 12
REMARK SMILES IDX 6 13 8 14 5 15 4 16 2 17 3 18 1 19
REMARK H PARENT
REMARK Flexibility Score: inf
ROOT
ATOM      1  C   UNL     1       6.692 -21.993 -37.243  1.00  0.00     0.032 C 
ENDROOT
BRANCH   1   2
ATOM      2  C   UNL     1       5.843 -20.752 -37.126  1.00  0.00    -0.028 C 
ATOM      3  C   UNL     1       6.301 -19.494 -37.317  1.00  0.00    -0.077 C 
ATOM      4  C   UNL     1       7.731 -19.222 -37.726  1.00  0.00     0.039 C 
BRANCH   3   5
ATOM      5  C   UNL     1       5.351 -18.326 -37.143  1.00  0.00     0.034 C 
BRANCH   5   6
ATOM      6  C   UNL     1       5.921 -17.257 -36.203  1.00  0.00     0.032 C 
BRANCH   6   7
ATOM      7  C   UNL     1       5.675 -17.622 -34.756  1.00  0.00    -0.028 C 
ATOM      8  C   UNL     1       4.752 -15.373 -34.154  1.00  0.00     0.039 C 
ATOM      9  C   UNL     1       5.130 -16.799 -33.834  1.00  0.00    -0.080 C 
ATOM     10  C   UNL     1       4.899 -17.332 -32.443  1.00  0.00     0.039 C 
ENDBRANCH   6   7
ENDBRANCH   5   6
ENDBRANCH   3   5
ENDBRANCH   1   2
BRANCH   1  11
ATOM     11  C   UNL     1       7.367 -22.321 -35.907  1.00  0.00     0.034 C 
BRANCH  11  12
ATOM     12  C   UNL     1       8.865 -22.449 -36.074  1.00  0.00    -0.077 C 
ATOM     13  C   UNL     1       9.382 -22.519 -37.323  1.00  0.00    -0.028 C 
ATOM     14  C   UNL     1       9.741 -22.486 -34.844  1.00  0.00     0.039 C 
BRANCH  13  15
ATOM     15  C   UNL     1      10.848 -22.709 -37.635  1.00  0.00     0.035 C 
BRANCH  15  16
ATOM     16  C   UNL     1      11.444 -21.476 -38.328  1.00  0.00     0.079 C 
BRANCH  16  17
ATOM     17  C   UNL     1      12.189 -20.596 -37.359  1.00  0.00     0.130 C 
ATOM     18  O   UNL     1      13.367 -20.815 -37.122  1.00  0.00    -0.300 OA
ATOM     19  C   UNL     1      11.495 -19.448 -36.690  1.00  0.00     0.087 C 
ENDBRANCH  16  17
ENDBRANCH  15  16
ENDBRANCH  13  15
ENDBRANCH  11  12
ENDBRANCH   1  11
TORSDOF 9
ENDMDL
MODEL 2
REMARK VINA RESULT:    -4.826     12.481     14.550
REMARK INTER + INTRA:          -8.896
REMARK INTER:                  -7.611
REMARK INTRA:                  -1.285
REMARK UNBOUND:                -1.531
REMARK SMILES CC(=O)CCC=C(C)CCC=C(C)CCC=C(C)C
REMARK SMILES IDX 10 1 11 2 12 3 13 4 14 5 15 6 16 7 18 8 17 9 19 10 9 11 7 12
REMARK SMILES IDX 6 13 8 14 5 15 4 16 2 17 3 18 1 19
REMARK H PARENT
REMARK Flexibility Score: inf
ROOT
ATOM      1  C   UNL     1      12.523 -11.443 -43.535  1.00  0.00     0.032 C 
ENDROOT
BRANCH   1   2
ATOM      2  C   UNL     1      13.411 -12.359 -44.340  1.00  0.00    -0.028 C 
ATOM      3  C   UNL     1      14.741 -12.505 -44.137  1.00  0.00    -0.077 C 
ATOM      4  C   UNL     1      15.459 -11.780 -43.022  1.00  0.00     0.039 C 
BRANCH   3   5
ATOM      5  C   UNL     1      15.528 -13.439 -45.034  1.00  0.00     0.034 C 
BRANCH   5   6
ATOM      6  C   UNL     1      14.638 -14.518 -45.662  1.00  0.00     0.032 C 
BRANCH   6   7
ATOM      7  C   UNL     1      14.553 -14.344 -47.162  1.00  0.00    -0.028 C 
ATOM      8  C   UNL     1      12.071 -14.005 -47.166  1.00  0.00     0.039 C 
ATOM      9  C   UNL     1      13.416 -14.089 -47.846  1.00  0.00    -0.080 C 
ATOM     10  C   UNL     1      13.506 -13.888 -49.338  1.00  0.00     0.039 C 
ENDBRANCH   6   7
ENDBRANCH   5   6
ENDBRANCH   3   5
ENDBRANCH   1   2
BRANCH   1  11
ATOM     11  C   UNL     1      12.362 -10.087 -44.231  1.00  0.00     0.034 C 
BRANCH  11  12
ATOM     12  C   UNL     1      10.901  -9.728 -44.386  1.00  0.00    -0.077 C 
ATOM     13  C   UNL     1      10.077 -10.591 -45.023  1.00  0.00    -0.028 C 
ATOM     14  C   UNL     1      10.402  -8.421 -43.816  1.00  0.00     0.039 C 
BRANCH  13  15
ATOM     15  C   UNL     1       8.614 -10.334 -45.301  1.00  0.00     0.035 C 
BRANCH  15  16
ATOM     16  C   UNL     1       8.158 -11.006 -46.604  1.00  0.00     0.079 C 
BRANCH  16  17
ATOM     17  C   UNL     1       7.585 -12.376 -46.354  1.00  0.00     0.130 C 
ATOM     18  O   UNL     1       6.533 -12.492 -45.743  1.00  0.00    -0.300 OA
ATOM     19  C   UNL     1       8.292 -13.597 -46.859  1.00  0.00     0.087 C 
ENDBRANCH  16  17
ENDBRANCH  15  16
ENDBRANCH  13  15
ENDBRANCH  11  12
ENDBRANCH   1  11
TORSDOF 9
ENDMDL
MODEL 3
REMARK VINA RESULT:    -4.784     11.524     12.847
REMARK INTER + INTRA:          -8.832
REMARK INTER:                  -7.326
REMARK INTRA:                  -1.506
REMARK UNBOUND:                -1.531
REMARK SMILES CC(=O)CCC=C(C)CCC=C(C)CCC=C(C)C
REMARK SMILES IDX 10 1 11 2 12 3 13 4 14 5 15 6 16 7 18 8 17 9 19 10 9 11 7 12
REMARK SMILES IDX 6 13 8 14 5 15 4 16 2 17 3 18 1 19
REMARK H PARENT
REMARK Flexibility Score: inf
ROOT
ATOM      1  C   UNL     1      12.407 -12.947 -43.236  1.00  0.00     0.032 C 
ENDROOT
BRANCH   1   2
ATOM      2  C   UNL     1      11.078 -12.400 -43.697  1.00  0.00    -0.028 C 
ATOM      3  C   UNL     1      10.587 -12.544 -44.949  1.00  0.00    -0.077 C 
ATOM      4  C   UNL     1      11.325 -13.331 -46.007  1.00  0.00     0.039 C 
BRANCH   3   5
ATOM      5  C   UNL     1       9.248 -11.923 -45.294  1.00  0.00     0.034 C 
BRANCH   5   6
ATOM      6  C   UNL     1       9.393 -10.472 -45.767  1.00  0.00     0.032 C 
BRANCH   6   7
ATOM      7  C   UNL     1       9.266  -9.510 -44.607  1.00  0.00    -0.028 C 
ATOM      8  C   UNL     1      11.674  -8.823 -44.673  1.00  0.00     0.039 C 
ATOM      9  C   UNL     1      10.270  -8.747 -44.123  1.00  0.00    -0.080 C 
ATOM     10  C   UNL     1       9.969  -7.795 -42.994  1.00  0.00     0.039 C 
ENDBRANCH   6   7
ENDBRANCH   5   6
ENDBRANCH   3   5
ENDBRANCH   1   2
BRANCH   1  11
ATOM     11  C   UNL     1      13.439 -11.824 -43.092  1.00  0.00     0.034 C 
BRANCH  11  12
ATOM     12  C   UNL     1      14.790 -12.259 -43.615  1.00  0.00    -0.077 C 
ATOM     13  C   UNL     1      14.843 -13.089 -44.682  1.00  0.00    -0.028 C 
ATOM     14  C   UNL     1      16.039 -11.747 -42.938  1.00  0.00     0.039 C 
BRANCH  13  15
ATOM     15  C   UNL     1      16.118 -13.649 -45.270  1.00  0.00     0.035 C 
BRANCH  15  16
ATOM     16  C   UNL     1      15.839 -14.846 -46.190  1.00  0.00     0.079 C 
BRANCH  16  17
ATOM     17  C   UNL     1      17.103 -15.374 -46.816  1.00  0.00     0.130 C 
ATOM     18  O   UNL     1      17.157 -15.544 -48.025  1.00  0.00    -0.300 OA
ATOM     19  C   UNL     1      18.298 -15.683 -45.966  1.00  0.00     0.087 C 
ENDBRANCH  16  17
ENDBRANCH  15  16
ENDBRANCH  13  15
ENDBRANCH  11  12
ENDBRANCH   1  11
TORSDOF 9
ENDMDL
MODEL 4
REMARK VINA RESULT:    -4.760      2.864      5.563
REMARK INTER + INTRA:          -8.796
REMARK INTER:                  -6.935
REMARK INTRA:                  -1.860
REMARK UNBOUND:                -1.531
REMARK SMILES CC(=O)CCC=C(C)CCC=C(C)CCC=C(C)C
REMARK SMILES IDX 10 1 11 2 12 3 13 4 14 5 15 6 16 7 18 8 17 9 19 10 9 11 7 12
REMARK SMILES IDX 6 13 8 14 5 15 4 16 2 17 3 18 1 19
REMARK H PARENT
REMARK Flexibility Score: inf
ROOT
ATOM      1  C   UNL     1      11.448 -20.291 -37.518  1.00  0.00     0.032 C 
ENDROOT
BRANCH   1   2
ATOM      2  C   UNL     1      10.752 -21.011 -36.390  1.00  0.00    -0.028 C 
ATOM      3  C   UNL     1      10.478 -22.336 -36.384  1.00  0.00    -0.077 C 
ATOM      4  C   UNL     1      10.904 -23.241 -37.517  1.00  0.00     0.039 C 
BRANCH   3   5
ATOM      5  C   UNL     1       9.748 -22.935 -35.199  1.00  0.00     0.034 C 
BRANCH   5   6
ATOM      6  C   UNL     1       8.455 -22.176 -34.877  1.00  0.00     0.032 C 
BRANCH   6   7
ATOM      7  C   UNL     1       7.436 -22.350 -35.982  1.00  0.00    -0.028 C 
ATOM      8  C   UNL     1       7.164 -19.890 -36.368  1.00  0.00     0.039 C 
ATOM      9  C   UNL     1       6.869 -21.338 -36.675  1.00  0.00    -0.080 C 
ATOM     10  C   UNL     1       5.909 -21.678 -37.786  1.00  0.00     0.039 C 
ENDBRANCH   6   7
ENDBRANCH   5   6
ENDBRANCH   3   5
ENDBRANCH   1   2
BRANCH   1  11
ATOM     11  C   UNL     1      12.932 -20.082 -37.199  1.00  0.00     0.034 C 
BRANCH  11  12
ATOM     12  C   UNL     1      13.800 -21.004 -38.027  1.00  0.00    -0.077 C 
ATOM     13  C   UNL     1      13.484 -21.210 -39.327  1.00  0.00    -0.028 C 
ATOM     14  C   UNL     1      14.997 -21.660 -37.383  1.00  0.00     0.039 C 
BRANCH  13  15
ATOM     15  C   UNL     1      14.224 -22.149 -40.250  1.00  0.00     0.035 C 
BRANCH  15  16
ATOM     16  C   UNL     1      13.323 -23.293 -40.736  1.00  0.00     0.079 C 
BRANCH  16  17
ATOM     17  C   UNL     1      13.887 -24.641 -40.371  1.00  0.00     0.130 C 
ATOM     18  O   UNL     1      13.442 -25.649 -40.899  1.00  0.00    -0.300 OA
ATOM     19  C   UNL     1      14.999 -24.751 -39.372  1.00  0.00     0.087 C 
ENDBRANCH  16  17
ENDBRANCH  15  16
ENDBRANCH  13  15
ENDBRANCH  11  12
ENDBRANCH   1  11
TORSDOF 9
ENDMDL
MODEL 5
REMARK VINA RESULT:    -4.721     11.037     12.581
REMARK INTER + INTRA:          -8.736
REMARK INTER:                  -6.761
REMARK INTRA:                  -1.975
REMARK UNBOUND:                -1.531
REMARK SMILES CC(=O)CCC=C(C)CCC=C(C)CCC=C(C)C
REMARK SMILES IDX 10 1 11 2 12 3 13 4 14 5 15 6 16 7 18 8 17 9 19 10 9 11 7 12
REMARK SMILES IDX 6 13 8 14 5 15 4 16 2 17 3 18 1 19
REMARK H PARENT
REMARK Flexibility Score: inf
ROOT
ATOM      1  C   UNL     1      12.285 -10.593 -43.993  1.00  0.00     0.032 C 
ENDROOT
BRANCH   1   2
ATOM      2  C   UNL     1      10.921 -10.747 -44.618  1.00  0.00    -0.028 C 
ATOM      3  C   UNL     1       9.967  -9.787 -44.615  1.00  0.00    -0.077 C 
ATOM      4  C   UNL     1      10.214  -8.424 -44.011  1.00  0.00     0.039 C 
BRANCH   3   5
ATOM      5  C   UNL     1       8.624 -10.076 -45.255  1.00  0.00     0.034 C 
BRANCH   5   6
ATOM      6  C   UNL     1       8.719 -11.176 -46.318  1.00  0.00     0.032 C 
BRANCH   6   7
ATOM      7  C   UNL     1       7.550 -12.131 -46.214  1.00  0.00    -0.028 C 
ATOM      8  C   UNL     1       8.821 -13.834 -44.889  1.00  0.00     0.039 C 
ATOM      9  C   UNL     1       7.573 -13.311 -45.558  1.00  0.00    -0.080 C 
ATOM     10  C   UNL     1       6.305 -14.126 -45.500  1.00  0.00     0.039 C 
ENDBRANCH   6   7
ENDBRANCH   5   6
ENDBRANCH   3   5
ENDBRANCH   1   2
BRANCH   1  11
ATOM     11  C   UNL     1      12.629 -11.810 -43.128  1.00  0.00     0.034 C 
BRANCH  11  12
ATOM     12  C   UNL     1      13.263 -12.904 -43.958  1.00  0.00    -0.077 C 
ATOM     13  C   UNL     1      12.570 -14.045 -44.178  1.00  0.00    -0.028 C 
ATOM     14  C   UNL     1      14.645 -12.687 -44.526  1.00  0.00     0.039 C 
BRANCH  13  15
ATOM     15  C   UNL     1      13.102 -15.240 -44.935  1.00  0.00     0.035 C 
BRANCH  15  16
ATOM     16  C   UNL     1      12.321 -15.482 -46.234  1.00  0.00     0.079 C 
BRANCH  16  17
ATOM     17  C   UNL     1      12.485 -14.342 -47.205  1.00  0.00     0.130 C 
ATOM     18  O   UNL     1      13.595 -14.066 -47.635  1.00  0.00    -0.300 OA
ATOM     19  C   UNL     1      11.293 -13.552 -47.654  1.00  0.00     0.087 C 
ENDBRANCH  16  17
ENDBRANCH  15  16
ENDBRANCH  13  15
ENDBRANCH  11  12
ENDBRANCH   1  11
TORSDOF 9
ENDMDL
MODEL 6
REMARK VINA RESULT:    -4.708      2.190      6.253
REMARK INTER + INTRA:          -8.717
REMARK INTER:                  -6.554
REMARK INTRA:                  -2.163
REMARK UNBOUND:                -1.531
REMARK SMILES CC(=O)CCC=C(C)CCC=C(C)CCC=C(C)C
REMARK SMILES IDX 10 1 11 2 12 3 13 4 14 5 15 6 16 7 18 8 17 9 19 10 9 11 7 12
REMARK SMILES IDX 6 13 8 14 5 15 4 16 2 17 3 18 1 19
REMARK H PARENT
REMARK Flexibility Score: inf
ROOT
ATOM      1  C   UNL     1       8.963 -23.086 -35.274  1.00  0.00     0.032 C 
ENDROOT
BRANCH   1   2
ATOM      2  C   UNL     1      10.189 -22.920 -36.137  1.00  0.00    -0.028 C 
ATOM      3  C   UNL     1      10.325 -23.441 -37.378  1.00  0.00    -0.077 C 
ATOM      4  C   UNL     1       9.208 -24.213 -38.043  1.00  0.00     0.039 C 
BRANCH   3   5
ATOM      5  C   UNL     1      11.621 -23.225 -38.133  1.00  0.00     0.034 C 
BRANCH   5   6
ATOM      6  C   UNL     1      12.271 -21.881 -37.787  1.00  0.00     0.032 C 
BRANCH   6   7
ATOM      7  C   UNL     1      11.540 -20.738 -38.457  1.00  0.00    -0.028 C 
ATOM      8  C   UNL     1      11.427 -19.348 -36.376  1.00  0.00     0.039 C 
ATOM      9  C   UNL     1      11.178 -19.589 -37.845  1.00  0.00    -0.080 C 
ATOM     10  C   UNL     1      10.502 -18.521 -38.666  1.00  0.00     0.039 C 
ENDBRANCH   6   7
ENDBRANCH   5   6
ENDBRANCH   3   5
ENDBRANCH   1   2
BRANCH   1  11
ATOM     11  C   UNL     1       8.385 -21.723 -34.877  1.00  0.00     0.034 C 
BRANCH  11  12
ATOM     12  C   UNL     1       7.578 -21.127 -36.009  1.00  0.00    -0.077 C 
ATOM     13  C   UNL     1       7.774 -19.830 -36.342  1.00  0.00    -0.028 C 
ATOM     14  C   UNL     1       6.584 -21.998 -36.740  1.00  0.00     0.039 C 
BRANCH  13  15
ATOM     15  C   UNL     1       6.997 -19.092 -37.407  1.00  0.00     0.035 C 
BRANCH  15  16
ATOM     16  C   UNL     1       5.712 -18.470 -36.842  1.00  0.00     0.079 C 
BRANCH  16  17
ATOM     17  C   UNL     1       6.000 -17.232 -36.033  1.00  0.00     0.130 C 
ATOM     18  O   UNL     1       6.617 -16.307 -36.537  1.00  0.00    -0.300 OA
ATOM     19  C   UNL     1       5.524 -17.127 -34.615  1.00  0.00     0.087 C 
ENDBRANCH  16  17
ENDBRANCH  15  16
ENDBRANCH  13  15
ENDBRANCH  11  12
ENDBRANCH   1  11
TORSDOF 9
ENDMDL
MODEL 7
REMARK VINA RESULT:    -4.707      2.419      4.112
REMARK INTER + INTRA:          -8.715
REMARK INTER:                  -6.244
REMARK INTRA:                  -2.471
REMARK UNBOUND:                -1.531
REMARK SMILES CC(=O)CCC=C(C)CCC=C(C)CCC=C(C)C
REMARK SMILES IDX 10 1 11 2 12 3 13 4 14 5 15 6 16 7 18 8 17 9 19 10 9 11 7 12
REMARK SMILES IDX 6 13 8 14 5 15 4 16 2 17 3 18 1 19
REMARK H PARENT
REMARK Flexibility Score: inf
ROOT
ATOM      1  C   UNL     1       8.271 -22.293 -34.890  1.00  0.00     0.032 C 
ENDROOT
BRANCH   1   2
ATOM      2  C   UNL     1       7.899 -20.902 -35.342  1.00  0.00    -0.028 C 
ATOM      3  C   UNL     1       7.049 -20.633 -36.359  1.00  0.00    -0.077 C 
ATOM      4  C   UNL     1       6.342 -21.732 -37.117  1.00  0.00     0.039 C 
BRANCH   3   5
ATOM      5  C   UNL     1       6.778 -19.190 -36.734  1.00  0.00     0.034 C 
BRANCH   5   6
ATOM      6  C   UNL     1       7.382 -18.826 -38.095  1.00  0.00     0.032 C 
BRANCH   6   7
ATOM      7  C   UNL     1       8.886 -18.694 -38.002  1.00  0.00    -0.028 C 
ATOM      8  C   UNL     1       9.335 -20.780 -39.314  1.00  0.00     0.039 C 
ATOM      9  C   UNL     1       9.772 -19.546 -38.563  1.00  0.00    -0.080 C 
ATOM     10  C   UNL     1      11.243 -19.245 -38.425  1.00  0.00     0.039 C 
ENDBRANCH   6   7
ENDBRANCH   5   6
ENDBRANCH   3   5
ENDBRANCH   1   2
BRANCH   1  11
ATOM     11  C   UNL     1       9.781 -22.523 -35.018  1.00  0.00     0.034 C 
BRANCH  11  12
ATOM     12  C   UNL     1      10.117 -23.202 -36.327  1.00  0.00    -0.077 C 
ATOM     13  C   UNL     1      11.266 -22.873 -36.961  1.00  0.00    -0.028 C 
ATOM     14  C   UNL     1       9.165 -24.233 -36.885  1.00  0.00     0.039 C 
BRANCH  13  15
ATOM     15  C   UNL     1      11.696 -23.425 -38.300  1.00  0.00     0.035 C 
BRANCH  15  16
ATOM     16  C   UNL     1      12.792 -22.564 -38.942  1.00  0.00     0.079 C 
BRANCH  16  17
ATOM     17  C   UNL     1      14.003 -22.449 -38.054  1.00  0.00     0.130 C 
ATOM     18  O   UNL     1      14.709 -23.426 -37.860  1.00  0.00    -0.300 OA
ATOM     19  C   UNL     1      14.352 -21.138 -37.416  1.00  0.00     0.087 C 
ENDBRANCH  16  17
ENDBRANCH  15  16
ENDBRANCH  13  15
ENDBRANCH  11  12
ENDBRANCH   1  11
TORSDOF 9
ENDMDL
MODEL 8
REMARK VINA RESULT:    -4.694      2.793      5.687
REMARK INTER + INTRA:          -8.695
REMARK INTER:                  -5.812
REMARK INTRA:                  -2.883
REMARK UNBOUND:                -1.531
REMARK SMILES CC(=O)CCC=C(C)CCC=C(C)CCC=C(C)C
REMARK SMILES IDX 10 1 11 2 12 3 13 4 14 5 15 6 16 7 18 8 17 9 19 10 9 11 7 12
REMARK SMILES IDX 6 13 8 14 5 15 4 16 2 17 3 18 1 19
REMARK H PARENT
REMARK Flexibility Score: inf
ROOT
ATOM      1  C   UNL     1       6.095 -21.568 -37.176  1.00  0.00     0.032 C 
ENDROOT
BRANCH   1   2
ATOM      2  C   UNL     1       7.084 -22.377 -36.375  1.00  0.00    -0.028 C 
ATOM      3  C   UNL     1       8.078 -21.844 -35.627  1.00  0.00    -0.077 C 
ATOM      4  C   UNL     1       8.254 -20.349 -35.488  1.00  0.00     0.039 C 
BRANCH   3   5
ATOM      5  C   UNL     1       9.025 -22.767 -34.888  1.00  0.00     0.034 C 
BRANCH   5   6
ATOM      6  C   UNL     1       9.701 -23.770 -35.831  1.00  0.00     0.032 C 
BRANCH   6   7
ATOM      7  C   UNL     1      10.625 -23.065 -36.799  1.00  0.00    -0.028 C 
ATOM      8  C   UNL     1       9.395 -23.856 -38.833  1.00  0.00     0.039 C 
ATOM      9  C   UNL     1      10.486 -23.074 -38.143  1.00  0.00    -0.080 C 
ATOM     10  C   UNL     1      11.460 -22.275 -38.971  1.00  0.00     0.039 C 
ENDBRANCH   6   7
ENDBRANCH   5   6
ENDBRANCH   3   5
ENDBRANCH   1   2
BRANCH   1  11
ATOM     11  C   UNL     1       6.516 -21.493 -38.648  1.00  0.00     0.034 C 
BRANCH  11  12
ATOM     12  C   UNL     1       7.160 -20.161 -38.960  1.00  0.00    -0.077 C 
ATOM     13  C   UNL     1       8.490 -20.116 -39.201  1.00  0.00    -0.028 C 
ATOM     14  C   UNL     1       6.298 -18.921 -39.004  1.00  0.00     0.039 C 
BRANCH  13  15
ATOM     15  C   UNL     1       9.272 -18.850 -39.465  1.00  0.00     0.035 C 
BRANCH  15  16
ATOM     16  C   UNL     1       9.842 -18.255 -38.169  1.00  0.00     0.079 C 
BRANCH  16  17
ATOM     17  C   UNL     1      11.259 -18.703 -37.926  1.00  0.00     0.130 C 
ATOM     18  O   UNL     1      12.113 -18.508 -38.778  1.00  0.00    -0.300 OA
ATOM     19  C   UNL     1      11.631 -19.378 -36.640  1.00  0.00     0.087 C 
ENDBRANCH  16  17
ENDBRANCH  15  16
ENDBRANCH  13  15
ENDBRANCH  11  12
ENDBRANCH   1  11
TORSDOF 9
ENDMDL
MODEL 9
REMARK VINA RESULT:    -4.684      1.423      2.597
REMARK INTER + INTRA:          -8.680
REMARK INTER:                  -6.738
REMARK INTRA:                  -1.942
REMARK UNBOUND:                -1.531
REMARK SMILES CC(=O)CCC=C(C)CCC=C(C)CCC=C(C)C
REMARK SMILES IDX 10 1 11 2 12 3 13 4 14 5 15 6 16 7 18 8 17 9 19 10 9 11 7 12
REMARK SMILES IDX 6 13 8 14 5 15 4 16 2 17 3 18 1 19
REMARK H PARENT
REMARK Flexibility Score: inf
ROOT
ATOM      1  C   UNL     1       5.255 -20.365 -38.288  1.00  0.00     0.032 C 
ENDROOT
BRANCH   1   2
ATOM      2  C   UNL     1       5.416 -19.130 -37.436  1.00  0.00    -0.028 C 
ATOM      3  C   UNL     1       6.560 -18.415 -37.339  1.00  0.00    -0.077 C 
ATOM      4  C   UNL     1       7.792 -18.773 -38.137  1.00  0.00     0.039 C 
BRANCH   3   5
ATOM      5  C   UNL     1       6.601 -17.207 -36.425  1.00  0.00     0.034 C 
BRANCH   5   6
ATOM      6  C   UNL     1       5.687 -17.376 -35.207  1.00  0.00     0.032 C 
BRANCH   6   7
ATOM      7  C   UNL     1       5.011 -16.070 -34.851  1.00  0.00    -0.028 C 
ATOM      8  C   UNL     1       2.966 -16.543 -36.218  1.00  0.00     0.039 C 
ATOM      9  C   UNL     1       3.785 -15.695 -35.275  1.00  0.00    -0.080 C 
ATOM     10  C   UNL     1       3.227 -14.382 -34.787  1.00  0.00     0.039 C 
ENDBRANCH   6   7
ENDBRANCH   5   6
ENDBRANCH   3   5
ENDBRANCH   1   2
BRANCH   1  11
ATOM     11  C   UNL     1       5.256 -21.630 -37.423  1.00  0.00     0.034 C 
BRANCH  11  12
ATOM     12  C   UNL     1       6.669 -22.085 -37.132  1.00  0.00    -0.077 C 
ATOM     13  C   UNL     1       7.166 -21.923 -35.883  1.00  0.00    -0.028 C 
ATOM     14  C   UNL     1       7.481 -22.714 -38.239  1.00  0.00     0.039 C 
BRANCH  13  15
ATOM     15  C   UNL     1       8.575 -22.275 -35.469  1.00  0.00     0.035 C 
BRANCH  15  16
ATOM     16  C   UNL     1       9.438 -21.020 -35.272  1.00  0.00     0.079 C 
BRANCH  16  17
ATOM     17  C   UNL     1      10.479 -20.884 -36.352  1.00  0.00     0.130 C 
ATOM     18  O   UNL     1      10.930 -19.782 -36.625  1.00  0.00    -0.300 OA
ATOM     19  C   UNL     1      10.973 -22.095 -37.084  1.00  0.00     0.087 C 
ENDBRANCH  16  17
ENDBRANCH  15  16
ENDBRANCH  13  15
ENDBRANCH  11  12
ENDBRANCH   1  11
TORSDOF 9
ENDMDL
