MODEL 1
REMARK VINA RESULT:    24.263      0.000      0.000
REMARK INTER + INTRA:          27.919
REMARK INTER:                  27.809
REMARK INTRA:                   0.110
REMARK UNBOUND:                 0.110
REMARK SMILES O=C1C[C@@H](c2ccc(O)cc2)Oc2cc(O)cc(O)c21
REMARK SMILES IDX 3 1 4 2 12 3 13 4 14 5 15 6 17 7 18 8 20 9 2 10 1 11 5 12
REMARK SMILES IDX 6 13 11 14 7 15 10 16 8 17 9 18 19 20 16 22
REMARK H PARENT 9 19 19 21 16 23
REMARK Flexibility Score: inf
ROOT
ATOM      1  C   UNL     1       8.485  13.124  33.687  1.00  0.00     0.131 C 
ATOM      2  C   UNL     1       7.670  12.656  34.906  1.00  0.00     0.211 C 
ATOM      3  O   UNL     1       8.362  12.916  36.135  1.00  0.00    -0.484 OA
ATOM      4  C   UNL     1       9.758  12.882  36.264  1.00  0.00     0.138 A 
ATOM      5  C   UNL     1      10.327  12.965  37.538  1.00  0.00     0.093 A 
ATOM      6  C   UNL     1      11.713  12.895  37.697  1.00  0.00     0.123 A 
ATOM      7  C   UNL     1      12.536  12.748  36.574  1.00  0.00     0.093 A 
ATOM      8  C   UNL     1      11.980  12.679  35.288  1.00  0.00     0.133 A 
ATOM      9  C   UNL     1      10.579  12.753  35.128  1.00  0.00     0.102 A 
ATOM     10  C   UNL     1       9.924  12.715  33.803  1.00  0.00     0.174 C 
ATOM     11  O   UNL     1      10.564  12.398  32.766  1.00  0.00    -0.294 OA
ENDROOT
BRANCH   2  12
ATOM     12  C   UNL     1       7.280  11.194  34.787  1.00  0.00    -0.007 A 
ATOM     13  C   UNL     1       5.936  10.789  34.671  1.00  0.00     0.011 A 
ATOM     14  C   UNL     1       8.281  10.207  34.859  1.00  0.00     0.011 A 
ATOM     15  C   UNL     1       5.608   9.431  34.600  1.00  0.00     0.046 A 
ATOM     16  C   UNL     1       7.949   8.851  34.787  1.00  0.00     0.046 A 
ATOM     17  C   UNL     1       6.614   8.459  34.656  1.00  0.00     0.115 A 
BRANCH  17  18
ATOM     18  O   UNL     1       6.297   7.105  34.587  1.00  0.00    -0.508 OA
ATOM     19  H   UNL     1       6.527   6.547  33.773  1.00  0.00     0.293 HD
ENDBRANCH  17  18
ENDBRANCH   2  12
BRANCH   8  20
ATOM     20  O   UNL     1      12.817  12.547  34.181  1.00  0.00    -0.507 OA
ATOM     21  H   UNL     1      13.790  12.282  34.276  1.00  0.00     0.293 HD
ENDBRANCH   8  20
BRANCH   6  22
ATOM     22  O   UNL     1      12.262  12.971  38.975  1.00  0.00    -0.508 OA
ATOM     23  H   UNL     1      12.307  13.849  39.481  1.00  0.00     0.293 HD
ENDBRANCH   6  22
TORSDOF 4
ENDMDL
MODEL 2
REMARK VINA RESULT:    24.863      0.782      1.353
REMARK INTER + INTRA:          28.607
REMARK INTER:                  28.597
REMARK INTRA:                   0.011
REMARK UNBOUND:                 0.110
REMARK SMILES O=C1C[C@@H](c2ccc(O)cc2)Oc2cc(O)cc(O)c21
REMARK SMILES IDX 3 1 4 2 12 3 13 4 14 5 15 6 17 7 18 8 20 9 2 10 1 11 5 12
REMARK SMILES IDX 6 13 11 14 7 15 10 16 8 17 9 18 19 20 16 22
REMARK H PARENT 9 19 19 21 16 23
REMARK Flexibility Score: inf
ROOT
ATOM      1  C   UNL     1       9.554  13.125  33.808  1.00  0.00     0.131 C 
ATOM      2  C   UNL     1       8.521  12.867  34.920  1.00  0.00     0.211 C 
ATOM      3  O   UNL     1       9.069  13.125  36.220  1.00  0.00    -0.484 OA
ATOM      4  C   UNL     1      10.415  12.911  36.553  1.00  0.00     0.138 A 
ATOM      5  C   UNL     1      10.812  13.014  37.889  1.00  0.00     0.093 A 
ATOM      6  C   UNL     1      12.137  12.769  38.253  1.00  0.00     0.123 A 
ATOM      7  C   UNL     1      13.076  12.426  37.271  1.00  0.00     0.093 A 
ATOM      8  C   UNL     1      12.696  12.334  35.924  1.00  0.00     0.133 A 
ATOM      9  C   UNL     1      11.356  12.585  35.558  1.00  0.00     0.102 A 
ATOM     10  C   UNL     1      10.889  12.535  34.155  1.00  0.00     0.174 C 
ATOM     11  O   UNL     1      11.612  12.054  33.242  1.00  0.00    -0.294 OA
ENDROOT
BRANCH   2  12
ATOM     12  C   UNL     1       7.943  11.466  34.828  1.00  0.00    -0.007 A 
ATOM     13  C   UNL     1       8.759  10.339  34.608  1.00  0.00     0.011 A 
ATOM     14  C   UNL     1       6.549  11.290  34.899  1.00  0.00     0.011 A 
ATOM     15  C   UNL     1       8.192   9.065  34.491  1.00  0.00     0.046 A 
ATOM     16  C   UNL     1       5.986  10.016  34.782  1.00  0.00     0.046 A 
ATOM     17  C   UNL     1       6.804   8.902  34.580  1.00  0.00     0.115 A 
BRANCH  17  18
ATOM     18  O   UNL     1       6.230   7.638  34.464  1.00  0.00    -0.508 OA
ATOM     19  H   UNL     1       5.299   7.511  34.084  1.00  0.00     0.293 HD
ENDBRANCH  17  18
ENDBRANCH   2  12
BRANCH   8  20
ATOM     20  O   UNL     1      13.648  12.005  34.960  1.00  0.00    -0.507 OA
ATOM     21  H   UNL     1      13.945  12.671  34.255  1.00  0.00     0.293 HD
ENDBRANCH   8  20
BRANCH   6  22
ATOM     22  O   UNL     1      12.512  12.868  39.590  1.00  0.00    -0.508 OA
ATOM     23  H   UNL     1      11.965  13.402  40.256  1.00  0.00     0.293 HD
ENDBRANCH   6  22
TORSDOF 4
ENDMDL
