MODEL 1
REMARK VINA RESULT:    -7.055      0.000      0.000
REMARK INTER + INTRA:          -8.818
REMARK INTER:                  -8.499
REMARK INTRA:                  -0.319
REMARK UNBOUND:                -0.319
REMARK SMILES O=c1c(O)c(-c2ccc(O)c(O)c2)oc2cc(O)cc(O)c12
REMARK SMILES IDX 5 1 3 2 2 3 1 4 22 5 20 6 19 7 17 8 16 9 15 10 14 11 6 12
REMARK SMILES IDX 7 13 8 14 9 15 13 16 11 17 10 18 12 20 4 22 21 24 18 26
REMARK H PARENT 10 19 12 21 4 23 21 25 18 27
REMARK Flexibility Score: inf
ROOT
ATOM      1  C   UNL     1      -3.037   2.644   3.140  1.00  0.00     0.180 A 
ATOM      2  C   UNL     1      -1.950   3.401   3.610  1.00  0.00     0.208 A 
ATOM      3  C   UNL     1      -2.040   4.802   3.598  1.00  0.00     0.238 A 
ATOM      4  O   UNL     1      -1.085   5.472   4.072  1.00  0.00    -0.285 OA
ATOM      5  C   UNL     1      -3.208   5.429   3.103  1.00  0.00     0.111 A 
ATOM      6  C   UNL     1      -3.392   6.841   3.008  1.00  0.00     0.134 A 
ATOM      7  C   UNL     1      -4.639   7.351   2.625  1.00  0.00     0.093 A 
ATOM      8  C   UNL     1      -5.688   6.499   2.271  1.00  0.00     0.123 A 
ATOM      9  C   UNL     1      -5.498   5.120   2.303  1.00  0.00     0.094 A 
ATOM     10  C   UNL     1      -4.278   4.581   2.717  1.00  0.00     0.146 A 
ATOM     11  O   UNL     1      -4.144   3.260   2.743  1.00  0.00    -0.452 OA
ENDROOT
BRANCH   1  12
ATOM     12  C   UNL     1      -3.006   1.165   3.097  1.00  0.00     0.025 A 
ATOM     13  C   UNL     1      -2.429   0.517   1.993  1.00  0.00     0.016 A 
ATOM     14  C   UNL     1      -2.371  -0.878   1.941  1.00  0.00     0.051 A 
ATOM     15  C   UNL     1      -2.872  -1.646   2.996  1.00  0.00     0.157 A 
ATOM     16  C   UNL     1      -3.491   0.390   4.166  1.00  0.00     0.062 A 
ATOM     17  C   UNL     1      -3.432  -1.011   4.117  1.00  0.00     0.158 A 
BRANCH  15  18
ATOM     18  O   UNL     1      -2.803  -3.037   2.914  1.00  0.00    -0.504 OA
ATOM     19  H   UNL     1      -1.968  -3.516   2.598  1.00  0.00     0.293 HD
ENDBRANCH  15  18
BRANCH  17  20
ATOM     20  O   UNL     1      -3.920  -1.770   5.179  1.00  0.00    -0.504 OA
ATOM     21  H   UNL     1      -4.882  -2.087   5.207  1.00  0.00     0.293 HD
ENDBRANCH  17  20
ENDBRANCH   1  12
BRANCH   2  22
ATOM     22  O   UNL     1      -0.814   2.761   4.115  1.00  0.00    -0.502 OA
ATOM     23  H   UNL     1      -0.687   1.757   4.063  1.00  0.00     0.293 HD
ENDBRANCH   2  22
BRANCH   6  24
ATOM     24  O   UNL     1      -2.383   7.777   3.250  1.00  0.00    -0.507 OA
ATOM     25  H   UNL     1      -1.396   7.566   3.273  1.00  0.00     0.293 HD
ENDBRANCH   6  24
BRANCH   8  26
ATOM     26  O   UNL     1      -6.920   7.014   1.875  1.00  0.00    -0.508 OA
ATOM     27  H   UNL     1      -7.216   7.945   2.145  1.00  0.00     0.293 HD
ENDBRANCH   8  26
TORSDOF 6
ENDMDL
MODEL 2
REMARK VINA RESULT:    -6.580     14.421     17.795
REMARK INTER + INTRA:          -8.245
REMARK INTER:                  -8.355
REMARK INTRA:                   0.110
REMARK UNBOUND:                -0.319
REMARK SMILES O=c1c(O)c(-c2ccc(O)c(O)c2)oc2cc(O)cc(O)c12
REMARK SMILES IDX 5 1 3 2 2 3 1 4 22 5 20 6 19 7 17 8 16 9 15 10 14 11 6 12
REMARK SMILES IDX 7 13 8 14 9 15 13 16 11 17 10 18 12 20 4 22 21 24 18 26
REMARK H PARENT 10 19 12 21 4 23 21 25 18 27
REMARK Flexibility Score: inf
ROOT
ATOM      1  C   UNL     1      -4.274  -4.661  17.509  1.00  0.00     0.180 A 
ATOM      2  C   UNL     1      -2.970  -4.415  17.971  1.00  0.00     0.208 A 
ATOM      3  C   UNL     1      -2.578  -4.933  19.215  1.00  0.00     0.238 A 
ATOM      4  O   UNL     1      -1.392  -4.756  19.597  1.00  0.00    -0.285 OA
ATOM      5  C   UNL     1      -3.500  -5.679  19.989  1.00  0.00     0.111 A 
ATOM      6  C   UNL     1      -3.223  -6.217  21.281  1.00  0.00     0.134 A 
ATOM      7  C   UNL     1      -4.166  -7.049  21.898  1.00  0.00     0.093 A 
ATOM      8  C   UNL     1      -5.401  -7.307  21.299  1.00  0.00     0.123 A 
ATOM      9  C   UNL     1      -5.703  -6.737  20.065  1.00  0.00     0.094 A 
ATOM     10  C   UNL     1      -4.769  -5.933  19.408  1.00  0.00     0.146 A 
ATOM     11  O   UNL     1      -5.094  -5.418  18.228  1.00  0.00    -0.452 OA
ENDROOT
BRANCH   1  12
ATOM     12  C   UNL     1      -4.767  -4.125  16.220  1.00  0.00     0.025 A 
ATOM     13  C   UNL     1      -6.031  -3.516  16.163  1.00  0.00     0.016 A 
ATOM     14  C   UNL     1      -6.508  -2.986  14.961  1.00  0.00     0.051 A 
ATOM     15  C   UNL     1      -5.726  -3.040  13.805  1.00  0.00     0.157 A 
ATOM     16  C   UNL     1      -3.974  -4.161  15.059  1.00  0.00     0.062 A 
ATOM     17  C   UNL     1      -4.451  -3.627  13.852  1.00  0.00     0.158 A 
BRANCH  15  18
ATOM     18  O   UNL     1      -6.230  -2.505  12.620  1.00  0.00    -0.504 OA
ATOM     19  H   UNL     1      -7.085  -1.962  12.596  1.00  0.00     0.293 HD
ENDBRANCH  15  18
BRANCH  17  20
ATOM     20  O   UNL     1      -3.659  -3.672  12.706  1.00  0.00    -0.504 OA
ATOM     21  H   UNL     1      -4.057  -3.850  11.791  1.00  0.00     0.293 HD
ENDBRANCH  17  20
ENDBRANCH   1  12
BRANCH   2  22
ATOM     22  O   UNL     1      -2.069  -3.695  17.180  1.00  0.00    -0.502 OA
ATOM     23  H   UNL     1      -1.301  -4.138  16.690  1.00  0.00     0.293 HD
ENDBRANCH   2  22
BRANCH   6  24
ATOM     24  O   UNL     1      -2.060  -5.947  22.007  1.00  0.00    -0.507 OA
ATOM     25  H   UNL     1      -1.548  -6.628  22.547  1.00  0.00     0.293 HD
ENDBRANCH   6  24
BRANCH   8  26
ATOM     26  O   UNL     1      -6.340  -8.122  21.927  1.00  0.00    -0.508 OA
ATOM     27  H   UNL     1      -6.131  -8.599  22.798  1.00  0.00     0.293 HD
ENDBRANCH   8  26
TORSDOF 6
ENDMDL
MODEL 3
REMARK VINA RESULT:    -6.534     15.878     18.163
REMARK INTER + INTRA:          -8.190
REMARK INTER:                  -7.945
REMARK INTRA:                  -0.245
REMARK UNBOUND:                -0.319
REMARK SMILES O=c1c(O)c(-c2ccc(O)c(O)c2)oc2cc(O)cc(O)c12
REMARK SMILES IDX 5 1 3 2 2 3 1 4 22 5 20 6 19 7 17 8 16 9 15 10 14 11 6 12
REMARK SMILES IDX 7 13 8 14 9 15 13 16 11 17 10 18 12 20 4 22 21 24 18 26
REMARK H PARENT 10 19 12 21 4 23 21 25 18 27
REMARK Flexibility Score: inf
ROOT
ATOM      1  C   UNL     1      -6.089  -4.168  18.162  1.00  0.00     0.180 A 
ATOM      2  C   UNL     1      -6.785  -3.743  17.018  1.00  0.00     0.208 A 
ATOM      3  C   UNL     1      -8.036  -4.310  16.732  1.00  0.00     0.238 A 
ATOM      4  O   UNL     1      -8.679  -3.885  15.736  1.00  0.00    -0.285 OA
ATOM      5  C   UNL     1      -8.571  -5.306  17.584  1.00  0.00     0.111 A 
ATOM      6  C   UNL     1      -9.811  -5.977  17.369  1.00  0.00     0.134 A 
ATOM      7  C   UNL     1     -10.302  -6.851  18.348  1.00  0.00     0.093 A 
ATOM      8  C   UNL     1      -9.566  -7.128  19.502  1.00  0.00     0.123 A 
ATOM      9  C   UNL     1      -8.326  -6.523  19.692  1.00  0.00     0.094 A 
ATOM     10  C   UNL     1      -7.827  -5.618  18.752  1.00  0.00     0.146 A 
ATOM     11  O   UNL     1      -6.645  -5.056  18.978  1.00  0.00    -0.452 OA
ENDROOT
BRANCH   1  12
ATOM     12  C   UNL     1      -4.754  -3.635  18.515  1.00  0.00     0.025 A 
ATOM     13  C   UNL     1      -4.609  -2.835  19.660  1.00  0.00     0.016 A 
ATOM     14  C   UNL     1      -3.355  -2.339  20.023  1.00  0.00     0.051 A 
ATOM     15  C   UNL     1      -2.225  -2.646  19.261  1.00  0.00     0.157 A 
ATOM     16  C   UNL     1      -3.612  -3.960  17.761  1.00  0.00     0.062 A 
ATOM     17  C   UNL     1      -2.351  -3.464  18.126  1.00  0.00     0.158 A 
BRANCH  15  18
ATOM     18  O   UNL     1      -0.987  -2.134  19.647  1.00  0.00    -0.504 OA
ATOM     19  H   UNL     1      -0.172  -2.186  19.046  1.00  0.00     0.293 HD
ENDBRANCH  15  18
BRANCH  17  20
ATOM     20  O   UNL     1      -1.226  -3.787  17.368  1.00  0.00    -0.504 OA
ATOM     21  H   UNL     1      -0.340  -3.314  17.504  1.00  0.00     0.293 HD
ENDBRANCH  17  20
ENDBRANCH   1  12
BRANCH   2  22
ATOM     22  O   UNL     1      -6.249  -2.742  16.201  1.00  0.00    -0.502 OA
ATOM     23  H   UNL     1      -5.264  -2.508  16.203  1.00  0.00     0.293 HD
ENDBRANCH   2  22
BRANCH   6  24
ATOM     24  O   UNL     1     -10.580  -5.843  16.210  1.00  0.00    -0.507 OA
ATOM     25  H   UNL     1     -10.248  -5.449  15.342  1.00  0.00     0.293 HD
ENDBRANCH   6  24
BRANCH   8  26
ATOM     26  O   UNL     1     -10.054  -8.010  20.462  1.00  0.00    -0.508 OA
ATOM     27  H   UNL     1     -10.176  -8.997  20.262  1.00  0.00     0.293 HD
ENDBRANCH   8  26
TORSDOF 6
ENDMDL
MODEL 4
REMARK VINA RESULT:    -6.513      2.885      6.957
REMARK INTER + INTRA:          -8.164
REMARK INTER:                  -7.849
REMARK INTRA:                  -0.315
REMARK UNBOUND:                -0.319
REMARK SMILES O=c1c(O)c(-c2ccc(O)c(O)c2)oc2cc(O)cc(O)c12
REMARK SMILES IDX 5 1 3 2 2 3 1 4 22 5 20 6 19 7 17 8 16 9 15 10 14 11 6 12
REMARK SMILES IDX 7 13 8 14 9 15 13 16 11 17 10 18 12 20 4 22 21 24 18 26
REMARK H PARENT 10 19 12 21 4 23 21 25 18 27
REMARK Flexibility Score: inf
ROOT
ATOM      1  C   UNL     1      -1.256   2.866   3.464  1.00  0.00     0.180 A 
ATOM      2  C   UNL     1      -2.267   2.987   4.433  1.00  0.00     0.208 A 
ATOM      3  C   UNL     1      -3.102   1.888   4.687  1.00  0.00     0.238 A 
ATOM      4  O   UNL     1      -3.969   1.984   5.594  1.00  0.00    -0.285 OA
ATOM      5  C   UNL     1      -2.925   0.686   3.960  1.00  0.00     0.111 A 
ATOM      6  C   UNL     1      -3.738  -0.478   4.107  1.00  0.00     0.134 A 
ATOM      7  C   UNL     1      -3.390  -1.653   3.429  1.00  0.00     0.093 A 
ATOM      8  C   UNL     1      -2.298  -1.688   2.560  1.00  0.00     0.123 A 
ATOM      9  C   UNL     1      -1.534  -0.539   2.364  1.00  0.00     0.094 A 
ATOM     10  C   UNL     1      -1.834   0.638   3.053  1.00  0.00     0.146 A 
ATOM     11  O   UNL     1      -1.074   1.706   2.845  1.00  0.00    -0.452 OA
ENDROOT
BRANCH   1  12
ATOM     12  C   UNL     1      -0.354   3.990   3.123  1.00  0.00     0.025 A 
ATOM     13  C   UNL     1      -0.777   4.960   2.200  1.00  0.00     0.016 A 
ATOM     14  C   UNL     1       0.049   6.039   1.878  1.00  0.00     0.051 A 
ATOM     15  C   UNL     1       1.301   6.176   2.484  1.00  0.00     0.157 A 
ATOM     16  C   UNL     1       0.897   4.141   3.747  1.00  0.00     0.062 A 
ATOM     17  C   UNL     1       1.727   5.226   3.426  1.00  0.00     0.158 A 
BRANCH  15  18
ATOM     18  O   UNL     1       2.105   7.263   2.141  1.00  0.00    -0.504 OA
ATOM     19  H   UNL     1       2.867   7.576   2.731  1.00  0.00     0.293 HD
ENDBRANCH  15  18
BRANCH  17  20
ATOM     20  O   UNL     1       2.969   5.364   4.046  1.00  0.00    -0.504 OA
ATOM     21  H   UNL     1       3.230   4.799   4.845  1.00  0.00     0.293 HD
ENDBRANCH  17  20
ENDBRANCH   1  12
BRANCH   2  22
ATOM     22  O   UNL     1      -2.410   4.176   5.155  1.00  0.00    -0.502 OA
ATOM     23  H   UNL     1      -1.792   4.426   5.918  1.00  0.00     0.293 HD
ENDBRANCH   2  22
BRANCH   6  24
ATOM     24  O   UNL     1      -4.903  -0.523   4.878  1.00  0.00    -0.507 OA
ATOM     25  H   UNL     1      -5.821  -0.265   4.548  1.00  0.00     0.293 HD
ENDBRANCH   6  24
BRANCH   8  26
ATOM     26  O   UNL     1      -1.969  -2.856   1.877  1.00  0.00    -0.508 OA
ATOM     27  H   UNL     1      -2.658  -3.578   1.699  1.00  0.00     0.293 HD
ENDBRANCH   8  26
TORSDOF 6
ENDMDL
MODEL 5
REMARK VINA RESULT:    -6.207     14.568     18.197
REMARK INTER + INTRA:          -7.796
REMARK INTER:                  -8.085
REMARK INTRA:                   0.289
REMARK UNBOUND:                -0.319
REMARK SMILES O=c1c(O)c(-c2ccc(O)c(O)c2)oc2cc(O)cc(O)c12
REMARK SMILES IDX 5 1 3 2 2 3 1 4 22 5 20 6 19 7 17 8 16 9 15 10 14 11 6 12
REMARK SMILES IDX 7 13 8 14 9 15 13 16 11 17 10 18 12 20 4 22 21 24 18 26
REMARK H PARENT 10 19 12 21 4 23 21 25 18 27
REMARK Flexibility Score: inf
ROOT
ATOM      1  C   UNL     1      -5.436  -5.172  17.532  1.00  0.00     0.180 A 
ATOM      2  C   UNL     1      -6.523  -5.808  18.155  1.00  0.00     0.208 A 
ATOM      3  C   UNL     1      -6.329  -6.422  19.402  1.00  0.00     0.238 A 
ATOM      4  O   UNL     1      -7.319  -6.942  19.981  1.00  0.00    -0.285 OA
ATOM      5  C   UNL     1      -5.048  -6.406  20.004  1.00  0.00     0.111 A 
ATOM      6  C   UNL     1      -4.728  -7.031  21.247  1.00  0.00     0.134 A 
ATOM      7  C   UNL     1      -3.459  -6.840  21.809  1.00  0.00     0.093 A 
ATOM      8  C   UNL     1      -2.479  -6.101  21.143  1.00  0.00     0.123 A 
ATOM      9  C   UNL     1      -2.764  -5.538  19.901  1.00  0.00     0.094 A 
ATOM     10  C   UNL     1      -4.031  -5.680  19.331  1.00  0.00     0.146 A 
ATOM     11  O   UNL     1      -4.263  -5.118  18.151  1.00  0.00    -0.452 OA
ENDROOT
BRANCH   1  12
ATOM     12  C   UNL     1      -5.557  -4.526  16.205  1.00  0.00     0.025 A 
ATOM     13  C   UNL     1      -6.762  -3.901  15.848  1.00  0.00     0.016 A 
ATOM     14  C   UNL     1      -6.891  -3.267  14.609  1.00  0.00     0.051 A 
ATOM     15  C   UNL     1      -5.816  -3.233  13.717  1.00  0.00     0.157 A 
ATOM     16  C   UNL     1      -4.470  -4.473  15.314  1.00  0.00     0.062 A 
ATOM     17  C   UNL     1      -4.597  -3.835  14.071  1.00  0.00     0.158 A 
BRANCH  15  18
ATOM     18  O   UNL     1      -5.976  -2.596  12.487  1.00  0.00    -0.504 OA
ATOM     19  H   UNL     1      -5.920  -3.098  11.609  1.00  0.00     0.293 HD
ENDBRANCH  15  18
BRANCH  17  20
ATOM     20  O   UNL     1      -3.516  -3.792  13.192  1.00  0.00    -0.504 OA
ATOM     21  H   UNL     1      -2.931  -4.604  13.030  1.00  0.00     0.293 HD
ENDBRANCH  17  20
ENDBRANCH   1  12
BRANCH   2  22
ATOM     22  O   UNL     1      -7.785  -5.793  17.554  1.00  0.00    -0.502 OA
ATOM     23  H   UNL     1      -8.264  -6.640  17.273  1.00  0.00     0.293 HD
ENDBRANCH   2  22
BRANCH   6  24
ATOM     24  O   UNL     1      -5.603  -7.864  21.949  1.00  0.00    -0.507 OA
ATOM     25  H   UNL     1      -5.322  -8.527  22.656  1.00  0.00     0.293 HD
ENDBRANCH   6  24
BRANCH   8  26
ATOM     26  O   UNL     1      -1.215  -5.929  21.701  1.00  0.00    -0.508 OA
ATOM     27  H   UNL     1      -0.708  -5.057  21.606  1.00  0.00     0.293 HD
ENDBRANCH   8  26
TORSDOF 6
ENDMDL
MODEL 6
REMARK VINA RESULT:    -6.042      1.391      2.858
REMARK INTER + INTRA:          -7.597
REMARK INTER:                  -7.485
REMARK INTRA:                  -0.112
REMARK UNBOUND:                -0.319
REMARK SMILES O=c1c(O)c(-c2ccc(O)c(O)c2)oc2cc(O)cc(O)c12
REMARK SMILES IDX 5 1 3 2 2 3 1 4 22 5 20 6 19 7 17 8 16 9 15 10 14 11 6 12
REMARK SMILES IDX 7 13 8 14 9 15 13 16 11 17 10 18 12 20 4 22 21 24 18 26
REMARK H PARENT 10 19 12 21 4 23 21 25 18 27
REMARK Flexibility Score: inf
ROOT
ATOM      1  C   UNL     1      -3.341   2.407   2.853  1.00  0.00     0.180 A 
ATOM      2  C   UNL     1      -4.556   3.098   2.996  1.00  0.00     0.208 A 
ATOM      3  C   UNL     1      -4.554   4.500   2.937  1.00  0.00     0.238 A 
ATOM      4  O   UNL     1      -5.653   5.110   3.010  1.00  0.00    -0.285 OA
ATOM      5  C   UNL     1      -3.335   5.196   2.752  1.00  0.00     0.111 A 
ATOM      6  C   UNL     1      -3.210   6.617   2.717  1.00  0.00     0.134 A 
ATOM      7  C   UNL     1      -1.974   7.193   2.397  1.00  0.00     0.093 A 
ATOM      8  C   UNL     1      -0.845   6.402   2.176  1.00  0.00     0.123 A 
ATOM      9  C   UNL     1      -0.945   5.015   2.268  1.00  0.00     0.094 A 
ATOM     10  C   UNL     1      -2.171   4.409   2.548  1.00  0.00     0.146 A 
ATOM     11  O   UNL     1      -2.224   3.084   2.616  1.00  0.00    -0.452 OA
ENDROOT
BRANCH   1  12
ATOM     12  C   UNL     1      -3.260   0.931   2.930  1.00  0.00     0.025 A 
ATOM     13  C   UNL     1      -2.671   0.215   1.875  1.00  0.00     0.016 A 
ATOM     14  C   UNL     1      -2.566  -1.177   1.935  1.00  0.00     0.051 A 
ATOM     15  C   UNL     1      -3.031  -1.873   3.054  1.00  0.00     0.157 A 
ATOM     16  C   UNL     1      -3.709   0.230   4.063  1.00  0.00     0.062 A 
ATOM     17  C   UNL     1      -3.602  -1.168   4.126  1.00  0.00     0.158 A 
BRANCH  15  18
ATOM     18  O   UNL     1      -2.915  -3.262   3.085  1.00  0.00    -0.504 OA
ATOM     19  H   UNL     1      -2.566  -3.755   3.899  1.00  0.00     0.293 HD
ENDBRANCH  15  18
BRANCH  17  20
ATOM     20  O   UNL     1      -4.055  -1.854   5.252  1.00  0.00    -0.504 OA
ATOM     21  H   UNL     1      -3.851  -1.529   6.190  1.00  0.00     0.293 HD
ENDBRANCH  17  20
ENDBRANCH   1  12
BRANCH   2  22
ATOM     22  O   UNL     1      -5.752   2.390   3.156  1.00  0.00    -0.502 OA
ATOM     23  H   UNL     1      -6.510   2.444   2.485  1.00  0.00     0.293 HD
ENDBRANCH   2  22
BRANCH   6  24
ATOM     24  O   UNL     1      -4.252   7.499   3.012  1.00  0.00    -0.507 OA
ATOM     25  H   UNL     1      -5.051   7.274   3.586  1.00  0.00     0.293 HD
ENDBRANCH   6  24
BRANCH   8  26
ATOM     26  O   UNL     1       0.384   6.983   1.875  1.00  0.00    -0.508 OA
ATOM     27  H   UNL     1       0.563   7.406   0.971  1.00  0.00     0.293 HD
ENDBRANCH   8  26
TORSDOF 6
ENDMDL
MODEL 7
REMARK VINA RESULT:    -5.977     16.343     18.723
REMARK INTER + INTRA:          -7.519
REMARK INTER:                  -7.521
REMARK INTRA:                   0.002
REMARK UNBOUND:                -0.319
REMARK SMILES O=c1c(O)c(-c2ccc(O)c(O)c2)oc2cc(O)cc(O)c12
REMARK SMILES IDX 5 1 3 2 2 3 1 4 22 5 20 6 19 7 17 8 16 9 15 10 14 11 6 12
REMARK SMILES IDX 7 13 8 14 9 15 13 16 11 17 10 18 12 20 4 22 21 24 18 26
REMARK H PARENT 10 19 12 21 4 23 21 25 18 27
REMARK Flexibility Score: inf
ROOT
ATOM      1  C   UNL     1      -7.475  -5.199  19.191  1.00  0.00     0.180 A 
ATOM      2  C   UNL     1      -7.390  -4.569  20.445  1.00  0.00     0.208 A 
ATOM      3  C   UNL     1      -6.212  -3.887  20.785  1.00  0.00     0.238 A 
ATOM      4  O   UNL     1      -6.163  -3.278  21.886  1.00  0.00    -0.285 OA
ATOM      5  C   UNL     1      -5.127  -3.855  19.876  1.00  0.00     0.111 A 
ATOM      6  C   UNL     1      -3.872  -3.227  20.132  1.00  0.00     0.134 A 
ATOM      7  C   UNL     1      -2.919  -3.146  19.109  1.00  0.00     0.093 A 
ATOM      8  C   UNL     1      -3.150  -3.727  17.861  1.00  0.00     0.123 A 
ATOM      9  C   UNL     1      -4.349  -4.394  17.621  1.00  0.00     0.094 A 
ATOM     10  C   UNL     1      -5.334  -4.460  18.608  1.00  0.00     0.146 A 
ATOM     11  O   UNL     1      -6.467  -5.097  18.334  1.00  0.00    -0.452 OA
ENDROOT
BRANCH   1  12
ATOM     12  C   UNL     1      -8.675  -5.959  18.772  1.00  0.00     0.025 A 
ATOM     13  C   UNL     1      -9.200  -6.946  19.622  1.00  0.00     0.016 A 
ATOM     14  C   UNL     1     -10.343  -7.661  19.255  1.00  0.00     0.051 A 
ATOM     15  C   UNL     1     -10.987  -7.392  18.044  1.00  0.00     0.157 A 
ATOM     16  C   UNL     1      -9.336  -5.676  17.564  1.00  0.00     0.062 A 
ATOM     17  C   UNL     1     -10.485  -6.392  17.195  1.00  0.00     0.158 A 
BRANCH  15  18
ATOM     18  O   UNL     1     -12.124  -8.124  17.704  1.00  0.00    -0.504 OA
ATOM     19  H   UNL     1     -12.103  -9.131  17.595  1.00  0.00     0.293 HD
ENDBRANCH  15  18
BRANCH  17  20
ATOM     20  O   UNL     1     -11.131  -6.108  15.993  1.00  0.00    -0.504 OA
ATOM     21  H   UNL     1     -10.721  -6.350  15.098  1.00  0.00     0.293 HD
ENDBRANCH  17  20
ENDBRANCH   1  12
BRANCH   2  22
ATOM     22  O   UNL     1      -8.481  -4.594  21.319  1.00  0.00    -0.502 OA
ATOM     23  H   UNL     1      -9.214  -3.894  21.294  1.00  0.00     0.293 HD
ENDBRANCH   2  22
BRANCH   6  24
ATOM     24  O   UNL     1      -3.504  -2.697  21.372  1.00  0.00    -0.507 OA
ATOM     25  H   UNL     1      -4.117  -2.623  22.171  1.00  0.00     0.293 HD
ENDBRANCH   6  24
BRANCH   8  26
ATOM     26  O   UNL     1      -2.191  -3.656  16.854  1.00  0.00    -0.508 OA
ATOM     27  H   UNL     1      -2.067  -4.408  16.185  1.00  0.00     0.293 HD
ENDBRANCH   8  26
TORSDOF 6
ENDMDL
MODEL 8
REMARK VINA RESULT:    -5.807     17.384     19.213
REMARK INTER + INTRA:          -7.314
REMARK INTER:                  -7.011
REMARK INTRA:                  -0.303
REMARK UNBOUND:                -0.319
REMARK SMILES O=c1c(O)c(-c2ccc(O)c(O)c2)oc2cc(O)cc(O)c12
REMARK SMILES IDX 5 1 3 2 2 3 1 4 22 5 20 6 19 7 17 8 16 9 15 10 14 11 6 12
REMARK SMILES IDX 7 13 8 14 9 15 13 16 11 17 10 18 12 20 4 22 21 24 18 26
REMARK H PARENT 10 19 12 21 4 23 21 25 18 27
REMARK Flexibility Score: inf
ROOT
ATOM      1  C   UNL     1      -5.796  -5.200  19.473  1.00  0.00     0.180 A 
ATOM      2  C   UNL     1      -6.119  -5.953  20.614  1.00  0.00     0.208 A 
ATOM      3  C   UNL     1      -7.370  -6.587  20.681  1.00  0.00     0.238 A 
ATOM      4  O   UNL     1      -7.631  -7.306  21.681  1.00  0.00    -0.285 OA
ATOM      5  C   UNL     1      -8.288  -6.448  19.613  1.00  0.00     0.111 A 
ATOM      6  C   UNL     1      -9.598  -7.014  19.591  1.00  0.00     0.134 A 
ATOM      7  C   UNL     1     -10.371  -6.920  18.427  1.00  0.00     0.093 A 
ATOM      8  C   UNL     1      -9.908  -6.225  17.307  1.00  0.00     0.123 A 
ATOM      9  C   UNL     1      -8.654  -5.619  17.341  1.00  0.00     0.094 A 
ATOM     10  C   UNL     1      -7.845  -5.726  18.474  1.00  0.00     0.146 A 
ATOM     11  O   UNL     1      -6.653  -5.141  18.460  1.00  0.00    -0.452 OA
ENDROOT
BRANCH   1  12
ATOM     12  C   UNL     1      -4.508  -4.482  19.342  1.00  0.00     0.025 A 
ATOM     13  C   UNL     1      -4.435  -3.124  19.691  1.00  0.00     0.016 A 
ATOM     14  C   UNL     1      -3.226  -2.432  19.594  1.00  0.00     0.051 A 
ATOM     15  C   UNL     1      -2.069  -3.087  19.164  1.00  0.00     0.157 A 
ATOM     16  C   UNL     1      -3.339  -5.144  18.929  1.00  0.00     0.062 A 
ATOM     17  C   UNL     1      -2.122  -4.451  18.833  1.00  0.00     0.158 A 
BRANCH  15  18
ATOM     18  O   UNL     1      -0.876  -2.369  19.075  1.00  0.00    -0.504 OA
ATOM     19  H   UNL     1      -0.845  -1.363  19.186  1.00  0.00     0.293 HD
ENDBRANCH  15  18
BRANCH  17  20
ATOM     20  O   UNL     1      -0.969  -5.115  18.417  1.00  0.00    -0.504 OA
ATOM     21  H   UNL     1      -0.703  -6.012  18.807  1.00  0.00     0.293 HD
ENDBRANCH  17  20
ENDBRANCH   1  12
BRANCH   2  22
ATOM     22  O   UNL     1      -5.189  -6.096  21.648  1.00  0.00    -0.502 OA
ATOM     23  H   UNL     1      -4.340  -6.639  21.545  1.00  0.00     0.293 HD
ENDBRANCH   2  22
BRANCH   6  24
ATOM     24  O   UNL     1     -10.192  -7.648  20.685  1.00  0.00    -0.507 OA
ATOM     25  H   UNL     1      -9.691  -8.000  21.487  1.00  0.00     0.293 HD
ENDBRANCH   6  24
BRANCH   8  26
ATOM     26  O   UNL     1     -10.689  -6.124  16.159  1.00  0.00    -0.508 OA
ATOM     27  H   UNL     1     -10.918  -5.224  15.752  1.00  0.00     0.293 HD
ENDBRANCH   8  26
TORSDOF 6
ENDMDL
MODEL 9
REMARK VINA RESULT:    -4.503     14.182     17.064
REMARK INTER + INTRA:          -5.743
REMARK INTER:                  -6.018
REMARK INTRA:                   0.275
REMARK UNBOUND:                -0.319
REMARK SMILES O=c1c(O)c(-c2ccc(O)c(O)c2)oc2cc(O)cc(O)c12
REMARK SMILES IDX 5 1 3 2 2 3 1 4 22 5 20 6 19 7 17 8 16 9 15 10 14 11 6 12
REMARK SMILES IDX 7 13 8 14 9 15 13 16 11 17 10 18 12 20 4 22 21 24 18 26
REMARK H PARENT 10 19 12 21 4 23 21 25 18 27
REMARK Flexibility Score: inf
ROOT
ATOM      1  C   UNL     1      -4.632  -4.782  18.081  1.00  0.00     0.180 A 
ATOM      2  C   UNL     1      -6.015  -4.700  18.319  1.00  0.00     0.208 A 
ATOM      3  C   UNL     1      -6.859  -4.265  17.286  1.00  0.00     0.238 A 
ATOM      4  O   UNL     1      -8.102  -4.247  17.488  1.00  0.00    -0.285 OA
ATOM      5  C   UNL     1      -6.310  -3.903  16.032  1.00  0.00     0.111 A 
ATOM      6  C   UNL     1      -7.067  -3.411  14.927  1.00  0.00     0.134 A 
ATOM      7  C   UNL     1      -6.436  -3.208  13.693  1.00  0.00     0.093 A 
ATOM      8  C   UNL     1      -5.063  -3.416  13.543  1.00  0.00     0.123 A 
ATOM      9  C   UNL     1      -4.305  -3.839  14.632  1.00  0.00     0.094 A 
ATOM     10  C   UNL     1      -4.912  -4.086  15.866  1.00  0.00     0.146 A 
ATOM     11  O   UNL     1      -4.154  -4.498  16.875  1.00  0.00    -0.452 OA
ENDROOT
BRANCH   1  12
ATOM     12  C   UNL     1      -3.676  -5.207  19.129  1.00  0.00     0.025 A 
ATOM     13  C   UNL     1      -2.387  -4.651  19.155  1.00  0.00     0.016 A 
ATOM     14  C   UNL     1      -1.476  -5.023  20.147  1.00  0.00     0.051 A 
ATOM     15  C   UNL     1      -1.842  -5.940  21.135  1.00  0.00     0.157 A 
ATOM     16  C   UNL     1      -4.049  -6.115  20.136  1.00  0.00     0.062 A 
ATOM     17  C   UNL     1      -3.135  -6.488  21.134  1.00  0.00     0.158 A 
BRANCH  15  18
ATOM     18  O   UNL     1      -0.910  -6.293  22.111  1.00  0.00    -0.504 OA
ATOM     19  H   UNL     1      -0.486  -7.213  22.142  1.00  0.00     0.293 HD
ENDBRANCH  15  18
BRANCH  17  20
ATOM     20  O   UNL     1      -3.512  -7.393  22.125  1.00  0.00    -0.504 OA
ATOM     21  H   UNL     1      -4.465  -7.439  22.468  1.00  0.00     0.293 HD
ENDBRANCH  17  20
ENDBRANCH   1  12
BRANCH   2  22
ATOM     22  O   UNL     1      -6.538  -5.084  19.557  1.00  0.00    -0.502 OA
ATOM     23  H   UNL     1      -7.063  -4.449  20.147  1.00  0.00     0.293 HD
ENDBRANCH   2  22
BRANCH   6  24
ATOM     24  O   UNL     1      -8.424  -3.083  14.995  1.00  0.00    -0.507 OA
ATOM     25  H   UNL     1      -9.114  -3.342  14.306  1.00  0.00     0.293 HD
ENDBRANCH   6  24
BRANCH   8  26
ATOM     26  O   UNL     1      -4.441  -3.197  12.317  1.00  0.00    -0.508 OA
ATOM     27  H   UNL     1      -3.554  -3.632  12.087  1.00  0.00     0.293 HD
ENDBRANCH   8  26
TORSDOF 6
ENDMDL
