MODEL 1
REMARK VINA RESULT:    -6.407      0.000      0.000
REMARK INTER + INTRA:          -9.613
REMARK INTER:                  -8.654
REMARK INTRA:                  -0.958
REMARK UNBOUND:                -0.958
REMARK SMILES O=c1c(-c2ccc(O)cc2)coc2c([C@H]3O[C@H](CO)[C@H](O)[C@@H](O)[C@H]3O)c(O)ccc12
REMARK SMILES IDX 3 1 11 2 12 3 13 4 30 5 2 6 1 7 29 8 28 9 26 10 14 11 4 12
REMARK SMILES IDX 5 13 6 14 7 15 10 16 9 17 8 18 15 20 24 21 16 22 22 23 17 24
REMARK SMILES IDX 20 25 25 26 23 28 18 30 19 31 21 33 27 35
REMARK H PARENT 8 19 25 27 23 29 19 32 21 34 27 36
REMARK Flexibility Score: inf
ROOT
ATOM      1  C   UNL     1      53.644 -32.585  -0.613  1.00  0.00     0.065 A 
ATOM      2  C   UNL     1      53.344 -31.820  -1.749  1.00  0.00     0.208 A 
ATOM      3  O   UNL     1      53.451 -32.337  -2.967  1.00  0.00    -0.463 OA
ATOM      4  C   UNL     1      53.841 -33.588  -3.195  1.00  0.00     0.147 A 
ATOM      5  C   UNL     1      54.163 -34.431  -2.105  1.00  0.00     0.066 A 
ATOM      6  C   UNL     1      54.069 -33.912  -0.801  1.00  0.00     0.200 A 
ATOM      7  O   UNL     1      54.380 -34.627   0.193  1.00  0.00    -0.288 OA
ATOM      8  C   UNL     1      54.562 -35.755  -2.347  1.00  0.00     0.020 A 
ATOM      9  C   UNL     1      54.625 -36.241  -3.650  1.00  0.00     0.047 A 
ATOM     10  C   UNL     1      54.305 -35.419  -4.736  1.00  0.00     0.125 A 
ATOM     11  C   UNL     1      53.932 -34.071  -4.522  1.00  0.00     0.069 A 
ENDROOT
BRANCH   1  12
ATOM     12  C   UNL     1      53.511 -31.986   0.739  1.00  0.00    -0.011 A 
ATOM     13  C   UNL     1      54.617 -31.375   1.356  1.00  0.00     0.013 A 
ATOM     14  C   UNL     1      54.493 -30.803   2.625  1.00  0.00     0.047 A 
ATOM     15  C   UNL     1      53.261 -30.827   3.292  1.00  0.00     0.115 A 
ATOM     16  C   UNL     1      52.276 -32.000   1.412  1.00  0.00     0.013 A 
ATOM     17  C   UNL     1      52.155 -31.426   2.681  1.00  0.00     0.047 A 
BRANCH  15  18
ATOM     18  O   UNL     1      53.125 -30.260   4.556  1.00  0.00    -0.508 OA
ATOM     19  H   UNL     1      52.746 -30.787   5.335  1.00  0.00     0.293 HD
ENDBRANCH  15  18
ENDBRANCH   1  12
BRANCH  11  20
ATOM     20  C   UNL     1      53.556 -33.159  -5.686  1.00  0.00     0.188 C 
ATOM     21  C   UNL     1      52.043 -33.258  -5.975  1.00  0.00     0.179 C 
ATOM     22  O   UNL     1      54.329 -33.483  -6.834  1.00  0.00    -0.362 OA
ATOM     23  C   UNL     1      51.682 -32.296  -7.117  1.00  0.00     0.177 C 
ATOM     24  C   UNL     1      54.099 -32.594  -7.922  1.00  0.00     0.176 C 
ATOM     25  C   UNL     1      52.600 -32.562  -8.329  1.00  0.00     0.177 C 
BRANCH  21  26
ATOM     26  O   UNL     1      51.707 -34.579  -6.323  1.00  0.00    -0.387 OA
ATOM     27  H   UNL     1      51.182 -34.954  -5.569  1.00  0.00     0.211 HD
ENDBRANCH  21  26
BRANCH  23  28
ATOM     28  O   UNL     1      50.336 -32.476  -7.476  1.00  0.00    -0.387 OA
ATOM     29  H   UNL     1      50.153 -33.450  -7.431  1.00  0.00     0.211 HD
ENDBRANCH  23  28
BRANCH  24  30
ATOM     30  C   UNL     1      54.738 -31.207  -7.671  1.00  0.00     0.191 C 
BRANCH  30  31
ATOM     31  O   UNL     1      56.125 -31.250  -7.875  1.00  0.00    -0.394 OA
ATOM     32  H   UNL     1      56.385 -32.209  -7.874  1.00  0.00     0.210 HD
ENDBRANCH  30  31
ENDBRANCH  24  30
BRANCH  25  33
ATOM     33  O   UNL     1      52.367 -31.649  -9.375  1.00  0.00    -0.388 OA
ATOM     34  H   UNL     1      52.521 -32.119 -10.235  1.00  0.00     0.211 HD
ENDBRANCH  25  33
ENDBRANCH  11  20
BRANCH  10  35
ATOM     35  O   UNL     1      54.351 -35.948  -6.027  1.00  0.00    -0.507 OA
ATOM     36  H   UNL     1      53.930 -35.471  -6.814  1.00  0.00     0.293 HD
ENDBRANCH  10  35
TORSDOF 9
ENDMDL
MODEL 2
REMARK VINA RESULT:    -6.274      6.319     11.704
REMARK INTER + INTRA:          -9.432
REMARK INTER:                  -8.333
REMARK INTRA:                  -1.100
REMARK UNBOUND:                -0.958
REMARK SMILES O=c1c(-c2ccc(O)cc2)coc2c([C@H]3O[C@H](CO)[C@H](O)[C@@H](O)[C@H]3O)c(O)ccc12
REMARK SMILES IDX 3 1 11 2 12 3 13 4 30 5 2 6 1 7 29 8 28 9 26 10 14 11 4 12
REMARK SMILES IDX 5 13 6 14 7 15 10 16 9 17 8 18 15 20 24 21 16 22 22 23 17 24
REMARK SMILES IDX 20 25 25 26 23 28 18 30 19 31 21 33 27 35
REMARK H PARENT 8 19 25 27 23 29 19 32 21 34 27 36
REMARK Flexibility Score: inf
ROOT
ATOM      1  C   UNL     1      52.377 -27.531   0.670  1.00  0.00     0.065 A 
ATOM      2  C   UNL     1      51.403 -26.845   1.410  1.00  0.00     0.208 A 
ATOM      3  O   UNL     1      51.068 -27.244   2.630  1.00  0.00    -0.463 OA
ATOM      4  C   UNL     1      51.617 -28.299   3.228  1.00  0.00     0.147 A 
ATOM      5  C   UNL     1      52.609 -29.048   2.553  1.00  0.00     0.066 A 
ATOM      6  C   UNL     1      52.982 -28.657   1.254  1.00  0.00     0.200 A 
ATOM      7  O   UNL     1      53.840 -29.324   0.610  1.00  0.00    -0.288 OA
ATOM      8  C   UNL     1      53.197 -30.152   3.190  1.00  0.00     0.020 A 
ATOM      9  C   UNL     1      52.818 -30.499   4.484  1.00  0.00     0.047 A 
ATOM     10  C   UNL     1      51.841 -29.763   5.164  1.00  0.00     0.125 A 
ATOM     11  C   UNL     1      51.209 -28.665   4.533  1.00  0.00     0.069 A 
ENDROOT
BRANCH   1  12
ATOM     12  C   UNL     1      52.738 -27.061  -0.692  1.00  0.00    -0.011 A 
ATOM     13  C   UNL     1      53.651 -26.004  -0.858  1.00  0.00     0.013 A 
ATOM     14  C   UNL     1      54.000 -25.565  -2.138  1.00  0.00     0.047 A 
ATOM     15  C   UNL     1      53.446 -26.179  -3.269  1.00  0.00     0.115 A 
ATOM     16  C   UNL     1      52.192 -27.677  -1.832  1.00  0.00     0.013 A 
ATOM     17  C   UNL     1      52.543 -27.236  -3.111  1.00  0.00     0.047 A 
BRANCH  15  18
ATOM     18  O   UNL     1      53.786 -25.751  -4.549  1.00  0.00    -0.508 OA
ATOM     19  H   UNL     1      54.146 -26.395  -5.245  1.00  0.00     0.293 HD
ENDBRANCH  15  18
ENDBRANCH   1  12
BRANCH  11  20
ATOM     20  C   UNL     1      50.157 -27.832   5.258  1.00  0.00     0.188 C 
ATOM     21  C   UNL     1      50.838 -26.765   6.142  1.00  0.00     0.179 C 
ATOM     22  O   UNL     1      49.304 -28.674   6.021  1.00  0.00    -0.362 OA
ATOM     23  C   UNL     1      49.760 -25.909   6.823  1.00  0.00     0.177 C 
ATOM     24  C   UNL     1      48.235 -27.963   6.637  1.00  0.00     0.176 C 
ATOM     25  C   UNL     1      48.757 -26.825   7.557  1.00  0.00     0.177 C 
BRANCH  21  26
ATOM     26  O   UNL     1      51.650 -27.387   7.107  1.00  0.00    -0.387 OA
ATOM     27  H   UNL     1      51.478 -28.363   7.046  1.00  0.00     0.211 HD
ENDBRANCH  21  26
BRANCH  23  28
ATOM     28  O   UNL     1      50.365 -25.023   7.730  1.00  0.00    -0.387 OA
ATOM     29  H   UNL     1      50.873 -25.577   8.378  1.00  0.00     0.211 HD
ENDBRANCH  23  28
BRANCH  24  30
ATOM     30  C   UNL     1      47.167 -27.529   5.603  1.00  0.00     0.191 C 
BRANCH  30  31
ATOM     31  O   UNL     1      45.878 -27.620   6.146  1.00  0.00    -0.394 OA
ATOM     32  H   UNL     1      45.935 -27.281   7.078  1.00  0.00     0.210 HD
ENDBRANCH  30  31
ENDBRANCH  24  30
BRANCH  25  33
ATOM     33  O   UNL     1      47.698 -26.094   8.128  1.00  0.00    -0.388 OA
ATOM     34  H   UNL     1      47.367 -26.597   8.917  1.00  0.00     0.211 HD
ENDBRANCH  25  33
ENDBRANCH  11  20
BRANCH  10  35
ATOM     35  O   UNL     1      51.506 -30.121   6.471  1.00  0.00    -0.507 OA
ATOM     36  H   UNL     1      50.593 -29.921   6.861  1.00  0.00     0.293 HD
ENDBRANCH  10  35
TORSDOF 9
ENDMDL
MODEL 3
REMARK VINA RESULT:    -6.259      6.318     12.036
REMARK INTER + INTRA:          -9.413
REMARK INTER:                  -8.315
REMARK INTRA:                  -1.098
REMARK UNBOUND:                -0.958
REMARK SMILES O=c1c(-c2ccc(O)cc2)coc2c([C@H]3O[C@H](CO)[C@H](O)[C@@H](O)[C@H]3O)c(O)ccc12
REMARK SMILES IDX 3 1 11 2 12 3 13 4 30 5 2 6 1 7 29 8 28 9 26 10 14 11 4 12
REMARK SMILES IDX 5 13 6 14 7 15 10 16 9 17 8 18 15 20 24 21 16 22 22 23 17 24
REMARK SMILES IDX 20 25 25 26 23 28 18 30 19 31 21 33 27 35
REMARK H PARENT 8 19 25 27 23 29 19 32 21 34 27 36
REMARK Flexibility Score: inf
ROOT
ATOM      1  C   UNL     1      52.315 -30.410   3.038  1.00  0.00     0.065 A 
ATOM      2  C   UNL     1      51.781 -30.346   4.333  1.00  0.00     0.208 A 
ATOM      3  O   UNL     1      51.101 -29.281   4.737  1.00  0.00    -0.463 OA
ATOM      4  C   UNL     1      50.880 -28.221   3.964  1.00  0.00     0.147 A 
ATOM      5  C   UNL     1      51.383 -28.202   2.642  1.00  0.00     0.066 A 
ATOM      6  C   UNL     1      52.116 -29.311   2.184  1.00  0.00     0.200 A 
ATOM      7  O   UNL     1      52.607 -29.313   1.020  1.00  0.00    -0.288 OA
ATOM      8  C   UNL     1      51.137 -27.089   1.824  1.00  0.00     0.020 A 
ATOM      9  C   UNL     1      50.390 -26.016   2.304  1.00  0.00     0.047 A 
ATOM     10  C   UNL     1      49.883 -26.025   3.608  1.00  0.00     0.125 A 
ATOM     11  C   UNL     1      50.144 -27.121   4.465  1.00  0.00     0.069 A 
ENDROOT
BRANCH   1  12
ATOM     12  C   UNL     1      53.068 -31.615   2.607  1.00  0.00    -0.011 A 
ATOM     13  C   UNL     1      54.412 -31.785   2.985  1.00  0.00     0.013 A 
ATOM     14  C   UNL     1      55.121 -32.922   2.588  1.00  0.00     0.047 A 
ATOM     15  C   UNL     1      54.496 -33.907   1.812  1.00  0.00     0.115 A 
ATOM     16  C   UNL     1      52.446 -32.612   1.834  1.00  0.00     0.013 A 
ATOM     17  C   UNL     1      53.157 -33.748   1.439  1.00  0.00     0.047 A 
BRANCH  15  18
ATOM     18  O   UNL     1      55.191 -35.044   1.411  1.00  0.00    -0.508 OA
ATOM     19  H   UNL     1      55.756 -35.577   2.062  1.00  0.00     0.293 HD
ENDBRANCH  15  18
ENDBRANCH   1  12
BRANCH  11  20
ATOM     20  C   UNL     1      49.586 -27.167   5.884  1.00  0.00     0.188 C 
ATOM     21  C   UNL     1      48.123 -27.658   5.866  1.00  0.00     0.179 C 
ATOM     22  O   UNL     1      49.700 -25.890   6.499  1.00  0.00    -0.362 OA
ATOM     23  C   UNL     1      47.600 -27.742   7.308  1.00  0.00     0.177 C 
ATOM     24  C   UNL     1      49.293 -25.898   7.863  1.00  0.00     0.176 C 
ATOM     25  C   UNL     1      47.830 -26.393   8.023  1.00  0.00     0.177 C 
BRANCH  21  26
ATOM     26  O   UNL     1      47.330 -26.777   5.109  1.00  0.00    -0.387 OA
ATOM     27  H   UNL     1      47.649 -26.833   4.170  1.00  0.00     0.211 HD
ENDBRANCH  21  26
BRANCH  23  28
ATOM     28  O   UNL     1      46.231 -28.060   7.295  1.00  0.00    -0.387 OA
ATOM     29  H   UNL     1      45.933 -28.009   6.349  1.00  0.00     0.211 HD
ENDBRANCH  23  28
BRANCH  24  30
ATOM     30  C   UNL     1      50.328 -26.615   8.764  1.00  0.00     0.191 C 
BRANCH  30  31
ATOM     31  O   UNL     1      50.075 -26.358  10.119  1.00  0.00    -0.394 OA
ATOM     32  H   UNL     1      49.673 -25.451  10.169  1.00  0.00     0.210 HD
ENDBRANCH  30  31
ENDBRANCH  24  30
BRANCH  25  33
ATOM     33  O   UNL     1      47.444 -26.443   9.376  1.00  0.00    -0.388 OA
ATOM     34  H   UNL     1      47.168 -27.373   9.584  1.00  0.00     0.211 HD
ENDBRANCH  25  33
ENDBRANCH  11  20
BRANCH  10  35
ATOM     35  O   UNL     1      49.115 -24.946   4.047  1.00  0.00    -0.507 OA
ATOM     36  H   UNL     1      48.985 -24.749   5.032  1.00  0.00     0.293 HD
ENDBRANCH  10  35
TORSDOF 9
ENDMDL
MODEL 4
REMARK VINA RESULT:    -6.242      6.666      8.882
REMARK INTER + INTRA:          -9.390
REMARK INTER:                  -8.290
REMARK INTRA:                  -1.100
REMARK UNBOUND:                -0.958
REMARK SMILES O=c1c(-c2ccc(O)cc2)coc2c([C@H]3O[C@H](CO)[C@H](O)[C@@H](O)[C@H]3O)c(O)ccc12
REMARK SMILES IDX 3 1 11 2 12 3 13 4 30 5 2 6 1 7 29 8 28 9 26 10 14 11 4 12
REMARK SMILES IDX 5 13 6 14 7 15 10 16 9 17 8 18 15 20 24 21 16 22 22 23 17 24
REMARK SMILES IDX 20 25 25 26 23 28 18 30 19 31 21 33 27 35
REMARK H PARENT 8 19 25 27 23 29 19 32 21 34 27 36
REMARK Flexibility Score: inf
ROOT
ATOM      1  C   UNL     1      50.542 -28.040   5.460  1.00  0.00     0.065 A 
ATOM      2  C   UNL     1      50.859 -27.096   4.473  1.00  0.00     0.208 A 
ATOM      3  O   UNL     1      51.769 -27.362   3.544  1.00  0.00    -0.463 OA
ATOM      4  C   UNL     1      52.431 -28.514   3.482  1.00  0.00     0.147 A 
ATOM      5  C   UNL     1      52.172 -29.523   4.439  1.00  0.00     0.066 A 
ATOM      6  C   UNL     1      51.220 -29.271   5.443  1.00  0.00     0.200 A 
ATOM      7  O   UNL     1      50.989 -30.138   6.332  1.00  0.00    -0.288 OA
ATOM      8  C   UNL     1      52.862 -30.743   4.364  1.00  0.00     0.020 A 
ATOM      9  C   UNL     1      53.785 -30.966   3.344  1.00  0.00     0.047 A 
ATOM     10  C   UNL     1      54.046 -29.977   2.388  1.00  0.00     0.125 A 
ATOM     11  C   UNL     1      53.389 -28.726   2.461  1.00  0.00     0.069 A 
ENDROOT
BRANCH   1  12
ATOM     12  C   UNL     1      49.516 -27.721   6.486  1.00  0.00    -0.011 A 
ATOM     13  C   UNL     1      48.148 -27.847   6.183  1.00  0.00     0.013 A 
ATOM     14  C   UNL     1      47.180 -27.556   7.148  1.00  0.00     0.047 A 
ATOM     15  C   UNL     1      47.566 -27.141   8.430  1.00  0.00     0.115 A 
ATOM     16  C   UNL     1      49.895 -27.311   7.777  1.00  0.00     0.013 A 
ATOM     17  C   UNL     1      48.924 -27.021   8.740  1.00  0.00     0.047 A 
BRANCH  15  18
ATOM     18  O   UNL     1      46.611 -26.848   9.400  1.00  0.00    -0.508 OA
ATOM     19  H   UNL     1      45.727 -27.343   9.439  1.00  0.00     0.293 HD
ENDBRANCH  15  18
ENDBRANCH   1  12
BRANCH  11  20
ATOM     20  C   UNL     1      53.638 -27.639   1.420  1.00  0.00     0.188 C 
ATOM     21  C   UNL     1      52.795 -27.907   0.155  1.00  0.00     0.179 C 
ATOM     22  O   UNL     1      55.024 -27.559   1.116  1.00  0.00    -0.362 OA
ATOM     23  C   UNL     1      53.026 -26.775  -0.857  1.00  0.00     0.177 C 
ATOM     24  C   UNL     1      55.332 -26.489   0.229  1.00  0.00     0.176 C 
ATOM     25  C   UNL     1      54.540 -26.601  -1.103  1.00  0.00     0.177 C 
BRANCH  21  26
ATOM     26  O   UNL     1      53.153 -29.146  -0.406  1.00  0.00    -0.387 OA
ATOM     27  H   UNL     1      53.529 -28.960  -1.306  1.00  0.00     0.211 HD
ENDBRANCH  21  26
BRANCH  23  28
ATOM     28  O   UNL     1      52.368 -27.078  -2.060  1.00  0.00    -0.387 OA
ATOM     29  H   UNL     1      52.118 -26.212  -2.477  1.00  0.00     0.211 HD
ENDBRANCH  23  28
BRANCH  24  30
ATOM     30  C   UNL     1      55.232 -25.114   0.935  1.00  0.00     0.191 C 
BRANCH  30  31
ATOM     31  O   UNL     1      56.068 -24.172   0.318  1.00  0.00    -0.394 OA
ATOM     32  H   UNL     1      56.999 -24.403   0.575  1.00  0.00     0.210 HD
ENDBRANCH  30  31
ENDBRANCH  24  30
BRANCH  25  33
ATOM     33  O   UNL     1      54.812 -25.517  -1.960  1.00  0.00    -0.388 OA
ATOM     34  H   UNL     1      53.957 -25.048  -2.144  1.00  0.00     0.211 HD
ENDBRANCH  25  33
ENDBRANCH  11  20
BRANCH  10  35
ATOM     35  O   UNL     1      54.955 -30.245   1.364  1.00  0.00    -0.507 OA
ATOM     36  H   UNL     1      55.190 -31.193   1.093  1.00  0.00     0.293 HD
ENDBRANCH  10  35
TORSDOF 9
ENDMDL
MODEL 5
REMARK VINA RESULT:    -6.105      3.010      4.695
REMARK INTER + INTRA:          -9.204
REMARK INTER:                  -8.238
REMARK INTRA:                  -0.966
REMARK UNBOUND:                -0.958
REMARK SMILES O=c1c(-c2ccc(O)cc2)coc2c([C@H]3O[C@H](CO)[C@H](O)[C@@H](O)[C@H]3O)c(O)ccc12
REMARK SMILES IDX 3 1 11 2 12 3 13 4 30 5 2 6 1 7 29 8 28 9 26 10 14 11 4 12
REMARK SMILES IDX 5 13 6 14 7 15 10 16 9 17 8 18 15 20 24 21 16 22 22 23 17 24
REMARK SMILES IDX 20 25 25 26 23 28 18 30 19 31 21 33 27 35
REMARK H PARENT 8 19 25 27 23 29 19 32 21 34 27 36
REMARK Flexibility Score: inf
ROOT
ATOM      1  C   UNL     1      53.222 -29.228  -2.668  1.00  0.00     0.065 A 
ATOM      2  C   UNL     1      52.352 -30.312  -2.850  1.00  0.00     0.208 A 
ATOM      3  O   UNL     1      52.342 -30.994  -3.988  1.00  0.00    -0.463 OA
ATOM      4  C   UNL     1      53.137 -30.708  -5.016  1.00  0.00     0.147 A 
ATOM      5  C   UNL     1      54.048 -29.630  -4.917  1.00  0.00     0.066 A 
ATOM      6  C   UNL     1      54.078 -28.880  -3.728  1.00  0.00     0.200 A 
ATOM      7  O   UNL     1      54.856 -27.891  -3.619  1.00  0.00    -0.288 OA
ATOM      8  C   UNL     1      54.896 -29.338  -5.997  1.00  0.00     0.020 A 
ATOM      9  C   UNL     1      54.852 -30.114  -7.152  1.00  0.00     0.047 A 
ATOM     10  C   UNL     1      53.960 -31.186  -7.260  1.00  0.00     0.125 A 
ATOM     11  C   UNL     1      53.070 -31.482  -6.199  1.00  0.00     0.069 A 
ENDROOT
BRANCH   1  12
ATOM     12  C   UNL     1      53.218 -28.484  -1.383  1.00  0.00    -0.011 A 
ATOM     13  C   UNL     1      52.250 -27.494  -1.140  1.00  0.00     0.013 A 
ATOM     14  C   UNL     1      52.238 -26.797   0.072  1.00  0.00     0.047 A 
ATOM     15  C   UNL     1      53.190 -27.084   1.058  1.00  0.00     0.115 A 
ATOM     16  C   UNL     1      54.167 -28.771  -0.384  1.00  0.00     0.013 A 
ATOM     17  C   UNL     1      54.152 -28.073   0.826  1.00  0.00     0.047 A 
BRANCH  15  18
ATOM     18  O   UNL     1      53.189 -26.397   2.270  1.00  0.00    -0.508 OA
ATOM     19  H   UNL     1      54.040 -26.009   2.659  1.00  0.00     0.293 HD
ENDBRANCH  15  18
ENDBRANCH   1  12
BRANCH  11  20
ATOM     20  C   UNL     1      52.102 -32.658  -6.281  1.00  0.00     0.188 C 
ATOM     21  C   UNL     1      52.789 -33.949  -5.790  1.00  0.00     0.179 C 
ATOM     22  O   UNL     1      51.612 -32.799  -7.608  1.00  0.00    -0.362 OA
ATOM     23  C   UNL     1      51.780 -35.107  -5.836  1.00  0.00     0.177 C 
ATOM     24  C   UNL     1      50.622 -33.815  -7.724  1.00  0.00     0.176 C 
ATOM     25  C   UNL     1      51.153 -35.193  -7.244  1.00  0.00     0.177 C 
BRANCH  21  26
ATOM     26  O   UNL     1      53.903 -34.238  -6.598  1.00  0.00    -0.387 OA
ATOM     27  H   UNL     1      53.587 -34.239  -7.539  1.00  0.00     0.211 HD
ENDBRANCH  21  26
BRANCH  23  28
ATOM     28  O   UNL     1      52.431 -36.311  -5.517  1.00  0.00    -0.387 OA
ATOM     29  H   UNL     1      53.293 -36.311  -6.009  1.00  0.00     0.211 HD
ENDBRANCH  23  28
BRANCH  24  30
ATOM     30  C   UNL     1      49.278 -33.376  -7.091  1.00  0.00     0.191 C 
BRANCH  30  31
ATOM     31  O   UNL     1      48.802 -32.202  -7.691  1.00  0.00    -0.394 OA
ATOM     32  H   UNL     1      47.844 -32.121  -7.442  1.00  0.00     0.210 HD
ENDBRANCH  30  31
ENDBRANCH  24  30
BRANCH  25  33
ATOM     33  O   UNL     1      50.158 -36.186  -7.316  1.00  0.00    -0.388 OA
ATOM     34  H   UNL     1      50.605 -37.062  -7.451  1.00  0.00     0.211 HD
ENDBRANCH  25  33
ENDBRANCH  11  20
BRANCH  10  35
ATOM     35  O   UNL     1      53.963 -31.960  -8.422  1.00  0.00    -0.507 OA
ATOM     36  H   UNL     1      53.622 -32.914  -8.428  1.00  0.00     0.293 HD
ENDBRANCH  10  35
TORSDOF 9
ENDMDL
MODEL 6
REMARK VINA RESULT:    -6.079      2.529      8.448
REMARK INTER + INTRA:          -9.169
REMARK INTER:                  -8.431
REMARK INTRA:                  -0.739
REMARK UNBOUND:                -0.958
REMARK SMILES O=c1c(-c2ccc(O)cc2)coc2c([C@H]3O[C@H](CO)[C@H](O)[C@@H](O)[C@H]3O)c(O)ccc12
REMARK SMILES IDX 3 1 11 2 12 3 13 4 30 5 2 6 1 7 29 8 28 9 26 10 14 11 4 12
REMARK SMILES IDX 5 13 6 14 7 15 10 16 9 17 8 18 15 20 24 21 16 22 22 23 17 24
REMARK SMILES IDX 20 25 25 26 23 28 18 30 19 31 21 33 27 35
REMARK H PARENT 8 19 25 27 23 29 19 32 21 34 27 36
REMARK Flexibility Score: inf
ROOT
ATOM      1  C   UNL     1      53.274 -33.400  -4.505  1.00  0.00     0.065 A 
ATOM      2  C   UNL     1      53.602 -33.527  -3.148  1.00  0.00     0.208 A 
ATOM      3  O   UNL     1      53.538 -32.483  -2.331  1.00  0.00    -0.463 OA
ATOM      4  C   UNL     1      53.166 -31.269  -2.728  1.00  0.00     0.147 A 
ATOM      5  C   UNL     1      52.817 -31.052  -4.082  1.00  0.00     0.066 A 
ATOM      6  C   UNL     1      52.882 -32.135  -4.977  1.00  0.00     0.200 A 
ATOM      7  O   UNL     1      52.609 -31.968  -6.199  1.00  0.00    -0.288 OA
ATOM      8  C   UNL     1      52.412 -29.774  -4.496  1.00  0.00     0.020 A 
ATOM      9  C   UNL     1      52.340 -28.729  -3.578  1.00  0.00     0.047 A 
ATOM     10  C   UNL     1      52.679 -28.932  -2.236  1.00  0.00     0.125 A 
ATOM     11  C   UNL     1      53.122 -30.203  -1.798  1.00  0.00     0.069 A 
ENDROOT
BRANCH   1  12
ATOM     12  C   UNL     1      53.348 -34.584  -5.398  1.00  0.00    -0.011 A 
ATOM     13  C   UNL     1      54.576 -34.968  -5.967  1.00  0.00     0.013 A 
ATOM     14  C   UNL     1      54.651 -36.086  -6.801  1.00  0.00     0.047 A 
ATOM     15  C   UNL     1      53.502 -36.840  -7.074  1.00  0.00     0.115 A 
ATOM     16  C   UNL     1      52.201 -35.350  -5.672  1.00  0.00     0.013 A 
ATOM     17  C   UNL     1      52.279 -36.468  -6.506  1.00  0.00     0.047 A 
BRANCH  15  18
ATOM     18  O   UNL     1      53.564 -37.956  -7.904  1.00  0.00    -0.508 OA
ATOM     19  H   UNL     1      54.304 -38.068  -8.588  1.00  0.00     0.293 HD
ENDBRANCH  15  18
ENDBRANCH   1  12
BRANCH  11  20
ATOM     20  C   UNL     1      53.476 -30.459  -0.336  1.00  0.00     0.188 C 
ATOM     21  C   UNL     1      52.258 -31.039   0.414  1.00  0.00     0.179 C 
ATOM     22  O   UNL     1      53.943 -29.262   0.272  1.00  0.00    -0.362 OA
ATOM     23  C   UNL     1      52.654 -31.332   1.869  1.00  0.00     0.177 C 
ATOM     24  C   UNL     1      54.390 -29.463   1.609  1.00  0.00     0.176 C 
ATOM     25  C   UNL     1      53.274 -30.068   2.503  1.00  0.00     0.177 C 
BRANCH  21  26
ATOM     26  O   UNL     1      51.189 -30.126   0.373  1.00  0.00    -0.387 OA
ATOM     27  H   UNL     1      51.065 -29.866  -0.577  1.00  0.00     0.211 HD
ENDBRANCH  21  26
BRANCH  23  28
ATOM     28  O   UNL     1      51.520 -31.735   2.593  1.00  0.00    -0.387 OA
ATOM     29  H   UNL     1      51.797 -32.503   3.159  1.00  0.00     0.211 HD
ENDBRANCH  23  28
BRANCH  24  30
ATOM     30  C   UNL     1      55.743 -30.215   1.652  1.00  0.00     0.191 C 
BRANCH  30  31
ATOM     31  O   UNL     1      55.595 -31.477   2.245  1.00  0.00    -0.394 OA
ATOM     32  H   UNL     1      56.494 -31.747   2.570  1.00  0.00     0.210 HD
ENDBRANCH  30  31
ENDBRANCH  24  30
BRANCH  25  33
ATOM     33  O   UNL     1      53.732 -30.308   3.813  1.00  0.00    -0.388 OA
ATOM     34  H   UNL     1      52.942 -30.364   4.410  1.00  0.00     0.211 HD
ENDBRANCH  25  33
ENDBRANCH  11  20
BRANCH  10  35
ATOM     35  O   UNL     1      52.567 -27.870  -1.338  1.00  0.00    -0.507 OA
ATOM     36  H   UNL     1      52.166 -27.991  -0.415  1.00  0.00     0.293 HD
ENDBRANCH  10  35
TORSDOF 9
ENDMDL
MODEL 7
REMARK VINA RESULT:    -6.057      5.107      6.902
REMARK INTER + INTRA:          -9.140
REMARK INTER:                  -7.993
REMARK INTRA:                  -1.147
REMARK UNBOUND:                -0.958
REMARK SMILES O=c1c(-c2ccc(O)cc2)coc2c([C@H]3O[C@H](CO)[C@H](O)[C@@H](O)[C@H]3O)c(O)ccc12
REMARK SMILES IDX 3 1 11 2 12 3 13 4 30 5 2 6 1 7 29 8 28 9 26 10 14 11 4 12
REMARK SMILES IDX 5 13 6 14 7 15 10 16 9 17 8 18 15 20 24 21 16 22 22 23 17 24
REMARK SMILES IDX 20 25 25 26 23 28 18 30 19 31 21 33 27 35
REMARK H PARENT 8 19 25 27 23 29 19 32 21 34 27 36
REMARK Flexibility Score: inf
ROOT
ATOM      1  C   UNL     1      52.319 -28.383   4.295  1.00  0.00     0.065 A 
ATOM      2  C   UNL     1      52.365 -27.520   3.190  1.00  0.00     0.208 A 
ATOM      3  O   UNL     1      52.936 -27.897   2.054  1.00  0.00    -0.463 OA
ATOM      4  C   UNL     1      53.494 -29.093   1.881  1.00  0.00     0.147 A 
ATOM      5  C   UNL     1      53.491 -30.027   2.943  1.00  0.00     0.066 A 
ATOM      6  C   UNL     1      52.902 -29.656   4.165  1.00  0.00     0.200 A 
ATOM      7  O   UNL     1      52.911 -30.454   5.145  1.00  0.00    -0.288 OA
ATOM      8  C   UNL     1      54.068 -31.293   2.755  1.00  0.00     0.020 A 
ATOM      9  C   UNL     1      54.625 -31.633   1.525  1.00  0.00     0.047 A 
ATOM     10  C   UNL     1      54.630 -30.720   0.465  1.00  0.00     0.125 A 
ATOM     11  C   UNL     1      54.085 -29.425   0.638  1.00  0.00     0.069 A 
ENDROOT
BRANCH   1  12
ATOM     12  C   UNL     1      51.669 -27.940   5.554  1.00  0.00    -0.011 A 
ATOM     13  C   UNL     1      52.377 -27.150   6.477  1.00  0.00     0.013 A 
ATOM     14  C   UNL     1      51.766 -26.724   7.660  1.00  0.00     0.047 A 
ATOM     15  C   UNL     1      50.438 -27.076   7.933  1.00  0.00     0.115 A 
ATOM     16  C   UNL     1      50.334 -28.283   5.832  1.00  0.00     0.013 A 
ATOM     17  C   UNL     1      49.725 -27.855   7.015  1.00  0.00     0.047 A 
BRANCH  15  18
ATOM     18  O   UNL     1      49.818 -26.657   9.107  1.00  0.00    -0.508 OA
ATOM     19  H   UNL     1      50.021 -25.754   9.520  1.00  0.00     0.293 HD
ENDBRANCH  15  18
ENDBRANCH   1  12
BRANCH  11  20
ATOM     20  C   UNL     1      54.056 -28.418  -0.507  1.00  0.00     0.188 C 
ATOM     21  C   UNL     1      52.821 -28.658  -1.399  1.00  0.00     0.179 C 
ATOM     22  O   UNL     1      55.263 -28.490  -1.255  1.00  0.00    -0.362 OA
ATOM     23  C   UNL     1      52.789 -27.602  -2.515  1.00  0.00     0.177 C 
ATOM     24  C   UNL     1      55.340 -27.498  -2.273  1.00  0.00     0.176 C 
ATOM     25  C   UNL     1      54.142 -27.592  -3.257  1.00  0.00     0.177 C 
BRANCH  21  26
ATOM     26  O   UNL     1      52.871 -29.951  -1.951  1.00  0.00    -0.387 OA
ATOM     27  H   UNL     1      53.466 -29.906  -2.744  1.00  0.00     0.211 HD
ENDBRANCH  21  26
BRANCH  23  28
ATOM     28  O   UNL     1      51.744 -27.893  -3.408  1.00  0.00    -0.387 OA
ATOM     29  H   UNL     1      50.909 -27.932  -2.872  1.00  0.00     0.211 HD
ENDBRANCH  23  28
BRANCH  24  30
ATOM     30  C   UNL     1      55.591 -26.090  -1.681  1.00  0.00     0.191 C 
BRANCH  30  31
ATOM     31  O   UNL     1      56.124 -25.227  -2.649  1.00  0.00    -0.394 OA
ATOM     32  H   UNL     1      57.081 -25.095  -2.418  1.00  0.00     0.210 HD
ENDBRANCH  30  31
ENDBRANCH  24  30
BRANCH  25  33
ATOM     33  O   UNL     1      54.196 -26.581  -4.236  1.00  0.00    -0.388 OA
ATOM     34  H   UNL     1      53.406 -25.993  -4.116  1.00  0.00     0.211 HD
ENDBRANCH  25  33
ENDBRANCH  11  20
BRANCH  10  35
ATOM     35  O   UNL     1      55.171 -31.105  -0.763  1.00  0.00    -0.507 OA
ATOM     36  H   UNL     1      55.892 -31.814  -0.829  1.00  0.00     0.293 HD
ENDBRANCH  10  35
TORSDOF 9
ENDMDL
MODEL 8
REMARK VINA RESULT:    -6.008      2.316      3.984
REMARK INTER + INTRA:          -9.074
REMARK INTER:                  -8.305
REMARK INTRA:                  -0.768
REMARK UNBOUND:                -0.958
REMARK SMILES O=c1c(-c2ccc(O)cc2)coc2c([C@H]3O[C@H](CO)[C@H](O)[C@@H](O)[C@H]3O)c(O)ccc12
REMARK SMILES IDX 3 1 11 2 12 3 13 4 30 5 2 6 1 7 29 8 28 9 26 10 14 11 4 12
REMARK SMILES IDX 5 13 6 14 7 15 10 16 9 17 8 18 15 20 24 21 16 22 22 23 17 24
REMARK SMILES IDX 20 25 25 26 23 28 18 30 19 31 21 33 27 35
REMARK H PARENT 8 19 25 27 23 29 19 32 21 34 27 36
REMARK Flexibility Score: inf
ROOT
ATOM      1  C   UNL     1      52.267 -30.522  -0.968  1.00  0.00     0.065 A 
ATOM      2  C   UNL     1      51.644 -31.616  -1.588  1.00  0.00     0.208 A 
ATOM      3  O   UNL     1      51.821 -31.858  -2.880  1.00  0.00    -0.463 OA
ATOM      4  C   UNL     1      52.583 -31.101  -3.666  1.00  0.00     0.147 A 
ATOM      5  C   UNL     1      53.250 -29.978  -3.123  1.00  0.00     0.066 A 
ATOM      6  C   UNL     1      53.077 -29.687  -1.758  1.00  0.00     0.200 A 
ATOM      7  O   UNL     1      53.631 -28.672  -1.249  1.00  0.00    -0.288 OA
ATOM      8  C   UNL     1      54.063 -29.189  -3.950  1.00  0.00     0.020 A 
ATOM      9  C   UNL     1      54.226 -29.518  -5.294  1.00  0.00     0.047 A 
ATOM     10  C   UNL     1      53.576 -30.629  -5.841  1.00  0.00     0.125 A 
ATOM     11  C   UNL     1      52.724 -31.423  -5.037  1.00  0.00     0.069 A 
ENDROOT
BRANCH   1  12
ATOM     12  C   UNL     1      52.059 -30.275   0.481  1.00  0.00    -0.011 A 
ATOM     13  C   UNL     1      52.507 -31.210   1.431  1.00  0.00     0.013 A 
ATOM     14  C   UNL     1      52.320 -30.976   2.796  1.00  0.00     0.047 A 
ATOM     15  C   UNL     1      51.688 -29.804   3.230  1.00  0.00     0.115 A 
ATOM     16  C   UNL     1      51.432 -29.097   0.925  1.00  0.00     0.013 A 
ATOM     17  C   UNL     1      51.247 -28.866   2.291  1.00  0.00     0.047 A 
BRANCH  15  18
ATOM     18  O   UNL     1      51.496 -29.560   4.588  1.00  0.00    -0.508 OA
ATOM     19  H   UNL     1      50.768 -30.031   5.113  1.00  0.00     0.293 HD
ENDBRANCH  15  18
ENDBRANCH   1  12
BRANCH  11  20
ATOM     20  C   UNL     1      52.020 -32.653  -5.602  1.00  0.00     0.188 C 
ATOM     21  C   UNL     1      52.927 -33.894  -5.470  1.00  0.00     0.179 C 
ATOM     22  O   UNL     1      51.641 -32.425  -6.953  1.00  0.00    -0.362 OA
ATOM     23  C   UNL     1      52.178 -35.126  -6.000  1.00  0.00     0.177 C 
ATOM     24  C   UNL     1      50.885 -33.499  -7.502  1.00  0.00     0.176 C 
ATOM     25  C   UNL     1      51.659 -34.843  -7.426  1.00  0.00     0.177 C 
BRANCH  21  26
ATOM     26  O   UNL     1      54.118 -33.698  -6.190  1.00  0.00    -0.387 OA
ATOM     27  H   UNL     1      53.864 -33.548  -7.138  1.00  0.00     0.211 HD
ENDBRANCH  21  26
BRANCH  23  28
ATOM     28  O   UNL     1      53.041 -36.235  -6.007  1.00  0.00    -0.387 OA
ATOM     29  H   UNL     1      52.811 -36.774  -6.808  1.00  0.00     0.211 HD
ENDBRANCH  23  28
BRANCH  24  30
ATOM     30  C   UNL     1      49.448 -33.538  -6.926  1.00  0.00     0.191 C 
BRANCH  30  31
ATOM     31  O   UNL     1      48.650 -32.539  -7.502  1.00  0.00    -0.394 OA
ATOM     32  H   UNL     1      48.189 -32.953  -8.278  1.00  0.00     0.210 HD
ENDBRANCH  30  31
ENDBRANCH  24  30
BRANCH  25  33
ATOM     33  O   UNL     1      50.891 -35.912  -7.928  1.00  0.00    -0.388 OA
ATOM     34  H   UNL     1      49.992 -35.562  -8.161  1.00  0.00     0.211 HD
ENDBRANCH  25  33
ENDBRANCH  11  20
BRANCH  10  35
ATOM     35  O   UNL     1      53.785 -30.947  -7.184  1.00  0.00    -0.507 OA
ATOM     36  H   UNL     1      53.015 -31.058  -7.832  1.00  0.00     0.293 HD
ENDBRANCH  10  35
TORSDOF 9
ENDMDL
MODEL 9
REMARK VINA RESULT:    -5.960      5.453      9.546
REMARK INTER + INTRA:          -9.009
REMARK INTER:                  -8.072
REMARK INTRA:                  -0.937
REMARK UNBOUND:                -0.958
REMARK SMILES O=c1c(-c2ccc(O)cc2)coc2c([C@H]3O[C@H](CO)[C@H](O)[C@@H](O)[C@H]3O)c(O)ccc12
REMARK SMILES IDX 3 1 11 2 12 3 13 4 30 5 2 6 1 7 29 8 28 9 26 10 14 11 4 12
REMARK SMILES IDX 5 13 6 14 7 15 10 16 9 17 8 18 15 20 24 21 16 22 22 23 17 24
REMARK SMILES IDX 20 25 25 26 23 28 18 30 19 31 21 33 27 35
REMARK H PARENT 8 19 25 27 23 29 19 32 21 34 27 36
REMARK Flexibility Score: inf
ROOT
ATOM      1  C   UNL     1      50.232 -27.586   5.616  1.00  0.00     0.065 A 
ATOM      2  C   UNL     1      50.534 -28.871   5.142  1.00  0.00     0.208 A 
ATOM      3  O   UNL     1      51.333 -29.042   4.097  1.00  0.00    -0.463 OA
ATOM      4  C   UNL     1      51.895 -28.032   3.437  1.00  0.00     0.147 A 
ATOM      5  C   UNL     1      51.646 -26.702   3.849  1.00  0.00     0.066 A 
ATOM      6  C   UNL     1      50.796 -26.485   4.948  1.00  0.00     0.200 A 
ATOM      7  O   UNL     1      50.526 -25.309   5.321  1.00  0.00    -0.288 OA
ATOM      8  C   UNL     1      52.250 -25.639   3.160  1.00  0.00     0.020 A 
ATOM      9  C   UNL     1      53.102 -25.891   2.088  1.00  0.00     0.047 A 
ATOM     10  C   UNL     1      53.361 -27.203   1.674  1.00  0.00     0.125 A 
ATOM     11  C   UNL     1      52.738 -28.292   2.330  1.00  0.00     0.069 A 
ENDROOT
BRANCH   1  12
ATOM     12  C   UNL     1      49.340 -27.422   6.791  1.00  0.00    -0.011 A 
ATOM     13  C   UNL     1      47.944 -27.507   6.639  1.00  0.00     0.013 A 
ATOM     14  C   UNL     1      47.101 -27.361   7.744  1.00  0.00     0.047 A 
ATOM     15  C   UNL     1      47.641 -27.133   9.016  1.00  0.00     0.115 A 
ATOM     16  C   UNL     1      49.874 -27.200   8.073  1.00  0.00     0.013 A 
ATOM     17  C   UNL     1      49.028 -27.055   9.176  1.00  0.00     0.047 A 
BRANCH  15  18
ATOM     18  O   UNL     1      46.812 -26.986  10.125  1.00  0.00    -0.508 OA
ATOM     19  H   UNL     1      46.446 -27.790  10.623  1.00  0.00     0.293 HD
ENDBRANCH  15  18
ENDBRANCH   1  12
BRANCH  11  20
ATOM     20  C   UNL     1      53.019 -29.733   1.915  1.00  0.00     0.188 C 
ATOM     21  C   UNL     1      54.296 -30.249   2.609  1.00  0.00     0.179 C 
ATOM     22  O   UNL     1      53.121 -29.824   0.500  1.00  0.00    -0.362 OA
ATOM     23  C   UNL     1      54.530 -31.715   2.213  1.00  0.00     0.177 C 
ATOM     24  C   UNL     1      53.276 -31.164   0.045  1.00  0.00     0.176 C 
ATOM     25  C   UNL     1      54.523 -31.844   0.675  1.00  0.00     0.177 C 
BRANCH  21  26
ATOM     26  O   UNL     1      55.399 -29.460   2.236  1.00  0.00    -0.387 OA
ATOM     27  H   UNL     1      56.053 -30.063   1.797  1.00  0.00     0.211 HD
ENDBRANCH  21  26
BRANCH  23  28
ATOM     28  O   UNL     1      55.759 -32.153   2.734  1.00  0.00    -0.387 OA
ATOM     29  H   UNL     1      56.060 -31.463   3.381  1.00  0.00     0.211 HD
ENDBRANCH  23  28
BRANCH  24  30
ATOM     30  C   UNL     1      51.959 -31.968   0.174  1.00  0.00     0.191 C 
BRANCH  30  31
ATOM     31  O   UNL     1      50.875 -31.237  -0.333  1.00  0.00    -0.394 OA
ATOM     32  H   UNL     1      50.618 -31.664  -1.192  1.00  0.00     0.210 HD
ENDBRANCH  30  31
ENDBRANCH  24  30
BRANCH  25  33
ATOM     33  O   UNL     1      54.648 -33.183   0.259  1.00  0.00    -0.388 OA
ATOM     34  H   UNL     1      55.309 -33.215  -0.481  1.00  0.00     0.211 HD
ENDBRANCH  25  33
ENDBRANCH  11  20
BRANCH  10  35
ATOM     35  O   UNL     1      54.242 -27.421   0.615  1.00  0.00    -0.507 OA
ATOM     36  H   UNL     1      54.047 -28.101  -0.110  1.00  0.00     0.293 HD
ENDBRANCH  10  35
TORSDOF 9
ENDMDL
