MODEL 1
REMARK VINA RESULT:    -2.981      0.000      0.000
REMARK INTER + INTRA:          -3.971
REMARK INTER:                  -3.853
REMARK INTRA:                  -0.119
REMARK UNBOUND:                -0.119
REMARK SMILES CCCCCCC(=O)[O-]
REMARK SMILES IDX 5 1 6 2 7 3 8 4 9 5 4 6 3 7 2 8 1 9
REMARK H PARENT
REMARK Flexibility Score: inf
ROOT
ATOM      1  C   UNL     1       6.230   5.165   0.311  1.00  0.00     0.006 C 
ENDROOT
BRANCH   1   2
ATOM      2  C   UNL     1       7.579   5.799  -0.042  1.00  0.00     0.053 C 
BRANCH   2   3
ATOM      3  C   UNL     1       8.687   4.812   0.148  1.00  0.00     0.041 C 
ATOM      4  O   UNL     1       9.070   4.096  -0.814  1.00  0.00    -0.550 OA
ATOM      5  O   UNL     1       9.266   4.648   1.401  1.00  0.00    -0.550 OA
ENDBRANCH   2   3
ENDBRANCH   1   2
BRANCH   1   6
ATOM      6  C   UNL     1       5.822   5.504   1.750  1.00  0.00     0.000 C 
BRANCH   6   7
ATOM      7  C   UNL     1       4.343   5.171   1.995  1.00  0.00    -0.000 C 
BRANCH   7   8
ATOM      8  C   UNL     1       4.098   4.556   3.382  1.00  0.00    -0.003 C 
ATOM      9  C   UNL     1       3.197   3.323   3.331  1.00  0.00     0.004 C 
ENDBRANCH   7   8
ENDBRANCH   6   7
ENDBRANCH   1   6
TORSDOF 5
ENDMDL
MODEL 2
REMARK VINA RESULT:    -2.934      0.804      1.566
REMARK INTER + INTRA:          -3.910
REMARK INTER:                  -3.807
REMARK INTRA:                  -0.103
REMARK UNBOUND:                -0.119
REMARK SMILES CCCCCCC(=O)[O-]
REMARK SMILES IDX 5 1 6 2 7 3 8 4 9 5 4 6 3 7 2 8 1 9
REMARK H PARENT
REMARK Flexibility Score: inf
ROOT
ATOM      1  C   UNL     1       5.878   5.502   1.633  1.00  0.00     0.006 C 
ENDROOT
BRANCH   1   2
ATOM      2  C   UNL     1       6.347   5.065   0.242  1.00  0.00     0.053 C 
BRANCH   2   3
ATOM      3  C   UNL     1       7.842   5.034   0.180  1.00  0.00     0.041 C 
ATOM      4  O   UNL     1       8.517   5.981   0.661  1.00  0.00    -0.550 OA
ATOM      5  O   UNL     1       8.490   3.980  -0.453  1.00  0.00    -0.550 OA
ENDBRANCH   2   3
ENDBRANCH   1   2
BRANCH   1   6
ATOM      6  C   UNL     1       4.367   5.291   1.795  1.00  0.00     0.000 C 
BRANCH   6   7
ATOM      7  C   UNL     1       4.018   4.908   3.241  1.00  0.00    -0.000 C 
BRANCH   7   8
ATOM      8  C   UNL     1       3.647   3.424   3.386  1.00  0.00    -0.003 C 
ATOM      9  C   UNL     1       2.221   3.218   3.896  1.00  0.00     0.004 C 
ENDBRANCH   7   8
ENDBRANCH   6   7
ENDBRANCH   1   6
TORSDOF 5
ENDMDL
MODEL 3
REMARK VINA RESULT:    -2.708      9.923     10.275
REMARK INTER + INTRA:          -3.618
REMARK INTER:                  -3.410
REMARK INTRA:                  -0.209
REMARK UNBOUND:                -0.119
REMARK SMILES CCCCCCC(=O)[O-]
REMARK SMILES IDX 5 1 6 2 7 3 8 4 9 5 4 6 3 7 2 8 1 9
REMARK H PARENT
REMARK Flexibility Score: inf
ROOT
ATOM      1  C   UNL     1      -2.743   4.337  -0.686  1.00  0.00     0.006 C 
ENDROOT
BRANCH   1   2
ATOM      2  C   UNL     1      -2.507   5.519  -1.631  1.00  0.00     0.053 C 
BRANCH   2   3
ATOM      3  C   UNL     1      -3.598   5.598  -2.653  1.00  0.00     0.041 C 
ATOM      4  O   UNL     1      -4.430   4.661  -2.764  1.00  0.00    -0.550 OA
ATOM      5  O   UNL     1      -3.665   6.685  -3.515  1.00  0.00    -0.550 OA
ENDBRANCH   2   3
ENDBRANCH   1   2
BRANCH   1   6
ATOM      6  C   UNL     1      -2.484   4.739   0.772  1.00  0.00     0.000 C 
BRANCH   6   7
ATOM      7  C   UNL     1      -2.753   6.237   0.985  1.00  0.00    -0.000 C 
BRANCH   7   8
ATOM      8  C   UNL     1      -3.083   6.575   2.447  1.00  0.00    -0.003 C 
ATOM      9  C   UNL     1      -3.030   5.352   3.364  1.00  0.00     0.004 C 
ENDBRANCH   7   8
ENDBRANCH   6   7
ENDBRANCH   1   6
TORSDOF 5
ENDMDL
MODEL 4
REMARK VINA RESULT:    -2.699      4.109      5.913
REMARK INTER + INTRA:          -3.606
REMARK INTER:                  -3.474
REMARK INTRA:                  -0.132
REMARK UNBOUND:                -0.119
REMARK SMILES CCCCCCC(=O)[O-]
REMARK SMILES IDX 5 1 6 2 7 3 8 4 9 5 4 6 3 7 2 8 1 9
REMARK H PARENT
REMARK Flexibility Score: inf
ROOT
ATOM      1  C   UNL     1       4.218   4.649   3.311  1.00  0.00     0.006 C 
ENDROOT
BRANCH   1   2
ATOM      2  C   UNL     1       3.343   3.400   3.171  1.00  0.00     0.053 C 
BRANCH   2   3
ATOM      3  C   UNL     1       2.303   3.367   4.247  1.00  0.00     0.041 C 
ATOM      4  O   UNL     1       1.777   4.435   4.653  1.00  0.00    -0.550 OA
ATOM      5  O   UNL     1       1.951   2.158   4.837  1.00  0.00    -0.550 OA
ENDBRANCH   2   3
ENDBRANCH   1   2
BRANCH   1   6
ATOM      6  C   UNL     1       4.370   5.367   1.964  1.00  0.00     0.000 C 
BRANCH   6   7
ATOM      7  C   UNL     1       5.852   5.586   1.622  1.00  0.00    -0.000 C 
BRANCH   7   8
ATOM      8  C   UNL     1       6.231   5.014   0.247  1.00  0.00    -0.003 C 
ATOM      9  C   UNL     1       7.740   4.850   0.070  1.00  0.00     0.004 C 
ENDBRANCH   7   8
ENDBRANCH   6   7
ENDBRANCH   1   6
TORSDOF 5
ENDMDL
MODEL 5
REMARK VINA RESULT:    -2.696      8.498      9.512
REMARK INTER + INTRA:          -3.603
REMARK INTER:                  -3.455
REMARK INTRA:                  -0.148
REMARK UNBOUND:                -0.119
REMARK SMILES CCCCCCC(=O)[O-]
REMARK SMILES IDX 5 1 6 2 7 3 8 4 9 5 4 6 3 7 2 8 1 9
REMARK H PARENT
REMARK Flexibility Score: inf
ROOT
ATOM      1  C   UNL     1       4.121  -0.251  -6.171  1.00  0.00     0.006 C 
ENDROOT
BRANCH   1   2
ATOM      2  C   UNL     1       4.385   1.129  -5.561  1.00  0.00     0.053 C 
BRANCH   2   3
ATOM      3  C   UNL     1       3.123   1.701  -4.994  1.00  0.00     0.041 C 
ATOM      4  O   UNL     1       2.977   1.801  -3.748  1.00  0.00    -0.550 OA
ATOM      5  O   UNL     1       2.088   2.077  -5.841  1.00  0.00    -0.550 OA
ENDBRANCH   2   3
ENDBRANCH   1   2
BRANCH   1   6
ATOM      6  C   UNL     1       5.267  -1.220  -5.855  1.00  0.00     0.000 C 
BRANCH   6   7
ATOM      7  C   UNL     1       4.731  -2.527  -5.251  1.00  0.00    -0.000 C 
BRANCH   7   8
ATOM      8  C   UNL     1       5.761  -3.227  -4.351  1.00  0.00    -0.003 C 
ATOM      9  C   UNL     1       7.124  -2.535  -4.362  1.00  0.00     0.004 C 
ENDBRANCH   7   8
ENDBRANCH   6   7
ENDBRANCH   1   6
TORSDOF 5
ENDMDL
MODEL 6
REMARK VINA RESULT:    -2.628      9.636     10.611
REMARK INTER + INTRA:          -3.514
REMARK INTER:                  -3.334
REMARK INTRA:                  -0.181
REMARK UNBOUND:                -0.119
REMARK SMILES CCCCCCC(=O)[O-]
REMARK SMILES IDX 5 1 6 2 7 3 8 4 9 5 4 6 3 7 2 8 1 9
REMARK H PARENT
REMARK Flexibility Score: inf
ROOT
ATOM      1  C   UNL     1      -3.411   5.454  -1.470  1.00  0.00     0.006 C 
ENDROOT
BRANCH   1   2
ATOM      2  C   UNL     1      -4.175   4.921  -2.685  1.00  0.00     0.053 C 
BRANCH   2   3
ATOM      3  C   UNL     1      -3.661   5.548  -3.943  1.00  0.00     0.041 C 
ATOM      4  O   UNL     1      -4.115   5.189  -5.061  1.00  0.00    -0.550 OA
ATOM      5  O   UNL     1      -2.645   6.494  -3.885  1.00  0.00    -0.550 OA
ENDBRANCH   2   3
ENDBRANCH   1   2
BRANCH   1   6
ATOM      6  C   UNL     1      -2.789   4.306  -0.664  1.00  0.00     0.000 C 
BRANCH   6   7
ATOM      7  C   UNL     1      -2.446   4.759   0.763  1.00  0.00    -0.000 C 
BRANCH   7   8
ATOM      8  C   UNL     1      -2.851   6.217   1.033  1.00  0.00    -0.003 C 
ATOM      9  C   UNL     1      -3.016   6.519   2.522  1.00  0.00     0.004 C 
ENDBRANCH   7   8
ENDBRANCH   6   7
ENDBRANCH   1   6
TORSDOF 5
ENDMDL
MODEL 7
REMARK VINA RESULT:    -2.582     10.315     11.006
REMARK INTER + INTRA:          -3.455
REMARK INTER:                  -3.238
REMARK INTRA:                  -0.218
REMARK UNBOUND:                -0.119
REMARK SMILES CCCCCCC(=O)[O-]
REMARK SMILES IDX 5 1 6 2 7 3 8 4 9 5 4 6 3 7 2 8 1 9
REMARK H PARENT
REMARK Flexibility Score: inf
ROOT
ATOM      1  C   UNL     1       3.642  -4.309  -3.737  1.00  0.00     0.006 C 
ENDROOT
BRANCH   1   2
ATOM      2  C   UNL     1       4.942  -4.277  -4.545  1.00  0.00     0.053 C 
BRANCH   2   3
ATOM      3  C   UNL     1       5.532  -2.901  -4.533  1.00  0.00     0.041 C 
ATOM      4  O   UNL     1       6.634  -2.689  -3.962  1.00  0.00    -0.550 OA
ATOM      5  O   UNL     1       4.841  -1.844  -5.111  1.00  0.00    -0.550 OA
ENDBRANCH   2   3
ENDBRANCH   1   2
BRANCH   1   6
ATOM      6  C   UNL     1       3.507  -5.628  -2.965  1.00  0.00     0.000 C 
BRANCH   6   7
ATOM      7  C   UNL     1       4.854  -6.361  -2.889  1.00  0.00    -0.000 C 
BRANCH   7   8
ATOM      8  C   UNL     1       5.030  -7.138  -1.575  1.00  0.00    -0.003 C 
ATOM      9  C   UNL     1       3.884  -6.903  -0.591  1.00  0.00     0.004 C 
ENDBRANCH   7   8
ENDBRANCH   6   7
ENDBRANCH   1   6
TORSDOF 5
ENDMDL
MODEL 8
REMARK VINA RESULT:    -2.527      9.736     10.805
REMARK INTER + INTRA:          -3.384
REMARK INTER:                  -3.191
REMARK INTRA:                  -0.193
REMARK UNBOUND:                -0.119
REMARK SMILES CCCCCCC(=O)[O-]
REMARK SMILES IDX 5 1 6 2 7 3 8 4 9 5 4 6 3 7 2 8 1 9
REMARK H PARENT
REMARK Flexibility Score: inf
ROOT
ATOM      1  C   UNL     1      -2.564   4.749   0.745  1.00  0.00     0.006 C 
ENDROOT
BRANCH   1   2
ATOM      2  C   UNL     1      -2.709   6.270   0.848  1.00  0.00     0.053 C 
BRANCH   2   3
ATOM      3  C   UNL     1      -3.221   6.657   2.200  1.00  0.00     0.041 C 
ATOM      4  O   UNL     1      -3.641   7.825   2.408  1.00  0.00    -0.550 OA
ATOM      5  O   UNL     1      -3.189   5.740   3.244  1.00  0.00    -0.550 OA
ENDBRANCH   2   3
ENDBRANCH   1   2
BRANCH   1   6
ATOM      6  C   UNL     1      -2.642   4.287  -0.716  1.00  0.00     0.000 C 
BRANCH   6   7
ATOM      7  C   UNL     1      -3.141   5.420  -1.625  1.00  0.00    -0.000 C 
BRANCH   7   8
ATOM      8  C   UNL     1      -4.209   4.948  -2.623  1.00  0.00    -0.003 C 
ATOM      9  C   UNL     1      -5.304   5.990  -2.853  1.00  0.00     0.004 C 
ENDBRANCH   7   8
ENDBRANCH   6   7
ENDBRANCH   1   6
TORSDOF 5
ENDMDL
MODEL 9
REMARK VINA RESULT:    -2.520      3.349      5.047
REMARK INTER + INTRA:          -3.375
REMARK INTER:                  -3.270
REMARK INTRA:                  -0.105
REMARK UNBOUND:                -0.119
REMARK SMILES CCCCCCC(=O)[O-]
REMARK SMILES IDX 5 1 6 2 7 3 8 4 9 5 4 6 3 7 2 8 1 9
REMARK H PARENT
REMARK Flexibility Score: inf
ROOT
ATOM      1  C   UNL     1       3.148   3.318   3.292  1.00  0.00     0.006 C 
ENDROOT
BRANCH   1   2
ATOM      2  C   UNL     1       4.122   4.488   3.462  1.00  0.00     0.053 C 
BRANCH   2   3
ATOM      3  C   UNL     1       4.190   5.300   2.207  1.00  0.00     0.041 C 
ATOM      4  O   UNL     1       5.058   5.043   1.332  1.00  0.00    -0.550 OA
ATOM      5  O   UNL     1       3.325   6.373   2.026  1.00  0.00    -0.550 OA
ENDBRANCH   2   3
ENDBRANCH   1   2
BRANCH   1   6
ATOM      6  C   UNL     1       2.102   3.305   4.414  1.00  0.00     0.000 C 
BRANCH   6   7
ATOM      7  C   UNL     1       2.328   2.118   5.362  1.00  0.00    -0.000 C 
BRANCH   7   8
ATOM      8  C   UNL     1       1.012   1.533   5.898  1.00  0.00    -0.003 C 
ATOM      9  C   UNL     1       0.819   0.065   5.518  1.00  0.00     0.004 C 
ENDBRANCH   7   8
ENDBRANCH   6   7
ENDBRANCH   1   6
TORSDOF 5
ENDMDL
