MODEL 1
REMARK VINA RESULT:    -3.896      0.000      0.000
REMARK INTER + INTRA:         -13.579
REMARK INTER:                 -10.274
REMARK INTRA:                  -3.305
REMARK UNBOUND:                -3.305
REMARK SMILES CCCCCCCCCCCCCCCCCCCCCCCCCCCCCC(=O)[O-]
REMARK SMILES IDX 16 1 17 2 18 3 19 4 20 5 21 6 22 7 23 8 24 9 25 10 26 11
REMARK SMILES IDX 27 12 28 13 29 14 30 15 31 16 32 17 15 18 14 19 13 20 12 21
REMARK SMILES IDX 11 22 10 23 9 24 8 25 7 26 6 27 5 28 4 29 3 30 2 31 1 32
REMARK H PARENT
REMARK Flexibility Score: inf
ROOT
ATOM      1  C   UNL     1       6.490   2.198  -8.997  1.00  0.00     0.000 C 
ENDROOT
BRANCH   1   2
ATOM      2  C   UNL     1       4.961   2.354  -9.105  1.00  0.00     0.000 C 
BRANCH   2   3
ATOM      3  C   UNL     1       4.147   1.468  -8.145  1.00  0.00     0.000 C 
BRANCH   3   4
ATOM      4  C   UNL     1       3.985   2.031  -6.718  1.00  0.00     0.000 C 
BRANCH   4   5
ATOM      5  C   UNL     1       4.897   1.393  -5.652  1.00  0.00     0.000 C 
BRANCH   5   6
ATOM      6  C   UNL     1       4.559  -0.064  -5.286  1.00  0.00     0.000 C 
BRANCH   6   7
ATOM      7  C   UNL     1       5.672  -1.050  -5.678  1.00  0.00     0.000 C 
BRANCH   7   8
ATOM      8  C   UNL     1       6.882  -0.355  -6.325  1.00  0.00     0.000 C 
BRANCH   8   9
ATOM      9  C   UNL     1       7.491  -1.172  -7.479  1.00  0.00     0.000 C 
BRANCH   9  10
ATOM     10  C   UNL     1       6.520  -1.331  -8.661  1.00  0.00     0.000 C 
BRANCH  10  11
ATOM     11  C   UNL     1       5.772  -2.673  -8.634  1.00  0.00     0.000 C 
BRANCH  11  12
ATOM     12  C   UNL     1       6.690  -3.819  -9.082  1.00  0.00     0.000 C 
BRANCH  12  13
ATOM     13  C   UNL     1       6.911  -4.874  -7.983  1.00  0.00     0.006 C 
BRANCH  13  14
ATOM     14  C   UNL     1       6.250  -4.534  -6.638  1.00  0.00     0.053 C 
BRANCH  14  15
ATOM     15  C   UNL     1       7.113  -4.923  -5.475  1.00  0.00     0.041 C 
ATOM     16  O   UNL     1       6.800  -4.569  -4.308  1.00  0.00    -0.550 OA
ATOM     17  O   UNL     1       8.253  -5.690  -5.681  1.00  0.00    -0.550 OA
ENDBRANCH  14  15
ENDBRANCH  13  14
ENDBRANCH  12  13
ENDBRANCH  11  12
ENDBRANCH  10  11
ENDBRANCH   9  10
ENDBRANCH   8   9
ENDBRANCH   7   8
ENDBRANCH   6   7
ENDBRANCH   5   6
ENDBRANCH   4   5
ENDBRANCH   3   4
ENDBRANCH   2   3
ENDBRANCH   1   2
BRANCH   1  18
ATOM     18  C   UNL     1       7.165   3.259  -8.100  1.00  0.00     0.000 C 
BRANCH  18  19
ATOM     19  C   UNL     1       7.883   4.351  -8.913  1.00  0.00     0.000 C 
BRANCH  19  20
ATOM     20  C   UNL     1       7.441   5.770  -8.522  1.00  0.00     0.000 C 
BRANCH  20  21
ATOM     21  C   UNL     1       5.934   5.859  -8.220  1.00  0.00     0.000 C 
BRANCH  21  22
ATOM     22  C   UNL     1       5.135   6.440  -9.399  1.00  0.00     0.000 C 
BRANCH  22  23
ATOM     23  C   UNL     1       4.742   7.910  -9.174  1.00  0.00     0.000 C 
BRANCH  23  24
ATOM     24  C   UNL     1       4.861   8.337  -7.702  1.00  0.00    -0.000 C 
BRANCH  24  25
ATOM     25  C   UNL     1       3.798   9.367  -7.290  1.00  0.00    -0.000 C 
BRANCH  25  26
ATOM     26  C   UNL     1       3.548   9.320  -5.775  1.00  0.00    -0.000 C 
BRANCH  26  27
ATOM     27  C   UNL     1       4.484   8.342  -5.041  1.00  0.00    -0.000 C 
BRANCH  27  28
ATOM     28  C   UNL     1       4.552   8.527  -3.514  1.00  0.00    -0.000 C 
BRANCH  28  29
ATOM     29  C   UNL     1       5.973   8.813  -3.006  1.00  0.00    -0.000 C 
BRANCH  29  30
ATOM     30  C   UNL     1       5.938   9.449  -1.610  1.00  0.00    -0.000 C 
BRANCH  30  31
ATOM     31  C   UNL     1       5.286   8.535  -0.559  1.00  0.00    -0.003 C 
ATOM     32  C   UNL     1       6.312   7.781   0.286  1.00  0.00     0.004 C 
ENDBRANCH  30  31
ENDBRANCH  29  30
ENDBRANCH  28  29
ENDBRANCH  27  28
ENDBRANCH  26  27
ENDBRANCH  25  26
ENDBRANCH  24  25
ENDBRANCH  23  24
ENDBRANCH  22  23
ENDBRANCH  21  22
ENDBRANCH  20  21
ENDBRANCH  19  20
ENDBRANCH  18  19
ENDBRANCH   1  18
TORSDOF 28
ENDMDL
MODEL 2
REMARK VINA RESULT:    -3.804      4.778     11.080
REMARK INTER + INTRA:         -13.335
REMARK INTER:                 -10.338
REMARK INTRA:                  -2.997
REMARK UNBOUND:                -3.305
REMARK SMILES CCCCCCCCCCCCCCCCCCCCCCCCCCCCCC(=O)[O-]
REMARK SMILES IDX 16 1 17 2 18 3 19 4 20 5 21 6 22 7 23 8 24 9 25 10 26 11
REMARK SMILES IDX 27 12 28 13 29 14 30 15 31 16 32 17 15 18 14 19 13 20 12 21
REMARK SMILES IDX 11 22 10 23 9 24 8 25 7 26 6 27 5 28 4 29 3 30 2 31 1 32
REMARK H PARENT
REMARK Flexibility Score: inf
ROOT
ATOM      1  C   UNL     1       3.506   9.557  -6.653  1.00  0.00     0.000 C 
ENDROOT
BRANCH   1   2
ATOM      2  C   UNL     1       3.729   9.478  -5.131  1.00  0.00     0.000 C 
BRANCH   2   3
ATOM      3  C   UNL     1       4.456   8.210  -4.645  1.00  0.00     0.000 C 
BRANCH   3   4
ATOM      4  C   UNL     1       5.320   8.398  -3.381  1.00  0.00     0.000 C 
BRANCH   4   5
ATOM      5  C   UNL     1       5.287   9.812  -2.767  1.00  0.00     0.000 C 
BRANCH   5   6
ATOM      6  C   UNL     1       5.380   9.861  -1.231  1.00  0.00     0.000 C 
BRANCH   6   7
ATOM      7  C   UNL     1       4.879   8.570  -0.562  1.00  0.00     0.000 C 
BRANCH   7   8
ATOM      8  C   UNL     1       5.956   7.892   0.302  1.00  0.00     0.000 C 
BRANCH   8   9
ATOM      9  C   UNL     1       7.368   8.021  -0.297  1.00  0.00     0.000 C 
BRANCH   9  10
ATOM     10  C   UNL     1       8.437   8.287   0.777  1.00  0.00     0.000 C 
BRANCH  10  11
ATOM     11  C   UNL     1       8.116   9.517   1.639  1.00  0.00     0.000 C 
BRANCH  11  12
ATOM     12  C   UNL     1       8.245   9.186   3.133  1.00  0.00     0.000 C 
BRANCH  12  13
ATOM     13  C   UNL     1       6.972   8.549   3.718  1.00  0.00     0.006 C 
BRANCH  13  14
ATOM     14  C   UNL     1       5.758   9.490   3.767  1.00  0.00     0.053 C 
BRANCH  14  15
ATOM     15  C   UNL     1       4.630   8.909   4.565  1.00  0.00     0.041 C 
ATOM     16  O   UNL     1       3.450   8.966   4.128  1.00  0.00    -0.550 OA
ATOM     17  O   UNL     1       4.885   8.289   5.782  1.00  0.00    -0.550 OA
ENDBRANCH  14  15
ENDBRANCH  13  14
ENDBRANCH  12  13
ENDBRANCH  11  12
ENDBRANCH  10  11
ENDBRANCH   9  10
ENDBRANCH   8   9
ENDBRANCH   7   8
ENDBRANCH   6   7
ENDBRANCH   5   6
ENDBRANCH   4   5
ENDBRANCH   3   4
ENDBRANCH   2   3
ENDBRANCH   1   2
BRANCH   1  18
ATOM     18  C   UNL     1       4.614   8.875  -7.484  1.00  0.00     0.000 C 
BRANCH  18  19
ATOM     19  C   UNL     1       4.085   8.284  -8.803  1.00  0.00     0.000 C 
BRANCH  19  20
ATOM     20  C   UNL     1       4.915   7.087  -9.294  1.00  0.00     0.000 C 
BRANCH  20  21
ATOM     21  C   UNL     1       5.815   6.500  -8.192  1.00  0.00     0.000 C 
BRANCH  21  22
ATOM     22  C   UNL     1       6.363   5.111  -8.563  1.00  0.00     0.000 C 
BRANCH  22  23
ATOM     23  C   UNL     1       5.602   3.974  -7.859  1.00  0.00     0.000 C 
BRANCH  23  24
ATOM     24  C   UNL     1       4.568   3.298  -8.774  1.00  0.00    -0.000 C 
BRANCH  24  25
ATOM     25  C   UNL     1       4.110   1.929  -8.248  1.00  0.00    -0.000 C 
BRANCH  25  26
ATOM     26  C   UNL     1       3.878   1.975  -6.730  1.00  0.00    -0.000 C 
BRANCH  26  27
ATOM     27  C   UNL     1       4.391   0.717  -6.005  1.00  0.00    -0.000 C 
BRANCH  27  28
ATOM     28  C   UNL     1       5.826   0.820  -5.457  1.00  0.00    -0.000 C 
BRANCH  28  29
ATOM     29  C   UNL     1       6.838  -0.007  -6.263  1.00  0.00    -0.000 C 
BRANCH  29  30
ATOM     30  C   UNL     1       8.008   0.868  -6.736  1.00  0.00    -0.000 C 
BRANCH  30  31
ATOM     31  C   UNL     1       8.324   0.678  -8.228  1.00  0.00    -0.003 C 
ATOM     32  C   UNL     1       7.082   0.352  -9.058  1.00  0.00     0.004 C 
ENDBRANCH  30  31
ENDBRANCH  29  30
ENDBRANCH  28  29
ENDBRANCH  27  28
ENDBRANCH  26  27
ENDBRANCH  25  26
ENDBRANCH  24  25
ENDBRANCH  23  24
ENDBRANCH  22  23
ENDBRANCH  21  22
ENDBRANCH  20  21
ENDBRANCH  19  20
ENDBRANCH  18  19
ENDBRANCH   1  18
TORSDOF 28
ENDMDL
MODEL 3
REMARK VINA RESULT:    -3.783      1.305      3.035
REMARK INTER + INTRA:         -13.280
REMARK INTER:                  -9.558
REMARK INTRA:                  -3.722
REMARK UNBOUND:                -3.305
REMARK SMILES CCCCCCCCCCCCCCCCCCCCCCCCCCCCCC(=O)[O-]
REMARK SMILES IDX 16 1 17 2 18 3 19 4 20 5 21 6 22 7 23 8 24 9 25 10 26 11
REMARK SMILES IDX 27 12 28 13 29 14 30 15 31 16 32 17 15 18 14 19 13 20 12 21
REMARK SMILES IDX 11 22 10 23 9 24 8 25 7 26 6 27 5 28 4 29 3 30 2 31 1 32
REMARK H PARENT
REMARK Flexibility Score: inf
ROOT
ATOM      1  C   UNL     1       4.503   0.189  -5.314  1.00  0.00     0.000 C 
ENDROOT
BRANCH   1   2
ATOM      2  C   UNL     1       5.405  -0.926  -5.876  1.00  0.00     0.000 C 
BRANCH   2   3
ATOM      3  C   UNL     1       6.895  -0.556  -6.000  1.00  0.00     0.000 C 
BRANCH   3   4
ATOM      4  C   UNL     1       7.518  -0.817  -7.386  1.00  0.00     0.000 C 
BRANCH   4   5
ATOM      5  C   UNL     1       7.364   0.332  -8.403  1.00  0.00     0.000 C 
BRANCH   5   6
ATOM      6  C   UNL     1       6.732  -0.064  -9.750  1.00  0.00     0.000 C 
BRANCH   6   7
ATOM      7  C   UNL     1       5.203   0.092  -9.759  1.00  0.00     0.000 C 
BRANCH   7   8
ATOM      8  C   UNL     1       4.469  -1.209  -9.392  1.00  0.00     0.000 C 
BRANCH   8   9
ATOM      9  C   UNL     1       5.198  -2.467  -9.899  1.00  0.00     0.000 C 
BRANCH   9  10
ATOM     10  C   UNL     1       4.970  -3.684  -8.987  1.00  0.00     0.000 C 
BRANCH  10  11
ATOM     11  C   UNL     1       6.162  -3.958  -8.058  1.00  0.00     0.000 C 
BRANCH  11  12
ATOM     12  C   UNL     1       5.682  -4.360  -6.656  1.00  0.00     0.000 C 
BRANCH  12  13
ATOM     13  C   UNL     1       6.780  -4.226  -5.585  1.00  0.00     0.006 C 
BRANCH  13  14
ATOM     14  C   UNL     1       7.111  -5.535  -4.851  1.00  0.00     0.053 C 
BRANCH  14  15
ATOM     15  C   UNL     1       8.177  -6.318  -5.555  1.00  0.00     0.041 C 
ATOM     16  O   UNL     1       9.019  -5.730  -6.283  1.00  0.00    -0.550 OA
ATOM     17  O   UNL     1       8.249  -7.696  -5.393  1.00  0.00    -0.550 OA
ENDBRANCH  14  15
ENDBRANCH  13  14
ENDBRANCH  12  13
ENDBRANCH  11  12
ENDBRANCH  10  11
ENDBRANCH   9  10
ENDBRANCH   8   9
ENDBRANCH   7   8
ENDBRANCH   6   7
ENDBRANCH   5   6
ENDBRANCH   4   5
ENDBRANCH   3   4
ENDBRANCH   2   3
ENDBRANCH   1   2
BRANCH   1  18
ATOM     18  C   UNL     1       5.030   1.615  -5.582  1.00  0.00     0.000 C 
BRANCH  18  19
ATOM     19  C   UNL     1       4.457   2.225  -6.875  1.00  0.00     0.000 C 
BRANCH  19  20
ATOM     20  C   UNL     1       5.353   3.329  -7.459  1.00  0.00     0.000 C 
BRANCH  20  21
ATOM     21  C   UNL     1       4.901   3.778  -8.860  1.00  0.00     0.000 C 
BRANCH  21  22
ATOM     22  C   UNL     1       5.589   5.080  -9.306  1.00  0.00     0.000 C 
BRANCH  22  23
ATOM     23  C   UNL     1       5.963   5.984  -8.119  1.00  0.00     0.000 C 
BRANCH  23  24
ATOM     24  C   UNL     1       5.994   7.474  -8.495  1.00  0.00    -0.000 C 
BRANCH  24  25
ATOM     25  C   UNL     1       5.847   8.400  -7.278  1.00  0.00    -0.000 C 
BRANCH  25  26
ATOM     26  C   UNL     1       4.502   9.142  -7.315  1.00  0.00    -0.000 C 
BRANCH  26  27
ATOM     27  C   UNL     1       3.761   9.113  -5.966  1.00  0.00    -0.000 C 
BRANCH  27  28
ATOM     28  C   UNL     1       4.516   8.411  -4.822  1.00  0.00    -0.000 C 
BRANCH  28  29
ATOM     29  C   UNL     1       5.154   9.394  -3.830  1.00  0.00    -0.000 C 
BRANCH  29  30
ATOM     30  C   UNL     1       5.878   8.644  -2.704  1.00  0.00    -0.000 C 
BRANCH  30  31
ATOM     31  C   UNL     1       5.051   8.577  -1.410  1.00  0.00    -0.003 C 
ATOM     32  C   UNL     1       5.637   9.436  -0.289  1.00  0.00     0.004 C 
ENDBRANCH  30  31
ENDBRANCH  29  30
ENDBRANCH  28  29
ENDBRANCH  27  28
ENDBRANCH  26  27
ENDBRANCH  25  26
ENDBRANCH  24  25
ENDBRANCH  23  24
ENDBRANCH  22  23
ENDBRANCH  21  22
ENDBRANCH  20  21
ENDBRANCH  19  20
ENDBRANCH  18  19
ENDBRANCH   1  18
TORSDOF 28
ENDMDL
MODEL 4
REMARK VINA RESULT:    -3.710      3.750     10.134
REMARK INTER + INTRA:         -13.089
REMARK INTER:                  -8.097
REMARK INTRA:                  -4.991
REMARK UNBOUND:                -3.305
REMARK SMILES CCCCCCCCCCCCCCCCCCCCCCCCCCCCCC(=O)[O-]
REMARK SMILES IDX 16 1 17 2 18 3 19 4 20 5 21 6 22 7 23 8 24 9 25 10 26 11
REMARK SMILES IDX 27 12 28 13 29 14 30 15 31 16 32 17 15 18 14 19 13 20 12 21
REMARK SMILES IDX 11 22 10 23 9 24 8 25 7 26 6 27 5 28 4 29 3 30 2 31 1 32
REMARK H PARENT
REMARK Flexibility Score: inf
ROOT
ATOM      1  C   UNL     1       6.393  -0.791  -6.385  1.00  0.00     0.000 C 
ENDROOT
BRANCH   1   2
ATOM      2  C   UNL     1       7.739  -0.655  -7.120  1.00  0.00     0.000 C 
BRANCH   2   3
ATOM      3  C   UNL     1       8.528   0.629  -6.801  1.00  0.00     0.000 C 
BRANCH   3   4
ATOM      4  C   UNL     1       8.703   1.598  -7.988  1.00  0.00     0.000 C 
BRANCH   4   5
ATOM      5  C   UNL     1       8.537   3.092  -7.647  1.00  0.00     0.000 C 
BRANCH   5   6
ATOM      6  C   UNL     1       7.950   3.960  -8.775  1.00  0.00     0.000 C 
BRANCH   6   7
ATOM      7  C   UNL     1       6.890   4.954  -8.272  1.00  0.00     0.000 C 
BRANCH   7   8
ATOM      8  C   UNL     1       5.750   5.170  -9.281  1.00  0.00     0.000 C 
BRANCH   8   9
ATOM      9  C   UNL     1       5.175   6.597  -9.234  1.00  0.00     0.000 C 
BRANCH   9  10
ATOM     10  C   UNL     1       6.151   7.601  -8.598  1.00  0.00     0.000 C 
BRANCH  10  11
ATOM     11  C   UNL     1       5.439   8.837  -8.027  1.00  0.00     0.000 C 
BRANCH  11  12
ATOM     12  C   UNL     1       4.643   8.474  -6.765  1.00  0.00     0.000 C 
BRANCH  12  13
ATOM     13  C   UNL     1       5.321   8.957  -5.470  1.00  0.00     0.006 C 
BRANCH  13  14
ATOM     14  C   UNL     1       4.643   8.468  -4.180  1.00  0.00     0.053 C 
BRANCH  14  15
ATOM     15  C   UNL     1       5.532   8.629  -2.984  1.00  0.00     0.041 C 
ATOM     16  O   UNL     1       6.767   8.820  -3.133  1.00  0.00    -0.550 OA
ATOM     17  O   UNL     1       4.991   8.583  -1.705  1.00  0.00    -0.550 OA
ENDBRANCH  14  15
ENDBRANCH  13  14
ENDBRANCH  12  13
ENDBRANCH  11  12
ENDBRANCH  10  11
ENDBRANCH   9  10
ENDBRANCH   8   9
ENDBRANCH   7   8
ENDBRANCH   6   7
ENDBRANCH   5   6
ENDBRANCH   4   5
ENDBRANCH   3   4
ENDBRANCH   2   3
ENDBRANCH   1   2
BRANCH   1  18
ATOM     18  C   UNL     1       6.131   0.323  -5.347  1.00  0.00     0.000 C 
BRANCH  18  19
ATOM     19  C   UNL     1       4.872   1.147  -5.670  1.00  0.00     0.000 C 
BRANCH  19  20
ATOM     20  C   UNL     1       5.094   2.149  -6.814  1.00  0.00     0.000 C 
BRANCH  20  21
ATOM     21  C   UNL     1       3.823   2.387  -7.648  1.00  0.00     0.000 C 
BRANCH  21  22
ATOM     22  C   UNL     1       3.943   1.815  -9.071  1.00  0.00     0.000 C 
BRANCH  22  23
ATOM     23  C   UNL     1       5.385   1.410  -9.422  1.00  0.00     0.000 C 
BRANCH  23  24
ATOM     24  C   UNL     1       5.483  -0.024  -9.967  1.00  0.00    -0.000 C 
BRANCH  24  25
ATOM     25  C   UNL     1       4.434  -0.967  -9.357  1.00  0.00    -0.000 C 
BRANCH  25  26
ATOM     26  C   UNL     1       4.936  -2.419  -9.363  1.00  0.00    -0.000 C 
BRANCH  26  27
ATOM     27  C   UNL     1       6.295  -2.584 -10.068  1.00  0.00    -0.000 C 
BRANCH  27  28
ATOM     28  C   UNL     1       7.211  -3.669  -9.473  1.00  0.00    -0.000 C 
BRANCH  28  29
ATOM     29  C   UNL     1       6.600  -4.366  -8.249  1.00  0.00    -0.000 C 
BRANCH  29  30
ATOM     30  C   UNL     1       7.577  -4.349  -7.065  1.00  0.00    -0.000 C 
BRANCH  30  31
ATOM     31  C   UNL     1       6.924  -4.813  -5.752  1.00  0.00    -0.003 C 
ATOM     32  C   UNL     1       5.623  -4.072  -5.446  1.00  0.00     0.004 C 
ENDBRANCH  30  31
ENDBRANCH  29  30
ENDBRANCH  28  29
ENDBRANCH  27  28
ENDBRANCH  26  27
ENDBRANCH  25  26
ENDBRANCH  24  25
ENDBRANCH  23  24
ENDBRANCH  22  23
ENDBRANCH  21  22
ENDBRANCH  20  21
ENDBRANCH  19  20
ENDBRANCH  18  19
ENDBRANCH   1  18
TORSDOF 28
ENDMDL
MODEL 5
REMARK VINA RESULT:    -3.690      2.441      4.652
REMARK INTER + INTRA:         -13.034
REMARK INTER:                  -7.876
REMARK INTRA:                  -5.158
REMARK UNBOUND:                -3.305
REMARK SMILES CCCCCCCCCCCCCCCCCCCCCCCCCCCCCC(=O)[O-]
REMARK SMILES IDX 16 1 17 2 18 3 19 4 20 5 21 6 22 7 23 8 24 9 25 10 26 11
REMARK SMILES IDX 27 12 28 13 29 14 30 15 31 16 32 17 15 18 14 19 13 20 12 21
REMARK SMILES IDX 11 22 10 23 9 24 8 25 7 26 6 27 5 28 4 29 3 30 2 31 1 32
REMARK H PARENT
REMARK Flexibility Score: inf
ROOT
ATOM      1  C   UNL     1       4.751  -0.490  -5.597  1.00  0.00     0.000 C 
ENDROOT
BRANCH   1   2
ATOM      2  C   UNL     1       5.971  -1.217  -6.193  1.00  0.00     0.000 C 
BRANCH   2   3
ATOM      3  C   UNL     1       7.254  -0.370  -6.282  1.00  0.00     0.000 C 
BRANCH   3   4
ATOM      4  C   UNL     1       7.886  -0.290  -7.686  1.00  0.00     0.000 C 
BRANCH   4   5
ATOM      5  C   UNL     1       7.206   0.695  -8.658  1.00  0.00     0.000 C 
BRANCH   5   6
ATOM      6  C   UNL     1       6.504   0.046  -9.865  1.00  0.00     0.000 C 
BRANCH   6   7
ATOM      7  C   UNL     1       4.972   0.058  -9.740  1.00  0.00     0.000 C 
BRANCH   7   8
ATOM      8  C   UNL     1       4.388  -1.333  -9.443  1.00  0.00     0.000 C 
BRANCH   8   9
ATOM      9  C   UNL     1       5.369  -2.473  -9.770  1.00  0.00     0.000 C 
BRANCH   9  10
ATOM     10  C   UNL     1       4.946  -3.810  -9.138  1.00  0.00     0.000 C 
BRANCH  10  11
ATOM     11  C   UNL     1       6.147  -4.673  -8.722  1.00  0.00     0.000 C 
BRANCH  11  12
ATOM     12  C   UNL     1       7.378  -3.799  -8.443  1.00  0.00     0.000 C 
BRANCH  12  13
ATOM     13  C   UNL     1       8.034  -4.104  -7.084  1.00  0.00     0.006 C 
BRANCH  13  14
ATOM     14  C   UNL     1       7.397  -5.279  -6.324  1.00  0.00     0.053 C 
BRANCH  14  15
ATOM     15  C   UNL     1       6.663  -4.821  -5.100  1.00  0.00     0.041 C 
ATOM     16  O   UNL     1       5.544  -4.255  -5.207  1.00  0.00    -0.550 OA
ATOM     17  O   UNL     1       7.209  -5.036  -3.841  1.00  0.00    -0.550 OA
ENDBRANCH  14  15
ENDBRANCH  13  14
ENDBRANCH  12  13
ENDBRANCH  11  12
ENDBRANCH  10  11
ENDBRANCH   9  10
ENDBRANCH   8   9
ENDBRANCH   7   8
ENDBRANCH   6   7
ENDBRANCH   5   6
ENDBRANCH   4   5
ENDBRANCH   3   4
ENDBRANCH   2   3
ENDBRANCH   1   2
BRANCH   1  18
ATOM     18  C   UNL     1       4.935   1.038  -5.468  1.00  0.00     0.000 C 
BRANCH  18  19
ATOM     19  C   UNL     1       4.176   1.819  -6.555  1.00  0.00     0.000 C 
BRANCH  19  20
ATOM     20  C   UNL     1       4.953   3.046  -7.057  1.00  0.00     0.000 C 
BRANCH  20  21
ATOM     21  C   UNL     1       4.672   3.361  -8.537  1.00  0.00     0.000 C 
BRANCH  21  22
ATOM     22  C   UNL     1       5.778   4.219  -9.173  1.00  0.00     0.000 C 
BRANCH  22  23
ATOM     23  C   UNL     1       6.909   4.547  -8.183  1.00  0.00     0.000 C 
BRANCH  23  24
ATOM     24  C   UNL     1       8.296   4.153  -8.716  1.00  0.00    -0.000 C 
BRANCH  24  25
ATOM     25  C   UNL     1       9.444   4.820  -7.943  1.00  0.00    -0.000 C 
BRANCH  25  26
ATOM     26  C   UNL     1       9.780   6.195  -8.540  1.00  0.00    -0.000 C 
BRANCH  26  27
ATOM     27  C   UNL     1       9.685   7.337  -7.512  1.00  0.00    -0.000 C 
BRANCH  27  28
ATOM     28  C   UNL     1       8.475   8.273  -7.686  1.00  0.00    -0.000 C 
BRANCH  28  29
ATOM     29  C   UNL     1       7.682   7.997  -8.972  1.00  0.00    -0.000 C 
BRANCH  29  30
ATOM     30  C   UNL     1       6.287   8.633  -8.903  1.00  0.00    -0.000 C 
BRANCH  30  31
ATOM     31  C   UNL     1       5.289   7.784  -8.099  1.00  0.00    -0.003 C 
ATOM     32  C   UNL     1       4.910   8.423  -6.764  1.00  0.00     0.004 C 
ENDBRANCH  30  31
ENDBRANCH  29  30
ENDBRANCH  28  29
ENDBRANCH  27  28
ENDBRANCH  26  27
ENDBRANCH  25  26
ENDBRANCH  24  25
ENDBRANCH  23  24
ENDBRANCH  22  23
ENDBRANCH  21  22
ENDBRANCH  20  21
ENDBRANCH  19  20
ENDBRANCH  18  19
ENDBRANCH   1  18
TORSDOF 28
ENDMDL
MODEL 6
REMARK VINA RESULT:    -3.631      2.534      6.150
REMARK INTER + INTRA:         -12.879
REMARK INTER:                 -11.312
REMARK INTRA:                  -1.567
REMARK UNBOUND:                -3.305
REMARK SMILES CCCCCCCCCCCCCCCCCCCCCCCCCCCCCC(=O)[O-]
REMARK SMILES IDX 16 1 17 2 18 3 19 4 20 5 21 6 22 7 23 8 24 9 25 10 26 11
REMARK SMILES IDX 27 12 28 13 29 14 30 15 31 16 32 17 15 18 14 19 13 20 12 21
REMARK SMILES IDX 11 22 10 23 9 24 8 25 7 26 6 27 5 28 4 29 3 30 2 31 1 32
REMARK H PARENT
REMARK Flexibility Score: inf
ROOT
ATOM      1  C   UNL     1       4.627   9.251  -6.957  1.00  0.00     0.000 C 
ENDROOT
BRANCH   1   2
ATOM      2  C   UNL     1       5.217   7.896  -7.389  1.00  0.00     0.000 C 
BRANCH   2   3
ATOM      3  C   UNL     1       5.484   7.755  -8.900  1.00  0.00     0.000 C 
BRANCH   3   4
ATOM      4  C   UNL     1       5.829   6.328  -9.369  1.00  0.00     0.000 C 
BRANCH   4   5
ATOM      5  C   UNL     1       5.938   5.274  -8.249  1.00  0.00     0.000 C 
BRANCH   5   6
ATOM      6  C   UNL     1       5.364   3.888  -8.594  1.00  0.00     0.000 C 
BRANCH   6   7
ATOM      7  C   UNL     1       5.805   2.797  -7.604  1.00  0.00     0.000 C 
BRANCH   7   8
ATOM      8  C   UNL     1       4.783   2.566  -6.479  1.00  0.00     0.000 C 
BRANCH   8   9
ATOM      9  C   UNL     1       3.940   1.295  -6.692  1.00  0.00     0.000 C 
BRANCH   9  10
ATOM     10  C   UNL     1       4.808   0.033  -6.831  1.00  0.00     0.000 C 
BRANCH  10  11
ATOM     11  C   UNL     1       4.957  -0.730  -5.507  1.00  0.00     0.000 C 
BRANCH  11  12
ATOM     12  C   UNL     1       6.228  -1.592  -5.512  1.00  0.00     0.000 C 
BRANCH  12  13
ATOM     13  C   UNL     1       6.104  -2.837  -6.409  1.00  0.00     0.006 C 
BRANCH  13  14
ATOM     14  C   UNL     1       5.779  -4.133  -5.651  1.00  0.00     0.053 C 
BRANCH  14  15
ATOM     15  C   UNL     1       7.006  -4.761  -5.061  1.00  0.00     0.041 C 
ATOM     16  O   UNL     1       7.109  -4.900  -3.814  1.00  0.00    -0.550 OA
ATOM     17  O   UNL     1       8.028  -5.204  -5.890  1.00  0.00    -0.550 OA
ENDBRANCH  14  15
ENDBRANCH  13  14
ENDBRANCH  12  13
ENDBRANCH  11  12
ENDBRANCH  10  11
ENDBRANCH   9  10
ENDBRANCH   8   9
ENDBRANCH   7   8
ENDBRANCH   6   7
ENDBRANCH   5   6
ENDBRANCH   4   5
ENDBRANCH   3   4
ENDBRANCH   2   3
ENDBRANCH   1   2
BRANCH   1  18
ATOM     18  C   UNL     1       3.859   9.200  -5.618  1.00  0.00     0.000 C 
BRANCH  18  19
ATOM     19  C   UNL     1       4.494   8.227  -4.608  1.00  0.00     0.000 C 
BRANCH  19  20
ATOM     20  C   UNL     1       4.907   8.915  -3.297  1.00  0.00     0.000 C 
BRANCH  20  21
ATOM     21  C   UNL     1       6.416   8.805  -3.021  1.00  0.00     0.000 C 
BRANCH  21  22
ATOM     22  C   UNL     1       6.715   8.168  -1.653  1.00  0.00     0.000 C 
BRANCH  22  23
ATOM     23  C   UNL     1       8.117   7.537  -1.593  1.00  0.00     0.000 C 
BRANCH  23  24
ATOM     24  C   UNL     1       8.855   7.857  -0.283  1.00  0.00    -0.000 C 
BRANCH  24  25
ATOM     25  C   UNL     1       7.903   8.071   0.903  1.00  0.00    -0.000 C 
BRANCH  25  26
ATOM     26  C   UNL     1       8.273   9.345   1.679  1.00  0.00    -0.000 C 
BRANCH  26  27
ATOM     27  C   UNL     1       7.700   9.366   3.108  1.00  0.00    -0.000 C 
BRANCH  27  28
ATOM     28  C   UNL     1       8.150   8.201   4.008  1.00  0.00    -0.000 C 
BRANCH  28  29
ATOM     29  C   UNL     1       6.974   7.381   4.560  1.00  0.00    -0.000 C 
BRANCH  29  30
ATOM     30  C   UNL     1       5.838   8.300   5.030  1.00  0.00    -0.000 C 
BRANCH  30  31
ATOM     31  C   UNL     1       5.487   8.098   6.513  1.00  0.00    -0.003 C 
ATOM     32  C   UNL     1       6.309   6.988   7.168  1.00  0.00     0.004 C 
ENDBRANCH  30  31
ENDBRANCH  29  30
ENDBRANCH  28  29
ENDBRANCH  27  28
ENDBRANCH  26  27
ENDBRANCH  25  26
ENDBRANCH  24  25
ENDBRANCH  23  24
ENDBRANCH  22  23
ENDBRANCH  21  22
ENDBRANCH  20  21
ENDBRANCH  19  20
ENDBRANCH  18  19
ENDBRANCH   1  18
TORSDOF 28
ENDMDL
MODEL 7
REMARK VINA RESULT:    -3.603      5.128      7.980
REMARK INTER + INTRA:         -12.806
REMARK INTER:                  -9.393
REMARK INTRA:                  -3.413
REMARK UNBOUND:                -3.305
REMARK SMILES CCCCCCCCCCCCCCCCCCCCCCCCCCCCCC(=O)[O-]
REMARK SMILES IDX 16 1 17 2 18 3 19 4 20 5 21 6 22 7 23 8 24 9 25 10 26 11
REMARK SMILES IDX 27 12 28 13 29 14 30 15 31 16 32 17 15 18 14 19 13 20 12 21
REMARK SMILES IDX 11 22 10 23 9 24 8 25 7 26 6 27 5 28 4 29 3 30 2 31 1 32
REMARK H PARENT
REMARK Flexibility Score: inf
ROOT
ATOM      1  C   UNL     1       6.029  -1.670  -5.671  1.00  0.00     0.000 C 
ENDROOT
BRANCH   1   2
ATOM      2  C   UNL     1       6.023  -2.148  -7.136  1.00  0.00     0.000 C 
BRANCH   2   3
ATOM      3  C   UNL     1       5.871  -3.669  -7.323  1.00  0.00     0.000 C 
BRANCH   3   4
ATOM      4  C   UNL     1       5.837  -4.144  -8.790  1.00  0.00     0.000 C 
BRANCH   4   5
ATOM      5  C   UNL     1       4.496  -3.931  -9.519  1.00  0.00     0.000 C 
BRANCH   5   6
ATOM      6  C   UNL     1       3.502  -5.103  -9.421  1.00  0.00     0.000 C 
BRANCH   6   7
ATOM      7  C   UNL     1       2.088  -4.726  -9.893  1.00  0.00     0.000 C 
BRANCH   7   8
ATOM      8  C   UNL     1       1.003  -5.650  -9.315  1.00  0.00     0.000 C 
BRANCH   8   9
ATOM      9  C   UNL     1       1.569  -6.694  -8.335  1.00  0.00     0.000 C 
BRANCH   9  10
ATOM     10  C   UNL     1       1.457  -8.129  -8.878  1.00  0.00     0.000 C 
BRANCH  10  11
ATOM     11  C   UNL     1       0.503  -9.001  -8.048  1.00  0.00     0.000 C 
BRANCH  11  12
ATOM     12  C   UNL     1       0.042  -8.259  -6.785  1.00  0.00     0.000 C 
BRANCH  12  13
ATOM     13  C   UNL     1      -1.066  -9.007  -6.022  1.00  0.00     0.006 C 
BRANCH  13  14
ATOM     14  C   UNL     1      -2.432  -9.004  -6.726  1.00  0.00     0.053 C 
BRANCH  14  15
ATOM     15  C   UNL     1      -3.560  -8.793  -5.761  1.00  0.00     0.041 C 
ATOM     16  O   UNL     1      -3.319  -8.554  -4.548  1.00  0.00    -0.550 OA
ATOM     17  O   UNL     1      -4.875  -8.845  -6.206  1.00  0.00    -0.550 OA
ENDBRANCH  14  15
ENDBRANCH  13  14
ENDBRANCH  12  13
ENDBRANCH  11  12
ENDBRANCH  10  11
ENDBRANCH   9  10
ENDBRANCH   8   9
ENDBRANCH   7   8
ENDBRANCH   6   7
ENDBRANCH   5   6
ENDBRANCH   4   5
ENDBRANCH   3   4
ENDBRANCH   2   3
ENDBRANCH   1   2
BRANCH   1  18
ATOM     18  C   UNL     1       4.849  -0.741  -5.311  1.00  0.00     0.000 C 
BRANCH  18  19
ATOM     19  C   UNL     1       5.309   0.675  -4.921  1.00  0.00     0.000 C 
BRANCH  19  20
ATOM     20  C   UNL     1       5.032   1.714  -6.019  1.00  0.00     0.000 C 
BRANCH  20  21
ATOM     21  C   UNL     1       3.938   1.259  -7.002  1.00  0.00     0.000 C 
BRANCH  21  22
ATOM     22  C   UNL     1       4.502   0.938  -8.397  1.00  0.00     0.000 C 
BRANCH  22  23
ATOM     23  C   UNL     1       3.784   1.716  -9.513  1.00  0.00     0.000 C 
BRANCH  23  24
ATOM     24  C   UNL     1       3.724   3.228  -9.238  1.00  0.00    -0.000 C 
BRANCH  24  25
ATOM     25  C   UNL     1       5.056   3.939  -9.521  1.00  0.00    -0.000 C 
BRANCH  25  26
ATOM     26  C   UNL     1       5.723   4.393  -8.213  1.00  0.00    -0.000 C 
BRANCH  26  27
ATOM     27  C   UNL     1       7.233   4.654  -8.366  1.00  0.00    -0.000 C 
BRANCH  27  28
ATOM     28  C   UNL     1       8.145   3.524  -7.854  1.00  0.00    -0.000 C 
BRANCH  28  29
ATOM     29  C   UNL     1       8.458   2.472  -8.928  1.00  0.00    -0.000 C 
BRANCH  29  30
ATOM     30  C   UNL     1       8.081   1.065  -8.444  1.00  0.00    -0.000 C 
BRANCH  30  31
ATOM     31  C   UNL     1       8.489   0.813  -6.983  1.00  0.00    -0.003 C 
ATOM     32  C   UNL     1       9.399  -0.405  -6.826  1.00  0.00     0.004 C 
ENDBRANCH  30  31
ENDBRANCH  29  30
ENDBRANCH  28  29
ENDBRANCH  27  28
ENDBRANCH  26  27
ENDBRANCH  25  26
ENDBRANCH  24  25
ENDBRANCH  23  24
ENDBRANCH  22  23
ENDBRANCH  21  22
ENDBRANCH  20  21
ENDBRANCH  19  20
ENDBRANCH  18  19
ENDBRANCH   1  18
TORSDOF 28
ENDMDL
MODEL 8
REMARK VINA RESULT:    -3.585      1.173      2.203
REMARK INTER + INTRA:         -12.759
REMARK INTER:                  -8.809
REMARK INTRA:                  -3.950
REMARK UNBOUND:                -3.305
REMARK SMILES CCCCCCCCCCCCCCCCCCCCCCCCCCCCCC(=O)[O-]
REMARK SMILES IDX 16 1 17 2 18 3 19 4 20 5 21 6 22 7 23 8 24 9 25 10 26 11
REMARK SMILES IDX 27 12 28 13 29 14 30 15 31 16 32 17 15 18 14 19 13 20 12 21
REMARK SMILES IDX 11 22 10 23 9 24 8 25 7 26 6 27 5 28 4 29 3 30 2 31 1 32
REMARK H PARENT
REMARK Flexibility Score: inf
ROOT
ATOM      1  C   UNL     1       7.866   2.115  -7.692  1.00  0.00     0.000 C 
ENDROOT
BRANCH   1   2
ATOM      2  C   UNL     1       7.669   1.348  -9.013  1.00  0.00     0.000 C 
BRANCH   2   3
ATOM      3  C   UNL     1       6.264   0.749  -9.214  1.00  0.00     0.000 C 
BRANCH   3   4
ATOM      4  C   UNL     1       5.246   1.689  -9.889  1.00  0.00     0.000 C 
BRANCH   4   5
ATOM      5  C   UNL     1       4.257   2.384  -8.932  1.00  0.00     0.000 C 
BRANCH   5   6
ATOM      6  C   UNL     1       3.862   1.565  -7.690  1.00  0.00     0.000 C 
BRANCH   6   7
ATOM      7  C   UNL     1       4.278   2.241  -6.373  1.00  0.00     0.000 C 
BRANCH   7   8
ATOM      8  C   UNL     1       5.175   1.345  -5.502  1.00  0.00     0.000 C 
BRANCH   8   9
ATOM      9  C   UNL     1       4.620  -0.082  -5.347  1.00  0.00     0.000 C 
BRANCH   9  10
ATOM     10  C   UNL     1       5.471  -1.125  -6.092  1.00  0.00     0.000 C 
BRANCH  10  11
ATOM     11  C   UNL     1       6.941  -1.115  -5.648  1.00  0.00     0.000 C 
BRANCH  11  12
ATOM     12  C   UNL     1       7.863  -1.541  -6.800  1.00  0.00     0.000 C 
BRANCH  12  13
ATOM     13  C   UNL     1       7.314  -2.738  -7.595  1.00  0.00     0.006 C 
BRANCH  13  14
ATOM     14  C   UNL     1       7.865  -4.102  -7.148  1.00  0.00     0.053 C 
BRANCH  14  15
ATOM     15  C   UNL     1       6.985  -4.754  -6.125  1.00  0.00     0.041 C 
ATOM     16  O   UNL     1       5.752  -4.886  -6.342  1.00  0.00    -0.550 OA
ATOM     17  O   UNL     1       7.531  -5.229  -4.939  1.00  0.00    -0.550 OA
ENDBRANCH  14  15
ENDBRANCH  13  14
ENDBRANCH  12  13
ENDBRANCH  11  12
ENDBRANCH  10  11
ENDBRANCH   9  10
ENDBRANCH   8   9
ENDBRANCH   7   8
ENDBRANCH   6   7
ENDBRANCH   5   6
ENDBRANCH   4   5
ENDBRANCH   3   4
ENDBRANCH   2   3
ENDBRANCH   1   2
BRANCH   1  18
ATOM     18  C   UNL     1       8.135   3.624  -7.879  1.00  0.00     0.000 C 
BRANCH  18  19
ATOM     19  C   UNL     1       8.182   4.037  -9.361  1.00  0.00     0.000 C 
BRANCH  19  20
ATOM     20  C   UNL     1       7.412   5.338  -9.640  1.00  0.00     0.000 C 
BRANCH  20  21
ATOM     21  C   UNL     1       6.183   5.505  -8.730  1.00  0.00     0.000 C 
BRANCH  21  22
ATOM     22  C   UNL     1       4.923   5.905  -9.517  1.00  0.00     0.000 C 
BRANCH  22  23
ATOM     23  C   UNL     1       4.595   7.402  -9.379  1.00  0.00     0.000 C 
BRANCH  23  24
ATOM     24  C   UNL     1       5.371   8.076  -8.236  1.00  0.00    -0.000 C 
BRANCH  24  25
ATOM     25  C   UNL     1       4.470   8.916  -7.317  1.00  0.00    -0.000 C 
BRANCH  25  26
ATOM     26  C   UNL     1       5.110   9.086  -5.931  1.00  0.00    -0.000 C 
BRANCH  26  27
ATOM     27  C   UNL     1       4.212   8.579  -4.788  1.00  0.00    -0.000 C 
BRANCH  27  28
ATOM     28  C   UNL     1       4.953   8.216  -3.488  1.00  0.00    -0.000 C 
BRANCH  28  29
ATOM     29  C   UNL     1       6.309   8.925  -3.351  1.00  0.00    -0.000 C 
BRANCH  29  30
ATOM     30  C   UNL     1       7.191   8.225  -2.308  1.00  0.00    -0.000 C 
BRANCH  30  31
ATOM     31  C   UNL     1       7.893   9.217  -1.366  1.00  0.00    -0.003 C 
ATOM     32  C   UNL     1       7.849   8.773   0.096  1.00  0.00     0.004 C 
ENDBRANCH  30  31
ENDBRANCH  29  30
ENDBRANCH  28  29
ENDBRANCH  27  28
ENDBRANCH  26  27
ENDBRANCH  25  26
ENDBRANCH  24  25
ENDBRANCH  23  24
ENDBRANCH  22  23
ENDBRANCH  21  22
ENDBRANCH  20  21
ENDBRANCH  19  20
ENDBRANCH  18  19
ENDBRANCH   1  18
TORSDOF 28
ENDMDL
MODEL 9
REMARK VINA RESULT:    -3.572      3.781     10.166
REMARK INTER + INTRA:         -12.724
REMARK INTER:                  -8.685
REMARK INTRA:                  -4.039
REMARK UNBOUND:                -3.305
REMARK SMILES CCCCCCCCCCCCCCCCCCCCCCCCCCCCCC(=O)[O-]
REMARK SMILES IDX 16 1 17 2 18 3 19 4 20 5 21 6 22 7 23 8 24 9 25 10 26 11
REMARK SMILES IDX 27 12 28 13 29 14 30 15 31 16 32 17 15 18 14 19 13 20 12 21
REMARK SMILES IDX 11 22 10 23 9 24 8 25 7 26 6 27 5 28 4 29 3 30 2 31 1 32
REMARK H PARENT
REMARK Flexibility Score: inf
ROOT
ATOM      1  C   UNL     1       9.372   2.182  -6.771  1.00  0.00     0.000 C 
ENDROOT
BRANCH   1   2
ATOM      2  C   UNL     1       9.765   3.106  -7.939  1.00  0.00     0.000 C 
BRANCH   2   3
ATOM      3  C   UNL     1       9.273   4.560  -7.812  1.00  0.00     0.000 C 
BRANCH   3   4
ATOM      4  C   UNL     1       8.084   4.926  -8.724  1.00  0.00     0.000 C 
BRANCH   4   5
ATOM      5  C   UNL     1       6.693   4.556  -8.171  1.00  0.00     0.000 C 
BRANCH   5   6
ATOM      6  C   UNL     1       5.589   5.599  -8.424  1.00  0.00     0.000 C 
BRANCH   6   7
ATOM      7  C   UNL     1       6.043   7.035  -8.114  1.00  0.00     0.000 C 
BRANCH   7   8
ATOM      8  C   UNL     1       4.876   8.036  -8.091  1.00  0.00     0.000 C 
BRANCH   8   9
ATOM      9  C   UNL     1       5.211   9.323  -7.315  1.00  0.00     0.000 C 
BRANCH   9  10
ATOM     10  C   UNL     1       5.704   9.035  -5.887  1.00  0.00     0.000 C 
BRANCH  10  11
ATOM     11  C   UNL     1       4.554   8.731  -4.915  1.00  0.00     0.000 C 
BRANCH  11  12
ATOM     12  C   UNL     1       4.141   9.993  -4.144  1.00  0.00     0.000 C 
BRANCH  12  13
ATOM     13  C   UNL     1       4.724  10.043  -2.720  1.00  0.00     0.006 C 
BRANCH  13  14
ATOM     14  C   UNL     1       5.348   8.721  -2.246  1.00  0.00     0.053 C 
BRANCH  14  15
ATOM     15  C   UNL     1       5.424   8.642  -0.750  1.00  0.00     0.041 C 
ATOM     16  O   UNL     1       5.883   7.611  -0.193  1.00  0.00    -0.550 OA
ATOM     17  O   UNL     1       5.000   9.714   0.025  1.00  0.00    -0.550 OA
ENDBRANCH  14  15
ENDBRANCH  13  14
ENDBRANCH  12  13
ENDBRANCH  11  12
ENDBRANCH  10  11
ENDBRANCH   9  10
ENDBRANCH   8   9
ENDBRANCH   7   8
ENDBRANCH   6   7
ENDBRANCH   5   6
ENDBRANCH   4   5
ENDBRANCH   3   4
ENDBRANCH   2   3
ENDBRANCH   1   2
BRANCH   1  18
ATOM     18  C   UNL     1       8.483   0.991  -7.187  1.00  0.00     0.000 C 
BRANCH  18  19
ATOM     19  C   UNL     1       7.838   1.189  -8.571  1.00  0.00     0.000 C 
BRANCH  19  20
ATOM     20  C   UNL     1       8.080   0.002  -9.516  1.00  0.00     0.000 C 
BRANCH  20  21
ATOM     21  C   UNL     1       9.127  -0.985  -8.969  1.00  0.00     0.000 C 
BRANCH  21  22
ATOM     22  C   UNL     1       8.659  -2.447  -9.068  1.00  0.00     0.000 C 
BRANCH  22  23
ATOM     23  C   UNL     1       7.337  -2.589  -9.843  1.00  0.00     0.000 C 
BRANCH  23  24
ATOM     24  C   UNL     1       6.195  -3.136  -8.971  1.00  0.00    -0.000 C 
BRANCH  24  25
ATOM     25  C   UNL     1       5.664  -2.103  -7.965  1.00  0.00    -0.000 C 
BRANCH  25  26
ATOM     26  C   UNL     1       6.003  -2.516  -6.525  1.00  0.00    -0.000 C 
BRANCH  26  27
ATOM     27  C   UNL     1       6.180  -1.314  -5.579  1.00  0.00    -0.000 C 
BRANCH  27  28
ATOM     28  C   UNL     1       4.955  -0.389  -5.464  1.00  0.00    -0.000 C 
BRANCH  28  29
ATOM     29  C   UNL     1       5.333   1.086  -5.259  1.00  0.00    -0.000 C 
BRANCH  29  30
ATOM     30  C   UNL     1       4.690   1.971  -6.335  1.00  0.00    -0.000 C 
BRANCH  30  31
ATOM     31  C   UNL     1       4.114   1.156  -7.505  1.00  0.00    -0.003 C 
ATOM     32  C   UNL     1       4.154   1.916  -8.830  1.00  0.00     0.004 C 
ENDBRANCH  30  31
ENDBRANCH  29  30
ENDBRANCH  28  29
ENDBRANCH  27  28
ENDBRANCH  26  27
ENDBRANCH  25  26
ENDBRANCH  24  25
ENDBRANCH  23  24
ENDBRANCH  22  23
ENDBRANCH  21  22
ENDBRANCH  20  21
ENDBRANCH  19  20
ENDBRANCH  18  19
ENDBRANCH   1  18
TORSDOF 28
ENDMDL
