MODEL 1
REMARK VINA RESULT:    -3.917      0.000      0.000
REMARK INTER + INTRA:          -4.534
REMARK INTER:                  -4.489
REMARK INTRA:                  -0.045
REMARK UNBOUND:                -0.045
REMARK SMILES CC(C)[C@@H]([NH3+])C(=O)[O-]
REMARK SMILES IDX 4 1 5 2 6 6 7 7 8 8 2 9 1 10 3 11
REMARK H PARENT 5 3 5 4 5 5
REMARK Flexibility Score: inf
ROOT
ATOM      1  C   UNL     1      10.413  41.104  13.057  1.00  0.00     0.230 C 
ENDROOT
BRANCH   1   2
ATOM      2  N   UNL     1      10.879  42.428  12.617  1.00  0.00    -0.350 N 
ATOM      3  H   UNL     1      11.595  42.323  11.862  1.00  0.00     0.345 HD
ATOM      4  H   UNL     1      10.090  43.014  12.263  1.00  0.00     0.345 HD
ATOM      5  H   UNL     1      11.328  42.924  13.423  1.00  0.00     0.345 HD
ENDBRANCH   1   2
BRANCH   1   6
ATOM      6  C   UNL     1      11.313  40.548  14.134  1.00  0.00     0.099 C 
ATOM      7  O   UNL     1      11.691  39.347  14.104  1.00  0.00    -0.544 OA
ATOM      8  O   UNL     1      11.756  41.376  15.159  1.00  0.00    -0.544 OA
ENDBRANCH   1   6
BRANCH   1   9
ATOM      9  C   UNL     1       8.912  41.132  13.479  1.00  0.00     0.047 C 
ATOM     10  C   UNL     1       8.420  42.571  13.694  1.00  0.00     0.014 C 
ATOM     11  C   UNL     1       7.981  40.398  12.499  1.00  0.00     0.014 C 
ENDBRANCH   1   9
TORSDOF 3
ENDMDL
MODEL 2
REMARK VINA RESULT:    -3.689      2.256      3.200
REMARK INTER + INTRA:          -4.273
REMARK INTER:                  -4.354
REMARK INTRA:                   0.081
REMARK UNBOUND:                -0.045
REMARK SMILES CC(C)[C@@H]([NH3+])C(=O)[O-]
REMARK SMILES IDX 4 1 5 2 6 6 7 7 8 8 2 9 1 10 3 11
REMARK H PARENT 5 3 5 4 5 5
REMARK Flexibility Score: inf
ROOT
ATOM      1  C   UNL     1       9.303  41.540  13.747  1.00  0.00     0.230 C 
ENDROOT
BRANCH   1   2
ATOM      2  N   UNL     1       8.631  42.794  13.375  1.00  0.00    -0.350 N 
ATOM      3  H   UNL     1       7.682  42.836  13.810  1.00  0.00     0.345 HD
ATOM      4  H   UNL     1       9.183  43.629  13.674  1.00  0.00     0.345 HD
ATOM      5  H   UNL     1       8.512  42.830  12.335  1.00  0.00     0.345 HD
ENDBRANCH   1   2
BRANCH   1   6
ATOM      6  C   UNL     1       8.715  40.371  12.994  1.00  0.00     0.099 C 
ATOM      7  O   UNL     1       7.875  40.552  12.073  1.00  0.00    -0.544 OA
ATOM      8  O   UNL     1       9.125  39.078  13.297  1.00  0.00    -0.544 OA
ENDBRANCH   1   6
BRANCH   1   9
ATOM      9  C   UNL     1      10.850  41.645  13.588  1.00  0.00     0.047 C 
ATOM     10  C   UNL     1      11.332  43.093  13.760  1.00  0.00     0.014 C 
ATOM     11  C   UNL     1      11.633  40.714  14.530  1.00  0.00     0.014 C 
ENDBRANCH   1   9
TORSDOF 3
ENDMDL
MODEL 3
REMARK VINA RESULT:    -3.580      1.538      2.320
REMARK INTER + INTRA:          -4.148
REMARK INTER:                  -4.544
REMARK INTRA:                   0.397
REMARK UNBOUND:                -0.045
REMARK SMILES CC(C)[C@@H]([NH3+])C(=O)[O-]
REMARK SMILES IDX 4 1 5 2 6 6 7 7 8 8 2 9 1 10 3 11
REMARK H PARENT 5 3 5 4 5 5
REMARK Flexibility Score: inf
ROOT
ATOM      1  C   UNL     1      10.019  42.061  13.360  1.00  0.00     0.230 C 
ENDROOT
BRANCH   1   2
ATOM      2  N   UNL     1       8.947  43.045  13.569  1.00  0.00    -0.350 N 
ATOM      3  H   UNL     1       8.353  43.116  12.712  1.00  0.00     0.345 HD
ATOM      4  H   UNL     1       8.345  42.789  14.384  1.00  0.00     0.345 HD
ATOM      5  H   UNL     1       9.369  43.987  13.750  1.00  0.00     0.345 HD
ENDBRANCH   1   2
BRANCH   1   6
ATOM      6  C   UNL     1      11.263  42.450  14.123  1.00  0.00     0.099 C 
ATOM      7  O   UNL     1      11.925  43.471  13.802  1.00  0.00    -0.544 OA
ATOM      8  O   UNL     1      11.668  41.690  15.214  1.00  0.00    -0.544 OA
ENDBRANCH   1   6
BRANCH   1   9
ATOM      9  C   UNL     1       9.542  40.611  13.680  1.00  0.00     0.047 C 
ATOM     10  C   UNL     1       8.335  40.217  12.815  1.00  0.00     0.014 C 
ATOM     11  C   UNL     1      10.651  39.553  13.549  1.00  0.00     0.014 C 
ENDBRANCH   1   9
TORSDOF 3
ENDMDL
MODEL 4
REMARK VINA RESULT:    -3.556      2.212      2.912
REMARK INTER + INTRA:          -4.120
REMARK INTER:                  -4.304
REMARK INTRA:                   0.184
REMARK UNBOUND:                -0.045
REMARK SMILES CC(C)[C@@H]([NH3+])C(=O)[O-]
REMARK SMILES IDX 4 1 5 2 6 6 7 7 8 8 2 9 1 10 3 11
REMARK H PARENT 5 3 5 4 5 5
REMARK Flexibility Score: inf
ROOT
ATOM      1  C   UNL     1      10.528  41.105  13.041  1.00  0.00     0.230 C 
ENDROOT
BRANCH   1   2
ATOM      2  N   UNL     1      11.710  40.492  13.665  1.00  0.00    -0.350 N 
ATOM      3  H   UNL     1      11.952  39.601  13.176  1.00  0.00     0.345 HD
ATOM      4  H   UNL     1      12.534  41.134  13.637  1.00  0.00     0.345 HD
ATOM      5  H   UNL     1      11.498  40.266  14.665  1.00  0.00     0.345 HD
ENDBRANCH   1   2
BRANCH   1   6
ATOM      6  C   UNL     1       9.258  40.476  13.562  1.00  0.00     0.099 C 
ATOM      7  O   UNL     1       9.125  40.207  14.786  1.00  0.00    -0.544 OA
ATOM      8  O   UNL     1       8.208  40.215  12.689  1.00  0.00    -0.544 OA
ENDBRANCH   1   6
BRANCH   1   9
ATOM      9  C   UNL     1      10.537  42.657  13.188  1.00  0.00     0.047 C 
ATOM     10  C   UNL     1       9.184  43.177  13.700  1.00  0.00     0.014 C 
ATOM     11  C   UNL     1      11.674  43.187  14.078  1.00  0.00     0.014 C 
ENDBRANCH   1   9
TORSDOF 3
ENDMDL
MODEL 5
REMARK VINA RESULT:    -3.470     10.485     11.910
REMARK INTER + INTRA:          -4.022
REMARK INTER:                  -3.947
REMARK INTRA:                  -0.075
REMARK UNBOUND:                -0.045
REMARK SMILES CC(C)[C@@H]([NH3+])C(=O)[O-]
REMARK SMILES IDX 4 1 5 2 6 6 7 7 8 8 2 9 1 10 3 11
REMARK H PARENT 5 3 5 4 5 5
REMARK Flexibility Score: inf
ROOT
ATOM      1  C   UNL     1      15.698  31.391  14.508  1.00  0.00     0.230 C 
ENDROOT
BRANCH   1   2
ATOM      2  N   UNL     1      16.016  32.569  15.330  1.00  0.00    -0.350 N 
ATOM      3  H   UNL     1      15.792  32.376  16.333  1.00  0.00     0.345 HD
ATOM      4  H   UNL     1      17.023  32.834  15.247  1.00  0.00     0.345 HD
ATOM      5  H   UNL     1      15.431  33.380  15.018  1.00  0.00     0.345 HD
ENDBRANCH   1   2
BRANCH   1   6
ATOM      6  C   UNL     1      15.017  31.801  13.224  1.00  0.00     0.099 C 
ATOM      7  O   UNL     1      14.949  33.012  12.886  1.00  0.00    -0.544 OA
ATOM      8  O   UNL     1      14.482  30.829  12.387  1.00  0.00    -0.544 OA
ENDBRANCH   1   6
BRANCH   1   9
ATOM      9  C   UNL     1      16.953  30.499  14.268  1.00  0.00     0.047 C 
ATOM     10  C   UNL     1      18.035  31.258  13.485  1.00  0.00     0.014 C 
ATOM     11  C   UNL     1      17.551  29.913  15.559  1.00  0.00     0.014 C 
ENDBRANCH   1   9
TORSDOF 3
ENDMDL
MODEL 6
REMARK VINA RESULT:    -3.404     10.775     12.100
REMARK INTER + INTRA:          -3.947
REMARK INTER:                  -3.914
REMARK INTRA:                  -0.032
REMARK UNBOUND:                -0.045
REMARK SMILES CC(C)[C@@H]([NH3+])C(=O)[O-]
REMARK SMILES IDX 4 1 5 2 6 6 7 7 8 8 2 9 1 10 3 11
REMARK H PARENT 5 3 5 4 5 5
REMARK Flexibility Score: inf
ROOT
ATOM      1  C   UNL     1      15.902  31.363  14.878  1.00  0.00     0.230 C 
ENDROOT
BRANCH   1   2
ATOM      2  N   UNL     1      16.126  32.691  15.471  1.00  0.00    -0.350 N 
ATOM      3  H   UNL     1      17.127  32.970  15.356  1.00  0.00     0.345 HD
ATOM      4  H   UNL     1      15.514  33.415  15.031  1.00  0.00     0.345 HD
ATOM      5  H   UNL     1      15.915  32.655  16.496  1.00  0.00     0.345 HD
ENDBRANCH   1   2
BRANCH   1   6
ATOM      6  C   UNL     1      15.194  31.480  13.550  1.00  0.00     0.099 C 
ATOM      7  O   UNL     1      14.569  30.501  13.062  1.00  0.00    -0.544 OA
ATOM      8  O   UNL     1      15.204  32.690  12.866  1.00  0.00    -0.544 OA
ENDBRANCH   1   6
BRANCH   1   9
ATOM      9  C   UNL     1      17.224  30.541  14.788  1.00  0.00     0.047 C 
ATOM     10  C   UNL     1      16.959  29.038  14.960  1.00  0.00     0.014 C 
ATOM     11  C   UNL     1      18.019  30.791  13.495  1.00  0.00     0.014 C 
ENDBRANCH   1   9
TORSDOF 3
ENDMDL
MODEL 7
REMARK VINA RESULT:    -3.383     17.455     18.483
REMARK INTER + INTRA:          -3.922
REMARK INTER:                  -3.873
REMARK INTRA:                  -0.049
REMARK UNBOUND:                -0.045
REMARK SMILES CC(C)[C@@H]([NH3+])C(=O)[O-]
REMARK SMILES IDX 4 1 5 2 6 6 7 7 8 8 2 9 1 10 3 11
REMARK H PARENT 5 3 5 4 5 5
REMARK Flexibility Score: inf
ROOT
ATOM      1  C   UNL     1      16.877  30.595  27.196  1.00  0.00     0.230 C 
ENDROOT
BRANCH   1   2
ATOM      2  N   UNL     1      15.784  29.935  27.926  1.00  0.00    -0.350 N 
ATOM      3  H   UNL     1      15.728  30.307  28.901  1.00  0.00     0.345 HD
ATOM      4  H   UNL     1      14.865  30.077  27.450  1.00  0.00     0.345 HD
ATOM      5  H   UNL     1      15.974  28.906  27.982  1.00  0.00     0.345 HD
ENDBRANCH   1   2
BRANCH   1   6
ATOM      6  C   UNL     1      18.182  29.863  27.404  1.00  0.00     0.099 C 
ATOM      7  O   UNL     1      19.166  30.069  26.647  1.00  0.00    -0.544 OA
ATOM      8  O   UNL     1      18.311  28.970  28.462  1.00  0.00    -0.544 OA
ENDBRANCH   1   6
BRANCH   1   9
ATOM      9  C   UNL     1      16.529  30.792  25.689  1.00  0.00     0.047 C 
ATOM     10  C   UNL     1      15.378  29.871  25.258  1.00  0.00     0.014 C 
ATOM     11  C   UNL     1      16.207  32.248  25.315  1.00  0.00     0.014 C 
ENDBRANCH   1   9
TORSDOF 3
ENDMDL
MODEL 8
REMARK VINA RESULT:    -3.357     11.239     12.210
REMARK INTER + INTRA:          -3.892
REMARK INTER:                  -3.888
REMARK INTRA:                  -0.004
REMARK UNBOUND:                -0.045
REMARK SMILES CC(C)[C@@H]([NH3+])C(=O)[O-]
REMARK SMILES IDX 4 1 5 2 6 6 7 7 8 8 2 9 1 10 3 11
REMARK H PARENT 5 3 5 4 5 5
REMARK Flexibility Score: inf
ROOT
ATOM      1  C   UNL     1      16.023  31.606  14.216  1.00  0.00     0.230 C 
ENDROOT
BRANCH   1   2
ATOM      2  N   UNL     1      16.145  32.492  15.383  1.00  0.00    -0.350 N 
ATOM      3  H   UNL     1      15.989  33.485  15.096  1.00  0.00     0.345 HD
ATOM      4  H   UNL     1      15.461  32.239  16.130  1.00  0.00     0.345 HD
ATOM      5  H   UNL     1      17.113  32.416  15.777  1.00  0.00     0.345 HD
ENDBRANCH   1   2
BRANCH   1   6
ATOM      6  C   UNL     1      16.861  32.112  13.066  1.00  0.00     0.099 C 
ATOM      7  O   UNL     1      16.336  32.384  11.954  1.00  0.00    -0.544 OA
ATOM      8  O   UNL     1      18.226  32.309  13.242  1.00  0.00    -0.544 OA
ENDBRANCH   1   6
BRANCH   1   9
ATOM      9  C   UNL     1      16.333  30.122  14.582  1.00  0.00     0.047 C 
ATOM     10  C   UNL     1      16.568  29.275  13.323  1.00  0.00     0.014 C 
ATOM     11  C   UNL     1      17.514  29.960  15.554  1.00  0.00     0.014 C 
ENDBRANCH   1   9
TORSDOF 3
ENDMDL
MODEL 9
REMARK VINA RESULT:    -3.336     11.023     11.877
REMARK INTER + INTRA:          -3.868
REMARK INTER:                  -3.792
REMARK INTRA:                  -0.076
REMARK UNBOUND:                -0.045
REMARK SMILES CC(C)[C@@H]([NH3+])C(=O)[O-]
REMARK SMILES IDX 4 1 5 2 6 6 7 7 8 8 2 9 1 10 3 11
REMARK H PARENT 5 3 5 4 5 5
REMARK Flexibility Score: inf
ROOT
ATOM      1  C   UNL     1      16.169  31.630  14.259  1.00  0.00     0.230 C 
ENDROOT
BRANCH   1   2
ATOM      2  N   UNL     1      15.989  32.590  15.359  1.00  0.00    -0.350 N 
ATOM      3  H   UNL     1      16.850  32.622  15.951  1.00  0.00     0.345 HD
ATOM      4  H   UNL     1      15.781  33.549  15.001  1.00  0.00     0.345 HD
ATOM      5  H   UNL     1      15.192  32.281  15.964  1.00  0.00     0.345 HD
ENDBRANCH   1   2
BRANCH   1   6
ATOM      6  C   UNL     1      17.473  30.882  14.406  1.00  0.00     0.099 C 
ATOM      7  O   UNL     1      18.373  30.976  13.531  1.00  0.00    -0.544 OA
ATOM      8  O   UNL     1      17.697  30.103  15.535  1.00  0.00    -0.544 OA
ENDBRANCH   1   6
BRANCH   1   9
ATOM      9  C   UNL     1      14.941  30.680  14.115  1.00  0.00     0.047 C 
ATOM     10  C   UNL     1      13.653  31.471  13.841  1.00  0.00     0.014 C 
ATOM     11  C   UNL     1      15.126  29.589  13.047  1.00  0.00     0.014 C 
ENDBRANCH   1   9
TORSDOF 3
ENDMDL
