MODEL 1
REMARK VINA RESULT:    -7.452      0.000      0.000
REMARK INTER + INTRA:         -12.793
REMARK INTER:                 -10.937
REMARK INTRA:                  -1.856
REMARK UNBOUND:                -1.856
REMARK SMILES O=c1c(O[C@H]2O[C@@H](CO)[C@H](O)[C@H](O)[C@H]2O)c(-c2ccc(O)c(O)c2)oc2cc(O)cc(O)c12
REMARK SMILES IDX 4 1 3 2 16 3 25 4 2 5 26 6 1 7 33 8 27 9 31 10 28 11 30 12
REMARK SMILES IDX 17 13 18 14 19 15 20 16 24 17 22 18 21 19 23 21 32 23 29 25
REMARK SMILES IDX 5 27 14 28 6 29 12 30 7 31 10 32 15 33 13 35 8 37 9 38 11 40
REMARK H PARENT 21 20 23 22 32 24 29 26 15 34 13 36 9 39 11 41
REMARK Flexibility Score: inf
ROOT
ATOM      1  O   UNL     1       4.728 -24.131  72.491  1.00  0.00    -0.454 OA
ENDROOT
BRANCH   1   2
ATOM      2  C   UNL     1       4.999 -25.486  72.232  1.00  0.00     0.214 A 
ATOM      3  C   UNL     1       4.013 -26.483  72.418  1.00  0.00     0.180 A 
ATOM      4  O   UNL     1       4.363 -27.749  72.681  1.00  0.00    -0.452 OA
ATOM      5  C   UNL     1       6.329 -25.889  72.225  1.00  0.00     0.239 A 
ATOM      6  C   UNL     1       5.629 -28.117  72.855  1.00  0.00     0.146 A 
ATOM      7  O   UNL     1       7.260 -25.018  72.201  1.00  0.00    -0.285 OA
ATOM      8  C   UNL     1       6.686 -27.227  72.537  1.00  0.00     0.111 A 
ATOM      9  C   UNL     1       5.901 -29.285  73.581  1.00  0.00     0.094 A 
ATOM     10  C   UNL     1       8.016 -27.589  72.857  1.00  0.00     0.134 A 
ATOM     11  C   UNL     1       7.160 -29.424  74.184  1.00  0.00     0.123 A 
ATOM     12  C   UNL     1       8.243 -28.656  73.731  1.00  0.00     0.093 A 
BRANCH   3  13
ATOM     13  C   UNL     1       2.596 -26.118  72.572  1.00  0.00     0.025 A 
ATOM     14  C   UNL     1       1.837 -25.734  71.452  1.00  0.00     0.016 A 
ATOM     15  C   UNL     1       0.663 -25.004  71.622  1.00  0.00     0.051 A 
ATOM     16  C   UNL     1       0.216 -24.674  72.920  1.00  0.00     0.157 A 
ATOM     17  C   UNL     1       2.062 -25.938  73.865  1.00  0.00     0.062 A 
ATOM     18  C   UNL     1       0.877 -25.209  74.038  1.00  0.00     0.158 A 
BRANCH  16  19
ATOM     19  O   UNL     1      -0.849 -23.786  73.096  1.00  0.00    -0.504 OA
ATOM     20  H   UNL     1      -1.430 -23.535  72.305  1.00  0.00     0.293 HD
ENDBRANCH  16  19
BRANCH  18  21
ATOM     21  O   UNL     1       0.414 -24.939  75.329  1.00  0.00    -0.504 OA
ATOM     22  H   UNL     1      -0.363 -24.309  75.501  1.00  0.00     0.293 HD
ENDBRANCH  18  21
ENDBRANCH   3  13
BRANCH  10  23
ATOM     23  O   UNL     1       9.098 -26.845  72.367  1.00  0.00    -0.507 OA
ATOM     24  H   UNL     1       9.024 -26.139  71.633  1.00  0.00     0.293 HD
ENDBRANCH  10  23
BRANCH  11  25
ATOM     25  O   UNL     1       7.240 -30.062  75.429  1.00  0.00    -0.508 OA
ATOM     26  H   UNL     1       6.562 -30.760  75.717  1.00  0.00     0.293 HD
ENDBRANCH  11  25
ENDBRANCH   1   2
BRANCH   1  27
ATOM     27  C   UNL     1       4.187 -23.129  71.602  1.00  0.00     0.339 C 
ATOM     28  C   UNL     1       5.273 -22.086  71.171  1.00  0.00     0.214 C 
ATOM     29  O   UNL     1       3.068 -22.526  72.225  1.00  0.00    -0.332 OA
ATOM     30  C   UNL     1       5.688 -21.256  72.432  1.00  0.00     0.180 C 
ATOM     31  C   UNL     1       3.358 -21.790  73.404  1.00  0.00     0.179 C 
ATOM     32  C   UNL     1       4.399 -20.670  73.116  1.00  0.00     0.177 C 
BRANCH  28  33
ATOM     33  O   UNL     1       6.324 -22.789  70.572  1.00  0.00    -0.384 OA
ATOM     34  H   UNL     1       7.153 -22.658  71.130  1.00  0.00     0.211 HD
ENDBRANCH  28  33
BRANCH  30  35
ATOM     35  O   UNL     1       6.587 -20.199  72.142  1.00  0.00    -0.387 OA
ATOM     36  H   UNL     1       6.105 -19.582  71.516  1.00  0.00     0.211 HD
ENDBRANCH  30  35
BRANCH  31  37
ATOM     37  C   UNL     1       3.598 -22.720  74.624  1.00  0.00     0.191 C 
BRANCH  37  38
ATOM     38  O   UNL     1       4.429 -22.078  75.552  1.00  0.00    -0.394 OA
ATOM     39  H   UNL     1       3.874 -21.826  76.333  1.00  0.00     0.210 HD
ENDBRANCH  37  38
ENDBRANCH  31  37
BRANCH  32  40
ATOM     40  O   UNL     1       3.795 -19.757  72.223  1.00  0.00    -0.387 OA
ATOM     41  H   UNL     1       2.914 -19.482  72.585  1.00  0.00     0.211 HD
ENDBRANCH  32  40
ENDBRANCH   1  27
TORSDOF 12
ENDMDL
MODEL 2
REMARK VINA RESULT:    -7.037      0.989      2.164
REMARK INTER + INTRA:         -12.184
REMARK INTER:                 -10.887
REMARK INTRA:                  -1.297
REMARK UNBOUND:                -1.856
REMARK SMILES O=c1c(O[C@H]2O[C@@H](CO)[C@H](O)[C@H](O)[C@H]2O)c(-c2ccc(O)c(O)c2)oc2cc(O)cc(O)c12
REMARK SMILES IDX 4 1 3 2 16 3 25 4 2 5 26 6 1 7 33 8 27 9 31 10 28 11 30 12
REMARK SMILES IDX 17 13 18 14 19 15 20 16 24 17 22 18 21 19 23 21 32 23 29 25
REMARK SMILES IDX 5 27 14 28 6 29 12 30 7 31 10 32 15 33 13 35 8 37 9 38 11 40
REMARK H PARENT 21 20 23 22 32 24 29 26 15 34 13 36 9 39 11 41
REMARK Flexibility Score: inf
ROOT
ATOM      1  O   UNL     1       4.851 -24.127  72.499  1.00  0.00    -0.454 OA
ENDROOT
BRANCH   1   2
ATOM      2  C   UNL     1       5.095 -25.485  72.230  1.00  0.00     0.214 A 
ATOM      3  C   UNL     1       4.085 -26.462  72.394  1.00  0.00     0.180 A 
ATOM      4  O   UNL     1       4.405 -27.738  72.648  1.00  0.00    -0.452 OA
ATOM      5  C   UNL     1       6.415 -25.916  72.235  1.00  0.00     0.239 A 
ATOM      6  C   UNL     1       5.660 -28.135  72.833  1.00  0.00     0.146 A 
ATOM      7  O   UNL     1       7.365 -25.066  72.230  1.00  0.00    -0.285 OA
ATOM      8  C   UNL     1       6.740 -27.266  72.537  1.00  0.00     0.111 A 
ATOM      9  C   UNL     1       5.898 -29.316  73.550  1.00  0.00     0.094 A 
ATOM     10  C   UNL     1       8.057 -27.660  72.869  1.00  0.00     0.134 A 
ATOM     11  C   UNL     1       7.145 -29.489  74.167  1.00  0.00     0.123 A 
ATOM     12  C   UNL     1       8.251 -28.740  73.735  1.00  0.00     0.093 A 
BRANCH   3  13
ATOM     13  C   UNL     1       2.674 -26.067  72.535  1.00  0.00     0.025 A 
ATOM     14  C   UNL     1       2.004 -25.441  71.469  1.00  0.00     0.016 A 
ATOM     15  C   UNL     1       0.847 -24.703  71.711  1.00  0.00     0.051 A 
ATOM     16  C   UNL     1       0.329 -24.607  73.020  1.00  0.00     0.157 A 
ATOM     17  C   UNL     1       2.064 -26.114  73.805  1.00  0.00     0.062 A 
ATOM     18  C   UNL     1       0.896 -25.378  74.049  1.00  0.00     0.158 A 
BRANCH  16  19
ATOM     19  O   UNL     1      -0.714 -23.721  73.304  1.00  0.00    -0.504 OA
ATOM     20  H   UNL     1      -0.534 -22.724  73.329  1.00  0.00     0.293 HD
ENDBRANCH  16  19
BRANCH  18  21
ATOM     21  O   UNL     1       0.360 -25.339  75.338  1.00  0.00    -0.504 OA
ATOM     22  H   UNL     1       0.099 -24.467  75.786  1.00  0.00     0.293 HD
ENDBRANCH  18  21
ENDBRANCH   3  13
BRANCH  10  23
ATOM     23  O   UNL     1       9.161 -26.934  72.400  1.00  0.00    -0.507 OA
ATOM     24  H   UNL     1       9.230 -25.916  72.422  1.00  0.00     0.293 HD
ENDBRANCH  10  23
BRANCH  11  25
ATOM     25  O   UNL     1       7.196 -30.140  75.406  1.00  0.00    -0.508 OA
ATOM     26  H   UNL     1       7.985 -30.031  76.036  1.00  0.00     0.293 HD
ENDBRANCH  11  25
ENDBRANCH   1   2
BRANCH   1  27
ATOM     27  C   UNL     1       5.428 -23.288  73.525  1.00  0.00     0.339 C 
ATOM     28  C   UNL     1       4.552 -23.270  74.822  1.00  0.00     0.214 C 
ATOM     29  O   UNL     1       5.637 -21.995  72.989  1.00  0.00    -0.332 OA
ATOM     30  C   UNL     1       3.200 -22.552  74.496  1.00  0.00     0.180 C 
ATOM     31  C   UNL     1       4.456 -21.295  72.624  1.00  0.00     0.179 C 
ATOM     32  C   UNL     1       3.499 -21.153  73.843  1.00  0.00     0.177 C 
BRANCH  28  33
ATOM     33  O   UNL     1       4.412 -24.592  75.260  1.00  0.00    -0.384 OA
ATOM     34  H   UNL     1       5.097 -24.762  75.979  1.00  0.00     0.211 HD
ENDBRANCH  28  33
BRANCH  30  35
ATOM     35  O   UNL     1       2.365 -22.373  75.628  1.00  0.00    -0.387 OA
ATOM     36  H   UNL     1       2.651 -23.061  76.300  1.00  0.00     0.211 HD
ENDBRANCH  30  35
BRANCH  31  37
ATOM     37  C   UNL     1       3.867 -21.809  71.283  1.00  0.00     0.191 C 
BRANCH  37  38
ATOM     38  O   UNL     1       4.893 -21.956  70.341  1.00  0.00    -0.394 OA
ATOM     39  H   UNL     1       5.203 -21.050  70.086  1.00  0.00     0.210 HD
ENDBRANCH  37  38
ENDBRANCH  31  37
BRANCH  32  40
ATOM     40  O   UNL     1       4.153 -20.345  74.798  1.00  0.00    -0.387 OA
ATOM     41  H   UNL     1       5.081 -20.672  74.920  1.00  0.00     0.211 HD
ENDBRANCH  32  40
ENDBRANCH   1  27
TORSDOF 12
ENDMDL
MODEL 3
REMARK VINA RESULT:    -6.653      2.254      3.139
REMARK INTER + INTRA:         -11.621
REMARK INTER:                 -10.138
REMARK INTRA:                  -1.483
REMARK UNBOUND:                -1.856
REMARK SMILES O=c1c(O[C@H]2O[C@@H](CO)[C@H](O)[C@H](O)[C@H]2O)c(-c2ccc(O)c(O)c2)oc2cc(O)cc(O)c12
REMARK SMILES IDX 4 1 3 2 16 3 25 4 2 5 26 6 1 7 33 8 27 9 31 10 28 11 30 12
REMARK SMILES IDX 17 13 18 14 19 15 20 16 24 17 22 18 21 19 23 21 32 23 29 25
REMARK SMILES IDX 5 27 14 28 6 29 12 30 7 31 10 32 15 33 13 35 8 37 9 38 11 40
REMARK H PARENT 21 20 23 22 32 24 29 26 15 34 13 36 9 39 11 41
REMARK Flexibility Score: inf
ROOT
ATOM      1  O   UNL     1       3.190 -23.652  74.247  1.00  0.00    -0.454 OA
ENDROOT
BRANCH   1   2
ATOM      2  C   UNL     1       4.083 -24.563  73.655  1.00  0.00     0.214 A 
ATOM      3  C   UNL     1       3.632 -25.561  72.760  1.00  0.00     0.180 A 
ATOM      4  O   UNL     1       4.318 -26.701  72.606  1.00  0.00    -0.452 OA
ATOM      5  C   UNL     1       5.308 -24.764  74.280  1.00  0.00     0.239 A 
ATOM      6  C   UNL     1       5.398 -26.986  73.329  1.00  0.00     0.146 A 
ATOM      7  O   UNL     1       5.696 -23.967  75.196  1.00  0.00    -0.285 OA
ATOM      8  C   UNL     1       6.008 -25.990  74.132  1.00  0.00     0.111 A 
ATOM      9  C   UNL     1       5.776 -28.327  73.481  1.00  0.00     0.094 A 
ATOM     10  C   UNL     1       7.071 -26.350  74.994  1.00  0.00     0.134 A 
ATOM     11  C   UNL     1       6.562 -28.683  74.587  1.00  0.00     0.123 A 
ATOM     12  C   UNL     1       7.305 -27.702  75.263  1.00  0.00     0.093 A 
BRANCH   3  13
ATOM     13  C   UNL     1       2.288 -25.485  72.166  1.00  0.00     0.025 A 
ATOM     14  C   UNL     1       1.190 -26.073  72.819  1.00  0.00     0.016 A 
ATOM     15  C   UNL     1       0.033 -26.375  72.104  1.00  0.00     0.051 A 
ATOM     16  C   UNL     1      -0.052 -26.063  70.730  1.00  0.00     0.157 A 
ATOM     17  C   UNL     1       2.139 -25.020  70.843  1.00  0.00     0.062 A 
ATOM     18  C   UNL     1       0.972 -25.317  70.124  1.00  0.00     0.158 A 
BRANCH  16  19
ATOM     19  O   UNL     1      -1.125 -26.530  69.965  1.00  0.00    -0.504 OA
ATOM     20  H   UNL     1      -1.616 -25.894  69.348  1.00  0.00     0.293 HD
ENDBRANCH  16  19
BRANCH  18  21
ATOM     21  O   UNL     1       0.878 -24.950  68.779  1.00  0.00    -0.504 OA
ATOM     22  H   UNL     1       1.583 -25.216  68.099  1.00  0.00     0.293 HD
ENDBRANCH  18  21
ENDBRANCH   3  13
BRANCH  10  23
ATOM     23  O   UNL     1       7.838 -25.368  75.634  1.00  0.00    -0.507 OA
ATOM     24  H   UNL     1       8.832 -25.462  75.844  1.00  0.00     0.293 HD
ENDBRANCH  10  23
BRANCH  11  25
ATOM     25  O   UNL     1       6.336 -29.921  75.201  1.00  0.00    -0.508 OA
ATOM     26  H   UNL     1       6.184 -30.766  74.661  1.00  0.00     0.293 HD
ENDBRANCH  11  25
ENDBRANCH   1   2
BRANCH   1  27
ATOM     27  C   UNL     1       2.700 -22.396  73.726  1.00  0.00     0.339 C 
ATOM     28  C   UNL     1       3.528 -21.181  74.266  1.00  0.00     0.214 C 
ATOM     29  O   UNL     1       1.319 -22.290  74.022  1.00  0.00    -0.332 OA
ATOM     30  C   UNL     1       3.272 -21.053  75.805  1.00  0.00     0.180 C 
ATOM     31  C   UNL     1       1.003 -22.215  75.404  1.00  0.00     0.179 C 
ATOM     32  C   UNL     1       1.722 -21.008  76.072  1.00  0.00     0.177 C 
BRANCH  28  33
ATOM     33  O   UNL     1       4.867 -21.391  73.919  1.00  0.00    -0.384 OA
ATOM     34  H   UNL     1       5.447 -20.905  74.585  1.00  0.00     0.211 HD
ENDBRANCH  28  33
BRANCH  30  35
ATOM     35  O   UNL     1       3.881 -19.913  76.387  1.00  0.00    -0.387 OA
ATOM     36  H   UNL     1       4.116 -19.300  75.629  1.00  0.00     0.211 HD
ENDBRANCH  30  35
BRANCH  31  37
ATOM     37  C   UNL     1       1.095 -23.601  76.098  1.00  0.00     0.191 C 
BRANCH  37  38
ATOM     38  O   UNL     1       0.018 -23.761  76.979  1.00  0.00    -0.394 OA
ATOM     39  H   UNL     1       0.186 -24.575  77.520  1.00  0.00     0.210 HD
ENDBRANCH  37  38
ENDBRANCH  31  37
BRANCH  32  40
ATOM     40  O   UNL     1       1.202 -19.833  75.486  1.00  0.00    -0.387 OA
ATOM     41  H   UNL     1       1.760 -19.060  75.757  1.00  0.00     0.211 HD
ENDBRANCH  32  40
ENDBRANCH   1  27
TORSDOF 12
ENDMDL
MODEL 4
REMARK VINA RESULT:    -6.583      1.779      4.802
REMARK INTER + INTRA:         -11.517
REMARK INTER:                 -10.646
REMARK INTRA:                  -0.871
REMARK UNBOUND:                -1.856
REMARK SMILES O=c1c(O[C@H]2O[C@@H](CO)[C@H](O)[C@H](O)[C@H]2O)c(-c2ccc(O)c(O)c2)oc2cc(O)cc(O)c12
REMARK SMILES IDX 4 1 3 2 16 3 25 4 2 5 26 6 1 7 33 8 27 9 31 10 28 11 30 12
REMARK SMILES IDX 17 13 18 14 19 15 20 16 24 17 22 18 21 19 23 21 32 23 29 25
REMARK SMILES IDX 5 27 14 28 6 29 12 30 7 31 10 32 15 33 13 35 8 37 9 38 11 40
REMARK H PARENT 21 20 23 22 32 24 29 26 15 34 13 36 9 39 11 41
REMARK Flexibility Score: inf
ROOT
ATOM      1  O   UNL     1       2.547 -25.437  72.974  1.00  0.00    -0.454 OA
ENDROOT
BRANCH   1   2
ATOM      2  C   UNL     1       3.831 -25.561  73.536  1.00  0.00     0.214 A 
ATOM      3  C   UNL     1       4.787 -24.525  73.426  1.00  0.00     0.180 A 
ATOM      4  O   UNL     1       6.097 -24.797  73.473  1.00  0.00    -0.452 OA
ATOM      5  C   UNL     1       4.297 -26.842  73.801  1.00  0.00     0.239 A 
ATOM      6  C   UNL     1       6.565 -26.039  73.548  1.00  0.00     0.146 A 
ATOM      7  O   UNL     1       3.496 -27.833  73.773  1.00  0.00    -0.285 OA
ATOM      8  C   UNL     1       5.690 -27.121  73.818  1.00  0.00     0.111 A 
ATOM      9  C   UNL     1       7.874 -26.297  73.117  1.00  0.00     0.094 A 
ATOM     10  C   UNL     1       6.186 -28.445  73.758  1.00  0.00     0.134 A 
ATOM     11  C   UNL     1       8.209 -27.602  72.728  1.00  0.00     0.123 A 
ATOM     12  C   UNL     1       7.425 -28.685  73.157  1.00  0.00     0.093 A 
BRANCH   3  13
ATOM     13  C   UNL     1       4.382 -23.171  73.013  1.00  0.00     0.025 A 
ATOM     14  C   UNL     1       4.551 -22.756  71.680  1.00  0.00     0.016 A 
ATOM     15  C   UNL     1       4.573 -21.398  71.370  1.00  0.00     0.051 A 
ATOM     16  C   UNL     1       4.396 -20.436  72.388  1.00  0.00     0.157 A 
ATOM     17  C   UNL     1       4.035 -22.221  73.996  1.00  0.00     0.062 A 
ATOM     18  C   UNL     1       4.050 -20.854  73.684  1.00  0.00     0.158 A 
BRANCH  16  19
ATOM     19  O   UNL     1       4.605 -19.080  72.123  1.00  0.00    -0.504 OA
ATOM     20  H   UNL     1       5.525 -18.757  71.848  1.00  0.00     0.293 HD
ENDBRANCH  16  19
BRANCH  18  21
ATOM     21  O   UNL     1       3.814 -19.914  74.690  1.00  0.00    -0.504 OA
ATOM     22  H   UNL     1       3.765 -20.176  75.670  1.00  0.00     0.293 HD
ENDBRANCH  18  21
ENDBRANCH   3  13
BRANCH  10  23
ATOM     23  O   UNL     1       5.417 -29.519  74.227  1.00  0.00    -0.507 OA
ATOM     24  H   UNL     1       4.400 -29.566  74.167  1.00  0.00     0.293 HD
ENDBRANCH  10  23
BRANCH  11  25
ATOM     25  O   UNL     1       9.099 -27.776  71.660  1.00  0.00    -0.508 OA
ATOM     26  H   UNL     1       8.785 -28.091  70.748  1.00  0.00     0.293 HD
ENDBRANCH  11  25
ENDBRANCH   1   2
BRANCH   1  27
ATOM     27  C   UNL     1       1.629 -26.478  72.575  1.00  0.00     0.339 C 
ATOM     28  C   UNL     1       1.718 -26.775  71.040  1.00  0.00     0.214 C 
ATOM     29  O   UNL     1       0.324 -26.113  72.985  1.00  0.00    -0.332 OA
ATOM     30  C   UNL     1       1.194 -25.522  70.263  1.00  0.00     0.180 C 
ATOM     31  C   UNL     1      -0.205 -24.956  72.356  1.00  0.00     0.179 C 
ATOM     32  C   UNL     1      -0.227 -25.127  70.809  1.00  0.00     0.177 C 
BRANCH  28  33
ATOM     33  O   UNL     1       3.042 -27.122  70.750  1.00  0.00    -0.384 OA
ATOM     34  H   UNL     1       3.039 -27.774  69.981  1.00  0.00     0.211 HD
ENDBRANCH  28  33
BRANCH  30  35
ATOM     35  O   UNL     1       1.120 -25.716  68.860  1.00  0.00    -0.387 OA
ATOM     36  H   UNL     1       1.930 -26.249  68.606  1.00  0.00     0.211 HD
ENDBRANCH  30  35
BRANCH  31  37
ATOM     37  C   UNL     1       0.397 -23.650  72.942  1.00  0.00     0.191 C 
BRANCH  37  38
ATOM     38  O   UNL     1       0.406 -23.719  74.341  1.00  0.00    -0.394 OA
ATOM     39  H   UNL     1       1.168 -23.176  74.667  1.00  0.00     0.210 HD
ENDBRANCH  37  38
ENDBRANCH  31  37
BRANCH  32  40
ATOM     40  O   UNL     1      -1.125 -26.176  70.517  1.00  0.00    -0.387 OA
ATOM     41  H   UNL     1      -1.942 -26.069  71.068  1.00  0.00     0.211 HD
ENDBRANCH  32  40
ENDBRANCH   1  27
TORSDOF 12
ENDMDL
MODEL 5
REMARK VINA RESULT:    -6.497      2.234      7.687
REMARK INTER + INTRA:         -11.392
REMARK INTER:                 -11.132
REMARK INTRA:                  -0.259
REMARK UNBOUND:                -1.856
REMARK SMILES O=c1c(O[C@H]2O[C@@H](CO)[C@H](O)[C@H](O)[C@H]2O)c(-c2ccc(O)c(O)c2)oc2cc(O)cc(O)c12
REMARK SMILES IDX 4 1 3 2 16 3 25 4 2 5 26 6 1 7 33 8 27 9 31 10 28 11 30 12
REMARK SMILES IDX 17 13 18 14 19 15 20 16 24 17 22 18 21 19 23 21 32 23 29 25
REMARK SMILES IDX 5 27 14 28 6 29 12 30 7 31 10 32 15 33 13 35 8 37 9 38 11 40
REMARK H PARENT 21 20 23 22 32 24 29 26 15 34 13 36 9 39 11 41
REMARK Flexibility Score: inf
ROOT
ATOM      1  O   UNL     1       6.198 -26.211  72.500  1.00  0.00    -0.454 OA
ENDROOT
BRANCH   1   2
ATOM      2  C   UNL     1       5.907 -25.006  71.837  1.00  0.00     0.214 A 
ATOM      3  C   UNL     1       6.908 -24.285  71.145  1.00  0.00     0.180 A 
ATOM      4  O   UNL     1       6.799 -22.962  70.971  1.00  0.00    -0.452 OA
ATOM      5  C   UNL     1       4.769 -24.313  72.229  1.00  0.00     0.239 A 
ATOM      6  C   UNL     1       5.804 -22.254  71.495  1.00  0.00     0.146 A 
ATOM      7  O   UNL     1       3.901 -24.877  72.974  1.00  0.00    -0.285 OA
ATOM      8  C   UNL     1       4.682 -22.905  72.066  1.00  0.00     0.111 A 
ATOM      9  C   UNL     1       5.985 -20.878  71.699  1.00  0.00     0.094 A 
ATOM     10  C   UNL     1       3.702 -22.135  72.737  1.00  0.00     0.134 A 
ATOM     11  C   UNL     1       5.195 -20.231  72.660  1.00  0.00     0.123 A 
ATOM     12  C   UNL     1       3.990 -20.812  73.083  1.00  0.00     0.093 A 
BRANCH   3  13
ATOM     13  C   UNL     1       8.196 -24.917  70.818  1.00  0.00     0.025 A 
ATOM     14  C   UNL     1       8.727 -24.814  69.520  1.00  0.00     0.016 A 
ATOM     15  C   UNL     1       9.691 -25.721  69.086  1.00  0.00     0.051 A 
ATOM     16  C   UNL     1      10.160 -26.727  69.959  1.00  0.00     0.157 A 
ATOM     17  C   UNL     1       8.787 -25.807  71.739  1.00  0.00     0.062 A 
ATOM     18  C   UNL     1       9.763 -26.716  71.306  1.00  0.00     0.158 A 
BRANCH  16  19
ATOM     19  O   UNL     1      10.981 -27.752  69.480  1.00  0.00    -0.504 OA
ATOM     20  H   UNL     1      11.238 -28.517  70.091  1.00  0.00     0.293 HD
ENDBRANCH  16  19
BRANCH  18  21
ATOM     21  O   UNL     1      10.262 -27.669  72.198  1.00  0.00    -0.504 OA
ATOM     22  H   UNL     1      10.874 -27.416  72.967  1.00  0.00     0.293 HD
ENDBRANCH  18  21
ENDBRANCH   3  13
BRANCH  10  23
ATOM     23  O   UNL     1       2.481 -22.708  73.120  1.00  0.00    -0.507 OA
ATOM     24  H   UNL     1       2.396 -23.529  73.721  1.00  0.00     0.293 HD
ENDBRANCH  10  23
BRANCH  11  25
ATOM     25  O   UNL     1       5.770 -19.205  73.421  1.00  0.00    -0.508 OA
ATOM     26  H   UNL     1       6.538 -18.643  73.068  1.00  0.00     0.293 HD
ENDBRANCH  11  25
ENDBRANCH   1   2
BRANCH   1  27
ATOM     27  C   UNL     1       5.691 -26.696  73.764  1.00  0.00     0.339 C 
ATOM     28  C   UNL     1       6.846 -27.141  74.721  1.00  0.00     0.214 C 
ATOM     29  O   UNL     1       4.760 -27.732  73.511  1.00  0.00    -0.332 OA
ATOM     30  C   UNL     1       7.537 -28.405  74.108  1.00  0.00     0.180 C 
ATOM     31  C   UNL     1       5.305 -28.899  72.912  1.00  0.00     0.179 C 
ATOM     32  C   UNL     1       6.446 -29.491  73.789  1.00  0.00     0.177 C 
BRANCH  28  33
ATOM     33  O   UNL     1       7.699 -26.046  74.898  1.00  0.00    -0.384 OA
ATOM     34  H   UNL     1       8.637 -26.391  75.030  1.00  0.00     0.211 HD
ENDBRANCH  28  33
BRANCH  30  35
ATOM     35  O   UNL     1       8.531 -28.970  74.947  1.00  0.00    -0.387 OA
ATOM     36  H   UNL     1       8.115 -29.778  75.371  1.00  0.00     0.211 HD
ENDBRANCH  30  35
BRANCH  31  37
ATOM     37  C   UNL     1       5.571 -28.702  71.395  1.00  0.00     0.191 C 
BRANCH  37  38
ATOM     38  O   UNL     1       4.434 -28.159  70.782  1.00  0.00    -0.394 OA
ATOM     39  H   UNL     1       3.814 -28.905  70.577  1.00  0.00     0.210 HD
ENDBRANCH  37  38
ENDBRANCH  31  37
BRANCH  32  40
ATOM     40  O   UNL     1       5.865 -29.911  75.005  1.00  0.00    -0.387 OA
ATOM     41  H   UNL     1       5.322 -29.171  75.380  1.00  0.00     0.211 HD
ENDBRANCH  32  40
ENDBRANCH   1  27
TORSDOF 12
ENDMDL
MODEL 6
REMARK VINA RESULT:    -6.388      1.864      4.582
REMARK INTER + INTRA:         -11.231
REMARK INTER:                 -10.179
REMARK INTRA:                  -1.052
REMARK UNBOUND:                -1.856
REMARK SMILES O=c1c(O[C@H]2O[C@@H](CO)[C@H](O)[C@H](O)[C@H]2O)c(-c2ccc(O)c(O)c2)oc2cc(O)cc(O)c12
REMARK SMILES IDX 4 1 3 2 16 3 25 4 2 5 26 6 1 7 33 8 27 9 31 10 28 11 30 12
REMARK SMILES IDX 17 13 18 14 19 15 20 16 24 17 22 18 21 19 23 21 32 23 29 25
REMARK SMILES IDX 5 27 14 28 6 29 12 30 7 31 10 32 15 33 13 35 8 37 9 38 11 40
REMARK H PARENT 21 20 23 22 32 24 29 26 15 34 13 36 9 39 11 41
REMARK Flexibility Score: inf
ROOT
ATOM      1  O   UNL     1       4.320 -25.592  74.083  1.00  0.00    -0.454 OA
ENDROOT
BRANCH   1   2
ATOM      2  C   UNL     1       5.670 -25.337  73.785  1.00  0.00     0.214 A 
ATOM      3  C   UNL     1       6.056 -24.219  73.010  1.00  0.00     0.180 A 
ATOM      4  O   UNL     1       7.194 -24.238  72.303  1.00  0.00    -0.452 OA
ATOM      5  C   UNL     1       6.560 -26.401  73.869  1.00  0.00     0.239 A 
ATOM      6  C   UNL     1       7.969 -25.315  72.230  1.00  0.00     0.146 A 
ATOM      7  O   UNL     1       6.208 -27.486  74.437  1.00  0.00    -0.285 OA
ATOM      8  C   UNL     1       7.747 -26.421  73.089  1.00  0.00     0.111 A 
ATOM      9  C   UNL     1       8.842 -25.449  71.141  1.00  0.00     0.094 A 
ATOM     10  C   UNL     1       8.497 -27.606  72.902  1.00  0.00     0.134 A 
ATOM     11  C   UNL     1       9.280 -26.733  70.783  1.00  0.00     0.123 A 
ATOM     12  C   UNL     1       9.217 -27.779  71.716  1.00  0.00     0.093 A 
BRANCH   3  13
ATOM     13  C   UNL     1       5.114 -23.116  72.763  1.00  0.00     0.025 A 
ATOM     14  C   UNL     1       4.760 -22.766  71.448  1.00  0.00     0.016 A 
ATOM     15  C   UNL     1       4.228 -21.507  71.180  1.00  0.00     0.051 A 
ATOM     16  C   UNL     1       4.013 -20.591  72.233  1.00  0.00     0.157 A 
ATOM     17  C   UNL     1       4.741 -22.270  73.829  1.00  0.00     0.062 A 
ATOM     18  C   UNL     1       4.198 -21.005  73.562  1.00  0.00     0.158 A 
BRANCH  16  19
ATOM     19  O   UNL     1       3.661 -19.267  71.955  1.00  0.00    -0.504 OA
ATOM     20  H   UNL     1       3.159 -19.048  71.103  1.00  0.00     0.293 HD
ENDBRANCH  16  19
BRANCH  18  21
ATOM     21  O   UNL     1       3.936 -20.130  74.619  1.00  0.00    -0.504 OA
ATOM     22  H   UNL     1       3.347 -19.311  74.505  1.00  0.00     0.293 HD
ENDBRANCH  18  21
ENDBRANCH   3  13
BRANCH  10  23
ATOM     23  O   UNL     1       8.464 -28.632  73.856  1.00  0.00    -0.507 OA
ATOM     24  H   UNL     1       9.185 -28.781  74.563  1.00  0.00     0.293 HD
ENDBRANCH  10  23
BRANCH  11  25
ATOM     25  O   UNL     1       9.453 -27.029  69.425  1.00  0.00    -0.508 OA
ATOM     26  H   UNL     1       9.591 -27.979  69.099  1.00  0.00     0.293 HD
ENDBRANCH  11  25
ENDBRANCH   1   2
BRANCH   1  27
ATOM     27  C   UNL     1       3.486 -26.688  73.647  1.00  0.00     0.339 C 
ATOM     28  C   UNL     1       3.168 -26.603  72.116  1.00  0.00     0.214 C 
ATOM     29  O   UNL     1       2.317 -26.715  74.446  1.00  0.00    -0.332 OA
ATOM     30  C   UNL     1       2.266 -25.349  71.867  1.00  0.00     0.180 C 
ATOM     31  C   UNL     1       1.467 -25.586  74.310  1.00  0.00     0.179 C 
ATOM     32  C   UNL     1       1.023 -25.404  72.830  1.00  0.00     0.177 C 
BRANCH  28  33
ATOM     33  O   UNL     1       4.387 -26.582  71.429  1.00  0.00    -0.384 OA
ATOM     34  H   UNL     1       4.953 -27.346  71.763  1.00  0.00     0.211 HD
ENDBRANCH  28  33
BRANCH  30  35
ATOM     35  O   UNL     1       1.817 -25.231  70.528  1.00  0.00    -0.387 OA
ATOM     36  H   UNL     1       1.577 -26.157  70.228  1.00  0.00     0.211 HD
ENDBRANCH  30  35
BRANCH  31  37
ATOM     37  C   UNL     1       2.017 -24.349  75.070  1.00  0.00     0.191 C 
BRANCH  37  38
ATOM     38  O   UNL     1       2.515 -24.745  76.318  1.00  0.00    -0.394 OA
ATOM     39  H   UNL     1       2.000 -25.538  76.614  1.00  0.00     0.210 HD
ENDBRANCH  37  38
ENDBRANCH  31  37
BRANCH  32  40
ATOM     40  O   UNL     1       0.240 -26.527  72.485  1.00  0.00    -0.387 OA
ATOM     41  H   UNL     1      -0.656 -26.439  72.899  1.00  0.00     0.211 HD
ENDBRANCH  32  40
ENDBRANCH   1  27
TORSDOF 12
ENDMDL
MODEL 7
REMARK VINA RESULT:    -6.234      1.994      3.676
REMARK INTER + INTRA:         -11.005
REMARK INTER:                  -9.717
REMARK INTRA:                  -1.288
REMARK UNBOUND:                -1.856
REMARK SMILES O=c1c(O[C@H]2O[C@@H](CO)[C@H](O)[C@H](O)[C@H]2O)c(-c2ccc(O)c(O)c2)oc2cc(O)cc(O)c12
REMARK SMILES IDX 4 1 3 2 16 3 25 4 2 5 26 6 1 7 33 8 27 9 31 10 28 11 30 12
REMARK SMILES IDX 17 13 18 14 19 15 20 16 24 17 22 18 21 19 23 21 32 23 29 25
REMARK SMILES IDX 5 27 14 28 6 29 12 30 7 31 10 32 15 33 13 35 8 37 9 38 11 40
REMARK H PARENT 21 20 23 22 32 24 29 26 15 34 13 36 9 39 11 41
REMARK Flexibility Score: inf
ROOT
ATOM      1  O   UNL     1       2.042 -24.864  72.590  1.00  0.00    -0.454 OA
ENDROOT
BRANCH   1   2
ATOM      2  C   UNL     1       2.934 -25.797  73.147  1.00  0.00     0.214 A 
ATOM      3  C   UNL     1       3.593 -25.546  74.373  1.00  0.00     0.180 A 
ATOM      4  O   UNL     1       4.769 -26.125  74.647  1.00  0.00    -0.452 OA
ATOM      5  C   UNL     1       3.496 -26.740  72.295  1.00  0.00     0.239 A 
ATOM      6  C   UNL     1       5.408 -26.891  73.769  1.00  0.00     0.146 A 
ATOM      7  O   UNL     1       3.023 -26.905  71.123  1.00  0.00    -0.285 OA
ATOM      8  C   UNL     1       4.759 -27.322  72.584  1.00  0.00     0.111 A 
ATOM      9  C   UNL     1       6.794 -27.063  73.901  1.00  0.00     0.094 A 
ATOM     10  C   UNL     1       5.500 -28.022  71.603  1.00  0.00     0.134 A 
ATOM     11  C   UNL     1       7.538 -27.426  72.769  1.00  0.00     0.123 A 
ATOM     12  C   UNL     1       6.897 -28.019  71.670  1.00  0.00     0.093 A 
BRANCH   3  13
ATOM     13  C   UNL     1       3.135 -24.468  75.264  1.00  0.00     0.025 A 
ATOM     14  C   UNL     1       1.921 -24.592  75.961  1.00  0.00     0.016 A 
ATOM     15  C   UNL     1       1.281 -23.457  76.456  1.00  0.00     0.051 A 
ATOM     16  C   UNL     1       1.867 -22.184  76.286  1.00  0.00     0.157 A 
ATOM     17  C   UNL     1       3.800 -23.224  75.246  1.00  0.00     0.062 A 
ATOM     18  C   UNL     1       3.161 -22.082  75.750  1.00  0.00     0.158 A 
BRANCH  16  19
ATOM     19  O   UNL     1       1.150 -21.028  76.607  1.00  0.00    -0.504 OA
ATOM     20  H   UNL     1       1.411 -20.484  77.421  1.00  0.00     0.293 HD
ENDBRANCH  16  19
BRANCH  18  21
ATOM     21  O   UNL     1       3.779 -20.835  75.627  1.00  0.00    -0.504 OA
ATOM     22  H   UNL     1       3.266 -20.006  75.346  1.00  0.00     0.293 HD
ENDBRANCH  18  21
ENDBRANCH   3  13
BRANCH  10  23
ATOM     23  O   UNL     1       4.853 -28.649  70.530  1.00  0.00    -0.507 OA
ATOM     24  H   UNL     1       3.929 -29.078  70.588  1.00  0.00     0.293 HD
ENDBRANCH  10  23
BRANCH  11  25
ATOM     25  O   UNL     1       8.824 -26.894  72.611  1.00  0.00    -0.508 OA
ATOM     26  H   UNL     1       8.998 -25.896  72.650  1.00  0.00     0.293 HD
ENDBRANCH  11  25
ENDBRANCH   1   2
BRANCH   1  27
ATOM     27  C   UNL     1       2.133 -24.164  71.329  1.00  0.00     0.339 C 
ATOM     28  C   UNL     1       3.096 -22.933  71.417  1.00  0.00     0.214 C 
ATOM     29  O   UNL     1       0.827 -23.808  70.913  1.00  0.00    -0.332 OA
ATOM     30  C   UNL     1       2.454 -21.869  72.368  1.00  0.00     0.180 C 
ATOM     31  C   UNL     1       0.160 -22.878  71.753  1.00  0.00     0.179 C 
ATOM     32  C   UNL     1       0.985 -21.567  71.894  1.00  0.00     0.177 C 
BRANCH  28  33
ATOM     33  O   UNL     1       4.347 -23.400  71.835  1.00  0.00    -0.384 OA
ATOM     34  H   UNL     1       5.007 -23.252  71.087  1.00  0.00     0.211 HD
ENDBRANCH  28  33
BRANCH  30  35
ATOM     35  O   UNL     1       3.184 -20.656  72.437  1.00  0.00    -0.387 OA
ATOM     36  H   UNL     1       2.583 -19.990  72.884  1.00  0.00     0.211 HD
ENDBRANCH  30  35
BRANCH  31  37
ATOM     37  C   UNL     1      -0.382 -23.547  73.045  1.00  0.00     0.191 C 
BRANCH  37  38
ATOM     38  O   UNL     1      -1.032 -24.745  72.720  1.00  0.00    -0.394 OA
ATOM     39  H   UNL     1      -0.848 -24.942  71.766  1.00  0.00     0.210 HD
ENDBRANCH  37  38
ENDBRANCH  31  37
BRANCH  32  40
ATOM     40  O   UNL     1       1.043 -20.969  70.616  1.00  0.00    -0.387 OA
ATOM     41  H   UNL     1       1.938 -20.563  70.486  1.00  0.00     0.211 HD
ENDBRANCH  32  40
ENDBRANCH   1  27
TORSDOF 12
ENDMDL
MODEL 8
REMARK VINA RESULT:    -6.145      1.936      4.872
REMARK INTER + INTRA:         -10.874
REMARK INTER:                  -9.481
REMARK INTRA:                  -1.393
REMARK UNBOUND:                -1.856
REMARK SMILES O=c1c(O[C@H]2O[C@@H](CO)[C@H](O)[C@H](O)[C@H]2O)c(-c2ccc(O)c(O)c2)oc2cc(O)cc(O)c12
REMARK SMILES IDX 4 1 3 2 16 3 25 4 2 5 26 6 1 7 33 8 27 9 31 10 28 11 30 12
REMARK SMILES IDX 17 13 18 14 19 15 20 16 24 17 22 18 21 19 23 21 32 23 29 25
REMARK SMILES IDX 5 27 14 28 6 29 12 30 7 31 10 32 15 33 13 35 8 37 9 38 11 40
REMARK H PARENT 21 20 23 22 32 24 29 26 15 34 13 36 9 39 11 41
REMARK Flexibility Score: inf
ROOT
ATOM      1  O   UNL     1       3.158 -24.035  72.487  1.00  0.00    -0.454 OA
ENDROOT
BRANCH   1   2
ATOM      2  C   UNL     1       4.450 -24.492  72.800  1.00  0.00     0.214 A 
ATOM      3  C   UNL     1       5.540 -23.598  72.918  1.00  0.00     0.180 A 
ATOM      4  O   UNL     1       6.793 -24.018  72.699  1.00  0.00    -0.452 OA
ATOM      5  C   UNL     1       4.737 -25.830  72.558  1.00  0.00     0.239 A 
ATOM      6  C   UNL     1       7.070 -25.252  72.292  1.00  0.00     0.146 A 
ATOM      7  O   UNL     1       3.794 -26.650  72.306  1.00  0.00    -0.285 OA
ATOM      8  C   UNL     1       6.067 -26.253  72.297  1.00  0.00     0.111 A 
ATOM      9  C   UNL     1       8.284 -25.491  71.631  1.00  0.00     0.094 A 
ATOM     10  C   UNL     1       6.349 -27.520  71.734  1.00  0.00     0.134 A 
ATOM     11  C   UNL     1       8.382 -26.607  70.787  1.00  0.00     0.123 A 
ATOM     12  C   UNL     1       7.482 -27.674  70.929  1.00  0.00     0.093 A 
BRANCH   3  13
ATOM     13  C   UNL     1       5.312 -22.149  73.039  1.00  0.00     0.025 A 
ATOM     14  C   UNL     1       4.219 -21.662  73.776  1.00  0.00     0.016 A 
ATOM     15  C   UNL     1       3.754 -20.367  73.561  1.00  0.00     0.051 A 
ATOM     16  C   UNL     1       4.399 -19.529  72.626  1.00  0.00     0.157 A 
ATOM     17  C   UNL     1       6.057 -21.261  72.236  1.00  0.00     0.062 A 
ATOM     18  C   UNL     1       5.596 -19.954  72.024  1.00  0.00     0.158 A 
BRANCH  16  19
ATOM     19  O   UNL     1       3.832 -18.304  72.265  1.00  0.00    -0.504 OA
ATOM     20  H   UNL     1       2.831 -18.236  72.122  1.00  0.00     0.293 HD
ENDBRANCH  16  19
BRANCH  18  21
ATOM     21  O   UNL     1       6.278 -19.116  71.139  1.00  0.00    -0.504 OA
ATOM     22  H   UNL     1       6.707 -19.467  70.289  1.00  0.00     0.293 HD
ENDBRANCH  18  21
ENDBRANCH   3  13
BRANCH  10  23
ATOM     23  O   UNL     1       5.468 -28.596  71.913  1.00  0.00    -0.507 OA
ATOM     24  H   UNL     1       5.755 -29.528  72.215  1.00  0.00     0.293 HD
ENDBRANCH  10  23
BRANCH  11  25
ATOM     25  O   UNL     1       9.142 -26.497  69.616  1.00  0.00    -0.508 OA
ATOM     26  H   UNL     1       9.647 -25.648  69.384  1.00  0.00     0.293 HD
ENDBRANCH  11  25
ENDBRANCH   1   2
BRANCH   1  27
ATOM     27  C   UNL     1       2.406 -24.211  71.266  1.00  0.00     0.339 C 
ATOM     28  C   UNL     1       1.902 -22.844  70.691  1.00  0.00     0.214 C 
ATOM     29  O   UNL     1       1.350 -25.122  71.511  1.00  0.00    -0.332 OA
ATOM     30  C   UNL     1       0.842 -22.252  71.679  1.00  0.00     0.180 C 
ATOM     31  C   UNL     1       0.369 -24.674  72.434  1.00  0.00     0.179 C 
ATOM     32  C   UNL     1      -0.264 -23.333  71.962  1.00  0.00     0.177 C 
BRANCH  28  33
ATOM     33  O   UNL     1       3.022 -22.029  70.489  1.00  0.00    -0.384 OA
ATOM     34  H   UNL     1       2.799 -21.354  69.775  1.00  0.00     0.211 HD
ENDBRANCH  28  33
BRANCH  30  35
ATOM     35  O   UNL     1       0.228 -21.065  71.206  1.00  0.00    -0.387 OA
ATOM     36  H   UNL     1       0.570 -20.923  70.274  1.00  0.00     0.211 HD
ENDBRANCH  30  35
BRANCH  31  37
ATOM     37  C   UNL     1       0.863 -24.776  73.903  1.00  0.00     0.191 C 
BRANCH  37  38
ATOM     38  O   UNL     1       1.495 -26.010  74.104  1.00  0.00    -0.394 OA
ATOM     39  H   UNL     1       2.474 -25.861  74.055  1.00  0.00     0.210 HD
ENDBRANCH  37  38
ENDBRANCH  31  37
BRANCH  32  40
ATOM     40  O   UNL     1      -0.952 -23.595  70.758  1.00  0.00    -0.387 OA
ATOM     41  H   UNL     1      -0.490 -23.135  70.011  1.00  0.00     0.211 HD
ENDBRANCH  32  40
ENDBRANCH   1  27
TORSDOF 12
ENDMDL
