MODEL 1
REMARK VINA RESULT:    -3.056      0.000      0.000
REMARK INTER + INTRA:          -3.917
REMARK INTER:                  -3.592
REMARK INTRA:                  -0.325
REMARK UNBOUND:                -0.325
REMARK SMILES [NH3+][C@@H](CO)C(=O)[O-]
REMARK SMILES IDX 3 1 2 2 1 3 5 7 6 8 7 9 4 10
REMARK H PARENT 1 4 1 5 1 6 4 11
REMARK Flexibility Score: inf
ROOT
ATOM      1  C   UNL     1      63.365   1.709  -2.281  1.00  0.00     0.227 C 
ENDROOT
BRANCH   1   2
ATOM      2  C   UNL     1      64.892   1.887  -2.207  1.00  0.00     0.253 C 
BRANCH   2   3
ATOM      3  N   UNL     1      65.350   1.861  -0.814  1.00  0.00    -0.348 N 
ATOM      4  H   UNL     1      64.526   1.781  -0.173  1.00  0.00     0.345 HD
ATOM      5  H   UNL     1      65.881   2.731  -0.581  1.00  0.00     0.345 HD
ATOM      6  H   UNL     1      65.967   1.029  -0.658  1.00  0.00     0.345 HD
ENDBRANCH   2   3
BRANCH   2   7
ATOM      7  C   UNL     1      65.312   3.170  -2.875  1.00  0.00     0.102 C 
ATOM      8  O   UNL     1      65.997   3.147  -3.931  1.00  0.00    -0.544 OA
ATOM      9  O   UNL     1      64.954   4.392  -2.318  1.00  0.00    -0.544 OA
ENDBRANCH   2   7
ENDBRANCH   1   2
BRANCH   1  10
ATOM     10  O   UNL     1      62.824   2.471  -3.326  1.00  0.00    -0.390 OA
ATOM     11  H   UNL     1      63.311   2.209  -4.150  1.00  0.00     0.210 HD
ENDBRANCH   1  10
TORSDOF 4
ENDMDL
MODEL 2
REMARK VINA RESULT:    -2.982      6.684      7.506
REMARK INTER + INTRA:          -3.830
REMARK INTER:                  -3.604
REMARK INTRA:                  -0.225
REMARK UNBOUND:                -0.325
REMARK SMILES [NH3+][C@@H](CO)C(=O)[O-]
REMARK SMILES IDX 3 1 2 2 1 3 5 7 6 8 7 9 4 10
REMARK H PARENT 1 4 1 5 1 6 4 11
REMARK Flexibility Score: inf
ROOT
ATOM      1  C   UNL     1      57.298  -0.771  -0.162  1.00  0.00     0.227 C 
ENDROOT
BRANCH   1   2
ATOM      2  C   UNL     1      58.620  -0.009  -0.362  1.00  0.00     0.253 C 
BRANCH   2   3
ATOM      3  N   UNL     1      59.228  -0.357  -1.652  1.00  0.00    -0.348 N 
ATOM      4  H   UNL     1      58.507  -0.299  -2.408  1.00  0.00     0.345 HD
ATOM      5  H   UNL     1      59.622  -1.325  -1.628  1.00  0.00     0.345 HD
ATOM      6  H   UNL     1      59.994   0.321  -1.878  1.00  0.00     0.345 HD
ENDBRANCH   2   3
BRANCH   2   7
ATOM      7  C   UNL     1      59.578  -0.297   0.765  1.00  0.00     0.102 C 
ATOM      8  O   UNL     1      60.364   0.594   1.180  1.00  0.00    -0.544 OA
ATOM      9  O   UNL     1      59.606  -1.560   1.345  1.00  0.00    -0.544 OA
ENDBRANCH   2   7
ENDBRANCH   1   2
BRANCH   1  10
ATOM     10  O   UNL     1      57.418  -2.100  -0.594  1.00  0.00    -0.390 OA
ATOM     11  H   UNL     1      56.656  -2.597  -0.198  1.00  0.00     0.210 HD
ENDBRANCH   1  10
TORSDOF 4
ENDMDL
MODEL 3
REMARK VINA RESULT:    -2.916      6.744      7.802
REMARK INTER + INTRA:          -3.753
REMARK INTER:                  -3.527
REMARK INTRA:                  -0.225
REMARK UNBOUND:                -0.325
REMARK SMILES [NH3+][C@@H](CO)C(=O)[O-]
REMARK SMILES IDX 3 1 2 2 1 3 5 7 6 8 7 9 4 10
REMARK H PARENT 1 4 1 5 1 6 4 11
REMARK Flexibility Score: inf
ROOT
ATOM      1  C   UNL     1      59.337   0.678   0.941  1.00  0.00     0.227 C 
ENDROOT
BRANCH   1   2
ATOM      2  C   UNL     1      59.088  -0.405  -0.124  1.00  0.00     0.253 C 
BRANCH   2   3
ATOM      3  N   UNL     1      57.777  -0.219  -0.756  1.00  0.00    -0.348 N 
ATOM      4  H   UNL     1      57.123   0.242  -0.082  1.00  0.00     0.345 HD
ATOM      5  H   UNL     1      57.373  -1.137  -1.052  1.00  0.00     0.345 HD
ATOM      6  H   UNL     1      57.872   0.402  -1.595  1.00  0.00     0.345 HD
ENDBRANCH   2   3
BRANCH   2   7
ATOM      7  C   UNL     1      59.189  -1.781   0.481  1.00  0.00     0.102 C 
ATOM      8  O   UNL     1      59.702  -1.943   1.620  1.00  0.00    -0.544 OA
ATOM      9  O   UNL     1      58.727  -2.886  -0.224  1.00  0.00    -0.544 OA
ENDBRANCH   2   7
ENDBRANCH   1   2
BRANCH   1  10
ATOM     10  O   UNL     1      60.708   0.818   1.198  1.00  0.00    -0.390 OA
ATOM     11  H   UNL     1      61.052   1.486   0.550  1.00  0.00     0.210 HD
ENDBRANCH   1  10
TORSDOF 4
ENDMDL
MODEL 4
REMARK VINA RESULT:    -2.886      5.400      6.233
REMARK INTER + INTRA:          -3.717
REMARK INTER:                  -3.494
REMARK INTRA:                  -0.223
REMARK UNBOUND:                -0.325
REMARK SMILES [NH3+][C@@H](CO)C(=O)[O-]
REMARK SMILES IDX 3 1 2 2 1 3 5 7 6 8 7 9 4 10
REMARK H PARENT 1 4 1 5 1 6 4 11
REMARK Flexibility Score: inf
ROOT
ATOM      1  C   UNL     1      59.668   0.105   0.898  1.00  0.00     0.227 C 
ENDROOT
BRANCH   1   2
ATOM      2  C   UNL     1      58.993   0.545  -0.414  1.00  0.00     0.253 C 
BRANCH   2   3
ATOM      3  N   UNL     1      57.900  -0.369  -0.765  1.00  0.00    -0.348 N 
ATOM      4  H   UNL     1      58.277  -1.173  -1.320  1.00  0.00     0.345 HD
ATOM      5  H   UNL     1      57.170   0.124  -1.330  1.00  0.00     0.345 HD
ATOM      6  H   UNL     1      57.462  -0.751   0.106  1.00  0.00     0.345 HD
ENDBRANCH   2   3
BRANCH   2   7
ATOM      7  C   UNL     1      59.999   0.617  -1.533  1.00  0.00     0.102 C 
ATOM      8  O   UNL     1      60.855   1.540  -1.564  1.00  0.00    -0.544 OA
ATOM      9  O   UNL     1      59.977  -0.332  -2.548  1.00  0.00    -0.544 OA
ENDBRANCH   2   7
ENDBRANCH   1   2
BRANCH   1  10
ATOM     10  O   UNL     1      60.773   0.919   1.187  1.00  0.00    -0.390 OA
ATOM     11  H   UNL     1      61.178   0.562   2.020  1.00  0.00     0.210 HD
ENDBRANCH   1  10
TORSDOF 4
ENDMDL
MODEL 5
REMARK VINA RESULT:    -2.876      6.564      7.129
REMARK INTER + INTRA:          -3.706
REMARK INTER:                  -3.480
REMARK INTRA:                  -0.226
REMARK UNBOUND:                -0.325
REMARK SMILES [NH3+][C@@H](CO)C(=O)[O-]
REMARK SMILES IDX 3 1 2 2 1 3 5 7 6 8 7 9 4 10
REMARK H PARENT 1 4 1 5 1 6 4 11
REMARK Flexibility Score: inf
ROOT
ATOM      1  C   UNL     1      59.355   0.795   1.328  1.00  0.00     0.227 C 
ENDROOT
BRANCH   1   2
ATOM      2  C   UNL     1      58.800  -0.525   0.762  1.00  0.00     0.253 C 
BRANCH   2   3
ATOM      3  N   UNL     1      59.439  -1.675   1.412  1.00  0.00    -0.348 N 
ATOM      4  H   UNL     1      60.110  -2.127   0.749  1.00  0.00     0.345 HD
ATOM      5  H   UNL     1      58.723  -2.379   1.707  1.00  0.00     0.345 HD
ATOM      6  H   UNL     1      59.975  -1.356   2.253  1.00  0.00     0.345 HD
ENDBRANCH   2   3
BRANCH   2   7
ATOM      7  C   UNL     1      58.996  -0.589  -0.730  1.00  0.00     0.102 C 
ATOM      8  O   UNL     1      59.380   0.427  -1.369  1.00  0.00    -0.544 OA
ATOM      9  O   UNL     1      58.740  -1.771  -1.414  1.00  0.00    -0.544 OA
ENDBRANCH   2   7
ENDBRANCH   1   2
BRANCH   1  10
ATOM     10  O   UNL     1      60.755   0.822   1.249  1.00  0.00    -0.390 OA
ATOM     11  H   UNL     1      61.000   0.364   0.403  1.00  0.00     0.210 HD
ENDBRANCH   1  10
TORSDOF 4
ENDMDL
MODEL 6
REMARK VINA RESULT:    -2.861      1.918      2.418
REMARK INTER + INTRA:          -3.688
REMARK INTER:                  -3.646
REMARK INTRA:                  -0.042
REMARK UNBOUND:                -0.325
REMARK SMILES [NH3+][C@@H](CO)C(=O)[O-]
REMARK SMILES IDX 3 1 2 2 1 3 5 7 6 8 7 9 4 10
REMARK H PARENT 1 4 1 5 1 6 4 11
REMARK Flexibility Score: inf
ROOT
ATOM      1  C   UNL     1      64.866   1.143  -1.853  1.00  0.00     0.227 C 
ENDROOT
BRANCH   1   2
ATOM      2  C   UNL     1      64.153   2.468  -2.177  1.00  0.00     0.253 C 
BRANCH   2   3
ATOM      3  N   UNL     1      62.987   2.231  -3.035  1.00  0.00    -0.348 N 
ATOM      4  H   UNL     1      63.242   1.566  -3.802  1.00  0.00     0.345 HD
ATOM      5  H   UNL     1      62.649   3.127  -3.458  1.00  0.00     0.345 HD
ATOM      6  H   UNL     1      62.213   1.802  -2.475  1.00  0.00     0.345 HD
ENDBRANCH   2   3
BRANCH   2   7
ATOM      7  C   UNL     1      65.101   3.437  -2.833  1.00  0.00     0.102 C 
ATOM      8  O   UNL     1      65.018   4.671  -2.597  1.00  0.00    -0.544 OA
ATOM      9  O   UNL     1      66.068   2.972  -3.716  1.00  0.00    -0.544 OA
ENDBRANCH   2   7
ENDBRANCH   1   2
BRANCH   1  10
ATOM     10  O   UNL     1      65.558   1.233  -0.636  1.00  0.00    -0.390 OA
ATOM     11  H   UNL     1      66.309   0.586  -0.688  1.00  0.00     0.210 HD
ENDBRANCH   1  10
TORSDOF 4
ENDMDL
MODEL 7
REMARK VINA RESULT:    -2.852      6.288      7.553
REMARK INTER + INTRA:          -3.677
REMARK INTER:                  -3.671
REMARK INTRA:                  -0.006
REMARK UNBOUND:                -0.325
REMARK SMILES [NH3+][C@@H](CO)C(=O)[O-]
REMARK SMILES IDX 3 1 2 2 1 3 5 7 6 8 7 9 4 10
REMARK H PARENT 1 4 1 5 1 6 4 11
REMARK Flexibility Score: inf
ROOT
ATOM      1  C   UNL     1      59.404   0.639   0.770  1.00  0.00     0.227 C 
ENDROOT
BRANCH   1   2
ATOM      2  C   UNL     1      59.366  -0.080  -0.590  1.00  0.00     0.253 C 
BRANCH   2   3
ATOM      3  N   UNL     1      59.280   0.891  -1.686  1.00  0.00    -0.348 N 
ATOM      4  H   UNL     1      59.297   1.863  -1.299  1.00  0.00     0.345 HD
ATOM      5  H   UNL     1      58.399   0.757  -2.234  1.00  0.00     0.345 HD
ATOM      6  H   UNL     1      60.102   0.780  -2.325  1.00  0.00     0.345 HD
ENDBRANCH   2   3
BRANCH   2   7
ATOM      7  C   UNL     1      58.211  -1.045  -0.651  1.00  0.00     0.102 C 
ATOM      8  O   UNL     1      57.061  -0.691  -0.277  1.00  0.00    -0.544 OA
ATOM      9  O   UNL     1      58.413  -2.342  -1.109  1.00  0.00    -0.544 OA
ENDBRANCH   2   7
ENDBRANCH   1   2
BRANCH   1  10
ATOM     10  O   UNL     1      60.726   0.894   1.163  1.00  0.00    -0.390 OA
ATOM     11  H   UNL     1      60.771   1.858   1.398  1.00  0.00     0.210 HD
ENDBRANCH   1  10
TORSDOF 4
ENDMDL
MODEL 8
REMARK VINA RESULT:    -2.812      2.093      2.923
REMARK INTER + INTRA:          -3.630
REMARK INTER:                  -3.437
REMARK INTRA:                  -0.193
REMARK UNBOUND:                -0.325
REMARK SMILES [NH3+][C@@H](CO)C(=O)[O-]
REMARK SMILES IDX 3 1 2 2 1 3 5 7 6 8 7 9 4 10
REMARK H PARENT 1 4 1 5 1 6 4 11
REMARK Flexibility Score: inf
ROOT
ATOM      1  C   UNL     1      65.303   1.716  -2.106  1.00  0.00     0.227 C 
ENDROOT
BRANCH   1   2
ATOM      2  C   UNL     1      64.590   2.770  -2.972  1.00  0.00     0.253 C 
BRANCH   2   3
ATOM      3  N   UNL     1      64.845   4.121  -2.460  1.00  0.00    -0.348 N 
ATOM      4  H   UNL     1      65.551   4.600  -3.065  1.00  0.00     0.345 HD
ATOM      5  H   UNL     1      65.203   4.084  -1.478  1.00  0.00     0.345 HD
ATOM      6  H   UNL     1      63.961   4.683  -2.483  1.00  0.00     0.345 HD
ENDBRANCH   2   3
BRANCH   2   7
ATOM      7  C   UNL     1      63.108   2.499  -3.027  1.00  0.00     0.102 C 
ATOM      8  O   UNL     1      62.570   1.717  -2.200  1.00  0.00    -0.544 OA
ATOM      9  O   UNL     1      62.328   3.105  -4.005  1.00  0.00    -0.544 OA
ENDBRANCH   2   7
ENDBRANCH   1   2
BRANCH   1  10
ATOM     10  O   UNL     1      65.329   2.112  -0.761  1.00  0.00    -0.390 OA
ATOM     11  H   UNL     1      65.589   3.070  -0.751  1.00  0.00     0.210 HD
ENDBRANCH   1  10
TORSDOF 4
ENDMDL
MODEL 9
REMARK VINA RESULT:    -2.775      5.997      7.314
REMARK INTER + INTRA:          -3.587
REMARK INTER:                  -3.191
REMARK INTRA:                  -0.395
REMARK UNBOUND:                -0.325
REMARK SMILES [NH3+][C@@H](CO)C(=O)[O-]
REMARK SMILES IDX 3 1 2 2 1 3 5 7 6 8 7 9 4 10
REMARK H PARENT 1 4 1 5 1 6 4 11
REMARK Flexibility Score: inf
ROOT
ATOM      1  C   UNL     1      59.603   0.583  -1.502  1.00  0.00     0.227 C 
ENDROOT
BRANCH   1   2
ATOM      2  C   UNL     1      58.932   0.220  -0.165  1.00  0.00     0.253 C 
BRANCH   2   3
ATOM      3  N   UNL     1      59.820   0.529   0.961  1.00  0.00    -0.348 N 
ATOM      4  H   UNL     1      60.145   1.522   0.891  1.00  0.00     0.345 HD
ATOM      5  H   UNL     1      60.652  -0.104   0.963  1.00  0.00     0.345 HD
ATOM      6  H   UNL     1      59.301   0.419   1.864  1.00  0.00     0.345 HD
ENDBRANCH   2   3
BRANCH   2   7
ATOM      7  C   UNL     1      58.542  -1.236  -0.142  1.00  0.00     0.102 C 
ATOM      8  O   UNL     1      59.316  -2.097   0.352  1.00  0.00    -0.544 OA
ATOM      9  O   UNL     1      57.326  -1.637  -0.682  1.00  0.00    -0.544 OA
ENDBRANCH   2   7
ENDBRANCH   1   2
BRANCH   1  10
ATOM     10  O   UNL     1      59.642  -0.528  -2.358  1.00  0.00    -0.390 OA
ATOM     11  H   UNL     1      60.534  -0.946  -2.240  1.00  0.00     0.210 HD
ENDBRANCH   1  10
TORSDOF 4
ENDMDL
