MODEL 1
REMARK VINA RESULT:    -4.776      0.000      0.000
REMARK INTER + INTRA:          -5.531
REMARK INTER:                  -5.335
REMARK INTRA:                  -0.196
REMARK UNBOUND:                -0.196
REMARK SMILES O=C([O-])c1ccccc1C(=O)[O-]
REMARK SMILES IDX 4 1 9 2 5 3 8 4 6 5 7 6 2 7 1 8 3 9 10 10 11 11 12 12
REMARK H PARENT
REMARK Flexibility Score: inf
ROOT
ATOM      1  C   UNL     1      22.505 -24.574  20.566  1.00  0.00     0.006 A 
ATOM      2  C   UNL     1      22.349 -23.959  21.840  1.00  0.00     0.006 A 
ATOM      3  C   UNL     1      23.477 -24.076  19.680  1.00  0.00     0.010 A 
ATOM      4  C   UNL     1      23.216 -22.912  22.205  1.00  0.00     0.010 A 
ATOM      5  C   UNL     1      24.311 -23.022  20.055  1.00  0.00     0.001 A 
ATOM      6  C   UNL     1      24.188 -22.449  21.318  1.00  0.00     0.001 A 
ENDROOT
BRANCH   1   7
ATOM      7  C   UNL     1      21.734 -25.768  20.148  1.00  0.00     0.072 C 
ATOM      8  O   UNL     1      22.273 -26.907  20.121  1.00  0.00    -0.545 OA
ATOM      9  O   UNL     1      20.421 -25.633  19.714  1.00  0.00    -0.545 OA
ENDBRANCH   1   7
BRANCH   2  10
ATOM     10  C   UNL     1      21.263 -24.326  22.778  1.00  0.00     0.072 C 
ATOM     11  O   UNL     1      20.133 -23.777  22.685  1.00  0.00    -0.545 OA
ATOM     12  O   UNL     1      21.452 -25.322  23.728  1.00  0.00    -0.545 OA
ENDBRANCH   2  10
TORSDOF 2
ENDMDL
MODEL 2
REMARK VINA RESULT:    -4.771      9.332     10.811
REMARK INTER + INTRA:          -5.525
REMARK INTER:                  -5.486
REMARK INTRA:                  -0.038
REMARK UNBOUND:                -0.196
REMARK SMILES O=C([O-])c1ccccc1C(=O)[O-]
REMARK SMILES IDX 4 1 9 2 5 3 8 4 6 5 7 6 2 7 1 8 3 9 10 10 11 11 12 12
REMARK H PARENT
REMARK Flexibility Score: inf
ROOT
ATOM      1  C   UNL     1      13.111 -30.537  21.996  1.00  0.00     0.006 A 
ATOM      2  C   UNL     1      14.055 -29.638  22.566  1.00  0.00     0.006 A 
ATOM      3  C   UNL     1      11.739 -30.246  22.104  1.00  0.00     0.010 A 
ATOM      4  C   UNL     1      13.594 -28.449  23.164  1.00  0.00     0.010 A 
ATOM      5  C   UNL     1      11.303 -29.073  22.720  1.00  0.00     0.001 A 
ATOM      6  C   UNL     1      12.229 -28.171  23.239  1.00  0.00     0.001 A 
ENDROOT
BRANCH   1   7
ATOM      7  C   UNL     1      13.506 -31.740  21.229  1.00  0.00     0.072 C 
ATOM      8  O   UNL     1      13.134 -31.894  20.035  1.00  0.00    -0.545 OA
ATOM      9  O   UNL     1      14.238 -32.749  21.842  1.00  0.00    -0.545 OA
ENDBRANCH   1   7
BRANCH   2  10
ATOM     10  C   UNL     1      15.506 -29.931  22.623  1.00  0.00     0.072 C 
ATOM     11  O   UNL     1      16.288 -29.425  21.776  1.00  0.00    -0.545 OA
ATOM     12  O   UNL     1      16.032 -30.711  23.646  1.00  0.00    -0.545 OA
ENDBRANCH   2  10
TORSDOF 2
ENDMDL
MODEL 3
REMARK VINA RESULT:    -4.719      9.280     10.816
REMARK INTER + INTRA:          -5.467
REMARK INTER:                  -5.296
REMARK INTRA:                  -0.171
REMARK UNBOUND:                -0.196
REMARK SMILES O=C([O-])c1ccccc1C(=O)[O-]
REMARK SMILES IDX 4 1 9 2 5 3 8 4 6 5 7 6 2 7 1 8 3 9 10 10 11 11 12 12
REMARK H PARENT
REMARK Flexibility Score: inf
ROOT
ATOM      1  C   UNL     1      13.602 -29.690  22.344  1.00  0.00     0.006 A 
ATOM      2  C   UNL     1      12.641 -28.760  22.829  1.00  0.00     0.006 A 
ATOM      3  C   UNL     1      13.164 -30.804  21.606  1.00  0.00     0.010 A 
ATOM      4  C   UNL     1      11.284 -28.945  22.502  1.00  0.00     0.010 A 
ATOM      5  C   UNL     1      11.811 -30.979  21.312  1.00  0.00     0.001 A 
ATOM      6  C   UNL     1      10.875 -30.046  21.750  1.00  0.00     0.001 A 
ENDROOT
BRANCH   1   7
ATOM      7  C   UNL     1      15.061 -29.506  22.519  1.00  0.00     0.072 C 
ATOM      8  O   UNL     1      15.714 -28.753  21.748  1.00  0.00    -0.545 OA
ATOM      9  O   UNL     1      15.741 -30.218  23.500  1.00  0.00    -0.545 OA
ENDBRANCH   1   7
BRANCH   2  10
ATOM     10  C   UNL     1      12.996 -27.638  23.729  1.00  0.00     0.072 C 
ATOM     11  O   UNL     1      13.479 -26.576  23.256  1.00  0.00    -0.545 OA
ATOM     12  O   UNL     1      12.741 -27.716  25.093  1.00  0.00    -0.545 OA
ENDBRANCH   2  10
TORSDOF 2
ENDMDL
MODEL 4
REMARK VINA RESULT:    -4.709      9.222     10.885
REMARK INTER + INTRA:          -5.456
REMARK INTER:                  -5.415
REMARK INTRA:                  -0.041
REMARK UNBOUND:                -0.196
REMARK SMILES O=C([O-])c1ccccc1C(=O)[O-]
REMARK SMILES IDX 4 1 9 2 5 3 8 4 6 5 7 6 2 7 1 8 3 9 10 10 11 11 12 12
REMARK H PARENT
REMARK Flexibility Score: inf
ROOT
ATOM      1  C   UNL     1      14.161 -29.547  22.547  1.00  0.00     0.006 A 
ATOM      2  C   UNL     1      13.142 -30.415  22.065  1.00  0.00     0.006 A 
ATOM      3  C   UNL     1      13.796 -28.315  23.120  1.00  0.00     0.010 A 
ATOM      4  C   UNL     1      11.794 -30.048  22.235  1.00  0.00     0.010 A 
ATOM      5  C   UNL     1      12.453 -27.962  23.258  1.00  0.00     0.001 A 
ATOM      6  C   UNL     1      11.454 -28.831  22.826  1.00  0.00     0.001 A 
ENDROOT
BRANCH   1   7
ATOM      7  C   UNL     1      15.598 -29.906  22.538  1.00  0.00     0.072 C 
ATOM      8  O   UNL     1      16.322 -29.640  21.541  1.00  0.00    -0.545 OA
ATOM      9  O   UNL     1      16.149 -30.605  23.605  1.00  0.00    -0.545 OA
ENDBRANCH   1   7
BRANCH   2  10
ATOM     10  C   UNL     1      13.439 -31.663  21.325  1.00  0.00     0.072 C 
ATOM     11  O   UNL     1      13.057 -31.798  20.132  1.00  0.00    -0.545 OA
ATOM     12  O   UNL     1      14.194 -32.672  21.909  1.00  0.00    -0.545 OA
ENDBRANCH   2  10
TORSDOF 2
ENDMDL
MODEL 5
REMARK VINA RESULT:    -4.666      0.652      3.043
REMARK INTER + INTRA:          -5.408
REMARK INTER:                  -5.177
REMARK INTRA:                  -0.231
REMARK UNBOUND:                -0.196
REMARK SMILES O=C([O-])c1ccccc1C(=O)[O-]
REMARK SMILES IDX 4 1 9 2 5 3 8 4 6 5 7 6 2 7 1 8 3 9 10 10 11 11 12 12
REMARK H PARENT
REMARK Flexibility Score: inf
ROOT
ATOM      1  C   UNL     1      22.335 -24.377  21.748  1.00  0.00     0.006 A 
ATOM      2  C   UNL     1      22.180 -25.099  20.532  1.00  0.00     0.006 A 
ATOM      3  C   UNL     1      23.284 -23.340  21.812  1.00  0.00     0.010 A 
ATOM      4  C   UNL     1      22.932 -24.712  19.406  1.00  0.00     0.010 A 
ATOM      5  C   UNL     1      24.034 -22.989  20.689  1.00  0.00     0.001 A 
ATOM      6  C   UNL     1      23.850 -23.666  19.486  1.00  0.00     0.001 A 
ENDROOT
BRANCH   1   7
ATOM      7  C   UNL     1      21.494 -24.620  22.942  1.00  0.00     0.072 C 
ATOM      8  O   UNL     1      21.902 -25.356  23.880  1.00  0.00    -0.545 OA
ATOM      9  O   UNL     1      20.211 -24.089  23.011  1.00  0.00    -0.545 OA
ENDBRANCH   1   7
BRANCH   2  10
ATOM     10  C   UNL     1      21.309 -26.292  20.415  1.00  0.00     0.072 C 
ATOM     11  O   UNL     1      21.771 -27.439  20.655  1.00  0.00    -0.545 OA
ATOM     12  O   UNL     1      19.962 -26.158  20.103  1.00  0.00    -0.545 OA
ENDBRANCH   2  10
TORSDOF 2
ENDMDL
MODEL 6
REMARK VINA RESULT:    -4.621     10.751     11.289
REMARK INTER + INTRA:          -5.357
REMARK INTER:                  -5.126
REMARK INTRA:                  -0.231
REMARK UNBOUND:                -0.196
REMARK SMILES O=C([O-])c1ccccc1C(=O)[O-]
REMARK SMILES IDX 4 1 9 2 5 3 8 4 6 5 7 6 2 7 1 8 3 9 10 10 11 11 12 12
REMARK H PARENT
REMARK Flexibility Score: inf
ROOT
ATOM      1  C   UNL     1      14.485 -32.415  21.508  1.00  0.00     0.006 A 
ATOM      2  C   UNL     1      14.664 -31.965  22.845  1.00  0.00     0.006 A 
ATOM      3  C   UNL     1      13.436 -31.878  20.740  1.00  0.00     0.010 A 
ATOM      4  C   UNL     1      13.830 -30.946  23.342  1.00  0.00     0.010 A 
ATOM      5  C   UNL     1      12.606 -30.884  21.260  1.00  0.00     0.001 A 
ATOM      6  C   UNL     1      12.810 -30.411  22.555  1.00  0.00     0.001 A 
ENDROOT
BRANCH   1   7
ATOM      7  C   UNL     1      15.396 -33.382  20.854  1.00  0.00     0.072 C 
ATOM      8  O   UNL     1      15.096 -34.604  20.781  1.00  0.00    -0.545 OA
ATOM      9  O   UNL     1      16.630 -32.961  20.371  1.00  0.00    -0.545 OA
ENDBRANCH   1   7
BRANCH   2  10
ATOM     10  C   UNL     1      15.650 -32.573  23.769  1.00  0.00     0.072 C 
ATOM     11  O   UNL     1      15.336 -33.580  24.457  1.00  0.00    -0.545 OA
ATOM     12  O   UNL     1      16.948 -32.083  23.843  1.00  0.00    -0.545 OA
ENDBRANCH   2  10
TORSDOF 2
ENDMDL
MODEL 7
REMARK VINA RESULT:    -4.600     10.644     11.567
REMARK INTER + INTRA:          -5.334
REMARK INTER:                  -5.124
REMARK INTRA:                  -0.210
REMARK UNBOUND:                -0.196
REMARK SMILES O=C([O-])c1ccccc1C(=O)[O-]
REMARK SMILES IDX 4 1 9 2 5 3 8 4 6 5 7 6 2 7 1 8 3 9 10 10 11 11 12 12
REMARK H PARENT
REMARK Flexibility Score: inf
ROOT
ATOM      1  C   UNL     1      14.776 -31.942  22.925  1.00  0.00     0.006 A 
ATOM      2  C   UNL     1      14.527 -32.371  21.592  1.00  0.00     0.006 A 
ATOM      3  C   UNL     1      13.962 -30.941  23.485  1.00  0.00     0.010 A 
ATOM      4  C   UNL     1      13.431 -31.831  20.892  1.00  0.00     0.010 A 
ATOM      5  C   UNL     1      12.894 -30.404  22.765  1.00  0.00     0.001 A 
ATOM      6  C   UNL     1      12.623 -30.856  21.476  1.00  0.00     0.001 A 
ENDROOT
BRANCH   1   7
ATOM      7  C   UNL     1      15.817 -32.549  23.786  1.00  0.00     0.072 C 
ATOM      8  O   UNL     1      15.576 -33.591  24.453  1.00  0.00    -0.545 OA
ATOM      9  O   UNL     1      17.057 -31.936  23.919  1.00  0.00    -0.545 OA
ENDBRANCH   1   7
BRANCH   2  10
ATOM     10  C   UNL     1      15.416 -33.315  20.875  1.00  0.00     0.072 C 
ATOM     11  O   UNL     1      16.503 -32.912  20.383  1.00  0.00    -0.545 OA
ATOM     12  O   UNL     1      15.097 -34.665  20.793  1.00  0.00    -0.545 OA
ENDBRANCH   2  10
TORSDOF 2
ENDMDL
MODEL 8
REMARK VINA RESULT:    -4.563      9.497     11.350
REMARK INTER + INTRA:          -5.293
REMARK INTER:                  -5.078
REMARK INTRA:                  -0.214
REMARK UNBOUND:                -0.196
REMARK SMILES O=C([O-])c1ccccc1C(=O)[O-]
REMARK SMILES IDX 4 1 9 2 5 3 8 4 6 5 7 6 2 7 1 8 3 9 10 10 11 11 12 12
REMARK H PARENT
REMARK Flexibility Score: inf
ROOT
ATOM      1  C   UNL     1      17.165 -33.453  20.623  1.00  0.00     0.006 A 
ATOM      2  C   UNL     1      15.830 -33.944  20.664  1.00  0.00     0.006 A 
ATOM      3  C   UNL     1      18.169 -34.248  20.042  1.00  0.00     0.010 A 
ATOM      4  C   UNL     1      15.538 -35.183  20.061  1.00  0.00     0.010 A 
ATOM      5  C   UNL     1      17.861 -35.483  19.471  1.00  0.00     0.001 A 
ATOM      6  C   UNL     1      16.547 -35.944  19.471  1.00  0.00     0.001 A 
ENDROOT
BRANCH   1   7
ATOM      7  C   UNL     1      17.543 -32.105  21.107  1.00  0.00     0.072 C 
ATOM      8  O   UNL     1      17.641 -31.137  20.306  1.00  0.00    -0.545 OA
ATOM      9  O   UNL     1      17.860 -31.907  22.445  1.00  0.00    -0.545 OA
ENDBRANCH   1   7
BRANCH   2  10
ATOM     10  C   UNL     1      14.740 -33.240  21.377  1.00  0.00     0.072 C 
ATOM     11  O   UNL     1      13.853 -32.623  20.728  1.00  0.00    -0.545 OA
ATOM     12  O   UNL     1      14.641 -33.304  22.761  1.00  0.00    -0.545 OA
ENDBRANCH   2  10
TORSDOF 2
ENDMDL
MODEL 9
REMARK VINA RESULT:    -3.397     10.484     11.581
REMARK INTER + INTRA:          -3.990
REMARK INTER:                  -4.320
REMARK INTRA:                   0.330
REMARK UNBOUND:                -0.196
REMARK SMILES O=C([O-])c1ccccc1C(=O)[O-]
REMARK SMILES IDX 4 1 9 2 5 3 8 4 6 5 7 6 2 7 1 8 3 9 10 10 11 11 12 12
REMARK H PARENT
REMARK Flexibility Score: inf
ROOT
ATOM      1  C   UNL     1      11.939 -29.654  22.448  1.00  0.00     0.006 A 
ATOM      2  C   UNL     1      12.967 -29.590  23.430  1.00  0.00     0.006 A 
ATOM      3  C   UNL     1      10.891 -28.717  22.494  1.00  0.00     0.010 A 
ATOM      4  C   UNL     1      12.943 -28.550  24.379  1.00  0.00     0.010 A 
ATOM      5  C   UNL     1      10.875 -27.709  23.457  1.00  0.00     0.001 A 
ATOM      6  C   UNL     1      11.905 -27.619  24.391  1.00  0.00     0.001 A 
ENDROOT
BRANCH   1   7
ATOM      7  C   UNL     1      11.953 -30.624  21.330  1.00  0.00     0.072 C 
ATOM      8  O   UNL     1      10.877 -31.014  20.801  1.00  0.00    -0.545 OA
ATOM      9  O   UNL     1      13.154 -31.170  20.894  1.00  0.00    -0.545 OA
ENDBRANCH   1   7
BRANCH   2  10
ATOM     10  C   UNL     1      14.031 -30.614  23.544  1.00  0.00     0.072 C 
ATOM     11  O   UNL     1      15.223 -30.325  23.257  1.00  0.00    -0.545 OA
ATOM     12  O   UNL     1      13.742 -31.884  24.028  1.00  0.00    -0.545 OA
ENDBRANCH   2  10
TORSDOF 2
ENDMDL
