MODEL 1
REMARK VINA RESULT:    -4.078      0.000      0.000
REMARK INTER + INTRA:          -5.357
REMARK INTER:                  -5.270
REMARK INTRA:                  -0.087
REMARK UNBOUND:                -0.087
REMARK SMILES C=CC(=O)CCCCC
REMARK SMILES IDX 6 1 7 2 8 3 9 4 5 5 3 6 4 7 2 8 1 9
REMARK H PARENT
REMARK Flexibility Score: inf
ROOT
ATOM      1  C   UNL     1      11.585  21.894  58.965  1.00  0.00     0.008 C 
ENDROOT
BRANCH   1   2
ATOM      2  C   UNL     1      12.437  22.747  59.919  1.00  0.00     0.000 C 
BRANCH   2   3
ATOM      3  C   UNL     1      13.944  22.538  59.711  1.00  0.00    -0.003 C 
ATOM      4  C   UNL     1      14.672  22.430  61.048  1.00  0.00     0.004 C 
ENDBRANCH   2   3
ENDBRANCH   1   2
BRANCH   1   5
ATOM      5  C   UNL     1      10.081  22.142  59.135  1.00  0.00     0.080 C 
BRANCH   5   6
ATOM      6  C   UNL     1       9.357  21.890  57.845  1.00  0.00     0.155 C 
ATOM      7  O   UNL     1       9.844  22.331  56.768  1.00  0.00    -0.295 OA
BRANCH   6   8
ATOM      8  C   UNL     1       8.065  21.176  57.850  1.00  0.00     0.039 C 
ATOM      9  C   UNL     1       7.083  21.470  57.000  1.00  0.00     0.012 C 
ENDBRANCH   6   8
ENDBRANCH   5   6
ENDBRANCH   1   5
TORSDOF 5
ENDMDL
MODEL 2
REMARK VINA RESULT:    -4.063      9.752     11.265
REMARK INTER + INTRA:          -5.337
REMARK INTER:                  -4.966
REMARK INTRA:                  -0.371
REMARK UNBOUND:                -0.087
REMARK SMILES C=CC(=O)CCCCC
REMARK SMILES IDX 6 1 7 2 8 3 9 4 5 5 3 6 4 7 2 8 1 9
REMARK H PARENT
REMARK Flexibility Score: inf
ROOT
ATOM      1  C   UNL     1       6.113  28.212  53.660  1.00  0.00     0.008 C 
ENDROOT
BRANCH   1   2
ATOM      2  C   UNL     1       4.938  27.345  53.182  1.00  0.00     0.000 C 
BRANCH   2   3
ATOM      3  C   UNL     1       4.554  27.625  51.722  1.00  0.00    -0.003 C 
ATOM      4  C   UNL     1       5.312  26.704  50.769  1.00  0.00     0.004 C 
ENDBRANCH   2   3
ENDBRANCH   1   2
BRANCH   1   5
ATOM      5  C   UNL     1       6.108  29.613  53.033  1.00  0.00     0.080 C 
BRANCH   5   6
ATOM      6  C   UNL     1       6.171  30.667  54.098  1.00  0.00     0.155 C 
ATOM      7  O   UNL     1       7.255  30.857  54.715  1.00  0.00    -0.295 OA
BRANCH   6   8
ATOM      8  C   UNL     1       4.961  31.436  54.449  1.00  0.00     0.039 C 
ATOM      9  C   UNL     1       3.741  31.060  54.068  1.00  0.00     0.012 C 
ENDBRANCH   6   8
ENDBRANCH   5   6
ENDBRANCH   1   5
TORSDOF 5
ENDMDL
MODEL 3
REMARK VINA RESULT:    -4.030     10.286     11.149
REMARK INTER + INTRA:          -5.295
REMARK INTER:                  -5.031
REMARK INTRA:                  -0.263
REMARK UNBOUND:                -0.087
REMARK SMILES C=CC(=O)CCCCC
REMARK SMILES IDX 6 1 7 2 8 3 9 4 5 5 3 6 4 7 2 8 1 9
REMARK H PARENT
REMARK Flexibility Score: inf
ROOT
ATOM      1  C   UNL     1       3.748  30.874  54.041  1.00  0.00     0.008 C 
ENDROOT
BRANCH   1   2
ATOM      2  C   UNL     1       5.043  31.544  54.526  1.00  0.00     0.000 C 
BRANCH   2   3
ATOM      3  C   UNL     1       6.303  30.805  54.055  1.00  0.00    -0.003 C 
ATOM      4  C   UNL     1       7.548  31.343  54.755  1.00  0.00     0.004 C 
ENDBRANCH   2   3
ENDBRANCH   1   2
BRANCH   1   5
ATOM      5  C   UNL     1       4.005  29.777  52.999  1.00  0.00     0.080 C 
BRANCH   5   6
ATOM      6  C   UNL     1       3.444  28.466  53.466  1.00  0.00     0.155 C 
ATOM      7  O   UNL     1       2.337  28.449  54.070  1.00  0.00    -0.295 OA
BRANCH   6   8
ATOM      8  C   UNL     1       4.208  27.220  53.260  1.00  0.00     0.039 C 
ATOM      9  C   UNL     1       4.781  26.918  52.095  1.00  0.00     0.012 C 
ENDBRANCH   6   8
ENDBRANCH   5   6
ENDBRANCH   1   5
TORSDOF 5
ENDMDL
MODEL 4
REMARK VINA RESULT:    -3.992      1.043      5.477
REMARK INTER + INTRA:          -5.246
REMARK INTER:                  -5.152
REMARK INTRA:                  -0.094
REMARK UNBOUND:                -0.087
REMARK SMILES C=CC(=O)CCCCC
REMARK SMILES IDX 6 1 7 2 8 3 9 4 5 5 3 6 4 7 2 8 1 9
REMARK H PARENT
REMARK Flexibility Score: inf
ROOT
ATOM      1  C   UNL     1       9.380  22.015  57.760  1.00  0.00     0.008 C 
ENDROOT
BRANCH   1   2
ATOM      2  C   UNL     1       8.083  21.207  57.921  1.00  0.00     0.000 C 
BRANCH   2   3
ATOM      3  C   UNL     1       7.023  21.577  56.874  1.00  0.00    -0.003 C 
ATOM      4  C   UNL     1       7.076  20.626  55.681  1.00  0.00     0.004 C 
ENDBRANCH   2   3
ENDBRANCH   1   2
BRANCH   1   5
ATOM      5  C   UNL     1      10.227  22.035  59.040  1.00  0.00     0.080 C 
BRANCH   5   6
ATOM      6  C   UNL     1      11.682  22.184  58.705  1.00  0.00     0.155 C 
ATOM      7  O   UNL     1      12.105  21.773  57.590  1.00  0.00    -0.295 OA
BRANCH   6   8
ATOM      8  C   UNL     1      12.612  22.762  59.696  1.00  0.00     0.039 C 
ATOM      9  C   UNL     1      13.491  22.020  60.368  1.00  0.00     0.012 C 
ENDBRANCH   6   8
ENDBRANCH   5   6
ENDBRANCH   1   5
TORSDOF 5
ENDMDL
MODEL 5
REMARK VINA RESULT:    -3.907     10.110     11.433
REMARK INTER + INTRA:          -5.137
REMARK INTER:                  -4.955
REMARK INTRA:                  -0.181
REMARK UNBOUND:                -0.087
REMARK SMILES C=CC(=O)CCCCC
REMARK SMILES IDX 6 1 7 2 8 3 9 4 5 5 3 6 4 7 2 8 1 9
REMARK H PARENT
REMARK Flexibility Score: inf
ROOT
ATOM      1  C   UNL     1       6.040  28.566  53.564  1.00  0.00     0.008 C 
ENDROOT
BRANCH   1   2
ATOM      2  C   UNL     1       4.607  28.139  53.209  1.00  0.00     0.000 C 
BRANCH   2   3
ATOM      3  C   UNL     1       4.553  26.766  52.523  1.00  0.00    -0.003 C 
ATOM      4  C   UNL     1       5.336  26.777  51.214  1.00  0.00     0.004 C 
ENDBRANCH   2   3
ENDBRANCH   1   2
BRANCH   1   5
ATOM      5  C   UNL     1       6.376  29.978  53.065  1.00  0.00     0.080 C 
BRANCH   5   6
ATOM      6  C   UNL     1       6.332  30.960  54.199  1.00  0.00     0.155 C 
ATOM      7  O   UNL     1       5.215  31.308  54.672  1.00  0.00    -0.295 OA
BRANCH   6   8
ATOM      8  C   UNL     1       7.583  31.546  54.718  1.00  0.00     0.039 C 
ATOM      9  C   UNL     1       7.814  32.858  54.711  1.00  0.00     0.012 C 
ENDBRANCH   6   8
ENDBRANCH   5   6
ENDBRANCH   1   5
TORSDOF 5
ENDMDL
MODEL 6
REMARK VINA RESULT:    -3.883      2.409      3.134
REMARK INTER + INTRA:          -5.105
REMARK INTER:                  -4.599
REMARK INTRA:                  -0.506
REMARK UNBOUND:                -0.087
REMARK SMILES C=CC(=O)CCCCC
REMARK SMILES IDX 6 1 7 2 8 3 9 4 5 5 3 6 4 7 2 8 1 9
REMARK H PARENT
REMARK Flexibility Score: inf
ROOT
ATOM      1  C   UNL     1      14.286  20.657  59.304  1.00  0.00     0.008 C 
ENDROOT
BRANCH   1   2
ATOM      2  C   UNL     1      14.142  21.205  60.733  1.00  0.00     0.000 C 
BRANCH   2   3
ATOM      3  C   UNL     1      14.906  22.520  60.941  1.00  0.00    -0.003 C 
ATOM      4  C   UNL     1      16.029  22.669  59.918  1.00  0.00     0.004 C 
ENDBRANCH   2   3
ENDBRANCH   1   2
BRANCH   1   5
ATOM      5  C   UNL     1      12.940  20.547  58.575  1.00  0.00     0.080 C 
BRANCH   5   6
ATOM      6  C   UNL     1      12.294  21.896  58.458  1.00  0.00     0.155 C 
ATOM      7  O   UNL     1      12.907  22.825  57.865  1.00  0.00    -0.295 OA
BRANCH   6   8
ATOM      8  C   UNL     1      10.974  22.138  59.073  1.00  0.00     0.039 C 
ATOM      9  C   UNL     1      10.831  22.818  60.210  1.00  0.00     0.012 C 
ENDBRANCH   6   8
ENDBRANCH   5   6
ENDBRANCH   1   5
TORSDOF 5
ENDMDL
MODEL 7
REMARK VINA RESULT:    -3.879      9.865     11.340
REMARK INTER + INTRA:          -5.100
REMARK INTER:                  -4.591
REMARK INTRA:                  -0.509
REMARK UNBOUND:                -0.087
REMARK SMILES C=CC(=O)CCCCC
REMARK SMILES IDX 6 1 7 2 8 3 9 4 5 5 3 6 4 7 2 8 1 9
REMARK H PARENT
REMARK Flexibility Score: inf
ROOT
ATOM      1  C   UNL     1       5.690  27.815  52.338  1.00  0.00     0.008 C 
ENDROOT
BRANCH   1   2
ATOM      2  C   UNL     1       4.169  28.004  52.226  1.00  0.00     0.000 C 
BRANCH   2   3
ATOM      3  C   UNL     1       3.424  27.555  53.492  1.00  0.00    -0.003 C 
ATOM      4  C   UNL     1       2.526  28.669  54.023  1.00  0.00     0.004 C 
ENDBRANCH   2   3
ENDBRANCH   1   2
BRANCH   1   5
ATOM      5  C   UNL     1       6.268  28.424  53.622  1.00  0.00     0.080 C 
BRANCH   5   6
ATOM      6  C   UNL     1       6.699  29.842  53.384  1.00  0.00     0.155 C 
ATOM      7  O   UNL     1       7.419  30.108  52.383  1.00  0.00    -0.295 OA
BRANCH   6   8
ATOM      8  C   UNL     1       6.320  30.899  54.342  1.00  0.00     0.039 C 
ATOM      9  C   UNL     1       5.070  31.346  54.454  1.00  0.00     0.012 C 
ENDBRANCH   6   8
ENDBRANCH   5   6
ENDBRANCH   1   5
TORSDOF 5
ENDMDL
MODEL 8
REMARK VINA RESULT:    -3.856      9.631     10.521
REMARK INTER + INTRA:          -5.070
REMARK INTER:                  -4.572
REMARK INTRA:                  -0.499
REMARK UNBOUND:                -0.087
REMARK SMILES C=CC(=O)CCCCC
REMARK SMILES IDX 6 1 7 2 8 3 9 4 5 5 3 6 4 7 2 8 1 9
REMARK H PARENT
REMARK Flexibility Score: inf
ROOT
ATOM      1  C   UNL     1       6.743  28.806  52.540  1.00  0.00     0.008 C 
ENDROOT
BRANCH   1   2
ATOM      2  C   UNL     1       6.708  30.316  52.823  1.00  0.00     0.000 C 
BRANCH   2   3
ATOM      3  C   UNL     1       6.629  30.634  54.324  1.00  0.00    -0.003 C 
ATOM      4  C   UNL     1       5.418  31.508  54.636  1.00  0.00     0.004 C 
ENDBRANCH   2   3
ENDBRANCH   1   2
BRANCH   1   5
ATOM      5  C   UNL     1       5.997  27.988  53.603  1.00  0.00     0.080 C 
BRANCH   5   6
ATOM      6  C   UNL     1       4.774  27.350  53.013  1.00  0.00     0.155 C 
ATOM      7  O   UNL     1       4.896  26.587  52.016  1.00  0.00    -0.295 OA
BRANCH   6   8
ATOM      8  C   UNL     1       3.441  27.654  53.569  1.00  0.00     0.039 C 
ATOM      9  C   UNL     1       2.960  28.895  53.632  1.00  0.00     0.012 C 
ENDBRANCH   6   8
ENDBRANCH   5   6
ENDBRANCH   1   5
TORSDOF 5
ENDMDL
MODEL 9
REMARK VINA RESULT:    -3.788      3.327      4.211
REMARK INTER + INTRA:          -4.983
REMARK INTER:                  -4.571
REMARK INTRA:                  -0.412
REMARK UNBOUND:                -0.087
REMARK SMILES C=CC(=O)CCCCC
REMARK SMILES IDX 6 1 7 2 8 3 9 4 5 5 3 6 4 7 2 8 1 9
REMARK H PARENT
REMARK Flexibility Score: inf
ROOT
ATOM      1  C   UNL     1      13.867  21.946  60.765  1.00  0.00     0.008 C 
ENDROOT
BRANCH   1   2
ATOM      2  C   UNL     1      15.296  22.409  61.089  1.00  0.00     0.000 C 
BRANCH   2   3
ATOM      3  C   UNL     1      16.130  22.677  59.828  1.00  0.00    -0.003 C 
ATOM      4  C   UNL     1      17.618  22.751  60.160  1.00  0.00     0.004 C 
ENDBRANCH   2   3
ENDBRANCH   1   2
BRANCH   1   5
ATOM      5  C   UNL     1      13.369  22.468  59.411  1.00  0.00     0.080 C 
BRANCH   5   6
ATOM      6  C   UNL     1      13.057  21.326  58.489  1.00  0.00     0.155 C 
ATOM      7  O   UNL     1      12.299  21.521  57.500  1.00  0.00    -0.295 OA
BRANCH   6   8
ATOM      8  C   UNL     1      13.598  19.982  58.770  1.00  0.00     0.039 C 
ATOM      9  C   UNL     1      14.591  19.448  58.060  1.00  0.00     0.012 C 
ENDBRANCH   6   8
ENDBRANCH   5   6
ENDBRANCH   1   5
TORSDOF 5
ENDMDL
