MODEL 1
REMARK VINA RESULT:    -5.195      0.000      0.000
REMARK INTER + INTRA:         -16.889
REMARK INTER:                 -13.699
REMARK INTRA:                  -3.189
REMARK UNBOUND:                -3.189
REMARK SMILES CCCCCCCCCCCCCCCCCCCCCCCCCCCCCC(=O)[O-]
REMARK SMILES IDX 16 1 17 2 18 3 19 4 20 5 21 6 22 7 23 8 24 9 25 10 26 11
REMARK SMILES IDX 27 12 28 13 29 14 30 15 31 16 32 17 15 18 14 19 13 20 12 21
REMARK SMILES IDX 11 22 10 23 9 24 8 25 7 26 6 27 5 28 4 29 3 30 2 31 1 32
REMARK H PARENT
REMARK Flexibility Score: inf
ROOT
ATOM      1  C   UNL     1      28.520   1.598  31.518  1.00  0.00     0.000 C 
ENDROOT
BRANCH   1   2
ATOM      2  C   UNL     1      29.632   0.544  31.652  1.00  0.00     0.000 C 
BRANCH   2   3
ATOM      3  C   UNL     1      30.332   0.162  30.336  1.00  0.00     0.000 C 
BRANCH   3   4
ATOM      4  C   UNL     1      29.440   0.390  29.103  1.00  0.00     0.000 C 
BRANCH   4   5
ATOM      5  C   UNL     1      28.679  -0.879  28.669  1.00  0.00     0.000 C 
BRANCH   5   6
ATOM      6  C   UNL     1      27.157  -0.696  28.487  1.00  0.00     0.000 C 
BRANCH   6   7
ATOM      7  C   UNL     1      26.300  -0.975  29.739  1.00  0.00     0.000 C 
BRANCH   7   8
ATOM      8  C   UNL     1      26.941  -1.920  30.778  1.00  0.00     0.000 C 
BRANCH   8   9
ATOM      9  C   UNL     1      26.521  -3.393  30.635  1.00  0.00     0.000 C 
BRANCH   9  10
ATOM     10  C   UNL     1      27.722  -4.352  30.710  1.00  0.00     0.000 C 
BRANCH  10  11
ATOM     11  C   UNL     1      27.380  -5.763  30.201  1.00  0.00     0.000 C 
BRANCH  11  12
ATOM     12  C   UNL     1      28.540  -6.474  29.473  1.00  0.00     0.000 C 
BRANCH  12  13
ATOM     13  C   UNL     1      29.470  -7.313  30.377  1.00  0.00     0.006 C 
BRANCH  13  14
ATOM     14  C   UNL     1      28.791  -7.929  31.614  1.00  0.00     0.053 C 
BRANCH  14  15
ATOM     15  C   UNL     1      28.903  -9.424  31.633  1.00  0.00     0.041 C 
ATOM     16  O   UNL     1      28.011 -10.121  32.185  1.00  0.00    -0.550 OA
ATOM     17  O   UNL     1      29.998 -10.048  31.047  1.00  0.00    -0.550 OA
ENDBRANCH  14  15
ENDBRANCH  13  14
ENDBRANCH  12  13
ENDBRANCH  11  12
ENDBRANCH  10  11
ENDBRANCH   9  10
ENDBRANCH   8   9
ENDBRANCH   7   8
ENDBRANCH   6   7
ENDBRANCH   5   6
ENDBRANCH   4   5
ENDBRANCH   3   4
ENDBRANCH   2   3
ENDBRANCH   1   2
BRANCH   1  18
ATOM     18  C   UNL     1      28.999   3.024  31.853  1.00  0.00     0.000 C 
BRANCH  18  19
ATOM     19  C   UNL     1      27.935   4.089  31.536  1.00  0.00     0.000 C 
BRANCH  19  20
ATOM     20  C   UNL     1      28.271   4.898  30.272  1.00  0.00     0.000 C 
BRANCH  20  21
ATOM     21  C   UNL     1      28.032   4.110  28.972  1.00  0.00     0.000 C 
BRANCH  21  22
ATOM     22  C   UNL     1      26.755   3.242  28.991  1.00  0.00     0.000 C 
BRANCH  22  23
ATOM     23  C   UNL     1      26.468   2.575  27.634  1.00  0.00     0.000 C 
BRANCH  23  24
ATOM     24  C   UNL     1      25.115   2.997  27.032  1.00  0.00    -0.000 C 
BRANCH  24  25
ATOM     25  C   UNL     1      24.630   2.147  25.846  1.00  0.00    -0.000 C 
BRANCH  25  26
ATOM     26  C   UNL     1      24.642   0.642  26.152  1.00  0.00    -0.000 C 
BRANCH  26  27
ATOM     27  C   UNL     1      23.423  -0.087  25.564  1.00  0.00    -0.000 C 
BRANCH  27  28
ATOM     28  C   UNL     1      22.127   0.194  26.343  1.00  0.00    -0.000 C 
BRANCH  28  29
ATOM     29  C   UNL     1      21.428  -1.092  26.812  1.00  0.00    -0.000 C 
BRANCH  29  30
ATOM     30  C   UNL     1      20.787  -0.944  28.202  1.00  0.00    -0.000 C 
BRANCH  30  31
ATOM     31  C   UNL     1      21.263  -2.031  29.180  1.00  0.00    -0.003 C 
ATOM     32  C   UNL     1      22.314  -1.517  30.164  1.00  0.00     0.004 C 
ENDBRANCH  30  31
ENDBRANCH  29  30
ENDBRANCH  28  29
ENDBRANCH  27  28
ENDBRANCH  26  27
ENDBRANCH  25  26
ENDBRANCH  24  25
ENDBRANCH  23  24
ENDBRANCH  22  23
ENDBRANCH  21  22
ENDBRANCH  20  21
ENDBRANCH  19  20
ENDBRANCH  18  19
ENDBRANCH   1  18
TORSDOF 28
ENDMDL
MODEL 2
REMARK VINA RESULT:    -5.164      1.440      4.018
REMARK INTER + INTRA:         -16.807
REMARK INTER:                 -13.107
REMARK INTRA:                  -3.701
REMARK UNBOUND:                -3.189
REMARK SMILES CCCCCCCCCCCCCCCCCCCCCCCCCCCCCC(=O)[O-]
REMARK SMILES IDX 16 1 17 2 18 3 19 4 20 5 21 6 22 7 23 8 24 9 25 10 26 11
REMARK SMILES IDX 27 12 28 13 29 14 30 15 31 16 32 17 15 18 14 19 13 20 12 21
REMARK SMILES IDX 11 22 10 23 9 24 8 25 7 26 6 27 5 28 4 29 3 30 2 31 1 32
REMARK H PARENT
REMARK Flexibility Score: inf
ROOT
ATOM      1  C   UNL     1      27.761   2.406  29.927  1.00  0.00     0.000 C 
ENDROOT
BRANCH   1   2
ATOM      2  C   UNL     1      29.038   1.609  30.244  1.00  0.00     0.000 C 
BRANCH   2   3
ATOM      3  C   UNL     1      29.090   0.993  31.653  1.00  0.00     0.000 C 
BRANCH   3   4
ATOM      4  C   UNL     1      29.967  -0.269  31.715  1.00  0.00     0.000 C 
BRANCH   4   5
ATOM      5  C   UNL     1      29.197  -1.554  31.351  1.00  0.00     0.000 C 
BRANCH   5   6
ATOM      6  C   UNL     1      29.808  -2.375  30.195  1.00  0.00     0.000 C 
BRANCH   6   7
ATOM      7  C   UNL     1      28.959  -3.565  29.704  1.00  0.00     0.000 C 
BRANCH   7   8
ATOM      8  C   UNL     1      27.736  -3.909  30.582  1.00  0.00     0.000 C 
BRANCH   8   9
ATOM      9  C   UNL     1      27.250  -5.362  30.448  1.00  0.00     0.000 C 
BRANCH   9  10
ATOM     10  C   UNL     1      28.329  -6.286  29.857  1.00  0.00     0.000 C 
BRANCH  10  11
ATOM     11  C   UNL     1      29.255  -6.874  30.937  1.00  0.00     0.000 C 
BRANCH  11  12
ATOM     12  C   UNL     1      28.580  -7.917  31.853  1.00  0.00     0.000 C 
BRANCH  12  13
ATOM     13  C   UNL     1      28.958  -9.387  31.567  1.00  0.00     0.006 C 
BRANCH  13  14
ATOM     14  C   UNL     1      29.984  -9.586  30.437  1.00  0.00     0.053 C 
BRANCH  14  15
ATOM     15  C   UNL     1      29.327  -9.902  29.127  1.00  0.00     0.041 C 
ATOM     16  O   UNL     1      28.084 -10.097  29.072  1.00  0.00    -0.550 OA
ATOM     17  O   UNL     1      30.089  -9.991  27.968  1.00  0.00    -0.550 OA
ENDBRANCH  14  15
ENDBRANCH  13  14
ENDBRANCH  12  13
ENDBRANCH  11  12
ENDBRANCH  10  11
ENDBRANCH   9  10
ENDBRANCH   8   9
ENDBRANCH   7   8
ENDBRANCH   6   7
ENDBRANCH   5   6
ENDBRANCH   4   5
ENDBRANCH   3   4
ENDBRANCH   2   3
ENDBRANCH   1   2
BRANCH   1  18
ATOM     18  C   UNL     1      26.755   1.614  29.070  1.00  0.00     0.000 C 
BRANCH  18  19
ATOM     19  C   UNL     1      27.331   0.274  28.578  1.00  0.00     0.000 C 
BRANCH  19  20
ATOM     20  C   UNL     1      26.504  -0.932  29.055  1.00  0.00     0.000 C 
BRANCH  20  21
ATOM     21  C   UNL     1      25.461  -0.561  30.124  1.00  0.00     0.000 C 
BRANCH  21  22
ATOM     22  C   UNL     1      24.520  -1.721  30.512  1.00  0.00     0.000 C 
BRANCH  22  23
ATOM     23  C   UNL     1      23.039  -1.302  30.546  1.00  0.00     0.000 C 
BRANCH  23  24
ATOM     24  C   UNL     1      22.082  -2.450  30.178  1.00  0.00    -0.000 C 
BRANCH  24  25
ATOM     25  C   UNL     1      21.124  -2.158  29.010  1.00  0.00    -0.000 C 
BRANCH  25  26
ATOM     26  C   UNL     1      21.538  -0.920  28.200  1.00  0.00    -0.000 C 
BRANCH  26  27
ATOM     27  C   UNL     1      21.172  -1.041  26.713  1.00  0.00    -0.000 C 
BRANCH  27  28
ATOM     28  C   UNL     1      22.213  -0.389  25.788  1.00  0.00    -0.000 C 
BRANCH  28  29
ATOM     29  C   UNL     1      23.490   0.028  26.535  1.00  0.00    -0.000 C 
BRANCH  29  30
ATOM     30  C   UNL     1      24.521   0.702  25.614  1.00  0.00    -0.000 C 
BRANCH  30  31
ATOM     31  C   UNL     1      24.746   2.179  25.978  1.00  0.00    -0.003 C 
ATOM     32  C   UNL     1      23.522   3.049  25.692  1.00  0.00     0.004 C 
ENDBRANCH  30  31
ENDBRANCH  29  30
ENDBRANCH  28  29
ENDBRANCH  27  28
ENDBRANCH  26  27
ENDBRANCH  25  26
ENDBRANCH  24  25
ENDBRANCH  23  24
ENDBRANCH  22  23
ENDBRANCH  21  22
ENDBRANCH  20  21
ENDBRANCH  19  20
ENDBRANCH  18  19
ENDBRANCH   1  18
TORSDOF 28
ENDMDL
MODEL 3
REMARK VINA RESULT:    -5.150      5.399      9.742
REMARK INTER + INTRA:         -16.768
REMARK INTER:                 -13.637
REMARK INTRA:                  -3.131
REMARK UNBOUND:                -3.189
REMARK SMILES CCCCCCCCCCCCCCCCCCCCCCCCCCCCCC(=O)[O-]
REMARK SMILES IDX 16 1 17 2 18 3 19 4 20 5 21 6 22 7 23 8 24 9 25 10 26 11
REMARK SMILES IDX 27 12 28 13 29 14 30 15 31 16 32 17 15 18 14 19 13 20 12 21
REMARK SMILES IDX 11 22 10 23 9 24 8 25 7 26 6 27 5 28 4 29 3 30 2 31 1 32
REMARK H PARENT
REMARK Flexibility Score: inf
ROOT
ATOM      1  C   UNL     1      28.811  -2.043  28.886  1.00  0.00     0.000 C 
ENDROOT
BRANCH   1   2
ATOM      2  C   UNL     1      27.396  -1.483  29.111  1.00  0.00     0.000 C 
BRANCH   2   3
ATOM      3  C   UNL     1      27.065  -1.110  30.566  1.00  0.00     0.000 C 
BRANCH   3   4
ATOM      4  C   UNL     1      26.476   0.305  30.696  1.00  0.00     0.000 C 
BRANCH   4   5
ATOM      5  C   UNL     1      27.061   1.296  29.670  1.00  0.00     0.000 C 
BRANCH   5   6
ATOM      6  C   UNL     1      28.555   1.630  29.866  1.00  0.00     0.000 C 
BRANCH   6   7
ATOM      7  C   UNL     1      29.033   1.704  31.331  1.00  0.00     0.000 C 
BRANCH   7   8
ATOM      8  C   UNL     1      28.724   3.030  32.058  1.00  0.00     0.000 C 
BRANCH   8   9
ATOM      9  C   UNL     1      28.635   4.254  31.130  1.00  0.00     0.000 C 
BRANCH   9  10
ATOM     10  C   UNL     1      27.234   4.889  31.134  1.00  0.00     0.000 C 
BRANCH  10  11
ATOM     11  C   UNL     1      27.159   6.153  30.259  1.00  0.00     0.000 C 
BRANCH  11  12
ATOM     12  C   UNL     1      28.532   6.776  29.925  1.00  0.00     0.000 C 
BRANCH  12  13
ATOM     13  C   UNL     1      28.518   8.298  29.664  1.00  0.00     0.006 C 
BRANCH  13  14
ATOM     14  C   UNL     1      28.389   9.172  30.925  1.00  0.00     0.053 C 
BRANCH  14  15
ATOM     15  C   UNL     1      26.996   9.698  31.107  1.00  0.00     0.041 C 
ATOM     16  O   UNL     1      26.489   9.768  32.257  1.00  0.00    -0.550 OA
ATOM     17  O   UNL     1      26.255  10.103  30.003  1.00  0.00    -0.550 OA
ENDBRANCH  14  15
ENDBRANCH  13  14
ENDBRANCH  12  13
ENDBRANCH  11  12
ENDBRANCH  10  11
ENDBRANCH   9  10
ENDBRANCH   8   9
ENDBRANCH   7   8
ENDBRANCH   6   7
ENDBRANCH   5   6
ENDBRANCH   4   5
ENDBRANCH   3   4
ENDBRANCH   2   3
ENDBRANCH   1   2
BRANCH   1  18
ATOM     18  C   UNL     1      29.506  -2.464  30.195  1.00  0.00     0.000 C 
BRANCH  18  19
ATOM     19  C   UNL     1      30.462  -3.653  29.994  1.00  0.00     0.000 C 
BRANCH  19  20
ATOM     20  C   UNL     1      29.726  -4.932  29.559  1.00  0.00     0.000 C 
BRANCH  20  21
ATOM     21  C   UNL     1      29.409  -5.873  30.734  1.00  0.00     0.000 C 
BRANCH  21  22
ATOM     22  C   UNL     1      27.955  -5.774  31.243  1.00  0.00     0.000 C 
BRANCH  22  23
ATOM     23  C   UNL     1      26.974  -5.304  30.155  1.00  0.00     0.000 C 
BRANCH  23  24
ATOM     24  C   UNL     1      25.820  -4.451  30.715  1.00  0.00    -0.000 C 
BRANCH  24  25
ATOM     25  C   UNL     1      24.424  -4.796  30.169  1.00  0.00    -0.000 C 
BRANCH  25  26
ATOM     26  C   UNL     1      23.329  -3.867  30.714  1.00  0.00    -0.000 C 
BRANCH  26  27
ATOM     27  C   UNL     1      23.621  -2.385  30.432  1.00  0.00    -0.000 C 
BRANCH  27  28
ATOM     28  C   UNL     1      22.346  -1.530  30.354  1.00  0.00    -0.000 C 
BRANCH  28  29
ATOM     29  C   UNL     1      21.313  -2.095  29.366  1.00  0.00    -0.000 C 
BRANCH  29  30
ATOM     30  C   UNL     1      20.866  -1.060  28.320  1.00  0.00    -0.000 C 
BRANCH  30  31
ATOM     31  C   UNL     1      21.262  -1.471  26.892  1.00  0.00    -0.003 C 
ATOM     32  C   UNL     1      22.085  -0.399  26.178  1.00  0.00     0.004 C 
ENDBRANCH  30  31
ENDBRANCH  29  30
ENDBRANCH  28  29
ENDBRANCH  27  28
ENDBRANCH  26  27
ENDBRANCH  25  26
ENDBRANCH  24  25
ENDBRANCH  23  24
ENDBRANCH  22  23
ENDBRANCH  21  22
ENDBRANCH  20  21
ENDBRANCH  19  20
ENDBRANCH  18  19
ENDBRANCH   1  18
TORSDOF 28
ENDMDL
MODEL 4
REMARK VINA RESULT:    -5.147      2.858      8.014
REMARK INTER + INTRA:         -16.761
REMARK INTER:                 -13.825
REMARK INTRA:                  -2.936
REMARK UNBOUND:                -3.189
REMARK SMILES CCCCCCCCCCCCCCCCCCCCCCCCCCCCCC(=O)[O-]
REMARK SMILES IDX 16 1 17 2 18 3 19 4 20 5 21 6 22 7 23 8 24 9 25 10 26 11
REMARK SMILES IDX 27 12 28 13 29 14 30 15 31 16 32 17 15 18 14 19 13 20 12 21
REMARK SMILES IDX 11 22 10 23 9 24 8 25 7 26 6 27 5 28 4 29 3 30 2 31 1 32
REMARK H PARENT
REMARK Flexibility Score: inf
ROOT
ATOM      1  C   UNL     1      29.494   1.224  31.640  1.00  0.00     0.000 C 
ENDROOT
BRANCH   1   2
ATOM      2  C   UNL     1      28.305   2.060  31.136  1.00  0.00     0.000 C 
BRANCH   2   3
ATOM      3  C   UNL     1      28.205   3.476  31.729  1.00  0.00     0.000 C 
BRANCH   3   4
ATOM      4  C   UNL     1      28.118   4.566  30.648  1.00  0.00     0.000 C 
BRANCH   4   5
ATOM      5  C   UNL     1      27.933   3.992  29.229  1.00  0.00     0.000 C 
BRANCH   5   6
ATOM      6  C   UNL     1      26.465   3.828  28.779  1.00  0.00     0.000 C 
BRANCH   6   7
ATOM      7  C   UNL     1      26.198   2.674  27.790  1.00  0.00     0.000 C 
BRANCH   7   8
ATOM      8  C   UNL     1      24.996   2.883  26.844  1.00  0.00     0.000 C 
BRANCH   8   9
ATOM      9  C   UNL     1      24.882   1.831  25.727  1.00  0.00     0.000 C 
BRANCH   9  10
ATOM     10  C   UNL     1      24.183   0.547  26.204  1.00  0.00     0.000 C 
BRANCH  10  11
ATOM     11  C   UNL     1      22.656   0.606  26.023  1.00  0.00     0.000 C 
BRANCH  11  12
ATOM     12  C   UNL     1      22.010  -0.742  25.639  1.00  0.00     0.000 C 
BRANCH  12  13
ATOM     13  C   UNL     1      21.143  -1.393  26.739  1.00  0.00     0.006 C 
BRANCH  13  14
ATOM     14  C   UNL     1      21.275  -0.754  28.134  1.00  0.00     0.053 C 
BRANCH  14  15
ATOM     15  C   UNL     1      21.428  -1.783  29.214  1.00  0.00     0.041 C 
ATOM     16  O   UNL     1      20.959  -2.941  29.059  1.00  0.00    -0.550 OA
ATOM     17  O   UNL     1      22.083  -1.460  30.397  1.00  0.00    -0.550 OA
ENDBRANCH  14  15
ENDBRANCH  13  14
ENDBRANCH  12  13
ENDBRANCH  11  12
ENDBRANCH  10  11
ENDBRANCH   9  10
ENDBRANCH   8   9
ENDBRANCH   7   8
ENDBRANCH   6   7
ENDBRANCH   5   6
ENDBRANCH   4   5
ENDBRANCH   3   4
ENDBRANCH   2   3
ENDBRANCH   1   2
BRANCH   1  18
ATOM     18  C   UNL     1      30.035   0.247  30.579  1.00  0.00     0.000 C 
BRANCH  18  19
ATOM     19  C   UNL     1      29.346   0.423  29.214  1.00  0.00     0.000 C 
BRANCH  19  20
ATOM     20  C   UNL     1      28.697  -0.877  28.711  1.00  0.00     0.000 C 
BRANCH  20  21
ATOM     21  C   UNL     1      27.168  -0.774  28.580  1.00  0.00     0.000 C 
BRANCH  21  22
ATOM     22  C   UNL     1      26.421  -0.767  29.931  1.00  0.00     0.000 C 
BRANCH  22  23
ATOM     23  C   UNL     1      27.038  -1.733  30.958  1.00  0.00     0.000 C 
BRANCH  23  24
ATOM     24  C   UNL     1      26.976  -3.205  30.510  1.00  0.00    -0.000 C 
BRANCH  24  25
ATOM     25  C   UNL     1      28.278  -4.004  30.695  1.00  0.00    -0.000 C 
BRANCH  25  26
ATOM     26  C   UNL     1      28.039  -5.519  30.760  1.00  0.00    -0.000 C 
BRANCH  26  27
ATOM     27  C   UNL     1      29.162  -6.321  30.083  1.00  0.00    -0.000 C 
BRANCH  27  28
ATOM     28  C   UNL     1      28.662  -7.164  28.898  1.00  0.00    -0.000 C 
BRANCH  28  29
ATOM     29  C   UNL     1      29.139  -8.624  28.968  1.00  0.00    -0.000 C 
BRANCH  29  30
ATOM     30  C   UNL     1      29.666  -9.009  30.360  1.00  0.00    -0.000 C 
BRANCH  30  31
ATOM     31  C   UNL     1      28.583  -9.673  31.227  1.00  0.00    -0.003 C 
ATOM     32  C   UNL     1      28.422  -8.996  32.588  1.00  0.00     0.004 C 
ENDBRANCH  30  31
ENDBRANCH  29  30
ENDBRANCH  28  29
ENDBRANCH  27  28
ENDBRANCH  26  27
ENDBRANCH  25  26
ENDBRANCH  24  25
ENDBRANCH  23  24
ENDBRANCH  22  23
ENDBRANCH  21  22
ENDBRANCH  20  21
ENDBRANCH  19  20
ENDBRANCH  18  19
ENDBRANCH   1  18
TORSDOF 28
ENDMDL
MODEL 5
REMARK VINA RESULT:    -5.113      3.777      7.983
REMARK INTER + INTRA:         -16.671
REMARK INTER:                 -14.477
REMARK INTRA:                  -2.194
REMARK UNBOUND:                -3.189
REMARK SMILES CCCCCCCCCCCCCCCCCCCCCCCCCCCCCC(=O)[O-]
REMARK SMILES IDX 16 1 17 2 18 3 19 4 20 5 21 6 22 7 23 8 24 9 25 10 26 11
REMARK SMILES IDX 27 12 28 13 29 14 30 15 31 16 32 17 15 18 14 19 13 20 12 21
REMARK SMILES IDX 11 22 10 23 9 24 8 25 7 26 6 27 5 28 4 29 3 30 2 31 1 32
REMARK H PARENT
REMARK Flexibility Score: inf
ROOT
ATOM      1  C   UNL     1      30.478  -3.184  30.226  1.00  0.00     0.000 C 
ENDROOT
BRANCH   1   2
ATOM      2  C   UNL     1      29.872  -4.502  29.717  1.00  0.00     0.000 C 
BRANCH   2   3
ATOM      3  C   UNL     1      29.923  -5.673  30.714  1.00  0.00     0.000 C 
BRANCH   3   4
ATOM      4  C   UNL     1      29.174  -6.917  30.206  1.00  0.00     0.000 C 
BRANCH   4   5
ATOM      5  C   UNL     1      27.777  -6.589  29.643  1.00  0.00     0.000 C 
BRANCH   5   6
ATOM      6  C   UNL     1      27.015  -5.478  30.397  1.00  0.00     0.000 C 
BRANCH   6   7
ATOM      7  C   UNL     1      25.571  -5.221  29.919  1.00  0.00     0.000 C 
BRANCH   7   8
ATOM      8  C   UNL     1      24.799  -4.141  30.708  1.00  0.00     0.000 C 
BRANCH   8   9
ATOM      9  C   UNL     1      23.274  -4.177  30.502  1.00  0.00     0.000 C 
BRANCH   9  10
ATOM     10  C   UNL     1      22.635  -2.784  30.628  1.00  0.00     0.000 C 
BRANCH  10  11
ATOM     11  C   UNL     1      21.543  -2.540  29.571  1.00  0.00     0.000 C 
BRANCH  11  12
ATOM     12  C   UNL     1      21.581  -1.136  28.931  1.00  0.00     0.000 C 
BRANCH  12  13
ATOM     13  C   UNL     1      20.794  -0.993  27.610  1.00  0.00     0.006 C 
BRANCH  13  14
ATOM     14  C   UNL     1      21.616  -1.247  26.333  1.00  0.00     0.053 C 
BRANCH  14  15
ATOM     15  C   UNL     1      22.568  -0.125  26.043  1.00  0.00     0.041 C 
ATOM     16  O   UNL     1      23.800  -0.353  25.922  1.00  0.00    -0.550 OA
ATOM     17  O   UNL     1      22.094   1.176  25.914  1.00  0.00    -0.550 OA
ENDBRANCH  14  15
ENDBRANCH  13  14
ENDBRANCH  12  13
ENDBRANCH  11  12
ENDBRANCH  10  11
ENDBRANCH   9  10
ENDBRANCH   8   9
ENDBRANCH   7   8
ENDBRANCH   6   7
ENDBRANCH   5   6
ENDBRANCH   4   5
ENDBRANCH   3   4
ENDBRANCH   2   3
ENDBRANCH   1   2
BRANCH   1  18
ATOM     18  C   UNL     1      29.567  -1.967  29.975  1.00  0.00     0.000 C 
BRANCH  18  19
ATOM     19  C   UNL     1      29.590  -0.967  31.145  1.00  0.00     0.000 C 
BRANCH  19  20
ATOM     20  C   UNL     1      28.188  -0.698  31.716  1.00  0.00     0.000 C 
BRANCH  20  21
ATOM     21  C   UNL     1      27.089  -1.524  31.024  1.00  0.00     0.000 C 
BRANCH  21  22
ATOM     22  C   UNL     1      26.109  -0.681  30.180  1.00  0.00     0.000 C 
BRANCH  22  23
ATOM     23  C   UNL     1      26.782  -0.029  28.959  1.00  0.00     0.000 C 
BRANCH  23  24
ATOM     24  C   UNL     1      26.767   1.510  29.016  1.00  0.00    -0.000 C 
BRANCH  24  25
ATOM     25  C   UNL     1      28.105   2.166  29.398  1.00  0.00    -0.000 C 
BRANCH  25  26
ATOM     26  C   UNL     1      28.166   2.568  30.879  1.00  0.00    -0.000 C 
BRANCH  26  27
ATOM     27  C   UNL     1      28.178   4.092  31.075  1.00  0.00    -0.000 C 
BRANCH  27  28
ATOM     28  C   UNL     1      27.511   4.848  29.914  1.00  0.00    -0.000 C 
BRANCH  28  29
ATOM     29  C   UNL     1      27.089   6.274  30.301  1.00  0.00    -0.000 C 
BRANCH  29  30
ATOM     30  C   UNL     1      28.246   7.282  30.200  1.00  0.00    -0.000 C 
BRANCH  30  31
ATOM     31  C   UNL     1      27.756   8.738  30.279  1.00  0.00    -0.003 C 
ATOM     32  C   UNL     1      26.457   8.879  31.072  1.00  0.00     0.004 C 
ENDBRANCH  30  31
ENDBRANCH  29  30
ENDBRANCH  28  29
ENDBRANCH  27  28
ENDBRANCH  26  27
ENDBRANCH  25  26
ENDBRANCH  24  25
ENDBRANCH  23  24
ENDBRANCH  22  23
ENDBRANCH  21  22
ENDBRANCH  20  21
ENDBRANCH  19  20
ENDBRANCH  18  19
ENDBRANCH   1  18
TORSDOF 28
ENDMDL
MODEL 6
REMARK VINA RESULT:    -4.991      5.398      9.653
REMARK INTER + INTRA:         -16.349
REMARK INTER:                 -13.790
REMARK INTRA:                  -2.559
REMARK UNBOUND:                -3.189
REMARK SMILES CCCCCCCCCCCCCCCCCCCCCCCCCCCCCC(=O)[O-]
REMARK SMILES IDX 16 1 17 2 18 3 19 4 20 5 21 6 22 7 23 8 24 9 25 10 26 11
REMARK SMILES IDX 27 12 28 13 29 14 30 15 31 16 32 17 15 18 14 19 13 20 12 21
REMARK SMILES IDX 11 22 10 23 9 24 8 25 7 26 6 27 5 28 4 29 3 30 2 31 1 32
REMARK H PARENT
REMARK Flexibility Score: inf
ROOT
ATOM      1  C   UNL     1      30.219  -4.066  30.307  1.00  0.00     0.000 C 
ENDROOT
BRANCH   1   2
ATOM      2  C   UNL     1      29.752  -2.818  29.539  1.00  0.00     0.000 C 
BRANCH   2   3
ATOM      3  C   UNL     1      29.785  -1.506  30.342  1.00  0.00     0.000 C 
BRANCH   3   4
ATOM      4  C   UNL     1      28.681  -1.438  31.410  1.00  0.00     0.000 C 
BRANCH   4   5
ATOM      5  C   UNL     1      27.265  -1.600  30.822  1.00  0.00     0.000 C 
BRANCH   5   6
ATOM      6  C   UNL     1      26.475  -0.285  30.652  1.00  0.00     0.000 C 
BRANCH   6   7
ATOM      7  C   UNL     1      26.909   0.602  29.467  1.00  0.00     0.000 C 
BRANCH   7   8
ATOM      8  C   UNL     1      27.637   1.908  29.853  1.00  0.00     0.000 C 
BRANCH   8   9
ATOM      9  C   UNL     1      27.477   3.047  28.831  1.00  0.00     0.000 C 
BRANCH   9  10
ATOM     10  C   UNL     1      26.904   4.325  29.466  1.00  0.00     0.000 C 
BRANCH  10  11
ATOM     11  C   UNL     1      28.003   5.246  30.025  1.00  0.00     0.000 C 
BRANCH  11  12
ATOM     12  C   UNL     1      27.493   6.617  30.518  1.00  0.00     0.000 C 
BRANCH  12  13
ATOM     13  C   UNL     1      28.499   7.781  30.386  1.00  0.00     0.006 C 
BRANCH  13  14
ATOM     14  C   UNL     1      27.924   9.069  29.768  1.00  0.00     0.053 C 
BRANCH  14  15
ATOM     15  C   UNL     1      26.849   9.673  30.621  1.00  0.00     0.041 C 
ATOM     16  O   UNL     1      25.700   9.873  30.146  1.00  0.00    -0.550 OA
ATOM     17  O   UNL     1      27.119  10.023  31.939  1.00  0.00    -0.550 OA
ENDBRANCH  14  15
ENDBRANCH  13  14
ENDBRANCH  12  13
ENDBRANCH  11  12
ENDBRANCH  10  11
ENDBRANCH   9  10
ENDBRANCH   8   9
ENDBRANCH   7   8
ENDBRANCH   6   7
ENDBRANCH   5   6
ENDBRANCH   4   5
ENDBRANCH   3   4
ENDBRANCH   2   3
ENDBRANCH   1   2
BRANCH   1  18
ATOM     18  C   UNL     1      29.479  -5.348  29.878  1.00  0.00     0.000 C 
BRANCH  18  19
ATOM     19  C   UNL     1      28.845  -6.085  31.071  1.00  0.00     0.000 C 
BRANCH  19  20
ATOM     20  C   UNL     1      27.460  -5.525  31.439  1.00  0.00     0.000 C 
BRANCH  20  21
ATOM     21  C   UNL     1      26.594  -5.206  30.207  1.00  0.00     0.000 C 
BRANCH  21  22
ATOM     22  C   UNL     1      25.247  -4.533  30.544  1.00  0.00     0.000 C 
BRANCH  22  23
ATOM     23  C   UNL     1      24.059  -5.173  29.804  1.00  0.00     0.000 C 
BRANCH  23  24
ATOM     24  C   UNL     1      22.732  -4.430  30.045  1.00  0.00    -0.000 C 
BRANCH  24  25
ATOM     25  C   UNL     1      22.823  -3.205  30.971  1.00  0.00    -0.000 C 
BRANCH  25  26
ATOM     26  C   UNL     1      22.142  -1.963  30.379  1.00  0.00    -0.000 C 
BRANCH  26  27
ATOM     27  C   UNL     1      21.213  -2.306  29.203  1.00  0.00    -0.000 C 
BRANCH  27  28
ATOM     28  C   UNL     1      20.858  -1.080  28.346  1.00  0.00    -0.000 C 
BRANCH  28  29
ATOM     29  C   UNL     1      21.381  -1.194  26.905  1.00  0.00    -0.000 C 
BRANCH  29  30
ATOM     30  C   UNL     1      21.968   0.128  26.381  1.00  0.00    -0.000 C 
BRANCH  30  31
ATOM     31  C   UNL     1      23.196  -0.097  25.485  1.00  0.00    -0.003 C 
ATOM     32  C   UNL     1      24.515   0.106  26.231  1.00  0.00     0.004 C 
ENDBRANCH  30  31
ENDBRANCH  29  30
ENDBRANCH  28  29
ENDBRANCH  27  28
ENDBRANCH  26  27
ENDBRANCH  25  26
ENDBRANCH  24  25
ENDBRANCH  23  24
ENDBRANCH  22  23
ENDBRANCH  21  22
ENDBRANCH  20  21
ENDBRANCH  19  20
ENDBRANCH  18  19
ENDBRANCH   1  18
TORSDOF 28
ENDMDL
MODEL 7
REMARK VINA RESULT:    -4.961      5.336      9.927
REMARK INTER + INTRA:         -16.270
REMARK INTER:                 -13.781
REMARK INTRA:                  -2.490
REMARK UNBOUND:                -3.189
REMARK SMILES CCCCCCCCCCCCCCCCCCCCCCCCCCCCCC(=O)[O-]
REMARK SMILES IDX 16 1 17 2 18 3 19 4 20 5 21 6 22 7 23 8 24 9 25 10 26 11
REMARK SMILES IDX 27 12 28 13 29 14 30 15 31 16 32 17 15 18 14 19 13 20 12 21
REMARK SMILES IDX 11 22 10 23 9 24 8 25 7 26 6 27 5 28 4 29 3 30 2 31 1 32
REMARK H PARENT
REMARK Flexibility Score: inf
ROOT
ATOM      1  C   UNL     1      25.958  -0.360  27.484  1.00  0.00     0.000 C 
ENDROOT
BRANCH   1   2
ATOM      2  C   UNL     1      26.085  -0.003  28.974  1.00  0.00     0.000 C 
BRANCH   2   3
ATOM      3  C   UNL     1      26.670  -1.112  29.865  1.00  0.00     0.000 C 
BRANCH   3   4
ATOM      4  C   UNL     1      28.207  -1.155  29.824  1.00  0.00     0.000 C 
BRANCH   4   5
ATOM      5  C   UNL     1      28.841  -1.319  31.220  1.00  0.00     0.000 C 
BRANCH   5   6
ATOM      6  C   UNL     1      29.510  -0.048  31.785  1.00  0.00     0.000 C 
BRANCH   6   7
ATOM      7  C   UNL     1      29.369   1.220  30.917  1.00  0.00     0.000 C 
BRANCH   7   8
ATOM      8  C   UNL     1      28.194   2.147  31.294  1.00  0.00     0.000 C 
BRANCH   8   9
ATOM      9  C   UNL     1      27.872   3.219  30.238  1.00  0.00     0.000 C 
BRANCH   9  10
ATOM     10  C   UNL     1      28.333   4.621  30.670  1.00  0.00     0.000 C 
BRANCH  10  11
ATOM     11  C   UNL     1      27.182   5.643  30.674  1.00  0.00     0.000 C 
BRANCH  11  12
ATOM     12  C   UNL     1      27.618   7.091  30.366  1.00  0.00     0.000 C 
BRANCH  12  13
ATOM     13  C   UNL     1      26.628   8.188  30.818  1.00  0.00     0.006 C 
BRANCH  13  14
ATOM     14  C   UNL     1      26.800   9.547  30.114  1.00  0.00     0.053 C 
BRANCH  14  15
ATOM     15  C   UNL     1      28.209   9.769  29.652  1.00  0.00     0.041 C 
ATOM     16  O   UNL     1      29.112  10.050  30.482  1.00  0.00    -0.550 OA
ATOM     17  O   UNL     1      28.522   9.672  28.301  1.00  0.00    -0.550 OA
ENDBRANCH  14  15
ENDBRANCH  13  14
ENDBRANCH  12  13
ENDBRANCH  11  12
ENDBRANCH  10  11
ENDBRANCH   9  10
ENDBRANCH   8   9
ENDBRANCH   7   8
ENDBRANCH   6   7
ENDBRANCH   5   6
ENDBRANCH   4   5
ENDBRANCH   3   4
ENDBRANCH   2   3
ENDBRANCH   1   2
BRANCH   1  18
ATOM     18  C   UNL     1      25.113   0.655  26.691  1.00  0.00     0.000 C 
BRANCH  18  19
ATOM     19  C   UNL     1      24.153  -0.029  25.702  1.00  0.00     0.000 C 
BRANCH  19  20
ATOM     20  C   UNL     1      22.679   0.305  25.987  1.00  0.00     0.000 C 
BRANCH  20  21
ATOM     21  C   UNL     1      21.849  -0.929  26.384  1.00  0.00     0.000 C 
BRANCH  21  22
ATOM     22  C   UNL     1      21.078  -0.767  27.711  1.00  0.00     0.000 C 
BRANCH  22  23
ATOM     23  C   UNL     1      21.281  -1.955  28.668  1.00  0.00     0.000 C 
BRANCH  23  24
ATOM     24  C   UNL     1      21.812  -1.530  30.049  1.00  0.00    -0.000 C 
BRANCH  24  25
ATOM     25  C   UNL     1      23.079  -2.264  30.521  1.00  0.00    -0.000 C 
BRANCH  25  26
ATOM     26  C   UNL     1      22.817  -3.737  30.864  1.00  0.00    -0.000 C 
BRANCH  26  27
ATOM     27  C   UNL     1      23.913  -4.670  30.326  1.00  0.00    -0.000 C 
BRANCH  27  28
ATOM     28  C   UNL     1      25.327  -4.225  30.732  1.00  0.00    -0.000 C 
BRANCH  28  29
ATOM     29  C   UNL     1      26.422  -5.145  30.169  1.00  0.00    -0.000 C 
BRANCH  29  30
ATOM     30  C   UNL     1      27.824  -4.784  30.688  1.00  0.00    -0.000 C 
BRANCH  30  31
ATOM     31  C   UNL     1      28.856  -5.883  30.383  1.00  0.00    -0.003 C 
ATOM     32  C   UNL     1      28.670  -7.123  31.257  1.00  0.00     0.004 C 
ENDBRANCH  30  31
ENDBRANCH  29  30
ENDBRANCH  28  29
ENDBRANCH  27  28
ENDBRANCH  26  27
ENDBRANCH  25  26
ENDBRANCH  24  25
ENDBRANCH  23  24
ENDBRANCH  22  23
ENDBRANCH  21  22
ENDBRANCH  20  21
ENDBRANCH  19  20
ENDBRANCH  18  19
ENDBRANCH   1  18
TORSDOF 28
ENDMDL
MODEL 8
REMARK VINA RESULT:    -4.903      4.132      9.156
REMARK INTER + INTRA:         -16.119
REMARK INTER:                 -12.918
REMARK INTRA:                  -3.201
REMARK UNBOUND:                -3.189
REMARK SMILES CCCCCCCCCCCCCCCCCCCCCCCCCCCCCC(=O)[O-]
REMARK SMILES IDX 16 1 17 2 18 3 19 4 20 5 21 6 22 7 23 8 24 9 25 10 26 11
REMARK SMILES IDX 27 12 28 13 29 14 30 15 31 16 32 17 15 18 14 19 13 20 12 21
REMARK SMILES IDX 11 22 10 23 9 24 8 25 7 26 6 27 5 28 4 29 3 30 2 31 1 32
REMARK H PARENT
REMARK Flexibility Score: inf
ROOT
ATOM      1  C   UNL     1      22.017  -0.814  26.200  1.00  0.00     0.000 C 
ENDROOT
BRANCH   1   2
ATOM      2  C   UNL     1      23.012   0.328  25.933  1.00  0.00     0.000 C 
BRANCH   2   3
ATOM      3  C   UNL     1      24.497  -0.067  26.015  1.00  0.00     0.000 C 
BRANCH   3   4
ATOM      4  C   UNL     1      25.223   0.602  27.194  1.00  0.00     0.000 C 
BRANCH   4   5
ATOM      5  C   UNL     1      26.208  -0.344  27.909  1.00  0.00     0.000 C 
BRANCH   5   6
ATOM      6  C   UNL     1      26.028  -0.436  29.439  1.00  0.00     0.000 C 
BRANCH   6   7
ATOM      7  C   UNL     1      26.785  -1.590  30.129  1.00  0.00     0.000 C 
BRANCH   7   8
ATOM      8  C   UNL     1      27.534  -1.205  31.423  1.00  0.00     0.000 C 
BRANCH   8   9
ATOM      9  C   UNL     1      29.051  -1.458  31.373  1.00  0.00     0.000 C 
BRANCH   9  10
ATOM     10  C   UNL     1      29.864  -0.161  31.519  1.00  0.00     0.000 C 
BRANCH  10  11
ATOM     11  C   UNL     1      29.481   0.894  30.466  1.00  0.00     0.000 C 
BRANCH  11  12
ATOM     12  C   UNL     1      28.722   2.112  31.033  1.00  0.00     0.000 C 
BRANCH  12  13
ATOM     13  C   UNL     1      27.509   2.579  30.200  1.00  0.00     0.006 C 
BRANCH  13  14
ATOM     14  C   UNL     1      27.737   3.867  29.386  1.00  0.00     0.053 C 
BRANCH  14  15
ATOM     15  C   UNL     1      27.785   5.085  30.259  1.00  0.00     0.041 C 
ATOM     16  O   UNL     1      26.910   5.264  31.146  1.00  0.00    -0.550 OA
ATOM     17  O   UNL     1      28.792   6.027  30.087  1.00  0.00    -0.550 OA
ENDBRANCH  14  15
ENDBRANCH  13  14
ENDBRANCH  12  13
ENDBRANCH  11  12
ENDBRANCH  10  11
ENDBRANCH   9  10
ENDBRANCH   8   9
ENDBRANCH   7   8
ENDBRANCH   6   7
ENDBRANCH   5   6
ENDBRANCH   4   5
ENDBRANCH   3   4
ENDBRANCH   2   3
ENDBRANCH   1   2
BRANCH   1  18
ATOM     18  C   UNL     1      21.242  -0.640  27.520  1.00  0.00     0.000 C 
BRANCH  18  19
ATOM     19  C   UNL     1      21.314  -1.893  28.411  1.00  0.00     0.000 C 
BRANCH  19  20
ATOM     20  C   UNL     1      21.457  -1.546  29.902  1.00  0.00     0.000 C 
BRANCH  20  21
ATOM     21  C   UNL     1      22.757  -2.087  30.523  1.00  0.00     0.000 C 
BRANCH  21  22
ATOM     22  C   UNL     1      22.716  -3.596  30.848  1.00  0.00     0.000 C 
BRANCH  22  23
ATOM     23  C   UNL     1      23.823  -4.390  30.132  1.00  0.00     0.000 C 
BRANCH  23  24
ATOM     24  C   UNL     1      25.169  -4.350  30.880  1.00  0.00    -0.000 C 
BRANCH  24  25
ATOM     25  C   UNL     1      26.325  -5.097  30.193  1.00  0.00    -0.000 C 
BRANCH  25  26
ATOM     26  C   UNL     1      27.603  -5.123  31.044  1.00  0.00    -0.000 C 
BRANCH  26  27
ATOM     27  C   UNL     1      28.877  -5.195  30.188  1.00  0.00    -0.000 C 
BRANCH  27  28
ATOM     28  C   UNL     1      29.581  -6.559  30.281  1.00  0.00    -0.000 C 
BRANCH  28  29
ATOM     29  C   UNL     1      28.901  -7.637  29.421  1.00  0.00    -0.000 C 
BRANCH  29  30
ATOM     30  C   UNL     1      28.397  -8.828  30.254  1.00  0.00    -0.000 C 
BRANCH  30  31
ATOM     31  C   UNL     1      29.263  -9.074  31.500  1.00  0.00    -0.003 C 
ATOM     32  C   UNL     1      28.434  -9.444  32.730  1.00  0.00     0.004 C 
ENDBRANCH  30  31
ENDBRANCH  29  30
ENDBRANCH  28  29
ENDBRANCH  27  28
ENDBRANCH  26  27
ENDBRANCH  25  26
ENDBRANCH  24  25
ENDBRANCH  23  24
ENDBRANCH  22  23
ENDBRANCH  21  22
ENDBRANCH  20  21
ENDBRANCH  19  20
ENDBRANCH  18  19
ENDBRANCH   1  18
TORSDOF 28
ENDMDL
MODEL 9
REMARK VINA RESULT:    -4.814      5.059      8.324
REMARK INTER + INTRA:         -15.883
REMARK INTER:                 -12.482
REMARK INTRA:                  -3.400
REMARK UNBOUND:                -3.189
REMARK SMILES CCCCCCCCCCCCCCCCCCCCCCCCCCCCCC(=O)[O-]
REMARK SMILES IDX 16 1 17 2 18 3 19 4 20 5 21 6 22 7 23 8 24 9 25 10 26 11
REMARK SMILES IDX 27 12 28 13 29 14 30 15 31 16 32 17 15 18 14 19 13 20 12 21
REMARK SMILES IDX 11 22 10 23 9 24 8 25 7 26 6 27 5 28 4 29 3 30 2 31 1 32
REMARK H PARENT
REMARK Flexibility Score: inf
ROOT
ATOM      1  C   UNL     1      26.426  -4.110  30.816  1.00  0.00     0.000 C 
ENDROOT
BRANCH   1   2
ATOM      2  C   UNL     1      27.744  -4.855  31.087  1.00  0.00     0.000 C 
BRANCH   2   3
ATOM      3  C   UNL     1      28.390  -5.509  29.853  1.00  0.00     0.000 C 
BRANCH   3   4
ATOM      4  C   UNL     1      29.601  -4.719  29.330  1.00  0.00     0.000 C 
BRANCH   4   5
ATOM      5  C   UNL     1      30.079  -3.632  30.314  1.00  0.00     0.000 C 
BRANCH   5   6
ATOM      6  C   UNL     1      30.083  -2.196  29.746  1.00  0.00     0.000 C 
BRANCH   6   7
ATOM      7  C   UNL     1      29.883  -1.071  30.783  1.00  0.00     0.000 C 
BRANCH   7   8
ATOM      8  C   UNL     1      29.408   0.279  30.206  1.00  0.00     0.000 C 
BRANCH   8   9
ATOM      9  C   UNL     1      29.273   1.401  31.251  1.00  0.00     0.000 C 
BRANCH   9  10
ATOM     10  C   UNL     1      28.000   2.239  31.047  1.00  0.00     0.000 C 
BRANCH  10  11
ATOM     11  C   UNL     1      28.226   3.732  31.342  1.00  0.00     0.000 C 
BRANCH  11  12
ATOM     12  C   UNL     1      27.915   4.668  30.155  1.00  0.00     0.000 C 
BRANCH  12  13
ATOM     13  C   UNL     1      27.282   6.025  30.534  1.00  0.00     0.006 C 
BRANCH  13  14
ATOM     14  C   UNL     1      28.159   7.256  30.237  1.00  0.00     0.053 C 
BRANCH  14  15
ATOM     15  C   UNL     1      27.366   8.528  30.242  1.00  0.00     0.041 C 
ATOM     16  O   UNL     1      26.312   8.617  30.926  1.00  0.00    -0.550 OA
ATOM     17  O   UNL     1      27.787   9.616  29.485  1.00  0.00    -0.550 OA
ENDBRANCH  14  15
ENDBRANCH  13  14
ENDBRANCH  12  13
ENDBRANCH  11  12
ENDBRANCH  10  11
ENDBRANCH   9  10
ENDBRANCH   8   9
ENDBRANCH   7   8
ENDBRANCH   6   7
ENDBRANCH   5   6
ENDBRANCH   4   5
ENDBRANCH   3   4
ENDBRANCH   2   3
ENDBRANCH   1   2
BRANCH   1  18
ATOM     18  C   UNL     1      26.624  -2.810  30.013  1.00  0.00     0.000 C 
BRANCH  18  19
ATOM     19  C   UNL     1      26.186  -1.562  30.800  1.00  0.00     0.000 C 
BRANCH  19  20
ATOM     20  C   UNL     1      25.807  -0.390  29.880  1.00  0.00     0.000 C 
BRANCH  20  21
ATOM     21  C   UNL     1      26.124  -0.662  28.399  1.00  0.00     0.000 C 
BRANCH  21  22
ATOM     22  C   UNL     1      25.744   0.497  27.453  1.00  0.00     0.000 C 
BRANCH  22  23
ATOM     23  C   UNL     1      24.906   0.033  26.248  1.00  0.00     0.000 C 
BRANCH  23  24
ATOM     24  C   UNL     1      23.465   0.575  26.275  1.00  0.00    -0.000 C 
BRANCH  24  25
ATOM     25  C   UNL     1      22.401  -0.358  25.672  1.00  0.00    -0.000 C 
BRANCH  25  26
ATOM     26  C   UNL     1      21.700  -1.221  26.731  1.00  0.00    -0.000 C 
BRANCH  26  27
ATOM     27  C   UNL     1      20.893  -0.382  27.734  1.00  0.00    -0.000 C 
BRANCH  27  28
ATOM     28  C   UNL     1      20.415  -1.197  28.946  1.00  0.00    -0.000 C 
BRANCH  28  29
ATOM     29  C   UNL     1      21.272  -2.449  29.193  1.00  0.00    -0.000 C 
BRANCH  29  30
ATOM     30  C   UNL     1      22.381  -2.213  30.233  1.00  0.00    -0.000 C 
BRANCH  30  31
ATOM     31  C   UNL     1      22.806  -3.514  30.933  1.00  0.00    -0.003 C 
ATOM     32  C   UNL     1      22.855  -4.707  29.978  1.00  0.00     0.004 C 
ENDBRANCH  30  31
ENDBRANCH  29  30
ENDBRANCH  28  29
ENDBRANCH  27  28
ENDBRANCH  26  27
ENDBRANCH  25  26
ENDBRANCH  24  25
ENDBRANCH  23  24
ENDBRANCH  22  23
ENDBRANCH  21  22
ENDBRANCH  20  21
ENDBRANCH  19  20
ENDBRANCH  18  19
ENDBRANCH   1  18
TORSDOF 28
ENDMDL
