MODEL 1
REMARK VINA RESULT:    -8.066      0.000      0.000
REMARK INTER + INTRA:         -18.533
REMARK INTER:                 -15.375
REMARK INTRA:                  -3.158
REMARK UNBOUND:                -3.158
REMARK SMILES C[C@@H]1O[C@@H](O[C@H]2[C@H](O)[C@@H](OCCc3ccc(O)c(O)c3)O[C@@H](CO)[C@H]2OC(=O)C=Cc2ccc(O)c(O)c2)[C@@H](O)[C@@H](O)[C@@H]1O
REMARK SMILES IDX 6 1 7 2 9 3 21 4 22 5 25 6 5 7 4 8 1 9 2 10 43 11 3 12 41 13
REMARK SMILES IDX 39 14 44 15 42 17 40 19 8 21 26 23 27 24 28 25 29 26 30 27
REMARK SMILES IDX 31 28 38 29 32 30 36 31 33 32 34 33 37 34 35 36 10 38 11 39
REMARK SMILES IDX 12 40 13 41 20 42 14 43 18 44 15 45 16 46 19 47 17 49 23 51
REMARK SMILES IDX 24 52
REMARK H PARENT 44 16 42 18 40 20 8 22 37 35 35 37 19 48 17 50 24 53
REMARK Flexibility Score: inf
ROOT
ATOM      1  C   UNL     1      37.088  36.763   6.668  1.00  0.00     0.199 C 
ATOM      2  C   UNL     1      36.297  37.643   7.666  1.00  0.00     0.203 C 
ATOM      3  C   UNL     1      35.491  38.751   6.927  1.00  0.00     0.282 C 
ATOM      4  O   UNL     1      36.339  39.627   6.197  1.00  0.00    -0.340 OA
ATOM      5  C   UNL     1      37.294  38.957   5.360  1.00  0.00     0.190 C 
ATOM      6  C   UNL     1      37.129  37.406   5.270  1.00  0.00     0.240 C 
ENDROOT
BRANCH   1   7
ATOM      7  O   UNL     1      38.420  36.617   7.139  1.00  0.00    -0.340 OA
BRANCH   7   8
ATOM      8  C   UNL     1      38.624  35.373   7.786  1.00  0.00     0.282 C 
ATOM      9  C   UNL     1      41.350  36.385  10.049  1.00  0.00     0.041 C 
ATOM     10  C   UNL     1      40.657  36.096   8.716  1.00  0.00     0.150 C 
ATOM     11  C   UNL     1      41.506  35.146   7.841  1.00  0.00     0.174 C 
ATOM     12  O   UNL     1      39.374  35.544   8.984  1.00  0.00    -0.344 OA
ATOM     13  C   UNL     1      40.765  34.851   6.522  1.00  0.00     0.179 C 
ATOM     14  C   UNL     1      39.322  34.391   6.827  1.00  0.00     0.202 C 
BRANCH  11  15
ATOM     15  O   UNL     1      41.738  33.946   8.538  1.00  0.00    -0.388 OA
ATOM     16  H   UNL     1      41.416  33.210   7.956  1.00  0.00     0.211 HD
ENDBRANCH  11  15
BRANCH  13  17
ATOM     17  O   UNL     1      40.762  36.009   5.723  1.00  0.00    -0.387 OA
ATOM     18  H   UNL     1      39.908  36.479   5.904  1.00  0.00     0.211 HD
ENDBRANCH  13  17
BRANCH  14  19
ATOM     19  O   UNL     1      38.578  34.271   5.642  1.00  0.00    -0.385 OA
ATOM     20  H   UNL     1      37.905  33.555   5.803  1.00  0.00     0.211 HD
ENDBRANCH  14  19
ENDBRANCH   7   8
ENDBRANCH   1   7
BRANCH   2  21
ATOM     21  O   UNL     1      35.463  36.861   8.478  1.00  0.00    -0.385 OA
ATOM     22  H   UNL     1      35.873  35.961   8.559  1.00  0.00     0.211 HD
ENDBRANCH   2  21
BRANCH   6  23
ATOM     23  O   UNL     1      38.156  36.790   4.492  1.00  0.00    -0.453 OA
BRANCH  23  24
ATOM     24  C   UNL     1      37.964  36.299   3.200  1.00  0.00     0.331 C 
ATOM     25  O   UNL     1      37.265  35.264   3.006  1.00  0.00    -0.247 OA
BRANCH  24  26
ATOM     26  C   UNL     1      38.639  36.979   2.089  1.00  0.00     0.094 C 
ATOM     27  C   UNL     1      38.116  38.045   1.469  1.00  0.00     0.016 C 
BRANCH  27  28
ATOM     28  C   UNL     1      38.696  38.616   0.227  1.00  0.00    -0.021 A 
ATOM     29  C   UNL     1      38.586  40.003   0.010  1.00  0.00     0.058 A 
ATOM     30  C   UNL     1      39.311  37.824  -0.757  1.00  0.00     0.012 A 
ATOM     31  C   UNL     1      39.028  40.585  -1.189  1.00  0.00     0.157 A 
ATOM     32  C   UNL     1      39.766  38.401  -1.948  1.00  0.00     0.051 A 
ATOM     33  C   UNL     1      39.619  39.771  -2.182  1.00  0.00     0.157 A 
BRANCH  31  34
ATOM     34  O   UNL     1      38.850  41.962  -1.354  1.00  0.00    -0.504 OA
ATOM     35  H   UNL     1      39.349  42.661  -0.825  1.00  0.00     0.293 HD
ENDBRANCH  31  34
BRANCH  33  36
ATOM     36  O   UNL     1      40.058  40.274  -3.412  1.00  0.00    -0.504 OA
ATOM     37  H   UNL     1      40.801  40.945  -3.513  1.00  0.00     0.293 HD
ENDBRANCH  33  36
ENDBRANCH  27  28
ENDBRANCH  24  26
ENDBRANCH  23  24
ENDBRANCH   6  23
BRANCH   3  38
ATOM     38  O   UNL     1      34.617  39.465   7.784  1.00  0.00    -0.350 OA
BRANCH  38  39
ATOM     39  C   UNL     1      33.494  40.001   7.114  1.00  0.00     0.168 C 
BRANCH  39  40
ATOM     40  C   UNL     1      33.002  38.954   6.116  1.00  0.00     0.064 C 
BRANCH  40  41
ATOM     41  C   UNL     1      33.050  39.469   4.701  1.00  0.00    -0.042 A 
ATOM     42  C   UNL     1      32.291  40.590   4.340  1.00  0.00     0.054 A 
ATOM     43  C   UNL     1      33.824  38.823   3.729  1.00  0.00     0.008 A 
ATOM     44  C   UNL     1      32.284  41.047   3.018  1.00  0.00     0.157 A 
ATOM     45  C   UNL     1      33.818  39.272   2.405  1.00  0.00     0.050 A 
ATOM     46  C   UNL     1      33.042  40.380   2.042  1.00  0.00     0.157 A 
BRANCH  44  47
ATOM     47  O   UNL     1      31.504  42.157   2.686  1.00  0.00    -0.504 OA
ATOM     48  H   UNL     1      30.501  42.096   2.565  1.00  0.00     0.293 HD
ENDBRANCH  44  47
BRANCH  46  49
ATOM     49  O   UNL     1      33.007  40.809   0.713  1.00  0.00    -0.504 OA
ATOM     50  H   UNL     1      32.293  40.487   0.073  1.00  0.00     0.293 HD
ENDBRANCH  46  49
ENDBRANCH  40  41
ENDBRANCH  39  40
ENDBRANCH  38  39
ENDBRANCH   3  38
BRANCH   5  51
ATOM     51  C   UNL     1      38.714  39.365   5.813  1.00  0.00     0.192 C 
BRANCH  51  52
ATOM     52  O   UNL     1      39.688  38.744   5.016  1.00  0.00    -0.394 OA
ATOM     53  H   UNL     1      40.430  39.393   4.903  1.00  0.00     0.210 HD
ENDBRANCH  51  52
ENDBRANCH   5  51
TORSDOF 20
ENDMDL
MODEL 2
REMARK VINA RESULT:    -7.918      1.785      5.639
REMARK INTER + INTRA:         -18.252
REMARK INTER:                 -15.696
REMARK INTRA:                  -2.556
REMARK UNBOUND:                -3.158
REMARK SMILES C[C@@H]1O[C@@H](O[C@H]2[C@H](O)[C@@H](OCCc3ccc(O)c(O)c3)O[C@@H](CO)[C@H]2OC(=O)C=Cc2ccc(O)c(O)c2)[C@@H](O)[C@@H](O)[C@@H]1O
REMARK SMILES IDX 6 1 7 2 9 3 21 4 22 5 25 6 5 7 4 8 1 9 2 10 43 11 3 12 41 13
REMARK SMILES IDX 39 14 44 15 42 17 40 19 8 21 26 23 27 24 28 25 29 26 30 27
REMARK SMILES IDX 31 28 38 29 32 30 36 31 33 32 34 33 37 34 35 36 10 38 11 39
REMARK SMILES IDX 12 40 13 41 20 42 14 43 18 44 15 45 16 46 19 47 17 49 23 51
REMARK SMILES IDX 24 52
REMARK H PARENT 44 16 42 18 40 20 8 22 37 35 35 37 19 48 17 50 24 53
REMARK Flexibility Score: inf
ROOT
ATOM      1  C   UNL     1      38.741  38.780   7.296  1.00  0.00     0.199 C 
ATOM      2  C   UNL     1      39.910  39.361   6.464  1.00  0.00     0.203 C 
ATOM      3  C   UNL     1      39.613  39.279   4.938  1.00  0.00     0.282 C 
ATOM      4  O   UNL     1      39.433  37.938   4.503  1.00  0.00    -0.340 OA
ATOM      5  C   UNL     1      38.518  37.178   5.308  1.00  0.00     0.190 C 
ATOM      6  C   UNL     1      37.761  37.993   6.407  1.00  0.00     0.240 C 
ENDROOT
BRANCH   1   7
ATOM      7  O   UNL     1      39.268  37.901   8.278  1.00  0.00    -0.340 OA
BRANCH   7   8
ATOM      8  C   UNL     1      40.656  38.099   8.482  1.00  0.00     0.282 C 
ATOM      9  C   UNL     1      41.656  34.569   8.830  1.00  0.00     0.041 C 
ATOM     10  C   UNL     1      40.953  35.879   9.192  1.00  0.00     0.150 C 
ATOM     11  C   UNL     1      41.249  36.284  10.654  1.00  0.00     0.174 C 
ATOM     12  O   UNL     1      41.374  36.885   8.281  1.00  0.00    -0.344 OA
ATOM     13  C   UNL     1      40.552  37.621  10.975  1.00  0.00     0.179 C 
ATOM     14  C   UNL     1      40.904  38.665   9.892  1.00  0.00     0.202 C 
BRANCH  11  15
ATOM     15  O   UNL     1      42.638  36.413  10.835  1.00  0.00    -0.388 OA
ATOM     16  H   UNL     1      43.069  35.987  10.050  1.00  0.00     0.211 HD
ENDBRANCH  11  15
BRANCH  13  17
ATOM     17  O   UNL     1      39.162  37.416  11.037  1.00  0.00    -0.387 OA
ATOM     18  H   UNL     1      38.981  36.938  11.887  1.00  0.00     0.211 HD
ENDBRANCH  13  17
BRANCH  14  19
ATOM     19  O   UNL     1      40.157  39.840  10.072  1.00  0.00    -0.385 OA
ATOM     20  H   UNL     1      40.806  40.594  10.045  1.00  0.00     0.211 HD
ENDBRANCH  14  19
ENDBRANCH   7   8
ENDBRANCH   1   7
BRANCH   2  21
ATOM     21  O   UNL     1      40.205  40.675   6.856  1.00  0.00    -0.385 OA
ATOM     22  H   UNL     1      40.046  41.269   6.076  1.00  0.00     0.211 HD
ENDBRANCH   2  21
BRANCH   6  23
ATOM     23  O   UNL     1      36.931  37.168   7.225  1.00  0.00    -0.453 OA
BRANCH  23  24
ATOM     24  C   UNL     1      35.538  37.154   7.153  1.00  0.00     0.331 C 
ATOM     25  O   UNL     1      34.863  36.438   7.945  1.00  0.00    -0.247 OA
BRANCH  24  26
ATOM     26  C   UNL     1      34.888  37.944   6.102  1.00  0.00     0.094 C 
ATOM     27  C   UNL     1      34.971  37.626   4.803  1.00  0.00     0.016 C 
BRANCH  27  28
ATOM     28  C   UNL     1      34.482  38.521   3.724  1.00  0.00    -0.021 A 
ATOM     29  C   UNL     1      33.373  39.347   3.985  1.00  0.00     0.058 A 
ATOM     30  C   UNL     1      35.056  38.545   2.440  1.00  0.00     0.012 A 
ATOM     31  C   UNL     1      32.807  40.141   2.975  1.00  0.00     0.157 A 
ATOM     32  C   UNL     1      34.504  39.346   1.433  1.00  0.00     0.051 A 
ATOM     33  C   UNL     1      33.377  40.134   1.682  1.00  0.00     0.157 A 
BRANCH  31  34
ATOM     34  O   UNL     1      31.681  40.905   3.295  1.00  0.00    -0.504 OA
ATOM     35  H   UNL     1      31.724  41.821   3.717  1.00  0.00     0.293 HD
ENDBRANCH  31  34
BRANCH  33  36
ATOM     36  O   UNL     1      32.853  40.876   0.618  1.00  0.00    -0.504 OA
ATOM     37  H   UNL     1      32.423  40.469  -0.195  1.00  0.00     0.293 HD
ENDBRANCH  33  36
ENDBRANCH  27  28
ENDBRANCH  24  26
ENDBRANCH  23  24
ENDBRANCH   6  23
BRANCH   3  38
ATOM     38  O   UNL     1      40.575  39.958   4.149  1.00  0.00    -0.350 OA
BRANCH  38  39
ATOM     39  C   UNL     1      40.016  40.970   3.336  1.00  0.00     0.168 C 
BRANCH  39  40
ATOM     40  C   UNL     1      38.678  40.456   2.806  1.00  0.00     0.064 C 
BRANCH  40  41
ATOM     41  C   UNL     1      38.829  39.803   1.457  1.00  0.00    -0.042 A 
ATOM     42  C   UNL     1      38.950  40.595   0.308  1.00  0.00     0.054 A 
ATOM     43  C   UNL     1      38.820  38.408   1.330  1.00  0.00     0.008 A 
ATOM     44  C   UNL     1      39.037  40.004  -0.957  1.00  0.00     0.157 A 
ATOM     45  C   UNL     1      38.902  37.811   0.069  1.00  0.00     0.050 A 
ATOM     46  C   UNL     1      39.002  38.605  -1.080  1.00  0.00     0.157 A 
BRANCH  44  47
ATOM     47  O   UNL     1      39.141  40.821  -2.084  1.00  0.00    -0.504 OA
ATOM     48  H   UNL     1      39.799  40.631  -2.830  1.00  0.00     0.293 HD
ENDBRANCH  44  47
BRANCH  46  49
ATOM     49  O   UNL     1      39.048  38.011  -2.344  1.00  0.00    -0.504 OA
ATOM     50  H   UNL     1      38.243  38.007  -2.955  1.00  0.00     0.293 HD
ENDBRANCH  46  49
ENDBRANCH  40  41
ENDBRANCH  39  40
ENDBRANCH  38  39
ENDBRANCH   3  38
BRANCH   5  51
ATOM     51  C   UNL     1      39.274  35.967   5.899  1.00  0.00     0.192 C 
BRANCH  51  52
ATOM     52  O   UNL     1      40.632  36.007   5.546  1.00  0.00    -0.394 OA
ATOM     53  H   UNL     1      41.148  35.702   6.336  1.00  0.00     0.210 HD
ENDBRANCH  51  52
ENDBRANCH   5  51
TORSDOF 20
ENDMDL
MODEL 3
REMARK VINA RESULT:    -7.684      1.855      7.032
REMARK INTER + INTRA:         -17.806
REMARK INTER:                 -14.699
REMARK INTRA:                  -3.107
REMARK UNBOUND:                -3.158
REMARK SMILES C[C@@H]1O[C@@H](O[C@H]2[C@H](O)[C@@H](OCCc3ccc(O)c(O)c3)O[C@@H](CO)[C@H]2OC(=O)C=Cc2ccc(O)c(O)c2)[C@@H](O)[C@@H](O)[C@@H]1O
REMARK SMILES IDX 6 1 7 2 9 3 21 4 22 5 25 6 5 7 4 8 1 9 2 10 43 11 3 12 41 13
REMARK SMILES IDX 39 14 44 15 42 17 40 19 8 21 26 23 27 24 28 25 29 26 30 27
REMARK SMILES IDX 31 28 38 29 32 30 36 31 33 32 34 33 37 34 35 36 10 38 11 39
REMARK SMILES IDX 12 40 13 41 20 42 14 43 18 44 15 45 16 46 19 47 17 49 23 51
REMARK SMILES IDX 24 52
REMARK H PARENT 44 16 42 18 40 20 8 22 37 35 35 37 19 48 17 50 24 53
REMARK Flexibility Score: inf
ROOT
ATOM      1  C   UNL     1      36.752  39.262   5.587  1.00  0.00     0.199 C 
ATOM      2  C   UNL     1      37.184  39.705   7.006  1.00  0.00     0.203 C 
ATOM      3  C   UNL     1      37.816  38.525   7.799  1.00  0.00     0.282 C 
ATOM      4  O   UNL     1      36.901  37.451   7.972  1.00  0.00    -0.340 OA
ATOM      5  C   UNL     1      36.243  37.042   6.763  1.00  0.00     0.190 C 
ATOM      6  C   UNL     1      36.760  37.727   5.457  1.00  0.00     0.240 C 
ENDROOT
BRANCH   1   7
ATOM      7  O   UNL     1      35.436  39.731   5.338  1.00  0.00    -0.340 OA
BRANCH   7   8
ATOM      8  C   UNL     1      35.424  40.861   4.483  1.00  0.00     0.282 C 
ATOM      9  C   UNL     1      33.707  43.219   6.735  1.00  0.00     0.041 C 
ATOM     10  C   UNL     1      33.877  41.983   5.850  1.00  0.00     0.150 C 
ATOM     11  C   UNL     1      32.739  41.882   4.809  1.00  0.00     0.174 C 
ATOM     12  O   UNL     1      35.150  42.048   5.220  1.00  0.00    -0.344 OA
ATOM     13  C   UNL     1      32.958  40.644   3.917  1.00  0.00     0.179 C 
ATOM     14  C   UNL     1      34.397  40.655   3.355  1.00  0.00     0.202 C 
BRANCH  11  15
ATOM     15  O   UNL     1      32.720  43.045   4.019  1.00  0.00    -0.388 OA
ATOM     16  H   UNL     1      31.791  43.391   4.041  1.00  0.00     0.211 HD
ENDBRANCH  11  15
BRANCH  13  17
ATOM     17  O   UNL     1      32.724  39.481   4.672  1.00  0.00    -0.387 OA
ATOM     18  H   UNL     1      32.253  39.765   5.497  1.00  0.00     0.211 HD
ENDBRANCH  13  17
BRANCH  14  19
ATOM     19  O   UNL     1      34.672  39.461   2.671  1.00  0.00    -0.385 OA
ATOM     20  H   UNL     1      35.344  38.970   3.219  1.00  0.00     0.211 HD
ENDBRANCH  14  19
ENDBRANCH   7   8
ENDBRANCH   1   7
BRANCH   2  21
ATOM     21  O   UNL     1      38.054  40.805   6.948  1.00  0.00    -0.385 OA
ATOM     22  H   UNL     1      38.961  40.489   7.197  1.00  0.00     0.211 HD
ENDBRANCH   2  21
BRANCH   6  23
ATOM     23  O   UNL     1      36.012  37.342   4.303  1.00  0.00    -0.453 OA
BRANCH  23  24
ATOM     24  C   UNL     1      36.495  36.487   3.313  1.00  0.00     0.331 C 
ATOM     25  O   UNL     1      36.553  35.241   3.516  1.00  0.00    -0.247 OA
BRANCH  24  26
ATOM     26  C   UNL     1      36.985  37.076   2.062  1.00  0.00     0.094 C 
ATOM     27  C   UNL     1      38.273  37.389   1.866  1.00  0.00     0.016 C 
BRANCH  27  28
ATOM     28  C   UNL     1      38.743  38.158   0.686  1.00  0.00    -0.021 A 
ATOM     29  C   UNL     1      38.675  39.564   0.729  1.00  0.00     0.058 A 
ATOM     30  C   UNL     1      39.212  37.539  -0.485  1.00  0.00     0.012 A 
ATOM     31  C   UNL     1      39.013  40.339  -0.391  1.00  0.00     0.157 A 
ATOM     32  C   UNL     1      39.564  38.308  -1.601  1.00  0.00     0.051 A 
ATOM     33  C   UNL     1      39.456  39.701  -1.572  1.00  0.00     0.157 A 
BRANCH  31  34
ATOM     34  O   UNL     1      38.882  41.728  -0.291  1.00  0.00    -0.504 OA
ATOM     35  H   UNL     1      37.995  42.206  -0.219  1.00  0.00     0.293 HD
ENDBRANCH  31  34
BRANCH  33  36
ATOM     36  O   UNL     1      39.784  40.404  -2.737  1.00  0.00    -0.504 OA
ATOM     37  H   UNL     1      39.107  40.831  -3.347  1.00  0.00     0.293 HD
ENDBRANCH  33  36
ENDBRANCH  27  28
ENDBRANCH  24  26
ENDBRANCH  23  24
ENDBRANCH   6  23
BRANCH   3  38
ATOM     38  O   UNL     1      38.383  38.929   9.034  1.00  0.00    -0.350 OA
BRANCH  38  39
ATOM     39  C   UNL     1      39.589  38.257   9.339  1.00  0.00     0.168 C 
BRANCH  39  40
ATOM     40  C   UNL     1      40.539  38.442   8.156  1.00  0.00     0.064 C 
BRANCH  40  41
ATOM     41  C   UNL     1      40.999  37.118   7.603  1.00  0.00    -0.042 A 
ATOM     42  C   UNL     1      41.513  37.045   6.302  1.00  0.00     0.054 A 
ATOM     43  C   UNL     1      40.893  35.947   8.365  1.00  0.00     0.008 A 
ATOM     44  C   UNL     1      41.894  35.815   5.756  1.00  0.00     0.157 A 
ATOM     45  C   UNL     1      41.267  34.714   7.824  1.00  0.00     0.050 A 
ATOM     46  C   UNL     1      41.761  34.641   6.516  1.00  0.00     0.157 A 
BRANCH  44  47
ATOM     47  O   UNL     1      42.388  35.773   4.451  1.00  0.00    -0.504 OA
ATOM     48  H   UNL     1      43.368  35.911   4.240  1.00  0.00     0.293 HD
ENDBRANCH  44  47
BRANCH  46  49
ATOM     49  O   UNL     1      42.103  33.405   5.961  1.00  0.00    -0.504 OA
ATOM     50  H   UNL     1      42.861  33.315   5.299  1.00  0.00     0.293 HD
ENDBRANCH  46  49
ENDBRANCH  40  41
ENDBRANCH  39  40
ENDBRANCH  38  39
ENDBRANCH   3  38
BRANCH   5  51
ATOM     51  C   UNL     1      34.719  37.223   6.949  1.00  0.00     0.192 C 
BRANCH  51  52
ATOM     52  O   UNL     1      34.040  37.000   5.741  1.00  0.00    -0.394 OA
ATOM     53  H   UNL     1      34.685  37.173   5.008  1.00  0.00     0.210 HD
ENDBRANCH  51  52
ENDBRANCH   5  51
TORSDOF 20
ENDMDL
MODEL 4
REMARK VINA RESULT:    -7.643      2.925      6.946
REMARK INTER + INTRA:         -17.728
REMARK INTER:                 -14.922
REMARK INTRA:                  -2.806
REMARK UNBOUND:                -3.158
REMARK SMILES C[C@@H]1O[C@@H](O[C@H]2[C@H](O)[C@@H](OCCc3ccc(O)c(O)c3)O[C@@H](CO)[C@H]2OC(=O)C=Cc2ccc(O)c(O)c2)[C@@H](O)[C@@H](O)[C@@H]1O
REMARK SMILES IDX 6 1 7 2 9 3 21 4 22 5 25 6 5 7 4 8 1 9 2 10 43 11 3 12 41 13
REMARK SMILES IDX 39 14 44 15 42 17 40 19 8 21 26 23 27 24 28 25 29 26 30 27
REMARK SMILES IDX 31 28 38 29 32 30 36 31 33 32 34 33 37 34 35 36 10 38 11 39
REMARK SMILES IDX 12 40 13 41 20 42 14 43 18 44 15 45 16 46 19 47 17 49 23 51
REMARK SMILES IDX 24 52
REMARK H PARENT 44 16 42 18 40 20 8 22 37 35 35 37 19 48 17 50 24 53
REMARK Flexibility Score: inf
ROOT
ATOM      1  C   UNL     1      38.856  39.142   5.655  1.00  0.00     0.199 C 
ATOM      2  C   UNL     1      38.344  39.409   4.219  1.00  0.00     0.203 C 
ATOM      3  C   UNL     1      37.905  38.090   3.520  1.00  0.00     0.282 C 
ATOM      4  O   UNL     1      38.982  37.169   3.401  1.00  0.00    -0.340 OA
ATOM      5  C   UNL     1      39.710  36.958   4.621  1.00  0.00     0.190 C 
ATOM      6  C   UNL     1      39.100  37.640   5.889  1.00  0.00     0.240 C 
ENDROOT
BRANCH   1   7
ATOM      7  O   UNL     1      40.081  39.834   5.843  1.00  0.00    -0.340 OA
BRANCH   7   8
ATOM      8  C   UNL     1      39.895  41.080   6.492  1.00  0.00     0.282 C 
ATOM      9  C   UNL     1      42.879  42.811   5.195  1.00  0.00     0.041 C 
ATOM     10  C   UNL     1      42.084  41.767   5.981  1.00  0.00     0.150 C 
ATOM     11  C   UNL     1      42.550  41.703   7.453  1.00  0.00     0.174 C 
ATOM     12  O   UNL     1      40.701  42.088   5.891  1.00  0.00    -0.344 OA
ATOM     13  C   UNL     1      41.709  40.665   8.222  1.00  0.00     0.179 C 
ATOM     14  C   UNL     1      40.206  40.942   7.994  1.00  0.00     0.202 C 
BRANCH  11  15
ATOM     15  O   UNL     1      42.408  42.970   8.048  1.00  0.00    -0.388 OA
ATOM     16  H   UNL     1      41.744  43.468   7.505  1.00  0.00     0.211 HD
ENDBRANCH  11  15
BRANCH  13  17
ATOM     17  O   UNL     1      42.052  39.374   7.783  1.00  0.00    -0.387 OA
ATOM     18  H   UNL     1      42.498  38.922   8.545  1.00  0.00     0.211 HD
ENDBRANCH  13  17
BRANCH  14  19
ATOM     19  O   UNL     1      39.423  39.918   8.551  1.00  0.00    -0.385 OA
ATOM     20  H   UNL     1      38.617  40.358   8.936  1.00  0.00     0.211 HD
ENDBRANCH  14  19
ENDBRANCH   7   8
ENDBRANCH   1   7
BRANCH   2  21
ATOM     21  O   UNL     1      37.308  40.355   4.220  1.00  0.00    -0.385 OA
ATOM     22  H   UNL     1      36.463  39.881   4.002  1.00  0.00     0.211 HD
ENDBRANCH   2  21
BRANCH   6  23
ATOM     23  O   UNL     1      39.912  37.463   7.049  1.00  0.00    -0.453 OA
BRANCH  23  24
ATOM     24  C   UNL     1      39.567  36.640   8.122  1.00  0.00     0.331 C 
ATOM     25  O   UNL     1      38.857  37.085   9.067  1.00  0.00    -0.247 OA
BRANCH  24  26
ATOM     26  C   UNL     1      40.096  35.272   8.148  1.00  0.00     0.094 C 
ATOM     27  C   UNL     1      41.290  34.949   7.634  1.00  0.00     0.016 C 
BRANCH  27  28
ATOM     28  C   UNL     1      41.747  33.545   7.484  1.00  0.00    -0.021 A 
ATOM     29  C   UNL     1      41.483  32.877   6.273  1.00  0.00     0.058 A 
ATOM     30  C   UNL     1      42.394  32.843   8.516  1.00  0.00     0.012 A 
ATOM     31  C   UNL     1      41.804  31.521   6.109  1.00  0.00     0.157 A 
ATOM     32  C   UNL     1      42.729  31.494   8.353  1.00  0.00     0.051 A 
ATOM     33  C   UNL     1      42.429  30.820   7.166  1.00  0.00     0.157 A 
BRANCH  31  34
ATOM     34  O   UNL     1      41.476  30.911   4.894  1.00  0.00    -0.504 OA
ATOM     35  H   UNL     1      40.578  30.494   4.698  1.00  0.00     0.293 HD
ENDBRANCH  31  34
BRANCH  33  36
ATOM     36  O   UNL     1      42.754  29.461   7.087  1.00  0.00    -0.504 OA
ATOM     37  H   UNL     1      42.099  28.715   7.251  1.00  0.00     0.293 HD
ENDBRANCH  33  36
ENDBRANCH  27  28
ENDBRANCH  24  26
ENDBRANCH  23  24
ENDBRANCH   6  23
BRANCH   3  38
ATOM     38  O   UNL     1      37.268  38.309   2.273  1.00  0.00    -0.350 OA
BRANCH  38  39
ATOM     39  C   UNL     1      36.132  37.490   2.077  1.00  0.00     0.168 C 
BRANCH  39  40
ATOM     40  C   UNL     1      35.252  37.607   3.320  1.00  0.00     0.064 C 
BRANCH  40  41
ATOM     41  C   UNL     1      34.246  38.720   3.185  1.00  0.00    -0.042 A 
ATOM     42  C   UNL     1      33.947  39.242   1.920  1.00  0.00     0.054 A 
ATOM     43  C   UNL     1      33.625  39.266   4.316  1.00  0.00     0.008 A 
ATOM     44  C   UNL     1      33.056  40.312   1.785  1.00  0.00     0.157 A 
ATOM     45  C   UNL     1      32.737  40.338   4.189  1.00  0.00     0.050 A 
ATOM     46  C   UNL     1      32.455  40.871   2.925  1.00  0.00     0.157 A 
BRANCH  44  47
ATOM     47  O   UNL     1      32.790  40.819   0.512  1.00  0.00    -0.504 OA
ATOM     48  H   UNL     1      32.240  41.657   0.369  1.00  0.00     0.293 HD
ENDBRANCH  44  47
BRANCH  46  49
ATOM     49  O   UNL     1      31.596  41.965   2.799  1.00  0.00    -0.504 OA
ATOM     50  H   UNL     1      31.950  42.908   2.718  1.00  0.00     0.293 HD
ENDBRANCH  46  49
ENDBRANCH  40  41
ENDBRANCH  39  40
ENDBRANCH  38  39
ENDBRANCH   3  38
BRANCH   5  51
ATOM     51  C   UNL     1      41.181  37.369   4.391  1.00  0.00     0.192 C 
BRANCH  51  52
ATOM     52  O   UNL     1      42.020  36.244   4.396  1.00  0.00    -0.394 OA
ATOM     53  H   UNL     1      42.003  35.872   5.316  1.00  0.00     0.210 HD
ENDBRANCH  51  52
ENDBRANCH   5  51
TORSDOF 20
ENDMDL
MODEL 5
REMARK VINA RESULT:    -7.593      1.956      7.634
REMARK INTER + INTRA:         -17.631
REMARK INTER:                 -15.244
REMARK INTRA:                  -2.387
REMARK UNBOUND:                -3.158
REMARK SMILES C[C@@H]1O[C@@H](O[C@H]2[C@H](O)[C@@H](OCCc3ccc(O)c(O)c3)O[C@@H](CO)[C@H]2OC(=O)C=Cc2ccc(O)c(O)c2)[C@@H](O)[C@@H](O)[C@@H]1O
REMARK SMILES IDX 6 1 7 2 9 3 21 4 22 5 25 6 5 7 4 8 1 9 2 10 43 11 3 12 41 13
REMARK SMILES IDX 39 14 44 15 42 17 40 19 8 21 26 23 27 24 28 25 29 26 30 27
REMARK SMILES IDX 31 28 38 29 32 30 36 31 33 32 34 33 37 34 35 36 10 38 11 39
REMARK SMILES IDX 12 40 13 41 20 42 14 43 18 44 15 45 16 46 19 47 17 49 23 51
REMARK SMILES IDX 24 52
REMARK H PARENT 44 16 42 18 40 20 8 22 37 35 35 37 19 48 17 50 24 53
REMARK Flexibility Score: inf
ROOT
ATOM      1  C   UNL     1      37.117  38.639   4.997  1.00  0.00     0.199 C 
ATOM      2  C   UNL     1      36.953  37.715   6.228  1.00  0.00     0.203 C 
ATOM      3  C   UNL     1      38.009  36.572   6.222  1.00  0.00     0.282 C 
ATOM      4  O   UNL     1      37.888  35.743   5.073  1.00  0.00    -0.340 OA
ATOM      5  C   UNL     1      37.816  36.465   3.834  1.00  0.00     0.190 C 
ATOM      6  C   UNL     1      38.047  38.007   3.946  1.00  0.00     0.240 C 
ENDROOT
BRANCH   1   7
ATOM      7  O   UNL     1      35.843  38.850   4.406  1.00  0.00    -0.340 OA
BRANCH   7   8
ATOM      8  C   UNL     1      35.660  40.194   3.999  1.00  0.00     0.282 C 
ATOM      9  C   UNL     1      33.382  41.264   6.692  1.00  0.00     0.041 C 
ATOM     10  C   UNL     1      33.844  40.477   5.463  1.00  0.00     0.150 C 
ATOM     11  C   UNL     1      32.811  40.575   4.317  1.00  0.00     0.174 C 
ATOM     12  O   UNL     1      35.114  40.973   5.059  1.00  0.00    -0.344 OA
ATOM     13  C   UNL     1      33.322  39.799   3.088  1.00  0.00     0.179 C 
ATOM     14  C   UNL     1      34.761  40.247   2.750  1.00  0.00     0.202 C 
BRANCH  11  15
ATOM     15  O   UNL     1      32.610  41.926   3.981  1.00  0.00    -0.388 OA
ATOM     16  H   UNL     1      32.742  42.000   3.001  1.00  0.00     0.211 HD
ENDBRANCH  11  15
BRANCH  13  17
ATOM     17  O   UNL     1      33.278  38.420   3.360  1.00  0.00    -0.387 OA
ATOM     18  H   UNL     1      34.218  38.116   3.450  1.00  0.00     0.211 HD
ENDBRANCH  13  17
BRANCH  14  19
ATOM     19  O   UNL     1      35.307  39.443   1.736  1.00  0.00    -0.385 OA
ATOM     20  H   UNL     1      34.566  38.866   1.405  1.00  0.00     0.211 HD
ENDBRANCH  14  19
ENDBRANCH   7   8
ENDBRANCH   1   7
BRANCH   2  21
ATOM     21  O   UNL     1      37.003  38.449   7.422  1.00  0.00    -0.385 OA
ATOM     22  H   UNL     1      37.486  39.298   7.238  1.00  0.00     0.211 HD
ENDBRANCH   2  21
BRANCH   6  23
ATOM     23  O   UNL     1      37.881  38.677   2.696  1.00  0.00    -0.453 OA
BRANCH  23  24
ATOM     24  C   UNL     1      38.762  39.643   2.209  1.00  0.00     0.331 C 
ATOM     25  O   UNL     1      39.435  40.356   3.005  1.00  0.00    -0.247 OA
BRANCH  24  26
ATOM     26  C   UNL     1      38.840  39.844   0.757  1.00  0.00     0.094 C 
ATOM     27  C   UNL     1      38.871  38.826  -0.113  1.00  0.00     0.016 C 
BRANCH  27  28
ATOM     28  C   UNL     1      39.143  39.015  -1.560  1.00  0.00    -0.021 A 
ATOM     29  C   UNL     1      38.056  39.238  -2.426  1.00  0.00     0.058 A 
ATOM     30  C   UNL     1      40.437  38.937  -2.105  1.00  0.00     0.012 A 
ATOM     31  C   UNL     1      38.243  39.326  -3.815  1.00  0.00     0.157 A 
ATOM     32  C   UNL     1      40.631  39.038  -3.487  1.00  0.00     0.051 A 
ATOM     33  C   UNL     1      39.546  39.218  -4.351  1.00  0.00     0.157 A 
BRANCH  31  34
ATOM     34  O   UNL     1      37.113  39.507  -4.618  1.00  0.00    -0.504 OA
ATOM     35  H   UNL     1      36.764  38.813  -5.263  1.00  0.00     0.293 HD
ENDBRANCH  31  34
BRANCH  33  36
ATOM     36  O   UNL     1      39.808  39.268  -5.724  1.00  0.00    -0.504 OA
ATOM     37  H   UNL     1      40.703  39.503  -6.119  1.00  0.00     0.293 HD
ENDBRANCH  33  36
ENDBRANCH  27  28
ENDBRANCH  24  26
ENDBRANCH  23  24
ENDBRANCH   6  23
BRANCH   3  38
ATOM     38  O   UNL     1      38.008  35.810   7.417  1.00  0.00    -0.350 OA
BRANCH  38  39
ATOM     39  C   UNL     1      39.136  36.052   8.233  1.00  0.00     0.168 C 
BRANCH  39  40
ATOM     40  C   UNL     1      40.377  35.992   7.343  1.00  0.00     0.064 C 
BRANCH  40  41
ATOM     41  C   UNL     1      41.123  34.695   7.519  1.00  0.00    -0.042 A 
ATOM     42  C   UNL     1      41.100  33.732   6.502  1.00  0.00     0.054 A 
ATOM     43  C   UNL     1      41.820  34.423   8.704  1.00  0.00     0.008 A 
ATOM     44  C   UNL     1      41.743  32.502   6.672  1.00  0.00     0.157 A 
ATOM     45  C   UNL     1      42.461  33.194   8.883  1.00  0.00     0.050 A 
ATOM     46  C   UNL     1      42.418  32.225   7.872  1.00  0.00     0.157 A 
BRANCH  44  47
ATOM     47  O   UNL     1      41.688  31.557   5.646  1.00  0.00    -0.504 OA
ATOM     48  H   UNL     1      41.865  30.573   5.808  1.00  0.00     0.293 HD
ENDBRANCH  44  47
BRANCH  46  49
ATOM     49  O   UNL     1      43.028  30.983   8.064  1.00  0.00    -0.504 OA
ATOM     50  H   UNL     1      42.763  30.175   7.517  1.00  0.00     0.293 HD
ENDBRANCH  46  49
ENDBRANCH  40  41
ENDBRANCH  39  40
ENDBRANCH  38  39
ENDBRANCH   3  38
BRANCH   5  51
ATOM     51  C   UNL     1      36.474  36.127   3.147  1.00  0.00     0.192 C 
BRANCH  51  52
ATOM     52  O   UNL     1      36.379  36.763   1.900  1.00  0.00    -0.394 OA
ATOM     53  H   UNL     1      36.818  37.648   1.989  1.00  0.00     0.210 HD
ENDBRANCH  51  52
ENDBRANCH   5  51
TORSDOF 20
ENDMDL
MODEL 6
REMARK VINA RESULT:    -7.575      1.931      2.920
REMARK INTER + INTRA:         -17.597
REMARK INTER:                 -14.627
REMARK INTRA:                  -2.970
REMARK UNBOUND:                -3.158
REMARK SMILES C[C@@H]1O[C@@H](O[C@H]2[C@H](O)[C@@H](OCCc3ccc(O)c(O)c3)O[C@@H](CO)[C@H]2OC(=O)C=Cc2ccc(O)c(O)c2)[C@@H](O)[C@@H](O)[C@@H]1O
REMARK SMILES IDX 6 1 7 2 9 3 21 4 22 5 25 6 5 7 4 8 1 9 2 10 43 11 3 12 41 13
REMARK SMILES IDX 39 14 44 15 42 17 40 19 8 21 26 23 27 24 28 25 29 26 30 27
REMARK SMILES IDX 31 28 38 29 32 30 36 31 33 32 34 33 37 34 35 36 10 38 11 39
REMARK SMILES IDX 12 40 13 41 20 42 14 43 18 44 15 45 16 46 19 47 17 49 23 51
REMARK SMILES IDX 24 52
REMARK H PARENT 44 16 42 18 40 20 8 22 37 35 35 37 19 48 17 50 24 53
REMARK Flexibility Score: inf
ROOT
ATOM      1  C   UNL     1      37.560  36.859   7.383  1.00  0.00     0.199 C 
ATOM      2  C   UNL     1      36.541  37.488   8.365  1.00  0.00     0.203 C 
ATOM      3  C   UNL     1      35.078  37.238   7.899  1.00  0.00     0.282 C 
ATOM      4  O   UNL     1      34.821  37.815   6.625  1.00  0.00    -0.340 OA
ATOM      5  C   UNL     1      35.804  37.495   5.628  1.00  0.00     0.190 C 
ATOM      6  C   UNL     1      36.880  36.449   6.064  1.00  0.00     0.240 C 
ENDROOT
BRANCH   1   7
ATOM      7  O   UNL     1      38.570  37.813   7.095  1.00  0.00    -0.340 OA
BRANCH   7   8
ATOM      8  C   UNL     1      39.816  37.462   7.673  1.00  0.00     0.282 C 
ATOM      9  C   UNL     1      40.322  40.480   9.726  1.00  0.00     0.041 C 
ATOM     10  C   UNL     1      40.166  39.653   8.449  1.00  0.00     0.150 C 
ATOM     11  C   UNL     1      41.330  39.917   7.467  1.00  0.00     0.174 C 
ATOM     12  O   UNL     1      40.094  38.278   8.807  1.00  0.00    -0.344 OA
ATOM     13  C   UNL     1      41.157  39.046   6.208  1.00  0.00     0.179 C 
ATOM     14  C   UNL     1      40.933  37.574   6.620  1.00  0.00     0.202 C 
BRANCH  11  15
ATOM     15  O   UNL     1      42.552  39.616   8.094  1.00  0.00    -0.388 OA
ATOM     16  H   UNL     1      42.778  40.392   8.669  1.00  0.00     0.211 HD
ENDBRANCH  11  15
BRANCH  13  17
ATOM     17  O   UNL     1      40.068  39.526   5.458  1.00  0.00    -0.387 OA
ATOM     18  H   UNL     1      40.444  40.111   4.751  1.00  0.00     0.211 HD
ENDBRANCH  13  17
BRANCH  14  19
ATOM     19  O   UNL     1      40.614  36.788   5.501  1.00  0.00    -0.385 OA
ATOM     20  H   UNL     1      40.095  36.010   5.842  1.00  0.00     0.211 HD
ENDBRANCH  14  19
ENDBRANCH   7   8
ENDBRANCH   1   7
BRANCH   2  21
ATOM     21  O   UNL     1      36.746  37.022   9.673  1.00  0.00    -0.385 OA
ATOM     22  H   UNL     1      36.592  37.780  10.294  1.00  0.00     0.211 HD
ENDBRANCH   2  21
BRANCH   6  23
ATOM     23  O   UNL     1      37.874  36.236   5.061  1.00  0.00    -0.453 OA
BRANCH  23  24
ATOM     24  C   UNL     1      37.627  35.600   3.845  1.00  0.00     0.331 C 
ATOM     25  O   UNL     1      37.331  34.372   3.812  1.00  0.00    -0.247 OA
BRANCH  24  26
ATOM     26  C   UNL     1      37.778  36.378   2.610  1.00  0.00     0.094 C 
ATOM     27  C   UNL     1      38.694  37.345   2.472  1.00  0.00     0.016 C 
BRANCH  27  28
ATOM     28  C   UNL     1      38.725  38.262   1.304  1.00  0.00    -0.021 A 
ATOM     29  C   UNL     1      38.980  37.721   0.030  1.00  0.00     0.058 A 
ATOM     30  C   UNL     1      38.553  39.652   1.427  1.00  0.00     0.012 A 
ATOM     31  C   UNL     1      39.118  38.550  -1.094  1.00  0.00     0.157 A 
ATOM     32  C   UNL     1      38.676  40.482   0.306  1.00  0.00     0.051 A 
ATOM     33  C   UNL     1      38.970  39.948  -0.951  1.00  0.00     0.157 A 
BRANCH  31  34
ATOM     34  O   UNL     1      39.412  37.947  -2.321  1.00  0.00    -0.504 OA
ATOM     35  H   UNL     1      39.869  38.421  -3.086  1.00  0.00     0.293 HD
ENDBRANCH  31  34
BRANCH  33  36
ATOM     36  O   UNL     1      39.121  40.839  -2.019  1.00  0.00    -0.504 OA
ATOM     37  H   UNL     1      39.647  41.696  -1.969  1.00  0.00     0.293 HD
ENDBRANCH  33  36
ENDBRANCH  27  28
ENDBRANCH  24  26
ENDBRANCH  23  24
ENDBRANCH   6  23
BRANCH   3  38
ATOM     38  O   UNL     1      34.114  37.643   8.857  1.00  0.00    -0.350 OA
BRANCH  38  39
ATOM     39  C   UNL     1      32.846  37.909   8.294  1.00  0.00     0.168 C 
BRANCH  39  40
ATOM     40  C   UNL     1      32.482  39.355   8.625  1.00  0.00     0.064 C 
BRANCH  40  41
ATOM     41  C   UNL     1      32.691  40.265   7.442  1.00  0.00    -0.042 A 
ATOM     42  C   UNL     1      32.446  39.793   6.146  1.00  0.00     0.054 A 
ATOM     43  C   UNL     1      33.159  41.574   7.618  1.00  0.00     0.008 A 
ATOM     44  C   UNL     1      32.688  40.608   5.036  1.00  0.00     0.157 A 
ATOM     45  C   UNL     1      33.406  42.392   6.513  1.00  0.00     0.050 A 
ATOM     46  C   UNL     1      33.181  41.911   5.217  1.00  0.00     0.157 A 
BRANCH  44  47
ATOM     47  O   UNL     1      32.449  40.103   3.756  1.00  0.00    -0.504 OA
ATOM     48  H   UNL     1      31.767  40.516   3.131  1.00  0.00     0.293 HD
ENDBRANCH  44  47
BRANCH  46  49
ATOM     49  O   UNL     1      33.461  42.715   4.110  1.00  0.00    -0.504 OA
ATOM     50  H   UNL     1      32.776  42.870   3.383  1.00  0.00     0.293 HD
ENDBRANCH  46  49
ENDBRANCH  40  41
ENDBRANCH  39  40
ENDBRANCH  38  39
ENDBRANCH   3  38
BRANCH   5  51
ATOM     51  C   UNL     1      36.441  38.811   5.128  1.00  0.00     0.192 C 
BRANCH  51  52
ATOM     52  O   UNL     1      35.850  39.224   3.924  1.00  0.00    -0.394 OA
ATOM     53  H   UNL     1      36.288  40.073   3.660  1.00  0.00     0.210 HD
ENDBRANCH  51  52
ENDBRANCH   5  51
TORSDOF 20
ENDMDL
MODEL 7
REMARK VINA RESULT:    -7.569      1.748      2.885
REMARK INTER + INTRA:         -17.587
REMARK INTER:                 -14.252
REMARK INTRA:                  -3.335
REMARK UNBOUND:                -3.158
REMARK SMILES C[C@@H]1O[C@@H](O[C@H]2[C@H](O)[C@@H](OCCc3ccc(O)c(O)c3)O[C@@H](CO)[C@H]2OC(=O)C=Cc2ccc(O)c(O)c2)[C@@H](O)[C@@H](O)[C@@H]1O
REMARK SMILES IDX 6 1 7 2 9 3 21 4 22 5 25 6 5 7 4 8 1 9 2 10 43 11 3 12 41 13
REMARK SMILES IDX 39 14 44 15 42 17 40 19 8 21 26 23 27 24 28 25 29 26 30 27
REMARK SMILES IDX 31 28 38 29 32 30 36 31 33 32 34 33 37 34 35 36 10 38 11 39
REMARK SMILES IDX 12 40 13 41 20 42 14 43 18 44 15 45 16 46 19 47 17 49 23 51
REMARK SMILES IDX 24 52
REMARK H PARENT 44 16 42 18 40 20 8 22 37 35 35 37 19 48 17 50 24 53
REMARK Flexibility Score: inf
ROOT
ATOM      1  C   UNL     1      37.482  38.415   6.156  1.00  0.00     0.199 C 
ATOM      2  C   UNL     1      36.151  37.789   6.638  1.00  0.00     0.203 C 
ATOM      3  C   UNL     1      35.143  38.884   7.095  1.00  0.00     0.282 C 
ATOM      4  O   UNL     1      35.648  39.650   8.180  1.00  0.00    -0.340 OA
ATOM      5  C   UNL     1      36.981  40.145   7.979  1.00  0.00     0.190 C 
ATOM      6  C   UNL     1      37.576  39.899   6.555  1.00  0.00     0.240 C 
ENDROOT
BRANCH   1   7
ATOM      7  O   UNL     1      38.563  37.716   6.753  1.00  0.00    -0.340 OA
BRANCH   7   8
ATOM      8  C   UNL     1      39.449  37.177   5.787  1.00  0.00     0.282 C 
ATOM      9  C   UNL     1      38.478  33.634   6.087  1.00  0.00     0.041 C 
ATOM     10  C   UNL     1      39.053  34.982   6.527  1.00  0.00     0.150 C 
ATOM     11  C   UNL     1      40.477  34.819   7.107  1.00  0.00     0.174 C 
ATOM     12  O   UNL     1      39.047  35.863   5.411  1.00  0.00    -0.344 OA
ATOM     13  C   UNL     1      41.036  36.197   7.511  1.00  0.00     0.179 C 
ATOM     14  C   UNL     1      40.889  37.185   6.332  1.00  0.00     0.202 C 
BRANCH  11  15
ATOM     15  O   UNL     1      41.312  34.227   6.142  1.00  0.00    -0.388 OA
ATOM     16  H   UNL     1      41.439  33.282   6.415  1.00  0.00     0.211 HD
ENDBRANCH  11  15
BRANCH  13  17
ATOM     17  O   UNL     1      40.345  36.663   8.643  1.00  0.00    -0.387 OA
ATOM     18  H   UNL     1      39.571  37.186   8.311  1.00  0.00     0.211 HD
ENDBRANCH  13  17
BRANCH  14  19
ATOM     19  O   UNL     1      41.242  38.485   6.726  1.00  0.00    -0.385 OA
ATOM     20  H   UNL     1      42.226  38.562   6.594  1.00  0.00     0.211 HD
ENDBRANCH  14  19
ENDBRANCH   7   8
ENDBRANCH   1   7
BRANCH   2  21
ATOM     21  O   UNL     1      35.594  36.963   5.651  1.00  0.00    -0.385 OA
ATOM     22  H   UNL     1      34.606  37.047   5.705  1.00  0.00     0.211 HD
ENDBRANCH   2  21
BRANCH   6  23
ATOM     23  O   UNL     1      38.930  40.338   6.444  1.00  0.00    -0.453 OA
BRANCH  23  24
ATOM     24  C   UNL     1      39.400  41.156   5.416  1.00  0.00     0.331 C 
ATOM     25  O   UNL     1      39.581  42.390   5.611  1.00  0.00    -0.247 OA
BRANCH  24  26
ATOM     26  C   UNL     1      39.622  40.555   4.096  1.00  0.00     0.094 C 
ATOM     27  C   UNL     1      38.654  40.458   3.174  1.00  0.00     0.016 C 
BRANCH  27  28
ATOM     28  C   UNL     1      38.815  39.684   1.918  1.00  0.00    -0.021 A 
ATOM     29  C   UNL     1      38.945  40.387   0.705  1.00  0.00     0.058 A 
ATOM     30  C   UNL     1      38.802  38.278   1.887  1.00  0.00     0.012 A 
ATOM     31  C   UNL     1      39.003  39.709  -0.522  1.00  0.00     0.157 A 
ATOM     32  C   UNL     1      38.873  37.596   0.666  1.00  0.00     0.051 A 
ATOM     33  C   UNL     1      38.959  38.296  -0.541  1.00  0.00     0.157 A 
BRANCH  31  34
ATOM     34  O   UNL     1      39.090  40.473  -1.690  1.00  0.00    -0.504 OA
ATOM     35  H   UNL     1      38.398  41.152  -1.971  1.00  0.00     0.293 HD
ENDBRANCH  31  34
BRANCH  33  36
ATOM     36  O   UNL     1      38.984  37.552  -1.725  1.00  0.00    -0.504 OA
ATOM     37  H   UNL     1      38.936  36.548  -1.761  1.00  0.00     0.293 HD
ENDBRANCH  33  36
ENDBRANCH  27  28
ENDBRANCH  24  26
ENDBRANCH  23  24
ENDBRANCH   6  23
BRANCH   3  38
ATOM     38  O   UNL     1      33.854  38.366   7.377  1.00  0.00    -0.350 OA
BRANCH  38  39
ATOM     39  C   UNL     1      32.878  38.760   6.434  1.00  0.00     0.168 C 
BRANCH  39  40
ATOM     40  C   UNL     1      33.305  40.108   5.854  1.00  0.00     0.064 C 
BRANCH  40  41
ATOM     41  C   UNL     1      33.121  40.152   4.359  1.00  0.00    -0.042 A 
ATOM     42  C   UNL     1      32.269  41.107   3.788  1.00  0.00     0.054 A 
ATOM     43  C   UNL     1      33.769  39.228   3.529  1.00  0.00     0.008 A 
ATOM     44  C   UNL     1      32.046  41.125   2.408  1.00  0.00     0.157 A 
ATOM     45  C   UNL     1      33.547  39.238   2.149  1.00  0.00     0.050 A 
ATOM     46  C   UNL     1      32.679  40.180   1.584  1.00  0.00     0.157 A 
BRANCH  44  47
ATOM     47  O   UNL     1      31.180  42.079   1.871  1.00  0.00    -0.504 OA
ATOM     48  H   UNL     1      31.446  42.677   1.098  1.00  0.00     0.293 HD
ENDBRANCH  44  47
BRANCH  46  49
ATOM     49  O   UNL     1      32.429  40.169   0.209  1.00  0.00    -0.504 OA
ATOM     50  H   UNL     1      33.171  40.017  -0.461  1.00  0.00     0.293 HD
ENDBRANCH  46  49
ENDBRANCH  40  41
ENDBRANCH  39  40
ENDBRANCH  38  39
ENDBRANCH   3  38
BRANCH   5  51
ATOM     51  C   UNL     1      37.888  39.576   9.094  1.00  0.00     0.192 C 
BRANCH  51  52
ATOM     52  O   UNL     1      39.240  39.664   8.728  1.00  0.00    -0.394 OA
ATOM     53  H   UNL     1      39.286  39.531   7.747  1.00  0.00     0.210 HD
ENDBRANCH  51  52
ENDBRANCH   5  51
TORSDOF 20
ENDMDL
MODEL 8
REMARK VINA RESULT:    -7.553      2.430      4.786
REMARK INTER + INTRA:         -17.555
REMARK INTER:                 -14.338
REMARK INTRA:                  -3.216
REMARK UNBOUND:                -3.158
REMARK SMILES C[C@@H]1O[C@@H](O[C@H]2[C@H](O)[C@@H](OCCc3ccc(O)c(O)c3)O[C@@H](CO)[C@H]2OC(=O)C=Cc2ccc(O)c(O)c2)[C@@H](O)[C@@H](O)[C@@H]1O
REMARK SMILES IDX 6 1 7 2 9 3 21 4 22 5 25 6 5 7 4 8 1 9 2 10 43 11 3 12 41 13
REMARK SMILES IDX 39 14 44 15 42 17 40 19 8 21 26 23 27 24 28 25 29 26 30 27
REMARK SMILES IDX 31 28 38 29 32 30 36 31 33 32 34 33 37 34 35 36 10 38 11 39
REMARK SMILES IDX 12 40 13 41 20 42 14 43 18 44 15 45 16 46 19 47 17 49 23 51
REMARK SMILES IDX 24 52
REMARK H PARENT 44 16 42 18 40 20 8 22 37 35 35 37 19 48 17 50 24 53
REMARK Flexibility Score: inf
ROOT
ATOM      1  C   UNL     1      36.175  39.709   2.993  1.00  0.00     0.199 C 
ATOM      2  C   UNL     1      34.753  39.669   3.604  1.00  0.00     0.203 C 
ATOM      3  C   UNL     1      34.301  41.081   4.078  1.00  0.00     0.282 C 
ATOM      4  O   UNL     1      35.159  41.604   5.083  1.00  0.00    -0.340 OA
ATOM      5  C   UNL     1      36.556  41.527   4.760  1.00  0.00     0.190 C 
ATOM      6  C   UNL     1      36.879  41.042   3.309  1.00  0.00     0.240 C 
ENDROOT
BRANCH   1   7
ATOM      7  O   UNL     1      36.942  38.650   3.544  1.00  0.00    -0.340 OA
BRANCH   7   8
ATOM      8  C   UNL     1      36.128  37.594   4.024  1.00  0.00     0.282 C 
ATOM      9  C   UNL     1      38.221  36.553   6.872  1.00  0.00     0.041 C 
ATOM     10  C   UNL     1      37.846  36.786   5.407  1.00  0.00     0.150 C 
ATOM     11  C   UNL     1      38.048  35.502   4.570  1.00  0.00     0.174 C 
ATOM     12  O   UNL     1      36.498  37.234   5.351  1.00  0.00    -0.344 OA
ATOM     13  C   UNL     1      37.632  35.763   3.109  1.00  0.00     0.179 C 
ATOM     14  C   UNL     1      36.219  36.387   3.073  1.00  0.00     0.202 C 
BRANCH  11  15
ATOM     15  O   UNL     1      37.271  34.461   5.110  1.00  0.00    -0.388 OA
ATOM     16  H   UNL     1      37.793  33.626   4.995  1.00  0.00     0.211 HD
ENDBRANCH  11  15
BRANCH  13  17
ATOM     17  O   UNL     1      38.571  36.618   2.505  1.00  0.00    -0.387 OA
ATOM     18  H   UNL     1      39.312  36.045   2.179  1.00  0.00     0.211 HD
ENDBRANCH  13  17
BRANCH  14  19
ATOM     19  O   UNL     1      35.883  36.780   1.768  1.00  0.00    -0.385 OA
ATOM     20  H   UNL     1      35.540  37.713   1.834  1.00  0.00     0.211 HD
ENDBRANCH  14  19
ENDBRANCH   7   8
ENDBRANCH   1   7
BRANCH   2  21
ATOM     21  O   UNL     1      33.831  39.114   2.703  1.00  0.00    -0.385 OA
ATOM     22  H   UNL     1      34.246  39.119   1.801  1.00  0.00     0.211 HD
ENDBRANCH   2  21
BRANCH   6  23
ATOM     23  O   UNL     1      38.281  40.907   3.077  1.00  0.00    -0.453 OA
BRANCH  23  24
ATOM     24  C   UNL     1      39.023  41.774   2.274  1.00  0.00     0.331 C 
ATOM     25  O   UNL     1      39.562  42.803   2.770  1.00  0.00    -0.247 OA
BRANCH  24  26
ATOM     26  C   UNL     1      39.109  41.489   0.837  1.00  0.00     0.094 C 
ATOM     27  C   UNL     1      38.846  40.281   0.323  1.00  0.00     0.016 C 
BRANCH  27  28
ATOM     28  C   UNL     1      39.117  39.935  -1.095  1.00  0.00    -0.021 A 
ATOM     29  C   UNL     1      40.171  39.047  -1.383  1.00  0.00     0.058 A 
ATOM     30  C   UNL     1      38.389  40.491  -2.163  1.00  0.00     0.012 A 
ATOM     31  C   UNL     1      40.534  38.760  -2.708  1.00  0.00     0.157 A 
ATOM     32  C   UNL     1      38.739  40.197  -3.486  1.00  0.00     0.051 A 
ATOM     33  C   UNL     1      39.812  39.349  -3.771  1.00  0.00     0.157 A 
BRANCH  31  34
ATOM     34  O   UNL     1      41.618  37.902  -2.919  1.00  0.00    -0.504 OA
ATOM     35  H   UNL     1      41.571  37.064  -3.479  1.00  0.00     0.293 HD
ENDBRANCH  31  34
BRANCH  33  36
ATOM     36  O   UNL     1      40.133  39.132  -5.116  1.00  0.00    -0.504 OA
ATOM     37  H   UNL     1      39.956  38.271  -5.606  1.00  0.00     0.293 HD
ENDBRANCH  33  36
ENDBRANCH  27  28
ENDBRANCH  24  26
ENDBRANCH  23  24
ENDBRANCH   6  23
BRANCH   3  38
ATOM     38  O   UNL     1      32.942  41.122   4.480  1.00  0.00    -0.350 OA
BRANCH  38  39
ATOM     39  C   UNL     1      32.778  41.195   5.882  1.00  0.00     0.168 C 
BRANCH  39  40
ATOM     40  C   UNL     1      32.347  39.814   6.374  1.00  0.00     0.064 C 
BRANCH  40  41
ATOM     41  C   UNL     1      33.398  39.184   7.251  1.00  0.00    -0.042 A 
ATOM     42  C   UNL     1      33.697  37.823   7.114  1.00  0.00     0.054 A 
ATOM     43  C   UNL     1      34.064  39.938   8.226  1.00  0.00     0.008 A 
ATOM     44  C   UNL     1      34.631  37.212   7.957  1.00  0.00     0.157 A 
ATOM     45  C   UNL     1      34.995  39.333   9.075  1.00  0.00     0.050 A 
ATOM     46  C   UNL     1      35.277  37.967   8.950  1.00  0.00     0.157 A 
BRANCH  44  47
ATOM     47  O   UNL     1      34.896  35.850   7.806  1.00  0.00    -0.504 OA
ATOM     48  H   UNL     1      35.739  35.509   7.362  1.00  0.00     0.293 HD
ENDBRANCH  44  47
BRANCH  46  49
ATOM     49  O   UNL     1      36.182  37.354   9.820  1.00  0.00    -0.504 OA
ATOM     50  H   UNL     1      37.034  37.816  10.106  1.00  0.00     0.293 HD
ENDBRANCH  46  49
ENDBRANCH  40  41
ENDBRANCH  39  40
ENDBRANCH  38  39
ENDBRANCH   3  38
BRANCH   5  51
ATOM     51  C   UNL     1      37.260  40.665   5.832  1.00  0.00     0.192 C 
BRANCH  51  52
ATOM     52  O   UNL     1      38.641  40.917   5.844  1.00  0.00    -0.394 OA
ATOM     53  H   UNL     1      38.782  41.794   5.403  1.00  0.00     0.210 HD
ENDBRANCH  51  52
ENDBRANCH   5  51
TORSDOF 20
ENDMDL
MODEL 9
REMARK VINA RESULT:    -7.536      1.519      6.007
REMARK INTER + INTRA:         -17.522
REMARK INTER:                 -15.585
REMARK INTRA:                  -1.937
REMARK UNBOUND:                -3.158
REMARK SMILES C[C@@H]1O[C@@H](O[C@H]2[C@H](O)[C@@H](OCCc3ccc(O)c(O)c3)O[C@@H](CO)[C@H]2OC(=O)C=Cc2ccc(O)c(O)c2)[C@@H](O)[C@@H](O)[C@@H]1O
REMARK SMILES IDX 6 1 7 2 9 3 21 4 22 5 25 6 5 7 4 8 1 9 2 10 43 11 3 12 41 13
REMARK SMILES IDX 39 14 44 15 42 17 40 19 8 21 26 23 27 24 28 25 29 26 30 27
REMARK SMILES IDX 31 28 38 29 32 30 36 31 33 32 34 33 37 34 35 36 10 38 11 39
REMARK SMILES IDX 12 40 13 41 20 42 14 43 18 44 15 45 16 46 19 47 17 49 23 51
REMARK SMILES IDX 24 52
REMARK H PARENT 44 16 42 18 40 20 8 22 37 35 35 37 19 48 17 50 24 53
REMARK Flexibility Score: inf
ROOT
ATOM      1  C   UNL     1      38.576  38.627   6.933  1.00  0.00     0.199 C 
ATOM      2  C   UNL     1      39.313  37.703   5.933  1.00  0.00     0.203 C 
ATOM      3  C   UNL     1      38.391  37.307   4.744  1.00  0.00     0.282 C 
ATOM      4  O   UNL     1      37.240  36.596   5.179  1.00  0.00    -0.340 OA
ATOM      5  C   UNL     1      36.539  37.223   6.264  1.00  0.00     0.190 C 
ATOM      6  C   UNL     1      37.060  38.641   6.664  1.00  0.00     0.240 C 
ENDROOT
BRANCH   1   7
ATOM      7  O   UNL     1      38.798  38.149   8.251  1.00  0.00    -0.340 OA
BRANCH   7   8
ATOM      8  C   UNL     1      40.112  38.423   8.704  1.00  0.00     0.282 C 
ATOM      9  C   UNL     1      41.450  34.991   8.578  1.00  0.00     0.041 C 
ATOM     10  C   UNL     1      40.558  36.142   9.050  1.00  0.00     0.150 C 
ATOM     11  C   UNL     1      40.598  36.284  10.588  1.00  0.00     0.174 C 
ATOM     12  O   UNL     1      40.985  37.337   8.408  1.00  0.00    -0.344 OA
ATOM     13  C   UNL     1      39.715  37.469  11.025  1.00  0.00     0.179 C 
ATOM     14  C   UNL     1      40.094  38.728  10.213  1.00  0.00     0.202 C 
BRANCH  11  15
ATOM     15  O   UNL     1      41.924  36.495  11.007  1.00  0.00    -0.388 OA
ATOM     16  H   UNL     1      41.921  37.313  11.568  1.00  0.00     0.211 HD
ENDBRANCH  11  15
BRANCH  13  17
ATOM     17  O   UNL     1      38.363  37.136  10.829  1.00  0.00    -0.387 OA
ATOM     18  H   UNL     1      37.859  37.990  10.805  1.00  0.00     0.211 HD
ENDBRANCH  13  17
BRANCH  14  19
ATOM     19  O   UNL     1      39.200  39.777  10.477  1.00  0.00    -0.385 OA
ATOM     20  H   UNL     1      39.509  40.554   9.936  1.00  0.00     0.211 HD
ENDBRANCH  14  19
ENDBRANCH   7   8
ENDBRANCH   1   7
BRANCH   2  21
ATOM     21  O   UNL     1      40.503  38.295   5.481  1.00  0.00    -0.385 OA
ATOM     22  H   UNL     1      40.445  38.379   4.494  1.00  0.00     0.211 HD
ENDBRANCH   2  21
BRANCH   6  23
ATOM     23  O   UNL     1      36.379  39.175   7.800  1.00  0.00    -0.453 OA
BRANCH  23  24
ATOM     24  C   UNL     1      35.228  39.958   7.719  1.00  0.00     0.331 C 
ATOM     25  O   UNL     1      34.607  40.295   8.766  1.00  0.00    -0.247 OA
BRANCH  24  26
ATOM     26  C   UNL     1      34.730  40.327   6.388  1.00  0.00     0.094 C 
ATOM     27  C   UNL     1      33.903  39.544   5.683  1.00  0.00     0.016 C 
BRANCH  27  28
ATOM     28  C   UNL     1      33.551  39.817   4.267  1.00  0.00    -0.021 A 
ATOM     29  C   UNL     1      32.627  40.842   3.988  1.00  0.00     0.058 A 
ATOM     30  C   UNL     1      34.071  39.066   3.198  1.00  0.00     0.012 A 
ATOM     31  C   UNL     1      32.183  41.080   2.678  1.00  0.00     0.157 A 
ATOM     32  C   UNL     1      33.642  39.309   1.888  1.00  0.00     0.051 A 
ATOM     33  C   UNL     1      32.693  40.298   1.617  1.00  0.00     0.157 A 
BRANCH  31  34
ATOM     34  O   UNL     1      31.233  42.087   2.481  1.00  0.00    -0.504 OA
ATOM     35  H   UNL     1      31.341  43.035   2.810  1.00  0.00     0.293 HD
ENDBRANCH  31  34
BRANCH  33  36
ATOM     36  O   UNL     1      32.278  40.458   0.290  1.00  0.00    -0.504 OA
ATOM     37  H   UNL     1      32.241  39.710  -0.383  1.00  0.00     0.293 HD
ENDBRANCH  33  36
ENDBRANCH  27  28
ENDBRANCH  24  26
ENDBRANCH  23  24
ENDBRANCH   6  23
BRANCH   3  38
ATOM     38  O   UNL     1      39.078  36.609   3.719  1.00  0.00    -0.350 OA
BRANCH  38  39
ATOM     39  C   UNL     1      38.358  36.552   2.504  1.00  0.00     0.168 C 
BRANCH  39  40
ATOM     40  C   UNL     1      37.881  37.967   2.178  1.00  0.00     0.064 C 
BRANCH  40  41
ATOM     41  C   UNL     1      38.505  38.483   0.908  1.00  0.00    -0.042 A 
ATOM     42  C   UNL     1      38.472  39.853   0.619  1.00  0.00     0.054 A 
ATOM     43  C   UNL     1      39.096  37.604  -0.010  1.00  0.00     0.008 A 
ATOM     44  C   UNL     1      38.999  40.340  -0.581  1.00  0.00     0.157 A 
ATOM     45  C   UNL     1      39.621  38.083  -1.213  1.00  0.00     0.050 A 
ATOM     46  C   UNL     1      39.567  39.451  -1.508  1.00  0.00     0.157 A 
BRANCH  44  47
ATOM     47  O   UNL     1      38.936  41.709  -0.847  1.00  0.00    -0.504 OA
ATOM     48  H   UNL     1      38.632  42.381  -0.152  1.00  0.00     0.293 HD
ENDBRANCH  44  47
BRANCH  46  49
ATOM     49  O   UNL     1      40.059  39.927  -2.726  1.00  0.00    -0.504 OA
ATOM     50  H   UNL     1      40.117  40.917  -2.921  1.00  0.00     0.293 HD
ENDBRANCH  46  49
ENDBRANCH  40  41
ENDBRANCH  39  40
ENDBRANCH  38  39
ENDBRANCH   3  38
BRANCH   5  51
ATOM     51  C   UNL     1      36.523  36.250   7.465  1.00  0.00     0.192 C 
BRANCH  51  52
ATOM     52  O   UNL     1      35.209  35.880   7.788  1.00  0.00    -0.394 OA
ATOM     53  H   UNL     1      34.758  35.633   6.940  1.00  0.00     0.210 HD
ENDBRANCH  51  52
ENDBRANCH   5  51
TORSDOF 20
ENDMDL
