MODEL 1
REMARK VINA RESULT:    -5.789      0.000      0.000
REMARK INTER + INTRA:          -7.073
REMARK INTER:                  -6.804
REMARK INTRA:                  -0.269
REMARK UNBOUND:                -0.269
REMARK SMILES O=c1cc(-c2ccc(O)c(O)c2)oc2cc(O)cc(O)c12
REMARK SMILES IDX 4 1 3 2 2 3 1 4 21 5 19 6 18 7 16 8 15 9 14 10 13 11 5 12
REMARK SMILES IDX 6 13 7 14 8 15 12 16 10 17 9 18 11 20 20 22 17 24
REMARK H PARENT 9 19 11 21 20 23 17 25
REMARK Flexibility Score: inf
ROOT
ATOM      1  C   UNL     1      27.557  -0.384  -7.492  1.00  0.00     0.138 A 
ATOM      2  C   UNL     1      26.608  -1.259  -6.949  1.00  0.00     0.100 A 
ATOM      3  C   UNL     1      27.009  -2.513  -6.485  1.00  0.00     0.197 A 
ATOM      4  O   UNL     1      26.123  -3.296  -6.054  1.00  0.00    -0.289 OA
ATOM      5  C   UNL     1      28.376  -2.876  -6.532  1.00  0.00     0.107 A 
ATOM      6  C   UNL     1      28.906  -4.114  -6.056  1.00  0.00     0.134 A 
ATOM      7  C   UNL     1      30.264  -4.401  -6.248  1.00  0.00     0.093 A 
ATOM      8  C   UNL     1      31.121  -3.473  -6.844  1.00  0.00     0.123 A 
ATOM      9  C   UNL     1      30.622  -2.242  -7.266  1.00  0.00     0.094 A 
ATOM     10  C   UNL     1      29.267  -1.940  -7.122  1.00  0.00     0.146 A 
ATOM     11  O   UNL     1      28.830  -0.761  -7.554  1.00  0.00    -0.456 OA
ENDROOT
BRANCH   1  12
ATOM     12  C   UNL     1      27.187   0.962  -7.998  1.00  0.00     0.021 A 
ATOM     13  C   UNL     1      26.426   1.073  -9.174  1.00  0.00     0.016 A 
ATOM     14  C   UNL     1      26.057   2.327  -9.668  1.00  0.00     0.051 A 
ATOM     15  C   UNL     1      26.436   3.491  -8.989  1.00  0.00     0.157 A 
ATOM     16  C   UNL     1      27.553   2.138  -7.313  1.00  0.00     0.062 A 
ATOM     17  C   UNL     1      27.181   3.397  -7.808  1.00  0.00     0.158 A 
BRANCH  15  18
ATOM     18  O   UNL     1      26.071   4.745  -9.478  1.00  0.00    -0.504 OA
ATOM     19  H   UNL     1      26.682   5.271 -10.092  1.00  0.00     0.293 HD
ENDBRANCH  15  18
BRANCH  17  20
ATOM     20  O   UNL     1      27.546   4.557  -7.128  1.00  0.00    -0.504 OA
ATOM     21  H   UNL     1      27.489   4.622  -6.118  1.00  0.00     0.293 HD
ENDBRANCH  17  20
ENDBRANCH   1  12
BRANCH   6  22
ATOM     22  O   UNL     1      28.156  -5.077  -5.375  1.00  0.00    -0.507 OA
ATOM     23  H   UNL     1      27.571  -4.898  -4.574  1.00  0.00     0.293 HD
ENDBRANCH   6  22
BRANCH   8  24
ATOM     24  O   UNL     1      32.472  -3.762  -7.015  1.00  0.00    -0.508 OA
ATOM     25  H   UNL     1      32.998  -4.271  -6.315  1.00  0.00     0.293 HD
ENDBRANCH   8  24
TORSDOF 5
ENDMDL
MODEL 2
REMARK VINA RESULT:    -5.412      1.206      2.758
REMARK INTER + INTRA:          -6.631
REMARK INTER:                  -6.365
REMARK INTRA:                  -0.266
REMARK UNBOUND:                -0.269
REMARK SMILES O=c1cc(-c2ccc(O)c(O)c2)oc2cc(O)cc(O)c12
REMARK SMILES IDX 4 1 3 2 2 3 1 4 21 5 19 6 18 7 16 8 15 9 14 10 13 11 5 12
REMARK SMILES IDX 6 13 7 14 8 15 12 16 10 17 9 18 11 20 20 22 17 24
REMARK H PARENT 9 19 11 21 20 23 17 25
REMARK Flexibility Score: inf
ROOT
ATOM      1  C   UNL     1      27.776  -0.211  -7.499  1.00  0.00     0.138 A 
ATOM      2  C   UNL     1      29.133  -0.557  -7.503  1.00  0.00     0.100 A 
ATOM      3  C   UNL     1      29.530  -1.800  -7.006  1.00  0.00     0.197 A 
ATOM      4  O   UNL     1      30.762  -2.058  -6.972  1.00  0.00    -0.289 OA
ATOM      5  C   UNL     1      28.557  -2.714  -6.537  1.00  0.00     0.107 A 
ATOM      6  C   UNL     1      28.842  -4.022  -6.040  1.00  0.00     0.134 A 
ATOM      7  C   UNL     1      27.804  -4.799  -5.511  1.00  0.00     0.093 A 
ATOM      8  C   UNL     1      26.484  -4.340  -5.515  1.00  0.00     0.123 A 
ATOM      9  C   UNL     1      26.190  -3.086  -6.044  1.00  0.00     0.094 A 
ATOM     10  C   UNL     1      27.207  -2.272  -6.546  1.00  0.00     0.146 A 
ATOM     11  O   UNL     1      26.885  -1.075  -7.025  1.00  0.00    -0.456 OA
ENDROOT
BRANCH   1  12
ATOM     12  C   UNL     1      27.297   1.095  -8.018  1.00  0.00     0.021 A 
ATOM     13  C   UNL     1      26.506   1.130  -9.180  1.00  0.00     0.016 A 
ATOM     14  C   UNL     1      26.036   2.344  -9.685  1.00  0.00     0.051 A 
ATOM     15  C   UNL     1      26.340   3.545  -9.033  1.00  0.00     0.157 A 
ATOM     16  C   UNL     1      27.587   2.306  -7.360  1.00  0.00     0.062 A 
ATOM     17  C   UNL     1      27.114   3.526  -7.867  1.00  0.00     0.158 A 
BRANCH  15  18
ATOM     18  O   UNL     1      25.874   4.759  -9.534  1.00  0.00    -0.504 OA
ATOM     19  H   UNL     1      25.012   4.817 -10.064  1.00  0.00     0.293 HD
ENDBRANCH  15  18
BRANCH  17  20
ATOM     20  O   UNL     1      27.405   4.721  -7.213  1.00  0.00    -0.504 OA
ATOM     21  H   UNL     1      27.819   4.734  -6.287  1.00  0.00     0.293 HD
ENDBRANCH  17  20
ENDBRANCH   1  12
BRANCH   6  22
ATOM     22  O   UNL     1      30.110  -4.610  -6.063  1.00  0.00    -0.507 OA
ATOM     23  H   UNL     1      30.928  -4.245  -5.601  1.00  0.00     0.293 HD
ENDBRANCH   6  22
BRANCH   8  24
ATOM     24  O   UNL     1      25.457  -5.127  -5.001  1.00  0.00    -0.508 OA
ATOM     25  H   UNL     1      24.787  -4.757  -4.337  1.00  0.00     0.293 HD
ENDBRANCH   8  24
TORSDOF 5
ENDMDL
MODEL 3
REMARK VINA RESULT:    -5.163      4.445      7.261
REMARK INTER + INTRA:          -6.338
REMARK INTER:                  -6.045
REMARK INTRA:                  -0.293
REMARK UNBOUND:                -0.269
REMARK SMILES O=c1cc(-c2ccc(O)c(O)c2)oc2cc(O)cc(O)c12
REMARK SMILES IDX 4 1 3 2 2 3 1 4 21 5 19 6 18 7 16 8 15 9 14 10 13 11 5 12
REMARK SMILES IDX 6 13 7 14 8 15 12 16 10 17 9 18 11 20 20 22 17 24
REMARK H PARENT 9 19 11 21 20 23 17 25
REMARK Flexibility Score: inf
ROOT
ATOM      1  C   UNL     1      25.258   5.676  -6.433  1.00  0.00     0.138 A 
ATOM      2  C   UNL     1      25.738   5.583  -7.746  1.00  0.00     0.100 A 
ATOM      3  C   UNL     1      26.024   4.329  -8.289  1.00  0.00     0.197 A 
ATOM      4  O   UNL     1      26.506   4.284  -9.452  1.00  0.00    -0.289 OA
ATOM      5  C   UNL     1      25.794   3.161  -7.525  1.00  0.00     0.107 A 
ATOM      6  C   UNL     1      26.017   1.828  -7.986  1.00  0.00     0.134 A 
ATOM      7  C   UNL     1      25.847   0.755  -7.103  1.00  0.00     0.093 A 
ATOM      8  C   UNL     1      25.405   0.961  -5.794  1.00  0.00     0.123 A 
ATOM      9  C   UNL     1      25.137   2.254  -5.350  1.00  0.00     0.094 A 
ATOM     10  C   UNL     1      25.331   3.348  -6.194  1.00  0.00     0.146 A 
ATOM     11  O   UNL     1      25.080   4.566  -5.725  1.00  0.00    -0.456 OA
ENDROOT
BRANCH   1  12
ATOM     12  C   UNL     1      24.934   6.982  -5.806  1.00  0.00     0.021 A 
ATOM     13  C   UNL     1      24.200   7.935  -6.533  1.00  0.00     0.016 A 
ATOM     14  C   UNL     1      23.875   9.169  -5.965  1.00  0.00     0.051 A 
ATOM     15  C   UNL     1      24.270   9.468  -4.655  1.00  0.00     0.157 A 
ATOM     16  C   UNL     1      25.316   7.284  -4.484  1.00  0.00     0.062 A 
ATOM     17  C   UNL     1      24.988   8.523  -3.912  1.00  0.00     0.158 A 
BRANCH  15  18
ATOM     18  O   UNL     1      23.949  10.698  -4.083  1.00  0.00    -0.504 OA
ATOM     19  H   UNL     1      24.420  11.034  -3.252  1.00  0.00     0.293 HD
ENDBRANCH  15  18
BRANCH  17  20
ATOM     20  O   UNL     1      25.369   8.819  -2.605  1.00  0.00    -0.504 OA
ATOM     21  H   UNL     1      26.203   8.419  -2.191  1.00  0.00     0.293 HD
ENDBRANCH  17  20
ENDBRANCH   1  12
BRANCH   6  22
ATOM     22  O   UNL     1      26.381   1.504  -9.297  1.00  0.00    -0.507 OA
ATOM     23  H   UNL     1      25.738   1.352 -10.057  1.00  0.00     0.293 HD
ENDBRANCH   6  22
BRANCH   8  24
ATOM     24  O   UNL     1      25.224  -0.115  -4.928  1.00  0.00    -0.508 OA
ATOM     25  H   UNL     1      25.833  -0.924  -4.953  1.00  0.00     0.293 HD
ENDBRANCH   8  24
TORSDOF 5
ENDMDL
MODEL 4
REMARK VINA RESULT:    -4.872      4.662      9.787
REMARK INTER + INTRA:          -5.995
REMARK INTER:                  -5.724
REMARK INTRA:                  -0.271
REMARK UNBOUND:                -0.269
REMARK SMILES O=c1cc(-c2ccc(O)c(O)c2)oc2cc(O)cc(O)c12
REMARK SMILES IDX 4 1 3 2 2 3 1 4 21 5 19 6 18 7 16 8 15 9 14 10 13 11 5 12
REMARK SMILES IDX 6 13 7 14 8 15 12 16 10 17 9 18 11 20 20 22 17 24
REMARK H PARENT 9 19 11 21 20 23 17 25
REMARK Flexibility Score: inf
ROOT
ATOM      1  C   UNL     1      25.180   5.102  -6.402  1.00  0.00     0.138 A 
ATOM      2  C   UNL     1      24.691   5.835  -7.491  1.00  0.00     0.100 A 
ATOM      3  C   UNL     1      24.364   7.182  -7.325  1.00  0.00     0.197 A 
ATOM      4  O   UNL     1      23.875   7.798  -8.308  1.00  0.00    -0.289 OA
ATOM      5  C   UNL     1      24.565   7.806  -6.071  1.00  0.00     0.107 A 
ATOM      6  C   UNL     1      24.300   9.182  -5.794  1.00  0.00     0.134 A 
ATOM      7  C   UNL     1      24.444   9.661  -4.486  1.00  0.00     0.093 A 
ATOM      8  C   UNL     1      24.898   8.832  -3.458  1.00  0.00     0.123 A 
ATOM      9  C   UNL     1      25.207   7.501  -3.730  1.00  0.00     0.094 A 
ATOM     10  C   UNL     1      25.040   6.982  -5.015  1.00  0.00     0.146 A 
ATOM     11  O   UNL     1      25.329   5.702  -5.227  1.00  0.00    -0.456 OA
ENDROOT
BRANCH   1  12
ATOM     12  C   UNL     1      25.546   3.668  -6.522  1.00  0.00     0.021 A 
ATOM     13  C   UNL     1      26.658   3.301  -7.299  1.00  0.00     0.016 A 
ATOM     14  C   UNL     1      27.029   1.959  -7.423  1.00  0.00     0.051 A 
ATOM     15  C   UNL     1      26.300   0.962  -6.764  1.00  0.00     0.157 A 
ATOM     16  C   UNL     1      24.825   2.660  -5.851  1.00  0.00     0.062 A 
ATOM     17  C   UNL     1      25.199   1.313  -5.974  1.00  0.00     0.158 A 
BRANCH  15  18
ATOM     18  O   UNL     1      26.665  -0.377  -6.885  1.00  0.00    -0.504 OA
ATOM     19  H   UNL     1      26.240  -0.981  -7.579  1.00  0.00     0.293 HD
ENDBRANCH  15  18
BRANCH  17  20
ATOM     20  O   UNL     1      24.482   0.320  -5.309  1.00  0.00    -0.504 OA
ATOM     21  H   UNL     1      24.935  -0.513  -4.951  1.00  0.00     0.293 HD
ENDBRANCH  17  20
ENDBRANCH   1  12
BRANCH   6  22
ATOM     22  O   UNL     1      23.919  10.116  -6.762  1.00  0.00    -0.507 OA
ATOM     23  H   UNL     1      24.378  10.998  -6.930  1.00  0.00     0.293 HD
ENDBRANCH   6  22
BRANCH   8  24
ATOM     24  O   UNL     1      25.053   9.323  -2.165  1.00  0.00    -0.508 OA
ATOM     25  H   UNL     1      24.482  10.083  -1.814  1.00  0.00     0.293 HD
ENDBRANCH   8  24
TORSDOF 5
ENDMDL
MODEL 5
REMARK VINA RESULT:    -4.856      2.436      7.569
REMARK INTER + INTRA:          -5.976
REMARK INTER:                  -5.685
REMARK INTRA:                  -0.292
REMARK UNBOUND:                -0.269
REMARK SMILES O=c1cc(-c2ccc(O)c(O)c2)oc2cc(O)cc(O)c12
REMARK SMILES IDX 4 1 3 2 2 3 1 4 21 5 19 6 18 7 16 8 15 9 14 10 13 11 5 12
REMARK SMILES IDX 6 13 7 14 8 15 12 16 10 17 9 18 11 20 20 22 17 24
REMARK H PARENT 9 19 11 21 20 23 17 25
REMARK Flexibility Score: inf
ROOT
ATOM      1  C   UNL     1      26.240   0.557  -6.933  1.00  0.00     0.138 A 
ATOM      2  C   UNL     1      26.245   0.725  -8.324  1.00  0.00     0.100 A 
ATOM      3  C   UNL     1      26.114   2.004  -8.866  1.00  0.00     0.197 A 
ATOM      4  O   UNL     1      26.067   2.115 -10.119  1.00  0.00    -0.289 OA
ATOM      5  C   UNL     1      26.013   3.125  -8.008  1.00  0.00     0.107 A 
ATOM      6  C   UNL     1      25.909   4.481  -8.447  1.00  0.00     0.134 A 
ATOM      7  C   UNL     1      25.715   5.497  -7.504  1.00  0.00     0.093 A 
ATOM      8  C   UNL     1      25.680   5.217  -6.136  1.00  0.00     0.123 A 
ATOM      9  C   UNL     1      25.831   3.904  -5.696  1.00  0.00     0.094 A 
ATOM     10  C   UNL     1      25.990   2.863  -6.612  1.00  0.00     0.146 A 
ATOM     11  O   UNL     1      26.113   1.623  -6.149  1.00  0.00    -0.456 OA
ENDROOT
BRANCH   1  12
ATOM     12  C   UNL     1      26.380  -0.779  -6.302  1.00  0.00     0.021 A 
ATOM     13  C   UNL     1      27.379  -1.657  -6.756  1.00  0.00     0.016 A 
ATOM     14  C   UNL     1      27.538  -2.918  -6.176  1.00  0.00     0.051 A 
ATOM     15  C   UNL     1      26.706  -3.319  -5.123  1.00  0.00     0.157 A 
ATOM     16  C   UNL     1      25.555  -1.185  -5.234  1.00  0.00     0.062 A 
ATOM     17  C   UNL     1      25.716  -2.450  -4.649  1.00  0.00     0.158 A 
BRANCH  15  18
ATOM     18  O   UNL     1      26.859  -4.576  -4.541  1.00  0.00    -0.504 OA
ATOM     19  H   UNL     1      26.196  -4.928  -3.861  1.00  0.00     0.293 HD
ENDBRANCH  15  18
BRANCH  17  20
ATOM     20  O   UNL     1      24.897  -2.848  -3.594  1.00  0.00    -0.504 OA
ATOM     21  H   UNL     1      24.601  -3.812  -3.485  1.00  0.00     0.293 HD
ENDBRANCH  17  20
ENDBRANCH   1  12
BRANCH   6  22
ATOM     22  O   UNL     1      26.012   4.881  -9.783  1.00  0.00    -0.507 OA
ATOM     23  H   UNL     1      26.862   4.885 -10.324  1.00  0.00     0.293 HD
ENDBRANCH   6  22
BRANCH   8  24
ATOM     24  O   UNL     1      25.503   6.238  -5.206  1.00  0.00    -0.508 OA
ATOM     25  H   UNL     1      26.230   6.918  -5.020  1.00  0.00     0.293 HD
ENDBRANCH   8  24
TORSDOF 5
ENDMDL
MODEL 6
REMARK VINA RESULT:    -4.852      3.446      7.156
REMARK INTER + INTRA:          -5.972
REMARK INTER:                  -5.676
REMARK INTRA:                  -0.296
REMARK UNBOUND:                -0.269
REMARK SMILES O=c1cc(-c2ccc(O)c(O)c2)oc2cc(O)cc(O)c12
REMARK SMILES IDX 4 1 3 2 2 3 1 4 21 5 19 6 18 7 16 8 15 9 14 10 13 11 5 12
REMARK SMILES IDX 6 13 7 14 8 15 12 16 10 17 9 18 11 20 20 22 17 24
REMARK H PARENT 9 19 11 21 20 23 17 25
REMARK Flexibility Score: inf
ROOT
ATOM      1  C   UNL     1      29.628  -3.604  -6.497  1.00  0.00     0.138 A 
ATOM      2  C   UNL     1      29.075  -2.412  -6.983  1.00  0.00     0.100 A 
ATOM      3  C   UNL     1      27.863  -1.952  -6.467  1.00  0.00     0.197 A 
ATOM      4  O   UNL     1      27.365  -0.908  -6.964  1.00  0.00    -0.289 OA
ATOM      5  C   UNL     1      27.220  -2.672  -5.432  1.00  0.00     0.107 A 
ATOM      6  C   UNL     1      25.997  -2.281  -4.805  1.00  0.00     0.134 A 
ATOM      7  C   UNL     1      25.406  -3.128  -3.860  1.00  0.00     0.093 A 
ATOM      8  C   UNL     1      26.020  -4.322  -3.475  1.00  0.00     0.123 A 
ATOM      9  C   UNL     1      27.238  -4.688  -4.045  1.00  0.00     0.094 A 
ATOM     10  C   UNL     1      27.836  -3.883  -5.016  1.00  0.00     0.146 A 
ATOM     11  O   UNL     1      28.989  -4.278  -5.547  1.00  0.00    -0.456 OA
ENDROOT
BRANCH   1  12
ATOM     12  C   UNL     1      30.916  -4.138  -7.007  1.00  0.00     0.021 A 
ATOM     13  C   UNL     1      31.192  -4.079  -8.384  1.00  0.00     0.016 A 
ATOM     14  C   UNL     1      32.399  -4.567  -8.890  1.00  0.00     0.051 A 
ATOM     15  C   UNL     1      33.356  -5.115  -8.026  1.00  0.00     0.157 A 
ATOM     16  C   UNL     1      31.889  -4.679  -6.143  1.00  0.00     0.062 A 
ATOM     17  C   UNL     1      33.102  -5.168  -6.651  1.00  0.00     0.158 A 
BRANCH  15  18
ATOM     18  O   UNL     1      34.561  -5.605  -8.526  1.00  0.00    -0.504 OA
ATOM     19  H   UNL     1      35.027  -6.397  -8.101  1.00  0.00     0.293 HD
ENDBRANCH  15  18
BRANCH  17  20
ATOM     20  O   UNL     1      34.060  -5.703  -5.793  1.00  0.00    -0.504 OA
ATOM     21  H   UNL     1      34.145  -5.393  -4.831  1.00  0.00     0.293 HD
ENDBRANCH  17  20
ENDBRANCH   1  12
BRANCH   6  22
ATOM     22  O   UNL     1      25.341  -1.072  -5.055  1.00  0.00    -0.507 OA
ATOM     23  H   UNL     1      25.740  -0.285  -5.541  1.00  0.00     0.293 HD
ENDBRANCH   6  22
BRANCH   8  24
ATOM     24  O   UNL     1      25.431  -5.150  -2.523  1.00  0.00    -0.508 OA
ATOM     25  H   UNL     1      25.359  -4.871  -1.551  1.00  0.00     0.293 HD
ENDBRANCH   8  24
TORSDOF 5
ENDMDL
MODEL 7
REMARK VINA RESULT:    -4.612      3.241      3.630
REMARK INTER + INTRA:          -5.689
REMARK INTER:                  -5.414
REMARK INTRA:                  -0.276
REMARK UNBOUND:                -0.269
REMARK SMILES O=c1cc(-c2ccc(O)c(O)c2)oc2cc(O)cc(O)c12
REMARK SMILES IDX 4 1 3 2 2 3 1 4 21 5 19 6 18 7 16 8 15 9 14 10 13 11 5 12
REMARK SMILES IDX 6 13 7 14 8 15 12 16 10 17 9 18 11 20 20 22 17 24
REMARK H PARENT 9 19 11 21 20 23 17 25
REMARK Flexibility Score: inf
ROOT
ATOM      1  C   UNL     1      25.896  -0.340  -6.501  1.00  0.00     0.138 A 
ATOM      2  C   UNL     1      25.559  -1.066  -7.650  1.00  0.00     0.100 A 
ATOM      3  C   UNL     1      25.437  -2.455  -7.579  1.00  0.00     0.197 A 
ATOM      4  O   UNL     1      25.188  -3.083  -8.641  1.00  0.00    -0.289 OA
ATOM      5  C   UNL     1      25.618  -3.114  -6.340  1.00  0.00     0.107 A 
ATOM      6  C   UNL     1      25.485  -4.522  -6.140  1.00  0.00     0.134 A 
ATOM      7  C   UNL     1      25.786  -5.072  -4.887  1.00  0.00     0.093 A 
ATOM      8  C   UNL     1      26.157  -4.260  -3.813  1.00  0.00     0.123 A 
ATOM      9  C   UNL     1      26.241  -2.880  -3.986  1.00  0.00     0.094 A 
ATOM     10  C   UNL     1      25.983  -2.304  -5.231  1.00  0.00     0.146 A 
ATOM     11  O   UNL     1      26.092  -0.986  -5.357  1.00  0.00    -0.456 OA
ENDROOT
BRANCH   1  12
ATOM     12  C   UNL     1      26.037   1.138  -6.518  1.00  0.00     0.021 A 
ATOM     13  C   UNL     1      25.412   1.904  -5.519  1.00  0.00     0.016 A 
ATOM     14  C   UNL     1      25.533   3.295  -5.507  1.00  0.00     0.051 A 
ATOM     15  C   UNL     1      26.290   3.945  -6.489  1.00  0.00     0.157 A 
ATOM     16  C   UNL     1      26.808   1.798  -7.495  1.00  0.00     0.062 A 
ATOM     17  C   UNL     1      26.931   3.196  -7.482  1.00  0.00     0.158 A 
BRANCH  15  18
ATOM     18  O   UNL     1      26.414   5.334  -6.483  1.00  0.00    -0.504 OA
ATOM     19  H   UNL     1      26.266   5.874  -5.638  1.00  0.00     0.293 HD
ENDBRANCH  15  18
BRANCH  17  20
ATOM     20  O   UNL     1      27.694   3.845  -8.452  1.00  0.00    -0.504 OA
ATOM     21  H   UNL     1      28.007   4.801  -8.330  1.00  0.00     0.293 HD
ENDBRANCH  17  20
ENDBRANCH   1  12
BRANCH   6  22
ATOM     22  O   UNL     1      25.043  -5.415  -7.121  1.00  0.00    -0.507 OA
ATOM     23  H   UNL     1      25.640  -5.974  -7.709  1.00  0.00     0.293 HD
ENDBRANCH   6  22
BRANCH   8  24
ATOM     24  O   UNL     1      26.439  -4.815  -2.567  1.00  0.00    -0.508 OA
ATOM     25  H   UNL     1      26.585  -5.811  -2.452  1.00  0.00     0.293 HD
ENDBRANCH   8  24
TORSDOF 5
ENDMDL
