MODEL 1
REMARK VINA RESULT:    -3.498      0.000      0.000
REMARK INTER + INTRA:          -1.219
REMARK INTER:                  -4.418
REMARK INTRA:                   3.199
REMARK UNBOUND:                 3.199
REMARK SMILES C=C1CC[C@H]2[C@H]([C@@H]3[C@@H]1CC[C@]3(C)O)C2(C)C
REMARK SMILES IDX 2 1 1 2 8 3 7 4 11 5 9 6 10 7 12 8 6 9 15 10 14 11 5 12
REMARK SMILES IDX 16 13 13 15 3 17 4 18
REMARK H PARENT 13 16
REMARK Flexibility Score: 90.00
ROOT
ATOM      1  C   UNL     1      42.074 -40.859  -4.655  1.00  0.00    -0.074 C 
ATOM      2  C   UNL     1      43.342 -41.112  -5.018  1.00  0.00     0.008 C 
ENDROOT
BRANCH   1   3
ATOM      3  C   UNL     1      41.799 -40.325  -3.238  1.00  0.00     0.021 C 
ATOM      4  C   UNL     1      41.355 -38.855  -3.180  1.00  0.00     0.032 C 
ATOM      5  C   UNL     1      41.426 -38.494  -1.695  1.00  0.00     0.066 C 
ATOM      6  C   UNL     1      42.992 -40.343  -2.282  1.00  0.00     0.011 C 
ATOM      7  C   UNL     1      42.687 -39.266  -1.219  1.00  0.00     0.036 C 
ATOM      8  C   UNL     1      41.554 -36.973  -1.485  1.00  0.00     0.042 C 
BRANCH   4   9
ATOM      9  C   UNL     1      40.143 -38.388  -4.049  1.00  0.00     0.005 C 
ATOM     10  C   UNL     1      37.961 -38.370  -2.605  1.00  0.00     0.011 C 
ATOM     11  C   UNL     1      38.614 -38.369  -3.992  1.00  0.00    -0.029 C 
ATOM     12  C   UNL     1      39.302 -39.650  -4.423  1.00  0.00    -0.001 CG0
ATOM     13  C   UNL     1      37.888 -37.583  -5.091  1.00  0.00     0.011 C 
ATOM     14  G   UNL     1      39.823 -40.134  -5.785  1.00  0.00     0.000 G0
ENDBRANCH   4   9
BRANCH   5  15
ATOM     15  O   UNL     1      40.290 -38.983  -1.027  1.00  0.00    -0.390 OA
ATOM     16  H   UNL     1      39.672 -38.220  -0.878  1.00  0.00     0.211 HD
ENDBRANCH   5  15
ENDBRANCH   1   3
BRANCH   1  17
ATOM     17  C   UNL     1      40.934 -41.251  -5.607  1.00  0.00     0.031 C 
BRANCH  17  18
ATOM     18  C   UNL     1      39.844 -40.151  -5.786  1.00  0.00     0.009 CG0
ATOM     19  G   UNL     1      39.315 -39.667  -4.427  1.00  0.00     0.000 G0
ENDBRANCH  17  18
ENDBRANCH   1  17
TORSDOF 1
ENDMDL
MODEL 2
REMARK VINA RESULT:    -3.417      1.755      3.353
REMARK INTER + INTRA:          -1.116
REMARK INTER:                  -4.317
REMARK INTRA:                   3.200
REMARK UNBOUND:                 3.199
REMARK SMILES C=C1CC[C@H]2[C@H]([C@@H]3[C@@H]1CC[C@]3(C)O)C2(C)C
REMARK SMILES IDX 2 1 1 2 8 3 7 4 11 5 9 6 10 7 12 8 6 9 15 10 14 11 5 12
REMARK SMILES IDX 16 13 13 15 3 17 4 18
REMARK H PARENT 13 16
REMARK Flexibility Score: 90.00
ROOT
ATOM      1  C   UNL     1      38.358 -39.650  -5.507  1.00  0.00    -0.074 C 
ATOM      2  C   UNL     1      38.366 -39.635  -6.849  1.00  0.00     0.008 C 
ENDROOT
BRANCH   1   3
ATOM      3  C   UNL     1      39.592 -40.191  -4.763  1.00  0.00     0.021 C 
ATOM      4  C   UNL     1      40.422 -39.123  -4.034  1.00  0.00     0.032 C 
ATOM      5  C   UNL     1      41.708 -39.848  -3.633  1.00  0.00     0.066 C 
ATOM      6  C   UNL     1      40.642 -40.879  -5.636  1.00  0.00     0.011 C 
ATOM      7  C   UNL     1      41.966 -40.778  -4.849  1.00  0.00     0.036 C 
ATOM      8  C   UNL     1      42.867 -38.860  -3.392  1.00  0.00     0.042 C 
BRANCH   4   9
ATOM      9  C   UNL     1      39.714 -38.158  -3.029  1.00  0.00     0.005 C 
ATOM     10  C   UNL     1      39.985 -39.054  -0.586  1.00  0.00     0.011 C 
ATOM     11  C   UNL     1      39.250 -38.139  -1.571  1.00  0.00    -0.029 C 
ATOM     12  C   UNL     1      38.363 -38.815  -2.599  1.00  0.00    -0.001 CG0
ATOM     13  C   UNL     1      38.750 -36.797  -1.019  1.00  0.00     0.011 C 
ATOM     14  G   UNL     1      37.290 -38.272  -3.554  1.00  0.00     0.000 G0
ENDBRANCH   4   9
BRANCH   5  15
ATOM     15  O   UNL     1      41.484 -40.622  -2.482  1.00  0.00    -0.390 OA
ATOM     16  H   UNL     1      40.896 -40.102  -1.874  1.00  0.00     0.211 HD
ENDBRANCH   5  15
ENDBRANCH   1   3
BRANCH   1  17
ATOM     17  C   UNL     1      37.068 -39.272  -4.764  1.00  0.00     0.031 C 
BRANCH  17  18
ATOM     18  C   UNL     1      37.281 -38.294  -3.570  1.00  0.00     0.009 CG0
ATOM     19  G   UNL     1      38.371 -38.809  -2.618  1.00  0.00     0.000 G0
ENDBRANCH  17  18
ENDBRANCH   1  17
TORSDOF 1
ENDMDL
MODEL 3
REMARK VINA RESULT:    -3.406      1.942      3.854
REMARK INTER + INTRA:          -1.103
REMARK INTER:                  -4.325
REMARK INTRA:                   3.222
REMARK UNBOUND:                 3.199
REMARK SMILES C=C1CC[C@H]2[C@H]([C@@H]3[C@@H]1CC[C@]3(C)O)C2(C)C
REMARK SMILES IDX 2 1 1 2 8 3 7 4 11 5 9 6 10 7 12 8 6 9 15 10 14 11 5 12
REMARK SMILES IDX 16 13 13 15 3 17 4 18
REMARK H PARENT 13 16
REMARK Flexibility Score: 90.00
ROOT
ATOM      1  C   UNL     1      41.743 -40.624  -4.757  1.00  0.00    -0.074 C 
ATOM      2  C   UNL     1      42.004 -41.631  -5.606  1.00  0.00     0.008 C 
ENDROOT
BRANCH   1   3
ATOM      3  C   UNL     1      40.431 -39.837  -4.917  1.00  0.00     0.021 C 
ATOM      4  C   UNL     1      39.394 -40.083  -3.810  1.00  0.00     0.032 C 
ATOM      5  C   UNL     1      38.112 -39.435  -4.336  1.00  0.00     0.066 C 
ATOM      6  C   UNL     1      39.630 -40.138  -6.185  1.00  0.00     0.011 C 
ATOM      7  C   UNL     1      38.173 -39.752  -5.856  1.00  0.00     0.036 C 
ATOM      8  C   UNL     1      36.858 -40.024  -3.662  1.00  0.00     0.042 C 
BRANCH   4   9
ATOM      9  C   UNL     1      39.814 -39.901  -2.316  1.00  0.00     0.005 C 
ATOM     10  C   UNL     1      39.145 -37.513  -1.482  1.00  0.00     0.011 C 
ATOM     11  C   UNL     1      39.982 -38.781  -1.286  1.00  0.00    -0.029 C 
ATOM     12  C   UNL     1      41.103 -39.020  -2.280  1.00  0.00    -0.001 CG0
ATOM     13  C   UNL     1      40.256 -39.206   0.163  1.00  0.00     0.011 C 
ATOM     14  G   UNL     1      42.295 -39.988  -2.280  1.00  0.00     0.000 G0
ENDBRANCH   4   9
BRANCH   5  15
ATOM     15  O   UNL     1      38.161 -38.044  -4.139  1.00  0.00    -0.390 OA
ATOM     16  H   UNL     1      37.458 -37.805  -3.480  1.00  0.00     0.211 HD
ENDBRANCH   5  15
ENDBRANCH   1   3
BRANCH   1  17
ATOM     17  C   UNL     1      42.826 -40.194  -3.755  1.00  0.00     0.031 C 
BRANCH  17  18
ATOM     18  C   UNL     1      42.306 -39.987  -2.301  1.00  0.00     0.009 CG0
ATOM     19  G   UNL     1      41.117 -39.014  -2.270  1.00  0.00     0.000 G0
ENDBRANCH  17  18
ENDBRANCH   1  17
TORSDOF 1
ENDMDL
MODEL 4
REMARK VINA RESULT:    -3.402      2.131      3.915
REMARK INTER + INTRA:          -1.098
REMARK INTER:                  -4.369
REMARK INTRA:                   3.271
REMARK UNBOUND:                 3.199
REMARK SMILES C=C1CC[C@H]2[C@H]([C@@H]3[C@@H]1CC[C@]3(C)O)C2(C)C
REMARK SMILES IDX 2 1 1 2 8 3 7 4 11 5 9 6 10 7 12 8 6 9 15 10 14 11 5 12
REMARK SMILES IDX 16 13 13 15 3 17 4 18
REMARK H PARENT 13 16
REMARK Flexibility Score: 90.00
ROOT
ATOM      1  C   UNL     1      42.393 -40.281  -0.706  1.00  0.00    -0.074 C 
ATOM      2  C   UNL     1      43.274 -41.243  -0.385  1.00  0.00     0.008 C 
ENDROOT
BRANCH   1   3
ATOM      3  C   UNL     1      42.209 -39.905  -2.186  1.00  0.00     0.021 C 
ATOM      4  C   UNL     1      40.862 -40.327  -2.793  1.00  0.00     0.032 C 
ATOM      5  C   UNL     1      41.036 -40.108  -4.297  1.00  0.00     0.066 C 
ATOM      6  C   UNL     1      43.213 -40.530  -3.157  1.00  0.00     0.011 C 
ATOM      7  C   UNL     1      42.512 -40.533  -4.532  1.00  0.00     0.036 C 
ATOM      8  C   UNL     1      40.043 -40.957  -5.115  1.00  0.00     0.042 C 
BRANCH   4   9
ATOM      9  C   UNL     1      39.537 -39.901  -2.083  1.00  0.00     0.005 C 
ATOM     10  C   UNL     1      38.580 -37.734  -3.196  1.00  0.00     0.011 C 
ATOM     11  C   UNL     1      38.602 -38.691  -1.999  1.00  0.00    -0.029 C 
ATOM     12  C   UNL     1      39.857 -38.691  -1.147  1.00  0.00    -0.001 CG0
ATOM     13  C   UNL     1      37.275 -38.890  -1.255  1.00  0.00     0.011 C 
ATOM     14  G   UNL     1      40.166 -39.280   0.238  1.00  0.00     0.000 G0
ENDBRANCH   4   9
BRANCH   5  15
ATOM     15  O   UNL     1      40.880 -38.746  -4.606  1.00  0.00    -0.390 OA
ATOM     16  H   UNL     1      41.741 -38.415  -4.972  1.00  0.00     0.211 HD
ENDBRANCH   5  15
ENDBRANCH   1   3
BRANCH   1  17
ATOM     17  C   UNL     1      41.714 -39.488   0.421  1.00  0.00     0.031 C 
BRANCH  17  18
ATOM     18  C   UNL     1      40.179 -39.300   0.235  1.00  0.00     0.009 CG0
ATOM     19  G   UNL     1      39.857 -38.677  -1.132  1.00  0.00     0.000 G0
ENDBRANCH  17  18
ENDBRANCH   1  17
TORSDOF 1
ENDMDL
MODEL 5
REMARK VINA RESULT:    -3.336      1.848      3.365
REMARK INTER + INTRA:          -1.014
REMARK INTER:                  -4.247
REMARK INTRA:                   3.233
REMARK UNBOUND:                 3.199
REMARK SMILES C=C1CC[C@H]2[C@H]([C@@H]3[C@@H]1CC[C@]3(C)O)C2(C)C
REMARK SMILES IDX 2 1 1 2 8 3 7 4 11 5 9 6 10 7 12 8 6 9 15 10 14 11 5 12
REMARK SMILES IDX 16 13 13 15 3 17 4 18
REMARK H PARENT 13 16
REMARK Flexibility Score: 90.00
ROOT
ATOM      1  C   UNL     1      39.471 -40.384  -0.920  1.00  0.00    -0.074 C 
ATOM      2  C   UNL     1      39.574 -41.365  -0.009  1.00  0.00     0.008 C 
ENDROOT
BRANCH   1   3
ATOM      3  C   UNL     1      40.732 -39.943  -1.684  1.00  0.00     0.021 C 
ATOM      4  C   UNL     1      40.753 -40.336  -3.170  1.00  0.00     0.032 C 
ATOM      5  C   UNL     1      42.187 -40.051  -3.619  1.00  0.00     0.066 C 
ATOM      6  C   UNL     1      42.051 -40.526  -1.175  1.00  0.00     0.011 C 
ATOM      7  C   UNL     1      43.019 -40.468  -2.375  1.00  0.00     0.036 C 
ATOM      8  C   UNL     1      42.562 -40.862  -4.875  1.00  0.00     0.042 C 
BRANCH   4   9
ATOM      9  C   UNL     1      39.548 -39.939  -4.082  1.00  0.00     0.005 C 
ATOM     10  C   UNL     1      40.072 -37.704  -5.337  1.00  0.00     0.011 C 
ATOM     11  C   UNL     1      39.034 -38.728  -4.865  1.00  0.00    -0.029 C 
ATOM     12  C   UNL     1      38.763 -38.788  -3.374  1.00  0.00    -0.001 CG0
ATOM     13  C   UNL     1      37.828 -38.957  -5.785  1.00  0.00     0.011 C 
ATOM     14  G   UNL     1      37.652 -39.458  -2.552  1.00  0.00     0.000 G0
ENDBRANCH   4   9
BRANCH   5  15
ATOM     15  O   UNL     1      42.351 -38.677  -3.861  1.00  0.00    -0.390 OA
ATOM     16  H   UNL     1      42.402 -38.216  -2.983  1.00  0.00     0.211 HD
ENDBRANCH   5  15
ENDBRANCH   1   3
BRANCH   1  17
ATOM     17  C   UNL     1      38.137 -39.635  -1.060  1.00  0.00     0.031 C 
BRANCH  17  18
ATOM     18  C   UNL     1      37.665 -39.440  -2.532  1.00  0.00     0.009 CG0
ATOM     19  G   UNL     1      38.755 -38.770  -3.381  1.00  0.00     0.000 G0
ENDBRANCH  17  18
ENDBRANCH   1  17
TORSDOF 1
ENDMDL
MODEL 6
REMARK VINA RESULT:    -3.245      1.880      4.324
REMARK INTER + INTRA:          -0.900
REMARK INTER:                  -4.126
REMARK INTRA:                   3.226
REMARK UNBOUND:                 3.199
REMARK SMILES C=C1CC[C@H]2[C@H]([C@@H]3[C@@H]1CC[C@]3(C)O)C2(C)C
REMARK SMILES IDX 2 1 1 2 8 3 7 4 11 5 9 6 10 7 12 8 6 9 15 10 14 11 5 12
REMARK SMILES IDX 16 13 13 15 3 17 4 18
REMARK H PARENT 13 16
REMARK Flexibility Score: 90.00
ROOT
ATOM      1  C   UNL     1      39.121 -37.675  -5.590  1.00  0.00    -0.074 C 
ATOM      2  C   UNL     1      38.623 -37.673  -6.837  1.00  0.00     0.008 C 
ENDROOT
BRANCH   1   3
ATOM      3  C   UNL     1      39.673 -38.990  -5.012  1.00  0.00     0.021 C 
ATOM      4  C   UNL     1      41.201 -39.030  -4.851  1.00  0.00     0.032 C 
ATOM      5  C   UNL     1      41.514 -40.496  -4.546  1.00  0.00     0.066 C 
ATOM      6  C   UNL     1      39.402 -40.244  -5.845  1.00  0.00     0.011 C 
ATOM      7  C   UNL     1      40.499 -41.252  -5.444  1.00  0.00     0.036 C 
ATOM      8  C   UNL     1      42.976 -40.848  -4.885  1.00  0.00     0.042 C 
BRANCH   4   9
ATOM      9  C   UNL     1      41.915 -37.889  -4.057  1.00  0.00     0.005 C 
ATOM     10  C   UNL     1      42.322 -38.637  -1.583  1.00  0.00     0.011 C 
ATOM     11  C   UNL     1      42.230 -37.503  -2.610  1.00  0.00    -0.029 C 
ATOM     12  C   UNL     1      40.850 -37.186  -3.156  1.00  0.00    -0.001 CG0
ATOM     13  C   UNL     1      43.168 -36.308  -2.398  1.00  0.00     0.011 C 
ATOM     14  G   UNL     1      40.307 -35.999  -3.965  1.00  0.00     0.000 G0
ENDBRANCH   4   9
BRANCH   5  15
ATOM     15  O   UNL     1      41.250 -40.772  -3.193  1.00  0.00    -0.390 OA
ATOM     16  H   UNL     1      40.687 -41.589  -3.153  1.00  0.00     0.211 HD
ENDBRANCH   5  15
ENDBRANCH   1   3
BRANCH   1  17
ATOM     17  C   UNL     1      38.985 -36.409  -4.731  1.00  0.00     0.031 C 
BRANCH  17  18
ATOM     18  C   UNL     1      40.284 -36.011  -3.968  1.00  0.00     0.009 CG0
ATOM     19  G   UNL     1      40.837 -37.193  -3.157  1.00  0.00     0.000 G0
ENDBRANCH  17  18
ENDBRANCH   1  17
TORSDOF 1
ENDMDL
MODEL 7
REMARK VINA RESULT:    -3.203      1.994      3.743
REMARK INTER + INTRA:          -0.846
REMARK INTER:                  -4.050
REMARK INTRA:                   3.204
REMARK UNBOUND:                 3.199
REMARK SMILES C=C1CC[C@H]2[C@H]([C@@H]3[C@@H]1CC[C@]3(C)O)C2(C)C
REMARK SMILES IDX 2 1 1 2 8 3 7 4 11 5 9 6 10 7 12 8 6 9 15 10 14 11 5 12
REMARK SMILES IDX 16 13 13 15 3 17 4 18
REMARK H PARENT 13 16
REMARK Flexibility Score: 90.00
ROOT
ATOM      1  C   UNL     1      42.195 -39.224  -3.092  1.00  0.00    -0.074 C 
ATOM      2  C   UNL     1      42.997 -40.185  -2.606  1.00  0.00     0.008 C 
ENDROOT
BRANCH   1   3
ATOM      3  C   UNL     1      41.277 -39.553  -4.283  1.00  0.00     0.021 C 
ATOM      4  C   UNL     1      39.782 -39.630  -3.938  1.00  0.00     0.032 C 
ATOM      5  C   UNL     1      39.134 -40.237  -5.184  1.00  0.00     0.066 C 
ATOM      6  C   UNL     1      41.526 -40.903  -4.957  1.00  0.00     0.011 C 
ATOM      7  C   UNL     1      40.196 -41.272  -5.646  1.00  0.00     0.036 C 
ATOM      8  C   UNL     1      37.777 -40.891  -4.859  1.00  0.00     0.042 C 
BRANCH   4   9
ATOM      9  C   UNL     1      39.104 -38.429  -3.202  1.00  0.00     0.005 C 
ATOM     10  C   UNL     1      37.925 -36.865  -4.938  1.00  0.00     0.011 C 
ATOM     11  C   UNL     1      38.493 -37.064  -3.529  1.00  0.00    -0.029 C 
ATOM     12  C   UNL     1      40.001 -37.167  -3.408  1.00  0.00    -0.001 CG0
ATOM     13  C   UNL     1      37.768 -36.338  -2.388  1.00  0.00     0.011 C 
ATOM     14  G   UNL     1      40.948 -37.102  -2.201  1.00  0.00     0.000 G0
ENDBRANCH   4   9
BRANCH   5  15
ATOM     15  O   UNL     1      38.973 -39.250  -6.171  1.00  0.00    -0.390 OA
ATOM     16  H   UNL     1      38.933 -38.368  -5.717  1.00  0.00     0.211 HD
ENDBRANCH   5  15
ENDBRANCH   1   3
BRANCH   1  17
ATOM     17  C   UNL     1      42.331 -37.794  -2.547  1.00  0.00     0.031 C 
BRANCH  17  18
ATOM     18  C   UNL     1      40.974 -37.104  -2.218  1.00  0.00     0.009 CG0
ATOM     19  G   UNL     1      40.006 -37.186  -3.408  1.00  0.00     0.000 G0
ENDBRANCH  17  18
ENDBRANCH   1  17
TORSDOF 1
ENDMDL
MODEL 8
REMARK VINA RESULT:    -3.116      2.173      3.963
REMARK INTER + INTRA:          -0.736
REMARK INTER:                  -3.963
REMARK INTRA:                   3.227
REMARK UNBOUND:                 3.199
REMARK SMILES C=C1CC[C@H]2[C@H]([C@@H]3[C@@H]1CC[C@]3(C)O)C2(C)C
REMARK SMILES IDX 2 1 1 2 8 3 7 4 11 5 9 6 10 7 12 8 6 9 15 10 14 11 5 12
REMARK SMILES IDX 16 13 13 15 3 17 4 18
REMARK H PARENT 13 16
REMARK Flexibility Score: 90.00
ROOT
ATOM      1  C   UNL     1      38.386 -38.552  -6.773  1.00  0.00    -0.074 C 
ATOM      2  C   UNL     1      38.142 -39.430  -7.759  1.00  0.00     0.008 C 
ENDROOT
BRANCH   1   3
ATOM      3  C   UNL     1      38.541 -39.075  -5.334  1.00  0.00     0.021 C 
ATOM      4  C   UNL     1      39.971 -39.002  -4.775  1.00  0.00     0.032 C 
ATOM      5  C   UNL     1      39.918 -39.821  -3.485  1.00  0.00     0.066 C 
ATOM      6  C   UNL     1      38.185 -40.547  -5.123  1.00  0.00     0.011 C 
ATOM      7  C   UNL     1      38.959 -40.983  -3.862  1.00  0.00     0.036 C 
ATOM      8  C   UNL     1      41.316 -40.323  -3.071  1.00  0.00     0.042 C 
BRANCH   4   9
ATOM      9  C   UNL     1      40.738 -37.640  -4.814  1.00  0.00     0.005 C 
ATOM     10  C   UNL     1      40.502 -36.414  -2.515  1.00  0.00     0.011 C 
ATOM     11  C   UNL     1      40.841 -36.343  -4.008  1.00  0.00    -0.029 C 
ATOM     12  C   UNL     1      39.686 -36.497  -4.978  1.00  0.00    -0.001 CG0
ATOM     13  C   UNL     1      41.945 -35.359  -4.415  1.00  0.00     0.011 C 
ATOM     14  G   UNL     1      39.561 -36.232  -6.486  1.00  0.00     0.000 G0
ENDBRANCH   4   9
BRANCH   5  15
ATOM     15  O   UNL     1      39.352 -39.055  -2.451  1.00  0.00    -0.390 OA
ATOM     16  H   UNL     1      39.036 -39.679  -1.747  1.00  0.00     0.211 HD
ENDBRANCH   5  15
ENDBRANCH   1   3
BRANCH   1  17
ATOM     17  C   UNL     1      38.351 -37.049  -7.088  1.00  0.00     0.031 C 
BRANCH  17  18
ATOM     18  C   UNL     1      39.546 -36.244  -6.495  1.00  0.00     0.009 CG0
ATOM     19  G   UNL     1      39.684 -36.487  -4.985  1.00  0.00     0.000 G0
ENDBRANCH  17  18
ENDBRANCH   1  17
TORSDOF 1
ENDMDL
MODEL 9
REMARK VINA RESULT:    -3.034      2.263      3.663
REMARK INTER + INTRA:          -0.634
REMARK INTER:                  -3.852
REMARK INTRA:                   3.218
REMARK UNBOUND:                 3.199
REMARK SMILES C=C1CC[C@H]2[C@H]([C@@H]3[C@@H]1CC[C@]3(C)O)C2(C)C
REMARK SMILES IDX 2 1 1 2 8 3 7 4 11 5 9 6 10 7 12 8 6 9 15 10 14 11 5 12
REMARK SMILES IDX 16 13 13 15 3 17 4 18
REMARK H PARENT 13 16
REMARK Flexibility Score: 90.00
ROOT
ATOM      1  C   UNL     1      41.977 -36.981  -3.923  1.00  0.00    -0.074 C 
ATOM      2  C   UNL     1      42.963 -36.898  -3.014  1.00  0.00     0.008 C 
ENDROOT
BRANCH   1   3
ATOM      3  C   UNL     1      41.632 -38.356  -4.521  1.00  0.00     0.021 C 
ATOM      4  C   UNL     1      40.283 -38.934  -4.064  1.00  0.00     0.032 C 
ATOM      5  C   UNL     1      40.306 -40.384  -4.551  1.00  0.00     0.066 C 
ATOM      6  C   UNL     1      42.602 -39.488  -4.181  1.00  0.00     0.011 C 
ATOM      7  C   UNL     1      41.789 -40.790  -4.334  1.00  0.00     0.036 C 
ATOM      8  C   UNL     1      39.331 -41.269  -3.749  1.00  0.00     0.042 C 
BRANCH   4   9
ATOM      9  C   UNL     1      38.990 -38.071  -4.218  1.00  0.00     0.005 C 
ATOM     10  C   UNL     1      37.743 -38.711  -6.428  1.00  0.00     0.011 C 
ATOM     11  C   UNL     1      37.957 -37.709  -5.288  1.00  0.00    -0.029 C 
ATOM     12  C   UNL     1      39.274 -36.958  -5.277  1.00  0.00    -0.001 CG0
ATOM     13  C   UNL     1      36.723 -36.924  -4.824  1.00  0.00     0.011 C 
ATOM     14  G   UNL     1      39.754 -35.725  -4.498  1.00  0.00     0.000 G0
ENDBRANCH   4   9
BRANCH   5  15
ATOM     15  O   UNL     1      39.994 -40.436  -5.920  1.00  0.00    -0.390 OA
ATOM     16  H   UNL     1      39.834 -41.386  -6.161  1.00  0.00     0.211 HD
ENDBRANCH   5  15
ENDBRANCH   1   3
BRANCH   1  17
ATOM     17  C   UNL     1      41.334 -35.687  -4.444  1.00  0.00     0.031 C 
BRANCH  17  18
ATOM     18  C   UNL     1      39.777 -35.722  -4.492  1.00  0.00     0.009 CG0
ATOM     19  G   UNL     1      39.272 -36.947  -5.270  1.00  0.00     0.000 G0
ENDBRANCH  17  18
ENDBRANCH   1  17
TORSDOF 1
ENDMDL
