MODEL 1
REMARK VINA RESULT:    13.748      0.000      0.000
REMARK INTER + INTRA:          19.169
REMARK INTER:                  18.973
REMARK INTRA:                   0.196
REMARK UNBOUND:                 0.196
REMARK SMILES C=C(CC[C@H](C(=O)[O-])[C@H]1CC[C@@]2(C)C3=C(CC[C@@]12C)[C@@]1(C)CC[C@@H](O)C(C)(C)[C@@H]1CC3)C(C)C
REMARK SMILES IDX 4 1 5 2 6 3 7 4 8 5 9 6 10 7 18 8 11 9 12 10 17 11 19 12
REMARK SMILES IDX 13 13 14 14 16 15 15 16 31 17 20 18 30 19 29 20 22 21 21 22
REMARK SMILES IDX 26 23 23 24 24 25 27 26 28 27 25 28 3 30 2 31 1 32 32 33
REMARK SMILES IDX 33 34 34 35
REMARK H PARENT 25 29
REMARK Flexibility Score: inf
ROOT
ATOM      1  C   UNL     1      12.907  14.502  28.124  1.00  0.00     0.014 C 
ENDROOT
BRANCH   1   2
ATOM      2  C   UNL     1      14.204  14.521  27.274  1.00  0.00     0.039 C 
BRANCH   2   3
ATOM      3  C   UNL     1      15.053  13.288  27.515  1.00  0.00     0.045 C 
ATOM      4  O   UNL     1      16.303  13.396  27.619  1.00  0.00    -0.550 OA
ATOM      5  O   UNL     1      14.475  12.028  27.631  1.00  0.00    -0.550 OA
ENDBRANCH   2   3
BRANCH   2   6
ATOM      6  C   UNL     1      14.983  15.889  27.402  1.00  0.00     0.004 C 
ATOM      7  C   UNL     1      16.481  15.867  27.097  1.00  0.00     0.006 C 
ATOM      8  C   UNL     1      14.432  17.118  26.614  1.00  0.00    -0.020 C 
ATOM      9  C   UNL     1      16.894  17.333  26.938  1.00  0.00     0.012 C 
ATOM     10  C   UNL     1      15.597  18.188  26.793  1.00  0.00    -0.006 C 
ATOM     11  C   UNL     1      14.152  16.795  25.098  1.00  0.00     0.012 C 
ATOM     12  C   UNL     1      13.078  17.568  27.232  1.00  0.00     0.012 C 
ATOM     13  C   UNL     1      15.418  18.996  28.120  1.00  0.00     0.017 C 
ATOM     14  C   UNL     1      15.749  19.148  25.575  1.00  0.00    -0.064 C 
ATOM     15  C   UNL     1      15.276  17.198  24.157  1.00  0.00     0.032 C 
ATOM     16  C   UNL     1      15.549  18.681  24.303  1.00  0.00    -0.064 C 
ATOM     17  C   UNL     1      16.181  20.590  25.838  1.00  0.00     0.032 C 
ATOM     18  C   UNL     1      15.786  19.557  23.044  1.00  0.00    -0.008 C 
ATOM     19  C   UNL     1      16.500  21.439  24.607  1.00  0.00     0.009 C 
ATOM     20  C   UNL     1      15.575  21.064  23.439  1.00  0.00     0.007 C 
ATOM     21  C   UNL     1      14.764  19.207  21.917  1.00  0.00     0.014 C 
ATOM     22  C   UNL     1      17.218  19.203  22.555  1.00  0.00     0.016 C 
ATOM     23  C   UNL     1      15.534  22.120  22.263  1.00  0.00    -0.006 C 
ATOM     24  C   UNL     1      14.780  20.189  20.735  1.00  0.00     0.033 C 
ATOM     25  C   UNL     1      14.523  21.638  21.175  1.00  0.00     0.120 C 
ATOM     26  C   UNL     1      16.922  22.390  21.617  1.00  0.00     0.014 C 
ATOM     27  C   UNL     1      15.025  23.488  22.801  1.00  0.00     0.014 C 
BRANCH  25  28
ATOM     28  O   UNL     1      13.201  21.730  21.658  1.00  0.00    -0.393 OA
ATOM     29  H   UNL     1      13.100  21.049  22.373  1.00  0.00     0.210 HD
ENDBRANCH  25  28
ENDBRANCH   2   6
ENDBRANCH   1   2
BRANCH   1  30
ATOM     30  C   UNL     1      11.608  14.816  27.342  1.00  0.00     0.031 C 
BRANCH  30  31
ATOM     31  C   UNL     1      11.248  13.703  26.378  1.00  0.00    -0.075 C 
ATOM     32  C   UNL     1      11.235  12.426  26.812  1.00  0.00     0.008 C 
BRANCH  31  33
ATOM     33  C   UNL     1      10.880  14.052  24.942  1.00  0.00     0.008 C 
ATOM     34  C   UNL     1      11.524  13.084  23.936  1.00  0.00     0.012 C 
ATOM     35  C   UNL     1      11.241  15.506  24.617  1.00  0.00     0.012 C 
ENDBRANCH  31  33
ENDBRANCH  30  31
ENDBRANCH   1  30
TORSDOF 7
ENDMDL
