MODEL 1
REMARK VINA RESULT:    -3.664      0.000      0.000
REMARK INTER + INTRA:          -9.509
REMARK INTER:                  -6.664
REMARK INTRA:                  -2.845
REMARK UNBOUND:                -2.845
REMARK SMILES CCCCCC=CCC=CCCCCCCCC(=O)[O-]
REMARK SMILES IDX 11 1 12 2 13 3 14 4 15 5 16 6 17 7 18 8 19 9 20 10 10 11
REMARK SMILES IDX 9 12 8 13 7 14 6 15 5 16 4 17 3 18 2 19 1 20
REMARK H PARENT
REMARK Flexibility Score: inf
ROOT
ATOM      1  C   UNL     1       3.388   8.387 -14.420  1.00  0.00     0.027 C 
ENDROOT
BRANCH   1   2
ATOM      2  C   UNL     1       1.987   8.760 -14.932  1.00  0.00     0.004 C 
BRANCH   2   3
ATOM      3  C   UNL     1       0.873   8.259 -13.998  1.00  0.00     0.000 C 
BRANCH   3   4
ATOM      4  C   UNL     1       0.175   7.000 -14.552  1.00  0.00     0.000 C 
BRANCH   4   5
ATOM      5  C   UNL     1       0.169   6.960 -16.090  1.00  0.00     0.000 C 
BRANCH   5   6
ATOM      6  C   UNL     1       0.097   5.530 -16.643  1.00  0.00     0.006 C 
BRANCH   6   7
ATOM      7  C   UNL     1       0.663   4.522 -15.636  1.00  0.00     0.053 C 
BRANCH   7   8
ATOM      8  C   UNL     1       1.654   3.620 -16.299  1.00  0.00     0.041 C 
ATOM      9  O   UNL     1       1.655   2.385 -16.046  1.00  0.00    -0.550 OA
ATOM     10  O   UNL     1       2.546   4.134 -17.236  1.00  0.00    -0.550 OA
ENDBRANCH   7   8
ENDBRANCH   6   7
ENDBRANCH   5   6
ENDBRANCH   4   5
ENDBRANCH   3   4
ENDBRANCH   2   3
ENDBRANCH   1   2
BRANCH   1  11
ATOM     11  C   UNL     1       3.870   7.102 -15.044  1.00  0.00    -0.031 C 
ATOM     12  C   UNL     1       3.871   5.910 -14.417  1.00  0.00    -0.027 C 
BRANCH  12  13
ATOM     13  C   UNL     1       3.362   5.688 -13.014  1.00  0.00     0.054 C 
BRANCH  13  14
ATOM     14  C   UNL     1       4.475   5.822 -12.002  1.00  0.00    -0.027 C 
ATOM     15  C   UNL     1       4.474   6.722 -10.999  1.00  0.00    -0.031 C 
BRANCH  15  16
ATOM     16  C   UNL     1       3.378   7.731 -10.752  1.00  0.00     0.027 C 
BRANCH  16  17
ATOM     17  C   UNL     1       3.932   9.164 -10.761  1.00  0.00     0.004 C 
BRANCH  17  18
ATOM     18  C   UNL     1       2.898  10.195 -11.242  1.00  0.00     0.000 C 
BRANCH  18  19
ATOM     19  C   UNL     1       3.536  11.539 -11.630  1.00  0.00    -0.003 C 
ATOM     20  C   UNL     1       3.291  11.858 -13.101  1.00  0.00     0.004 C 
ENDBRANCH  18  19
ENDBRANCH  17  18
ENDBRANCH  16  17
ENDBRANCH  15  16
ENDBRANCH  13  14
ENDBRANCH  12  13
ENDBRANCH   1  11
TORSDOF 14
ENDMDL
MODEL 2
REMARK VINA RESULT:    -3.623      3.127      6.738
REMARK INTER + INTRA:          -9.434
REMARK INTER:                  -7.223
REMARK INTRA:                  -2.212
REMARK UNBOUND:                -2.845
REMARK SMILES CCCCCC=CCC=CCCCCCCCC(=O)[O-]
REMARK SMILES IDX 11 1 12 2 13 3 14 4 15 5 16 6 17 7 18 8 19 9 20 10 10 11
REMARK SMILES IDX 9 12 8 13 7 14 6 15 5 16 4 17 3 18 2 19 1 20
REMARK H PARENT
REMARK Flexibility Score: inf
ROOT
ATOM      1  C   UNL     1       3.531   5.274 -13.378  1.00  0.00     0.027 C 
ENDROOT
BRANCH   1   2
ATOM      2  C   UNL     1       4.694   4.994 -12.412  1.00  0.00     0.004 C 
BRANCH   2   3
ATOM      3  C   UNL     1       4.461   5.617 -11.025  1.00  0.00     0.000 C 
BRANCH   3   4
ATOM      4  C   UNL     1       4.193   7.133 -11.109  1.00  0.00     0.000 C 
BRANCH   4   5
ATOM      5  C   UNL     1       2.916   7.546 -10.357  1.00  0.00     0.000 C 
BRANCH   5   6
ATOM      6  C   UNL     1       2.587   9.037 -10.525  1.00  0.00     0.006 C 
BRANCH   6   7
ATOM      7  C   UNL     1       3.735   9.914 -10.014  1.00  0.00     0.053 C 
BRANCH   7   8
ATOM      8  C   UNL     1       4.093  10.951 -11.030  1.00  0.00     0.041 C 
ATOM      9  O   UNL     1       3.440  11.037 -12.104  1.00  0.00    -0.550 OA
ATOM     10  O   UNL     1       5.117  11.856 -10.769  1.00  0.00    -0.550 OA
ENDBRANCH   7   8
ENDBRANCH   6   7
ENDBRANCH   5   6
ENDBRANCH   4   5
ENDBRANCH   3   4
ENDBRANCH   2   3
ENDBRANCH   1   2
BRANCH   1  11
ATOM     11  C   UNL     1       4.039   5.749 -14.716  1.00  0.00    -0.031 C 
ATOM     12  C   UNL     1       3.965   7.024 -15.143  1.00  0.00    -0.027 C 
BRANCH  12  13
ATOM     13  C   UNL     1       3.391   8.160 -14.333  1.00  0.00     0.054 C 
BRANCH  13  14
ATOM     14  C   UNL     1       2.685   9.160 -15.217  1.00  0.00    -0.027 C 
ATOM     15  C   UNL     1       1.363   9.129 -15.477  1.00  0.00    -0.031 C 
BRANCH  15  16
ATOM     16  C   UNL     1       0.406   8.092 -14.942  1.00  0.00     0.027 C 
BRANCH  16  17
ATOM     17  C   UNL     1      -0.023   7.112 -16.045  1.00  0.00     0.004 C 
BRANCH  17  18
ATOM     18  C   UNL     1       0.580   5.710 -15.858  1.00  0.00     0.000 C 
BRANCH  18  19
ATOM     19  C   UNL     1       0.663   4.920 -17.174  1.00  0.00    -0.003 C 
ATOM     20  C   UNL     1       1.851   3.962 -17.164  1.00  0.00     0.004 C 
ENDBRANCH  18  19
ENDBRANCH  17  18
ENDBRANCH  16  17
ENDBRANCH  15  16
ENDBRANCH  13  14
ENDBRANCH  12  13
ENDBRANCH   1  11
TORSDOF 14
ENDMDL
MODEL 3
REMARK VINA RESULT:    -3.594      2.127      5.294
REMARK INTER + INTRA:          -9.380
REMARK INTER:                  -6.859
REMARK INTRA:                  -2.521
REMARK UNBOUND:                -2.845
REMARK SMILES CCCCCC=CCC=CCCCCCCCC(=O)[O-]
REMARK SMILES IDX 11 1 12 2 13 3 14 4 15 5 16 6 17 7 18 8 19 9 20 10 10 11
REMARK SMILES IDX 9 12 8 13 7 14 6 15 5 16 4 17 3 18 2 19 1 20
REMARK H PARENT
REMARK Flexibility Score: inf
ROOT
ATOM      1  C   UNL     1       2.525   8.030 -12.949  1.00  0.00     0.027 C 
ENDROOT
BRANCH   1   2
ATOM      2  C   UNL     1       3.239   8.835 -11.851  1.00  0.00     0.004 C 
BRANCH   2   3
ATOM      3  C   UNL     1       3.691   7.948 -10.679  1.00  0.00     0.000 C 
BRANCH   3   4
ATOM      4  C   UNL     1       4.472   6.708 -11.159  1.00  0.00     0.000 C 
BRANCH   4   5
ATOM      5  C   UNL     1       3.873   5.395 -10.627  1.00  0.00     0.000 C 
BRANCH   5   6
ATOM      6  C   UNL     1       3.252   4.536 -11.738  1.00  0.00     0.006 C 
BRANCH   6   7
ATOM      7  C   UNL     1       4.314   3.662 -12.415  1.00  0.00     0.053 C 
BRANCH   7   8
ATOM      8  C   UNL     1       4.153   2.232 -12.009  1.00  0.00     0.041 C 
ATOM      9  O   UNL     1       3.603   1.943 -10.912  1.00  0.00    -0.550 OA
ATOM     10  O   UNL     1       4.565   1.216 -12.865  1.00  0.00    -0.550 OA
ENDBRANCH   7   8
ENDBRANCH   6   7
ENDBRANCH   5   6
ENDBRANCH   4   5
ENDBRANCH   3   4
ENDBRANCH   2   3
ENDBRANCH   1   2
BRANCH   1  11
ATOM     11  C   UNL     1       2.985   8.454 -14.320  1.00  0.00    -0.031 C 
ATOM     12  C   UNL     1       3.672   7.663 -15.166  1.00  0.00    -0.027 C 
BRANCH  12  13
ATOM     13  C   UNL     1       4.051   6.232 -14.872  1.00  0.00     0.054 C 
BRANCH  13  14
ATOM     14  C   UNL     1       4.096   5.408 -16.136  1.00  0.00    -0.027 C 
ATOM     15  C   UNL     1       3.076   4.640 -16.568  1.00  0.00    -0.031 C 
BRANCH  15  16
ATOM     16  C   UNL     1       1.759   4.478 -15.849  1.00  0.00     0.027 C 
BRANCH  16  17
ATOM     17  C   UNL     1       0.614   5.135 -16.635  1.00  0.00     0.004 C 
BRANCH  17  18
ATOM     18  C   UNL     1       0.225   6.512 -16.073  1.00  0.00     0.000 C 
BRANCH  18  19
ATOM     19  C   UNL     1      -0.280   6.441 -14.623  1.00  0.00    -0.003 C 
ATOM     20  C   UNL     1      -1.398   7.452 -14.381  1.00  0.00     0.004 C 
ENDBRANCH  18  19
ENDBRANCH  17  18
ENDBRANCH  16  17
ENDBRANCH  15  16
ENDBRANCH  13  14
ENDBRANCH  12  13
ENDBRANCH   1  11
TORSDOF 14
ENDMDL
MODEL 4
REMARK VINA RESULT:    -3.565     10.867     13.595
REMARK INTER + INTRA:          -9.327
REMARK INTER:                  -7.066
REMARK INTRA:                  -2.262
REMARK UNBOUND:                -2.845
REMARK SMILES CCCCCC=CCC=CCCCCCCCC(=O)[O-]
REMARK SMILES IDX 11 1 12 2 13 3 14 4 15 5 16 6 17 7 18 8 19 9 20 10 10 11
REMARK SMILES IDX 9 12 8 13 7 14 6 15 5 16 4 17 3 18 2 19 1 20
REMARK H PARENT
REMARK Flexibility Score: inf
ROOT
ATOM      1  C   UNL     1       7.594  -6.201  -8.061  1.00  0.00     0.027 C 
ENDROOT
BRANCH   1   2
ATOM      2  C   UNL     1       8.090  -6.430  -6.624  1.00  0.00     0.004 C 
BRANCH   2   3
ATOM      3  C   UNL     1       7.900  -5.188  -5.736  1.00  0.00     0.000 C 
BRANCH   3   4
ATOM      4  C   UNL     1       6.675  -4.354  -6.163  1.00  0.00     0.000 C 
BRANCH   4   5
ATOM      5  C   UNL     1       6.979  -2.847  -6.211  1.00  0.00     0.000 C 
BRANCH   5   6
ATOM      6  C   UNL     1       6.020  -2.023  -5.338  1.00  0.00     0.006 C 
BRANCH   6   7
ATOM      7  C   UNL     1       4.607  -2.617  -5.364  1.00  0.00     0.053 C 
BRANCH   7   8
ATOM      8  C   UNL     1       3.834  -2.179  -4.162  1.00  0.00     0.041 C 
ATOM      9  O   UNL     1       4.424  -1.622  -3.197  1.00  0.00    -0.550 OA
ATOM     10  O   UNL     1       2.452  -2.341  -4.127  1.00  0.00    -0.550 OA
ENDBRANCH   7   8
ENDBRANCH   6   7
ENDBRANCH   5   6
ENDBRANCH   4   5
ENDBRANCH   3   4
ENDBRANCH   2   3
ENDBRANCH   1   2
BRANCH   1  11
ATOM     11  C   UNL     1       8.744  -6.188  -9.036  1.00  0.00    -0.031 C 
ATOM     12  C   UNL     1       8.764  -5.463 -10.171  1.00  0.00    -0.027 C 
BRANCH  12  13
ATOM     13  C   UNL     1       7.655  -4.540 -10.610  1.00  0.00     0.054 C 
BRANCH  13  14
ATOM     14  C   UNL     1       7.901  -3.127 -10.137  1.00  0.00    -0.027 C 
ATOM     15  C   UNL     1       6.926  -2.294  -9.722  1.00  0.00    -0.031 C 
BRANCH  15  16
ATOM     16  C   UNL     1       5.458  -2.641  -9.686  1.00  0.00     0.027 C 
BRANCH  16  17
ATOM     17  C   UNL     1       4.667  -1.617  -8.858  1.00  0.00     0.004 C 
BRANCH  17  18
ATOM     18  C   UNL     1       5.468  -0.334  -8.582  1.00  0.00     0.000 C 
BRANCH  18  19
ATOM     19  C   UNL     1       4.658   0.943  -8.860  1.00  0.00    -0.003 C 
ATOM     20  C   UNL     1       4.048   0.912 -10.258  1.00  0.00     0.004 C 
ENDBRANCH  18  19
ENDBRANCH  17  18
ENDBRANCH  16  17
ENDBRANCH  15  16
ENDBRANCH  13  14
ENDBRANCH  12  13
ENDBRANCH   1  11
TORSDOF 14
ENDMDL
MODEL 5
REMARK VINA RESULT:    -3.563     11.221     14.097
REMARK INTER + INTRA:          -9.324
REMARK INTER:                  -6.938
REMARK INTRA:                  -2.386
REMARK UNBOUND:                -2.845
REMARK SMILES CCCCCC=CCC=CCCCCCCCC(=O)[O-]
REMARK SMILES IDX 11 1 12 2 13 3 14 4 15 5 16 6 17 7 18 8 19 9 20 10 10 11
REMARK SMILES IDX 9 12 8 13 7 14 6 15 5 16 4 17 3 18 2 19 1 20
REMARK H PARENT
REMARK Flexibility Score: inf
ROOT
ATOM      1  C   UNL     1       7.534  -5.676  -6.906  1.00  0.00     0.027 C 
ENDROOT
BRANCH   1   2
ATOM      2  C   UNL     1       7.519  -4.562  -5.847  1.00  0.00     0.004 C 
BRANCH   2   3
ATOM      3  C   UNL     1       7.114  -3.201  -6.439  1.00  0.00     0.000 C 
BRANCH   3   4
ATOM      4  C   UNL     1       6.513  -2.262  -5.373  1.00  0.00     0.000 C 
BRANCH   4   5
ATOM      5  C   UNL     1       4.987  -2.121  -5.508  1.00  0.00     0.000 C 
BRANCH   5   6
ATOM      6  C   UNL     1       4.525  -2.076  -6.971  1.00  0.00     0.006 C 
BRANCH   6   7
ATOM      7  C   UNL     1       4.089  -0.660  -7.366  1.00  0.00     0.053 C 
BRANCH   7   8
ATOM      8  C   UNL     1       5.029  -0.085  -8.376  1.00  0.00     0.041 C 
ATOM      9  O   UNL     1       4.582   0.560  -9.362  1.00  0.00    -0.550 OA
ATOM     10  O   UNL     1       6.403  -0.217  -8.201  1.00  0.00    -0.550 OA
ENDBRANCH   7   8
ENDBRANCH   6   7
ENDBRANCH   5   6
ENDBRANCH   4   5
ENDBRANCH   3   4
ENDBRANCH   2   3
ENDBRANCH   1   2
BRANCH   1  11
ATOM     11  C   UNL     1       8.694  -6.614  -6.690  1.00  0.00    -0.031 C 
ATOM     12  C   UNL     1       9.279  -7.332  -7.669  1.00  0.00    -0.027 C 
BRANCH  12  13
ATOM     13  C   UNL     1       8.875  -7.274  -9.121  1.00  0.00     0.054 C 
BRANCH  13  14
ATOM     14  C   UNL     1       9.885  -6.506  -9.939  1.00  0.00    -0.027 C 
ATOM     15  C   UNL     1       9.570  -5.465 -10.735  1.00  0.00    -0.031 C 
BRANCH  15  16
ATOM     16  C   UNL     1       8.173  -4.930 -10.938  1.00  0.00     0.027 C 
BRANCH  16  17
ATOM     17  C   UNL     1       7.917  -3.699 -10.055  1.00  0.00     0.004 C 
BRANCH  17  18
ATOM     18  C   UNL     1       6.458  -3.217 -10.121  1.00  0.00     0.000 C 
BRANCH  18  19
ATOM     19  C   UNL     1       5.476  -4.345 -10.474  1.00  0.00    -0.003 C 
ATOM     20  C   UNL     1       4.797  -4.893  -9.222  1.00  0.00     0.004 C 
ENDBRANCH  18  19
ENDBRANCH  17  18
ENDBRANCH  16  17
ENDBRANCH  15  16
ENDBRANCH  13  14
ENDBRANCH  12  13
ENDBRANCH   1  11
TORSDOF 14
ENDMDL
MODEL 6
REMARK VINA RESULT:    -3.541      8.821     11.698
REMARK INTER + INTRA:          -9.285
REMARK INTER:                  -7.103
REMARK INTRA:                  -2.182
REMARK UNBOUND:                -2.845
REMARK SMILES CCCCCC=CCC=CCCCCCCCC(=O)[O-]
REMARK SMILES IDX 11 1 12 2 13 3 14 4 15 5 16 6 17 7 18 8 19 9 20 10 10 11
REMARK SMILES IDX 9 12 8 13 7 14 6 15 5 16 4 17 3 18 2 19 1 20
REMARK H PARENT
REMARK Flexibility Score: inf
ROOT
ATOM      1  C   UNL     1       6.020  -3.243  -6.221  1.00  0.00     0.027 C 
ENDROOT
BRANCH   1   2
ATOM      2  C   UNL     1       6.217  -1.744  -5.940  1.00  0.00     0.004 C 
BRANCH   2   3
ATOM      3  C   UNL     1       6.289  -0.914  -7.232  1.00  0.00     0.000 C 
BRANCH   3   4
ATOM      4  C   UNL     1       4.898  -0.706  -7.866  1.00  0.00     0.000 C 
BRANCH   4   5
ATOM      5  C   UNL     1       4.815   0.591  -8.688  1.00  0.00     0.000 C 
BRANCH   5   6
ATOM      6  C   UNL     1       4.102   0.393 -10.034  1.00  0.00     0.006 C 
BRANCH   6   7
ATOM      7  C   UNL     1       3.715   1.741 -10.653  1.00  0.00     0.053 C 
BRANCH   7   8
ATOM      8  C   UNL     1       4.247   1.848 -12.046  1.00  0.00     0.041 C 
ATOM      9  O   UNL     1       4.298   0.829 -12.786  1.00  0.00    -0.550 OA
ATOM     10  O   UNL     1       4.641   3.085 -12.547  1.00  0.00    -0.550 OA
ENDBRANCH   7   8
ENDBRANCH   6   7
ENDBRANCH   5   6
ENDBRANCH   4   5
ENDBRANCH   3   4
ENDBRANCH   2   3
ENDBRANCH   1   2
BRANCH   1  11
ATOM     11  C   UNL     1       7.322  -3.994  -6.099  1.00  0.00    -0.031 C 
ATOM     12  C   UNL     1       7.774  -4.876  -7.010  1.00  0.00    -0.027 C 
BRANCH  12  13
ATOM     13  C   UNL     1       7.057  -5.215  -8.293  1.00  0.00     0.054 C 
BRANCH  13  14
ATOM     14  C   UNL     1       7.985  -5.117  -9.480  1.00  0.00    -0.027 C 
ATOM     15  C   UNL     1       8.175  -3.989 -10.193  1.00  0.00    -0.031 C 
BRANCH  15  16
ATOM     16  C   UNL     1       7.481  -2.676  -9.924  1.00  0.00     0.027 C 
BRANCH  16  17
ATOM     17  C   UNL     1       6.352  -2.428 -10.937  1.00  0.00     0.004 C 
BRANCH  17  18
ATOM     18  C   UNL     1       5.073  -3.213 -10.601  1.00  0.00     0.000 C 
BRANCH  18  19
ATOM     19  C   UNL     1       4.273  -3.607 -11.852  1.00  0.00    -0.003 C 
ATOM     20  C   UNL     1       3.253  -2.531 -12.213  1.00  0.00     0.004 C 
ENDBRANCH  18  19
ENDBRANCH  17  18
ENDBRANCH  16  17
ENDBRANCH  15  16
ENDBRANCH  13  14
ENDBRANCH  12  13
ENDBRANCH   1  11
TORSDOF 14
ENDMDL
MODEL 7
REMARK VINA RESULT:    -3.526      2.496      4.611
REMARK INTER + INTRA:          -9.258
REMARK INTER:                  -6.527
REMARK INTRA:                  -2.731
REMARK UNBOUND:                -2.845
REMARK SMILES CCCCCC=CCC=CCCCCCCCC(=O)[O-]
REMARK SMILES IDX 11 1 12 2 13 3 14 4 15 5 16 6 17 7 18 8 19 9 20 10 10 11
REMARK SMILES IDX 9 12 8 13 7 14 6 15 5 16 4 17 3 18 2 19 1 20
REMARK H PARENT
REMARK Flexibility Score: inf
ROOT
ATOM      1  C   UNL     1       2.419   9.042 -14.728  1.00  0.00     0.027 C 
ENDROOT
BRANCH   1   2
ATOM      2  C   UNL     1       3.599   8.059 -14.809  1.00  0.00     0.004 C 
BRANCH   2   3
ATOM      3  C   UNL     1       3.138   6.616 -15.074  1.00  0.00     0.000 C 
BRANCH   3   4
ATOM      4  C   UNL     1       4.181   5.580 -14.610  1.00  0.00     0.000 C 
BRANCH   4   5
ATOM      5  C   UNL     1       3.551   4.430 -13.807  1.00  0.00     0.000 C 
BRANCH   5   6
ATOM      6  C   UNL     1       4.486   3.888 -12.716  1.00  0.00     0.006 C 
BRANCH   6   7
ATOM      7  C   UNL     1       3.694   3.153 -11.629  1.00  0.00     0.053 C 
BRANCH   7   8
ATOM      8  C   UNL     1       4.085   1.710 -11.581  1.00  0.00     0.041 C 
ATOM      9  O   UNL     1       4.479   1.126 -12.626  1.00  0.00    -0.550 OA
ATOM     10  O   UNL     1       4.061   1.023 -10.372  1.00  0.00    -0.550 OA
ENDBRANCH   7   8
ENDBRANCH   6   7
ENDBRANCH   5   6
ENDBRANCH   4   5
ENDBRANCH   3   4
ENDBRANCH   2   3
ENDBRANCH   1   2
BRANCH   1  11
ATOM     11  C   UNL     1       2.886  10.418 -14.327  1.00  0.00    -0.031 C 
ATOM     12  C   UNL     1       2.889  10.877 -13.061  1.00  0.00    -0.027 C 
BRANCH  12  13
ATOM     13  C   UNL     1       2.455  10.068 -11.863  1.00  0.00     0.054 C 
BRANCH  13  14
ATOM     14  C   UNL     1       3.603   9.848 -10.907  1.00  0.00    -0.027 C 
ATOM     15  C   UNL     1       4.165   8.646 -10.672  1.00  0.00    -0.031 C 
BRANCH  15  16
ATOM     16  C   UNL     1       3.722   7.352 -11.310  1.00  0.00     0.027 C 
BRANCH  16  17
ATOM     17  C   UNL     1       2.756   6.584 -10.394  1.00  0.00     0.004 C 
BRANCH  17  18
ATOM     18  C   UNL     1       1.285   6.958 -10.640  1.00  0.00     0.000 C 
BRANCH  18  19
ATOM     19  C   UNL     1       0.788   6.531 -12.030  1.00  0.00    -0.003 C 
ATOM     20  C   UNL     1       0.480   5.037 -12.068  1.00  0.00     0.004 C 
ENDBRANCH  18  19
ENDBRANCH  17  18
ENDBRANCH  16  17
ENDBRANCH  15  16
ENDBRANCH  13  14
ENDBRANCH  12  13
ENDBRANCH   1  11
TORSDOF 14
ENDMDL
MODEL 8
REMARK VINA RESULT:    -3.496     10.679     13.745
REMARK INTER + INTRA:          -9.202
REMARK INTER:                  -6.270
REMARK INTRA:                  -2.933
REMARK UNBOUND:                -2.845
REMARK SMILES CCCCCC=CCC=CCCCCCCCC(=O)[O-]
REMARK SMILES IDX 11 1 12 2 13 3 14 4 15 5 16 6 17 7 18 8 19 9 20 10 10 11
REMARK SMILES IDX 9 12 8 13 7 14 6 15 5 16 4 17 3 18 2 19 1 20
REMARK H PARENT
REMARK Flexibility Score: inf
ROOT
ATOM      1  C   UNL     1       6.569  -6.361  -7.275  1.00  0.00     0.027 C 
ENDROOT
BRANCH   1   2
ATOM      2  C   UNL     1       7.849  -5.648  -6.809  1.00  0.00     0.004 C 
BRANCH   2   3
ATOM      3  C   UNL     1       7.546  -4.411  -5.947  1.00  0.00     0.000 C 
BRANCH   3   4
ATOM      4  C   UNL     1       7.177  -3.183  -6.805  1.00  0.00     0.000 C 
BRANCH   4   5
ATOM      5  C   UNL     1       6.444  -2.100  -5.996  1.00  0.00     0.000 C 
BRANCH   5   6
ATOM      6  C   UNL     1       5.433  -1.313  -6.843  1.00  0.00     0.006 C 
BRANCH   6   7
ATOM      7  C   UNL     1       6.145  -0.311  -7.758  1.00  0.00     0.053 C 
BRANCH   7   8
ATOM      8  C   UNL     1       5.152   0.574  -8.439  1.00  0.00     0.041 C 
ATOM      9  O   UNL     1       4.717   0.275  -9.584  1.00  0.00    -0.550 OA
ATOM     10  O   UNL     1       4.667   1.705  -7.790  1.00  0.00    -0.550 OA
ENDBRANCH   7   8
ENDBRANCH   6   7
ENDBRANCH   5   6
ENDBRANCH   4   5
ENDBRANCH   3   4
ENDBRANCH   2   3
ENDBRANCH   1   2
BRANCH   1  11
ATOM     11  C   UNL     1       5.428  -6.105  -6.324  1.00  0.00    -0.031 C 
ATOM     12  C   UNL     1       4.188  -5.746  -6.709  1.00  0.00    -0.027 C 
BRANCH  12  13
ATOM     13  C   UNL     1       3.760  -5.580  -8.146  1.00  0.00     0.054 C 
BRANCH  13  14
ATOM     14  C   UNL     1       3.515  -4.127  -8.478  1.00  0.00    -0.027 C 
ATOM     15  C   UNL     1       4.251  -3.425  -9.362  1.00  0.00    -0.031 C 
BRANCH  15  16
ATOM     16  C   UNL     1       5.429  -3.976 -10.129  1.00  0.00     0.027 C 
BRANCH  16  17
ATOM     17  C   UNL     1       6.496  -2.895 -10.359  1.00  0.00     0.004 C 
BRANCH  17  18
ATOM     18  C   UNL     1       7.927  -3.452 -10.286  1.00  0.00     0.000 C 
BRANCH  18  19
ATOM     19  C   UNL     1       8.007  -4.937 -10.676  1.00  0.00    -0.003 C 
ATOM     20  C   UNL     1       9.420  -5.480 -10.484  1.00  0.00     0.004 C 
ENDBRANCH  18  19
ENDBRANCH  17  18
ENDBRANCH  16  17
ENDBRANCH  15  16
ENDBRANCH  13  14
ENDBRANCH  12  13
ENDBRANCH   1  11
TORSDOF 14
ENDMDL
MODEL 9
REMARK VINA RESULT:    -3.483      3.922      6.369
REMARK INTER + INTRA:          -9.178
REMARK INTER:                  -5.978
REMARK INTRA:                  -3.200
REMARK UNBOUND:                -2.845
REMARK SMILES CCCCCC=CCC=CCCCCCCCC(=O)[O-]
REMARK SMILES IDX 11 1 12 2 13 3 14 4 15 5 16 6 17 7 18 8 19 9 20 10 10 11
REMARK SMILES IDX 9 12 8 13 7 14 6 15 5 16 4 17 3 18 2 19 1 20
REMARK H PARENT
REMARK Flexibility Score: inf
ROOT
ATOM      1  C   UNL     1       3.119   5.823 -14.294  1.00  0.00     0.027 C 
ENDROOT
BRANCH   1   2
ATOM      2  C   UNL     1       3.741   7.072 -14.941  1.00  0.00     0.004 C 
BRANCH   2   3
ATOM      3  C   UNL     1       3.345   8.366 -14.210  1.00  0.00     0.000 C 
BRANCH   3   4
ATOM      4  C   UNL     1       2.014   8.215 -13.445  1.00  0.00     0.000 C 
BRANCH   4   5
ATOM      5  C   UNL     1       2.096   8.764 -12.011  1.00  0.00     0.000 C 
BRANCH   5   6
ATOM      6  C   UNL     1       3.377   9.572 -11.759  1.00  0.00     0.006 C 
BRANCH   6   7
ATOM      7  C   UNL     1       3.953   9.269 -10.371  1.00  0.00     0.053 C 
BRANCH   7   8
ATOM      8  C   UNL     1       3.155   9.959  -9.311  1.00  0.00     0.041 C 
ATOM      9  O   UNL     1       3.197  11.214  -9.202  1.00  0.00    -0.550 OA
ATOM     10  O   UNL     1       2.325   9.220  -8.474  1.00  0.00    -0.550 OA
ENDBRANCH   7   8
ENDBRANCH   6   7
ENDBRANCH   5   6
ENDBRANCH   4   5
ENDBRANCH   3   4
ENDBRANCH   2   3
ENDBRANCH   1   2
BRANCH   1  11
ATOM     11  C   UNL     1       4.186   4.869 -13.820  1.00  0.00    -0.031 C 
ATOM     12  C   UNL     1       4.776   4.935 -12.611  1.00  0.00    -0.027 C 
BRANCH  12  13
ATOM     13  C   UNL     1       4.432   5.953 -11.552  1.00  0.00     0.054 C 
BRANCH  13  14
ATOM     14  C   UNL     1       3.923   5.285 -10.297  1.00  0.00    -0.027 C 
ATOM     15  C   UNL     1       2.627   4.988 -10.079  1.00  0.00    -0.031 C 
BRANCH  15  16
ATOM     16  C   UNL     1       1.502   5.292 -11.038  1.00  0.00     0.027 C 
BRANCH  16  17
ATOM     17  C   UNL     1       1.033   4.022 -11.763  1.00  0.00     0.004 C 
BRANCH  17  18
ATOM     18  C   UNL     1       1.591   2.738 -11.127  1.00  0.00     0.000 C 
BRANCH  18  19
ATOM     19  C   UNL     1       2.524   1.964 -12.072  1.00  0.00    -0.003 C 
ATOM     20  C   UNL     1       3.833   1.603 -11.376  1.00  0.00     0.004 C 
ENDBRANCH  18  19
ENDBRANCH  17  18
ENDBRANCH  16  17
ENDBRANCH  15  16
ENDBRANCH  13  14
ENDBRANCH  12  13
ENDBRANCH   1  11
TORSDOF 14
ENDMDL
