MODEL 1
REMARK VINA RESULT:    -4.183      0.000      0.000
REMARK INTER + INTRA:          -5.362
REMARK INTER:                  -5.039
REMARK INTRA:                  -0.323
REMARK UNBOUND:                -0.323
REMARK SMILES O=c1c(O)c(-c2ccc(O)c(O)c2)oc2cc(O)cc(O)c12
REMARK SMILES IDX 5 1 3 2 2 3 1 4 22 5 20 6 19 7 17 8 16 9 15 10 14 11 6 12
REMARK SMILES IDX 7 13 8 14 9 15 13 16 11 17 10 18 12 20 4 22 21 24 18 26
REMARK H PARENT 10 19 12 21 4 23 21 25 18 27
REMARK Flexibility Score: inf
ROOT
ATOM      1  C   UNL     1      73.197  75.664  78.890  1.00  0.00     0.180 A 
ATOM      2  C   UNL     1      73.289  74.264  78.815  1.00  0.00     0.208 A 
ATOM      3  C   UNL     1      73.266  73.515  80.001  1.00  0.00     0.238 A 
ATOM      4  O   UNL     1      73.294  72.259  79.924  1.00  0.00    -0.285 OA
ATOM      5  C   UNL     1      73.169  74.175  81.250  1.00  0.00     0.111 A 
ATOM      6  C   UNL     1      73.178  73.519  82.517  1.00  0.00     0.134 A 
ATOM      7  C   UNL     1      72.945  74.262  83.681  1.00  0.00     0.093 A 
ATOM      8  C   UNL     1      72.769  75.645  83.630  1.00  0.00     0.123 A 
ATOM      9  C   UNL     1      72.818  76.304  82.401  1.00  0.00     0.094 A 
ATOM     10  C   UNL     1      73.013  75.586  81.220  1.00  0.00     0.146 A 
ATOM     11  O   UNL     1      73.042  76.250  80.071  1.00  0.00    -0.452 OA
ENDROOT
BRANCH   1  12
ATOM     12  C   UNL     1      73.240  76.523  77.684  1.00  0.00     0.025 A 
ATOM     13  C   UNL     1      72.065  76.880  76.999  1.00  0.00     0.016 A 
ATOM     14  C   UNL     1      72.131  77.672  75.848  1.00  0.00     0.051 A 
ATOM     15  C   UNL     1      73.366  78.106  75.359  1.00  0.00     0.157 A 
ATOM     16  C   UNL     1      74.480  76.943  77.177  1.00  0.00     0.062 A 
ATOM     17  C   UNL     1      74.548  77.739  76.024  1.00  0.00     0.158 A 
BRANCH  15  18
ATOM     18  O   UNL     1      73.400  78.897  74.211  1.00  0.00    -0.504 OA
ATOM     19  H   UNL     1      72.923  78.629  73.358  1.00  0.00     0.293 HD
ENDBRANCH  15  18
BRANCH  17  20
ATOM     20  O   UNL     1      75.784  78.162  75.536  1.00  0.00    -0.504 OA
ATOM     21  H   UNL     1      75.868  78.969  74.929  1.00  0.00     0.293 HD
ENDBRANCH  17  20
ENDBRANCH   1  12
BRANCH   2  22
ATOM     22  O   UNL     1      73.362  73.630  77.570  1.00  0.00    -0.502 OA
ATOM     23  H   UNL     1      72.955  74.027  76.732  1.00  0.00     0.293 HD
ENDBRANCH   2  22
BRANCH   6  24
ATOM     24  O   UNL     1      73.436  72.157  82.688  1.00  0.00    -0.507 OA
ATOM     25  H   UNL     1      72.874  71.413  82.304  1.00  0.00     0.293 HD
ENDBRANCH   6  24
BRANCH   8  26
ATOM     26  O   UNL     1      72.555  76.354  84.810  1.00  0.00    -0.508 OA
ATOM     27  H   UNL     1      73.096  77.180  85.037  1.00  0.00     0.293 HD
ENDBRANCH   8  26
TORSDOF 6
ENDMDL
MODEL 2
REMARK VINA RESULT:    -4.088      2.956      5.140
REMARK INTER + INTRA:          -5.247
REMARK INTER:                  -5.026
REMARK INTRA:                  -0.222
REMARK UNBOUND:                -0.323
REMARK SMILES O=c1c(O)c(-c2ccc(O)c(O)c2)oc2cc(O)cc(O)c12
REMARK SMILES IDX 5 1 3 2 2 3 1 4 22 5 20 6 19 7 17 8 16 9 15 10 14 11 6 12
REMARK SMILES IDX 7 13 8 14 9 15 13 16 11 17 10 18 12 20 4 22 21 24 18 26
REMARK H PARENT 10 19 12 21 4 23 21 25 18 27
REMARK Flexibility Score: inf
ROOT
ATOM      1  C   UNL     1      74.521  74.597  82.067  1.00  0.00     0.180 A 
ATOM      2  C   UNL     1      73.926  74.208  83.278  1.00  0.00     0.208 A 
ATOM      3  C   UNL     1      74.367  74.794  84.475  1.00  0.00     0.238 A 
ATOM      4  O   UNL     1      73.793  74.481  85.550  1.00  0.00    -0.285 OA
ATOM      5  C   UNL     1      75.410  75.752  84.446  1.00  0.00     0.111 A 
ATOM      6  C   UNL     1      75.964  76.381  85.601  1.00  0.00     0.134 A 
ATOM      7  C   UNL     1      76.902  77.409  85.444  1.00  0.00     0.093 A 
ATOM      8  C   UNL     1      77.355  77.784  84.180  1.00  0.00     0.123 A 
ATOM      9  C   UNL     1      76.864  77.134  83.047  1.00  0.00     0.094 A 
ATOM     10  C   UNL     1      75.901  76.130  83.169  1.00  0.00     0.146 A 
ATOM     11  O   UNL     1      75.451  75.545  82.066  1.00  0.00    -0.452 OA
ENDROOT
BRANCH   1  12
ATOM     12  C   UNL     1      74.126  74.005  80.768  1.00  0.00     0.025 A 
ATOM     13  C   UNL     1      74.395  72.659  80.465  1.00  0.00     0.016 A 
ATOM     14  C   UNL     1      74.035  72.127  79.223  1.00  0.00     0.051 A 
ATOM     15  C   UNL     1      73.415  72.932  78.263  1.00  0.00     0.157 A 
ATOM     16  C   UNL     1      73.522  74.816  79.793  1.00  0.00     0.062 A 
ATOM     17  C   UNL     1      73.159  74.284  78.547  1.00  0.00     0.158 A 
BRANCH  15  18
ATOM     18  O   UNL     1      73.065  72.374  77.034  1.00  0.00    -0.504 OA
ATOM     19  H   UNL     1      72.748  72.941  76.257  1.00  0.00     0.293 HD
ENDBRANCH  15  18
BRANCH  17  20
ATOM     20  O   UNL     1      72.548  75.095  77.590  1.00  0.00    -0.504 OA
ATOM     21  H   UNL     1      72.906  75.163  76.645  1.00  0.00     0.293 HD
ENDBRANCH  17  20
ENDBRANCH   1  12
BRANCH   2  22
ATOM     22  O   UNL     1      72.882  73.277  83.282  1.00  0.00    -0.502 OA
ATOM     23  H   UNL     1      72.871  72.473  83.898  1.00  0.00     0.293 HD
ENDBRANCH   2  22
BRANCH   6  24
ATOM     24  O   UNL     1      75.650  76.018  86.913  1.00  0.00    -0.507 OA
ATOM     25  H   UNL     1      75.893  75.137  87.340  1.00  0.00     0.293 HD
ENDBRANCH   6  24
BRANCH   8  26
ATOM     26  O   UNL     1      78.302  78.800  84.062  1.00  0.00    -0.508 OA
ATOM     27  H   UNL     1      78.886  79.072  84.844  1.00  0.00     0.293 HD
ENDBRANCH   8  26
TORSDOF 6
ENDMDL
MODEL 3
REMARK VINA RESULT:    -4.002      3.720      6.968
REMARK INTER + INTRA:          -5.144
REMARK INTER:                  -4.846
REMARK INTRA:                  -0.298
REMARK UNBOUND:                -0.323
REMARK SMILES O=c1c(O)c(-c2ccc(O)c(O)c2)oc2cc(O)cc(O)c12
REMARK SMILES IDX 5 1 3 2 2 3 1 4 22 5 20 6 19 7 17 8 16 9 15 10 14 11 6 12
REMARK SMILES IDX 7 13 8 14 9 15 13 16 11 17 10 18 12 20 4 22 21 24 18 26
REMARK H PARENT 10 19 12 21 4 23 21 25 18 27
REMARK Flexibility Score: inf
ROOT
ATOM      1  C   UNL     1      74.582  74.353  82.373  1.00  0.00     0.180 A 
ATOM      2  C   UNL     1      75.966  74.110  82.333  1.00  0.00     0.208 A 
ATOM      3  C   UNL     1      76.514  73.472  81.210  1.00  0.00     0.238 A 
ATOM      4  O   UNL     1      77.760  73.307  81.157  1.00  0.00    -0.285 OA
ATOM      5  C   UNL     1      75.670  73.069  80.147  1.00  0.00     0.111 A 
ATOM      6  C   UNL     1      76.112  72.379  78.979  1.00  0.00     0.134 A 
ATOM      7  C   UNL     1      75.210  72.146  77.932  1.00  0.00     0.093 A 
ATOM      8  C   UNL     1      73.871  72.518  78.039  1.00  0.00     0.123 A 
ATOM      9  C   UNL     1      73.415  73.141  79.202  1.00  0.00     0.094 A 
ATOM     10  C   UNL     1      74.298  73.419  80.248  1.00  0.00     0.146 A 
ATOM     11  O   UNL     1      73.827  74.022  81.332  1.00  0.00    -0.452 OA
ENDROOT
BRANCH   1  12
ATOM     12  C   UNL     1      73.928  74.999  83.534  1.00  0.00     0.025 A 
ATOM     13  C   UNL     1      73.240  74.243  84.500  1.00  0.00     0.016 A 
ATOM     14  C   UNL     1      72.609  74.876  85.575  1.00  0.00     0.051 A 
ATOM     15  C   UNL     1      72.642  76.268  85.694  1.00  0.00     0.157 A 
ATOM     16  C   UNL     1      73.941  76.399  83.645  1.00  0.00     0.062 A 
ATOM     17  C   UNL     1      73.310  77.035  84.724  1.00  0.00     0.158 A 
BRANCH  15  18
ATOM     18  O   UNL     1      72.006  76.871  86.778  1.00  0.00    -0.504 OA
ATOM     19  H   UNL     1      72.123  76.535  87.726  1.00  0.00     0.293 HD
ENDBRANCH  15  18
BRANCH  17  20
ATOM     20  O   UNL     1      73.341  78.425  84.833  1.00  0.00    -0.504 OA
ATOM     21  H   UNL     1      74.215  78.938  84.841  1.00  0.00     0.293 HD
ENDBRANCH  17  20
ENDBRANCH   1  12
BRANCH   2  22
ATOM     22  O   UNL     1      76.784  74.537  83.384  1.00  0.00    -0.502 OA
ATOM     23  H   UNL     1      77.728  74.192  83.513  1.00  0.00     0.293 HD
ENDBRANCH   2  22
BRANCH   6  24
ATOM     24  O   UNL     1      77.407  71.881  78.809  1.00  0.00    -0.507 OA
ATOM     25  H   UNL     1      78.072  71.746  79.555  1.00  0.00     0.293 HD
ENDBRANCH   6  24
BRANCH   8  26
ATOM     26  O   UNL     1      72.999  72.256  76.984  1.00  0.00    -0.508 OA
ATOM     27  H   UNL     1      73.256  71.634  76.227  1.00  0.00     0.293 HD
ENDBRANCH   8  26
TORSDOF 6
ENDMDL
MODEL 4
REMARK VINA RESULT:    -3.986      3.313      4.527
REMARK INTER + INTRA:          -5.124
REMARK INTER:                  -4.798
REMARK INTRA:                  -0.327
REMARK UNBOUND:                -0.323
REMARK SMILES O=c1c(O)c(-c2ccc(O)c(O)c2)oc2cc(O)cc(O)c12
REMARK SMILES IDX 5 1 3 2 2 3 1 4 22 5 20 6 19 7 17 8 16 9 15 10 14 11 6 12
REMARK SMILES IDX 7 13 8 14 9 15 13 16 11 17 10 18 12 20 4 22 21 24 18 26
REMARK H PARENT 10 19 12 21 4 23 21 25 18 27
REMARK Flexibility Score: inf
ROOT
ATOM      1  C   UNL     1      75.110  73.643  81.182  1.00  0.00     0.180 A 
ATOM      2  C   UNL     1      73.852  73.148  81.564  1.00  0.00     0.208 A 
ATOM      3  C   UNL     1      73.325  73.515  82.812  1.00  0.00     0.238 A 
ATOM      4  O   UNL     1      72.174  73.112  83.125  1.00  0.00    -0.285 OA
ATOM      5  C   UNL     1      74.069  74.360  83.670  1.00  0.00     0.111 A 
ATOM      6  C   UNL     1      73.650  74.764  84.973  1.00  0.00     0.134 A 
ATOM      7  C   UNL     1      74.407  75.706  85.680  1.00  0.00     0.093 A 
ATOM      8  C   UNL     1      75.600  76.209  85.161  1.00  0.00     0.123 A 
ATOM      9  C   UNL     1      76.049  75.775  83.913  1.00  0.00     0.094 A 
ATOM     10  C   UNL     1      75.298  74.864  83.168  1.00  0.00     0.146 A 
ATOM     11  O   UNL     1      75.755  74.485  81.981  1.00  0.00    -0.452 OA
ENDROOT
BRANCH   1  12
ATOM     12  C   UNL     1      75.742  73.280  79.893  1.00  0.00     0.025 A 
ATOM     13  C   UNL     1      76.630  72.195  79.793  1.00  0.00     0.016 A 
ATOM     14  C   UNL     1      77.234  71.885  78.571  1.00  0.00     0.051 A 
ATOM     15  C   UNL     1      76.973  72.660  77.437  1.00  0.00     0.157 A 
ATOM     16  C   UNL     1      75.499  74.070  78.757  1.00  0.00     0.062 A 
ATOM     17  C   UNL     1      76.103  73.759  77.530  1.00  0.00     0.158 A 
BRANCH  15  18
ATOM     18  O   UNL     1      77.588  72.326  76.231  1.00  0.00    -0.504 OA
ATOM     19  H   UNL     1      78.231  71.547  76.153  1.00  0.00     0.293 HD
ENDBRANCH  15  18
BRANCH  17  20
ATOM     20  O   UNL     1      75.844  74.542  76.404  1.00  0.00    -0.504 OA
ATOM     21  H   UNL     1      75.781  74.135  75.478  1.00  0.00     0.293 HD
ENDBRANCH  17  20
ENDBRANCH   1  12
BRANCH   2  22
ATOM     22  O   UNL     1      73.123  72.332  80.692  1.00  0.00    -0.502 OA
ATOM     23  H   UNL     1      73.298  71.339  80.602  1.00  0.00     0.293 HD
ENDBRANCH   2  22
BRANCH   6  24
ATOM     24  O   UNL     1      72.524  74.253  85.623  1.00  0.00    -0.507 OA
ATOM     25  H   UNL     1      72.539  73.783  86.515  1.00  0.00     0.293 HD
ENDBRANCH   6  24
BRANCH   8  26
ATOM     26  O   UNL     1      76.335  77.134  85.900  1.00  0.00    -0.508 OA
ATOM     27  H   UNL     1      77.307  77.328  85.687  1.00  0.00     0.293 HD
ENDBRANCH   8  26
TORSDOF 6
ENDMDL
MODEL 5
REMARK VINA RESULT:    -3.916     21.846     23.825
REMARK INTER + INTRA:          -5.041
REMARK INTER:                  -5.040
REMARK INTRA:                  -0.000
REMARK UNBOUND:                -0.323
REMARK SMILES O=c1c(O)c(-c2ccc(O)c(O)c2)oc2cc(O)cc(O)c12
REMARK SMILES IDX 5 1 3 2 2 3 1 4 22 5 20 6 19 7 17 8 16 9 15 10 14 11 6 12
REMARK SMILES IDX 7 13 8 14 9 15 13 16 11 17 10 18 12 20 4 22 21 24 18 26
REMARK H PARENT 10 19 12 21 4 23 21 25 18 27
REMARK Flexibility Score: inf
ROOT
ATOM      1  C   UNL     1      90.822  85.154  90.659  1.00  0.00     0.180 A 
ATOM      2  C   UNL     1      90.850  85.502  89.298  1.00  0.00     0.208 A 
ATOM      3  C   UNL     1      90.751  86.855  88.937  1.00  0.00     0.238 A 
ATOM      4  O   UNL     1      90.832  87.164  87.720  1.00  0.00    -0.285 OA
ATOM      5  C   UNL     1      90.608  87.842  89.942  1.00  0.00     0.111 A 
ATOM      6  C   UNL     1      90.459  89.239  89.689  1.00  0.00     0.134 A 
ATOM      7  C   UNL     1      90.456  90.138  90.763  1.00  0.00     0.093 A 
ATOM      8  C   UNL     1      90.531  89.688  92.080  1.00  0.00     0.123 A 
ATOM      9  C   UNL     1      90.617  88.319  92.341  1.00  0.00     0.094 A 
ATOM     10  C   UNL     1      90.658  87.400  91.290  1.00  0.00     0.146 A 
ATOM     11  O   UNL     1      90.752  86.108  91.580  1.00  0.00    -0.452 OA
ENDROOT
BRANCH   1  12
ATOM     12  C   UNL     1      90.896  83.747  91.116  1.00  0.00     0.025 A 
ATOM     13  C   UNL     1      91.859  83.331  92.051  1.00  0.00     0.016 A 
ATOM     14  C   UNL     1      91.927  81.993  92.450  1.00  0.00     0.051 A 
ATOM     15  C   UNL     1      91.045  81.051  91.913  1.00  0.00     0.157 A 
ATOM     16  C   UNL     1      90.026  82.793  90.562  1.00  0.00     0.062 A 
ATOM     17  C   UNL     1      90.091  81.451  90.962  1.00  0.00     0.158 A 
BRANCH  15  18
ATOM     18  O   UNL     1      91.134  79.724  92.331  1.00  0.00    -0.504 OA
ATOM     19  H   UNL     1      90.947  78.949  91.706  1.00  0.00     0.293 HD
ENDBRANCH  15  18
BRANCH  17  20
ATOM     20  O   UNL     1      89.214  80.514  90.416  1.00  0.00    -0.504 OA
ATOM     21  H   UNL     1      89.213  79.547  90.720  1.00  0.00     0.293 HD
ENDBRANCH  17  20
ENDBRANCH   1  12
BRANCH   2  22
ATOM     22  O   UNL     1      91.015  84.512  88.323  1.00  0.00    -0.502 OA
ATOM     23  H   UNL     1      90.719  84.640  87.363  1.00  0.00     0.293 HD
ENDBRANCH   2  22
BRANCH   6  24
ATOM     24  O   UNL     1      90.283  89.787  88.416  1.00  0.00    -0.507 OA
ATOM     25  H   UNL     1      89.554  89.521  87.771  1.00  0.00     0.293 HD
ENDBRANCH   6  24
BRANCH   8  26
ATOM     26  O   UNL     1      90.510  90.610  93.125  1.00  0.00    -0.508 OA
ATOM     27  H   UNL     1      90.965  91.512  93.044  1.00  0.00     0.293 HD
ENDBRANCH   8  26
TORSDOF 6
ENDMDL
MODEL 6
REMARK VINA RESULT:    -3.837     17.127     18.760
REMARK INTER + INTRA:          -4.946
REMARK INTER:                  -4.623
REMARK INTRA:                  -0.323
REMARK UNBOUND:                -0.323
REMARK SMILES O=c1c(O)c(-c2ccc(O)c(O)c2)oc2cc(O)cc(O)c12
REMARK SMILES IDX 5 1 3 2 2 3 1 4 22 5 20 6 19 7 17 8 16 9 15 10 14 11 6 12
REMARK SMILES IDX 7 13 8 14 9 15 13 16 11 17 10 18 12 20 4 22 21 24 18 26
REMARK H PARENT 10 19 12 21 4 23 21 25 18 27
REMARK Flexibility Score: inf
ROOT
ATOM      1  C   UNL     1      85.723  87.485  74.933  1.00  0.00     0.180 A 
ATOM      2  C   UNL     1      85.656  87.737  76.314  1.00  0.00     0.208 A 
ATOM      3  C   UNL     1      84.978  88.879  76.767  1.00  0.00     0.238 A 
ATOM      4  O   UNL     1      84.875  89.070  78.006  1.00  0.00    -0.285 OA
ATOM      5  C   UNL     1      84.389  89.765  75.833  1.00  0.00     0.111 A 
ATOM      6  C   UNL     1      83.713  90.974  76.177  1.00  0.00     0.134 A 
ATOM      7  C   UNL     1      83.056  91.706  75.180  1.00  0.00     0.093 A 
ATOM      8  C   UNL     1      83.106  91.310  73.844  1.00  0.00     0.123 A 
ATOM      9  C   UNL     1      83.815  90.161  73.488  1.00  0.00     0.094 A 
ATOM     10  C   UNL     1      84.450  89.391  74.464  1.00  0.00     0.146 A 
ATOM     11  O   UNL     1      85.105  88.300  74.086  1.00  0.00    -0.452 OA
ENDROOT
BRANCH   1  12
ATOM     12  C   UNL     1      86.441  86.315  74.378  1.00  0.00     0.025 A 
ATOM     13  C   UNL     1      85.795  85.080  74.194  1.00  0.00     0.016 A 
ATOM     14  C   UNL     1      86.498  83.982  73.691  1.00  0.00     0.051 A 
ATOM     15  C   UNL     1      87.856  84.095  73.379  1.00  0.00     0.157 A 
ATOM     16  C   UNL     1      87.810  86.419  74.084  1.00  0.00     0.062 A 
ATOM     17  C   UNL     1      88.517  85.319  73.578  1.00  0.00     0.158 A 
BRANCH  15  18
ATOM     18  O   UNL     1      88.532  82.983  72.877  1.00  0.00    -0.504 OA
ATOM     19  H   UNL     1      88.492  82.079  73.332  1.00  0.00     0.293 HD
ENDBRANCH  15  18
BRANCH  17  20
ATOM     20  O   UNL     1      89.874  85.437  73.276  1.00  0.00    -0.504 OA
ATOM     21  H   UNL     1      90.583  84.960  73.821  1.00  0.00     0.293 HD
ENDBRANCH  17  20
ENDBRANCH   1  12
BRANCH   2  22
ATOM     22  O   UNL     1      86.225  86.837  77.221  1.00  0.00    -0.502 OA
ATOM     23  H   UNL     1      85.725  86.030  77.573  1.00  0.00     0.293 HD
ENDBRANCH   2  22
BRANCH   6  24
ATOM     24  O   UNL     1      83.680  91.509  77.468  1.00  0.00    -0.507 OA
ATOM     25  H   UNL     1      83.961  91.016  78.301  1.00  0.00     0.293 HD
ENDBRANCH   6  24
BRANCH   8  26
ATOM     26  O   UNL     1      82.454  92.071  72.876  1.00  0.00    -0.508 OA
ATOM     27  H   UNL     1      81.443  92.131  72.843  1.00  0.00     0.293 HD
ENDBRANCH   8  26
TORSDOF 6
ENDMDL
MODEL 7
REMARK VINA RESULT:    -3.837      2.934      4.778
REMARK INTER + INTRA:          -4.945
REMARK INTER:                  -4.690
REMARK INTRA:                  -0.255
REMARK UNBOUND:                -0.323
REMARK SMILES O=c1c(O)c(-c2ccc(O)c(O)c2)oc2cc(O)cc(O)c12
REMARK SMILES IDX 5 1 3 2 2 3 1 4 22 5 20 6 19 7 17 8 16 9 15 10 14 11 6 12
REMARK SMILES IDX 7 13 8 14 9 15 13 16 11 17 10 18 12 20 4 22 21 24 18 26
REMARK H PARENT 10 19 12 21 4 23 21 25 18 27
REMARK Flexibility Score: inf
ROOT
ATOM      1  C   UNL     1      74.595  74.617  81.933  1.00  0.00     0.180 A 
ATOM      2  C   UNL     1      75.950  74.799  82.256  1.00  0.00     0.208 A 
ATOM      3  C   UNL     1      76.284  75.421  83.470  1.00  0.00     0.238 A 
ATOM      4  O   UNL     1      77.499  75.532  83.778  1.00  0.00    -0.285 OA
ATOM      5  C   UNL     1      75.258  75.868  84.338  1.00  0.00     0.111 A 
ATOM      6  C   UNL     1      75.481  76.546  85.573  1.00  0.00     0.134 A 
ATOM      7  C   UNL     1      74.395  76.825  86.413  1.00  0.00     0.093 A 
ATOM      8  C   UNL     1      73.091  76.512  86.032  1.00  0.00     0.123 A 
ATOM      9  C   UNL     1      72.857  75.901  84.799  1.00  0.00     0.094 A 
ATOM     10  C   UNL     1      73.922  75.577  83.956  1.00  0.00     0.146 A 
ATOM     11  O   UNL     1      73.657  74.988  82.797  1.00  0.00    -0.452 OA
ENDROOT
BRANCH   1  12
ATOM     12  C   UNL     1      74.164  73.993  80.661  1.00  0.00     0.025 A 
ATOM     13  C   UNL     1      74.280  72.608  80.449  1.00  0.00     0.016 A 
ATOM     14  C   UNL     1      73.890  72.043  79.232  1.00  0.00     0.051 A 
ATOM     15  C   UNL     1      73.393  72.851  78.205  1.00  0.00     0.157 A 
ATOM     16  C   UNL     1      73.684  74.804  79.619  1.00  0.00     0.062 A 
ATOM     17  C   UNL     1      73.291  74.239  78.398  1.00  0.00     0.158 A 
BRANCH  15  18
ATOM     18  O   UNL     1      73.009  72.260  77.002  1.00  0.00    -0.504 OA
ATOM     19  H   UNL     1      72.779  71.275  76.935  1.00  0.00     0.293 HD
ENDBRANCH  15  18
BRANCH  17  20
ATOM     20  O   UNL     1      72.803  75.052  77.375  1.00  0.00    -0.504 OA
ATOM     21  H   UNL     1      71.814  75.099  77.159  1.00  0.00     0.293 HD
ENDBRANCH  17  20
ENDBRANCH   1  12
BRANCH   2  22
ATOM     22  O   UNL     1      76.947  74.330  81.395  1.00  0.00    -0.502 OA
ATOM     23  H   UNL     1      77.222  73.356  81.360  1.00  0.00     0.293 HD
ENDBRANCH   2  22
BRANCH   6  24
ATOM     24  O   UNL     1      76.734  76.987  86.006  1.00  0.00    -0.507 OA
ATOM     25  H   UNL     1      77.046  77.946  85.981  1.00  0.00     0.293 HD
ENDBRANCH   6  24
BRANCH   8  26
ATOM     26  O   UNL     1      72.033  76.819  86.886  1.00  0.00    -0.508 OA
ATOM     27  H   UNL     1      71.356  76.118  87.163  1.00  0.00     0.293 HD
ENDBRANCH   8  26
TORSDOF 6
ENDMDL
MODEL 8
REMARK VINA RESULT:    -3.781      3.647      4.296
REMARK INTER + INTRA:          -4.878
REMARK INTER:                  -4.543
REMARK INTRA:                  -0.334
REMARK UNBOUND:                -0.323
REMARK SMILES O=c1c(O)c(-c2ccc(O)c(O)c2)oc2cc(O)cc(O)c12
REMARK SMILES IDX 5 1 3 2 2 3 1 4 22 5 20 6 19 7 17 8 16 9 15 10 14 11 6 12
REMARK SMILES IDX 7 13 8 14 9 15 13 16 11 17 10 18 12 20 4 22 21 24 18 26
REMARK H PARENT 10 19 12 21 4 23 21 25 18 27
REMARK Flexibility Score: inf
ROOT
ATOM      1  C   UNL     1      75.686  73.583  78.155  1.00  0.00     0.180 A 
ATOM      2  C   UNL     1      74.309  73.557  78.436  1.00  0.00     0.208 A 
ATOM      3  C   UNL     1      73.879  73.756  79.757  1.00  0.00     0.238 A 
ATOM      4  O   UNL     1      72.643  73.786  79.993  1.00  0.00    -0.285 OA
ATOM      5  C   UNL     1      74.831  73.961  80.785  1.00  0.00     0.111 A 
ATOM      6  C   UNL     1      74.511  74.133  82.164  1.00  0.00     0.134 A 
ATOM      7  C   UNL     1      75.525  74.459  83.074  1.00  0.00     0.093 A 
ATOM      8  C   UNL     1      76.855  74.555  82.666  1.00  0.00     0.123 A 
ATOM      9  C   UNL     1      77.187  74.330  81.329  1.00  0.00     0.094 A 
ATOM     10  C   UNL     1      76.194  74.038  80.392  1.00  0.00     0.146 A 
ATOM     11  O   UNL     1      76.551  73.842  79.129  1.00  0.00    -0.452 OA
ENDROOT
BRANCH   1  12
ATOM     12  C   UNL     1      76.217  73.357  76.792  1.00  0.00     0.025 A 
ATOM     13  C   UNL     1      76.509  72.063  76.325  1.00  0.00     0.016 A 
ATOM     14  C   UNL     1      77.032  71.875  75.042  1.00  0.00     0.051 A 
ATOM     15  C   UNL     1      77.284  72.972  74.214  1.00  0.00     0.157 A 
ATOM     16  C   UNL     1      76.492  74.459  75.965  1.00  0.00     0.062 A 
ATOM     17  C   UNL     1      77.016  74.272  74.677  1.00  0.00     0.158 A 
BRANCH  15  18
ATOM     18  O   UNL     1      77.804  72.754  72.939  1.00  0.00    -0.504 OA
ATOM     19  H   UNL     1      77.874  71.827  72.537  1.00  0.00     0.293 HD
ENDBRANCH  15  18
BRANCH  17  20
ATOM     20  O   UNL     1      77.272  75.372  73.859  1.00  0.00    -0.504 OA
ATOM     21  H   UNL     1      76.922  75.421  72.909  1.00  0.00     0.293 HD
ENDBRANCH  17  20
ENDBRANCH   1  12
BRANCH   2  22
ATOM     22  O   UNL     1      73.384  73.375  77.403  1.00  0.00    -0.502 OA
ATOM     23  H   UNL     1      72.435  73.722  77.455  1.00  0.00     0.293 HD
ENDBRANCH   2  22
BRANCH   6  24
ATOM     24  O   UNL     1      73.228  73.968  82.693  1.00  0.00    -0.507 OA
ATOM     25  H   UNL     1      72.779  74.614  83.325  1.00  0.00     0.293 HD
ENDBRANCH   6  24
BRANCH   8  26
ATOM     26  O   UNL     1      77.840  74.866  83.601  1.00  0.00    -0.508 OA
ATOM     27  H   UNL     1      78.382  75.719  83.535  1.00  0.00     0.293 HD
ENDBRANCH   8  26
TORSDOF 6
ENDMDL
MODEL 9
REMARK VINA RESULT:    -3.742     14.607     15.879
REMARK INTER + INTRA:          -4.831
REMARK INTER:                  -4.520
REMARK INTRA:                  -0.311
REMARK UNBOUND:                -0.323
REMARK SMILES O=c1c(O)c(-c2ccc(O)c(O)c2)oc2cc(O)cc(O)c12
REMARK SMILES IDX 5 1 3 2 2 3 1 4 22 5 20 6 19 7 17 8 16 9 15 10 14 11 6 12
REMARK SMILES IDX 7 13 8 14 9 15 13 16 11 17 10 18 12 20 4 22 21 24 18 26
REMARK H PARENT 10 19 12 21 4 23 21 25 18 27
REMARK Flexibility Score: inf
ROOT
ATOM      1  C   UNL     1      76.547  90.767  78.343  1.00  0.00     0.180 A 
ATOM      2  C   UNL     1      75.804  90.290  79.436  1.00  0.00     0.208 A 
ATOM      3  C   UNL     1      76.416  90.218  80.697  1.00  0.00     0.238 A 
ATOM      4  O   UNL     1      75.729  89.841  81.682  1.00  0.00    -0.285 OA
ATOM      5  C   UNL     1      77.769  90.608  80.847  1.00  0.00     0.111 A 
ATOM      6  C   UNL     1      78.502  90.539  82.069  1.00  0.00     0.134 A 
ATOM      7  C   UNL     1      79.794  91.074  82.131  1.00  0.00     0.093 A 
ATOM      8  C   UNL     1      80.404  91.615  81.000  1.00  0.00     0.123 A 
ATOM      9  C   UNL     1      79.718  91.634  79.785  1.00  0.00     0.094 A 
ATOM     10  C   UNL     1      78.415  91.141  79.700  1.00  0.00     0.146 A 
ATOM     11  O   UNL     1      77.793  91.187  78.528  1.00  0.00    -0.452 OA
ENDROOT
BRANCH   1  12
ATOM     12  C   UNL     1      75.978  90.849  76.978  1.00  0.00     0.025 A 
ATOM     13  C   UNL     1      75.400  92.036  76.496  1.00  0.00     0.016 A 
ATOM     14  C   UNL     1      74.848  92.084  75.213  1.00  0.00     0.051 A 
ATOM     15  C   UNL     1      74.851  90.947  74.400  1.00  0.00     0.157 A 
ATOM     16  C   UNL     1      75.961  89.703  76.166  1.00  0.00     0.062 A 
ATOM     17  C   UNL     1      75.408  89.749  74.878  1.00  0.00     0.158 A 
BRANCH  15  18
ATOM     18  O   UNL     1      74.295  91.025  73.123  1.00  0.00    -0.504 OA
ATOM     19  H   UNL     1      73.992  90.201  72.617  1.00  0.00     0.293 HD
ENDBRANCH  15  18
BRANCH  17  20
ATOM     20  O   UNL     1      75.407  88.609  74.075  1.00  0.00    -0.504 OA
ATOM     21  H   UNL     1      75.193  88.656  73.086  1.00  0.00     0.293 HD
ENDBRANCH  17  20
ENDBRANCH   1  12
BRANCH   2  22
ATOM     22  O   UNL     1      74.462  89.931  79.271  1.00  0.00    -0.502 OA
ATOM     23  H   UNL     1      74.174  89.161  78.679  1.00  0.00     0.293 HD
ENDBRANCH   2  22
BRANCH   6  24
ATOM     24  O   UNL     1      78.020  89.935  83.234  1.00  0.00    -0.507 OA
ATOM     25  H   UNL     1      78.423  90.053  84.151  1.00  0.00     0.293 HD
ENDBRANCH   6  24
BRANCH   8  26
ATOM     26  O   UNL     1      81.698  92.124  81.094  1.00  0.00    -0.508 OA
ATOM     27  H   UNL     1      82.395  91.934  80.382  1.00  0.00     0.293 HD
ENDBRANCH   8  26
TORSDOF 6
ENDMDL
