MODEL 1
REMARK VINA RESULT:    -3.021      0.000      0.000
REMARK INTER + INTRA:          -3.286
REMARK INTER:                  -3.286
REMARK INTRA:                   0.000
REMARK UNBOUND:                 0.000
REMARK SMILES [NH3+]CC(=O)[O-]
REMARK SMILES IDX 2 1 1 2 3 6 4 7 5 8
REMARK H PARENT 1 3 1 4 1 5
REMARK Flexibility Score: inf
ROOT
ATOM      1  C   UNL     1      -6.893   4.194   0.248  1.00  0.00     0.312 C 
ENDROOT
BRANCH   1   2
ATOM      2  N   UNL     1      -5.803   5.140   0.477  1.00  0.00    -0.353 N 
ATOM      3  H   UNL     1      -6.009   6.029  -0.033  1.00  0.00     0.344 HD
ATOM      4  H   UNL     1      -4.904   4.744   0.119  1.00  0.00     0.344 HD
ATOM      5  H   UNL     1      -5.717   5.348   1.499  1.00  0.00     0.344 HD
ENDBRANCH   1   2
BRANCH   1   6
ATOM      6  C   UNL     1      -6.881   3.707  -1.168  1.00  0.00     0.096 C 
ATOM      7  O   UNL     1      -6.015   4.133  -1.977  1.00  0.00    -0.544 OA
ATOM      8  O   UNL     1      -7.858   2.822  -1.607  1.00  0.00    -0.544 OA
ENDBRANCH   1   6
TORSDOF 2
ENDMDL
MODEL 2
REMARK VINA RESULT:    -2.985      4.790      4.875
REMARK INTER + INTRA:          -3.246
REMARK INTER:                  -3.246
REMARK INTRA:                   0.000
REMARK UNBOUND:                 0.000
REMARK SMILES [NH3+]CC(=O)[O-]
REMARK SMILES IDX 2 1 1 2 3 6 4 7 5 8
REMARK H PARENT 1 3 1 4 1 5
REMARK Flexibility Score: inf
ROOT
ATOM      1  C   UNL     1      -5.870   0.225  -0.403  1.00  0.00     0.312 C 
ENDROOT
BRANCH   1   2
ATOM      2  N   UNL     1      -5.085   1.452  -0.525  1.00  0.00    -0.353 N 
ATOM      3  H   UNL     1      -5.243   2.045   0.321  1.00  0.00     0.344 HD
ATOM      4  H   UNL     1      -5.384   1.986  -1.373  1.00  0.00     0.344 HD
ATOM      5  H   UNL     1      -4.067   1.221  -0.592  1.00  0.00     0.344 HD
ENDBRANCH   1   2
BRANCH   1   6
ATOM      6  C   UNL     1      -5.058  -0.966  -0.808  1.00  0.00     0.096 C 
ATOM      7  O   UNL     1      -3.979  -0.811  -1.439  1.00  0.00    -0.544 OA
ATOM      8  O   UNL     1      -5.518  -2.247  -0.534  1.00  0.00    -0.544 OA
ENDBRANCH   1   6
TORSDOF 2
ENDMDL
MODEL 3
REMARK VINA RESULT:    -2.969      1.690      1.732
REMARK INTER + INTRA:          -3.230
REMARK INTER:                  -3.230
REMARK INTRA:                   0.000
REMARK UNBOUND:                 0.000
REMARK SMILES [NH3+]CC(=O)[O-]
REMARK SMILES IDX 2 1 1 2 3 6 4 7 5 8
REMARK H PARENT 1 3 1 4 1 5
REMARK Flexibility Score: inf
ROOT
ATOM      1  C   UNL     1      -6.297   3.922  -1.444  1.00  0.00     0.312 C 
ENDROOT
BRANCH   1   2
ATOM      2  N   UNL     1      -5.926   4.771  -0.313  1.00  0.00    -0.353 N 
ATOM      3  H   UNL     1      -6.401   4.418   0.549  1.00  0.00     0.344 HD
ATOM      4  H   UNL     1      -6.231   5.756  -0.490  1.00  0.00     0.344 HD
ATOM      5  H   UNL     1      -4.891   4.741  -0.167  1.00  0.00     0.344 HD
ENDBRANCH   1   2
BRANCH   1   6
ATOM      6  C   UNL     1      -7.542   3.147  -1.137  1.00  0.00     0.096 C 
ATOM      7  O   UNL     1      -7.474   1.916  -0.881  1.00  0.00    -0.544 OA
ATOM      8  O   UNL     1      -8.780   3.774  -1.185  1.00  0.00    -0.544 OA
ENDBRANCH   1   6
TORSDOF 2
ENDMDL
MODEL 4
REMARK VINA RESULT:    -2.945      1.673      1.687
REMARK INTER + INTRA:          -3.203
REMARK INTER:                  -3.203
REMARK INTRA:                   0.000
REMARK UNBOUND:                 0.000
REMARK SMILES [NH3+]CC(=O)[O-]
REMARK SMILES IDX 2 1 1 2 3 6 4 7 5 8
REMARK H PARENT 1 3 1 4 1 5
REMARK Flexibility Score: inf
ROOT
ATOM      1  C   UNL     1      -6.293   3.946  -1.445  1.00  0.00     0.312 C 
ENDROOT
BRANCH   1   2
ATOM      2  N   UNL     1      -5.931   4.766  -0.291  1.00  0.00    -0.353 N 
ATOM      3  H   UNL     1      -4.913   4.641  -0.088  1.00  0.00     0.344 HD
ATOM      4  H   UNL     1      -6.482   4.469   0.547  1.00  0.00     0.344 HD
ATOM      5  H   UNL     1      -6.114   5.776  -0.496  1.00  0.00     0.344 HD
ENDBRANCH   1   2
BRANCH   1   6
ATOM      6  C   UNL     1      -7.550   3.178  -1.174  1.00  0.00     0.096 C 
ATOM      7  O   UNL     1      -8.666   3.763  -1.192  1.00  0.00    -0.544 OA
ATOM      8  O   UNL     1      -7.485   1.829  -0.851  1.00  0.00    -0.544 OA
ENDBRANCH   1   6
TORSDOF 2
ENDMDL
MODEL 5
REMARK VINA RESULT:    -2.768      5.748      5.833
REMARK INTER + INTRA:          -3.011
REMARK INTER:                  -3.011
REMARK INTRA:                   0.000
REMARK UNBOUND:                 0.000
REMARK SMILES [NH3+]CC(=O)[O-]
REMARK SMILES IDX 2 1 1 2 3 6 4 7 5 8
REMARK H PARENT 1 3 1 4 1 5
REMARK Flexibility Score: inf
ROOT
ATOM      1  C   UNL     1      -5.480  -1.874   0.213  1.00  0.00     0.312 C 
ENDROOT
BRANCH   1   2
ATOM      2  N   UNL     1      -4.504  -2.961   0.178  1.00  0.00    -0.353 N 
ATOM      3  H   UNL     1      -4.626  -3.557   1.028  1.00  0.00     0.344 HD
ATOM      4  H   UNL     1      -3.533  -2.570   0.175  1.00  0.00     0.344 HD
ATOM      5  H   UNL     1      -4.652  -3.549  -0.673  1.00  0.00     0.344 HD
ENDBRANCH   1   2
BRANCH   1   6
ATOM      6  C   UNL     1      -5.046  -0.745  -0.670  1.00  0.00     0.096 C 
ATOM      7  O   UNL     1      -4.068  -0.890  -1.450  1.00  0.00    -0.544 OA
ATOM      8  O   UNL     1      -5.690   0.484  -0.595  1.00  0.00    -0.544 OA
ENDBRANCH   1   6
TORSDOF 2
ENDMDL
MODEL 6
REMARK VINA RESULT:    -2.764      1.764      2.336
REMARK INTER + INTRA:          -3.006
REMARK INTER:                  -3.006
REMARK INTRA:                   0.000
REMARK UNBOUND:                 0.000
REMARK SMILES [NH3+]CC(=O)[O-]
REMARK SMILES IDX 2 1 1 2 3 6 4 7 5 8
REMARK H PARENT 1 3 1 4 1 5
REMARK Flexibility Score: inf
ROOT
ATOM      1  C   UNL     1      -6.686   2.064  -0.459  1.00  0.00     0.312 C 
ENDROOT
BRANCH   1   2
ATOM      2  N   UNL     1      -5.228   1.964  -0.431  1.00  0.00    -0.353 N 
ATOM      3  H   UNL     1      -4.830   2.563  -1.190  1.00  0.00     0.344 HD
ATOM      4  H   UNL     1      -4.934   0.973  -0.593  1.00  0.00     0.344 HD
ATOM      5  H   UNL     1      -4.863   2.296   0.491  1.00  0.00     0.344 HD
ENDBRANCH   1   2
BRANCH   1   6
ATOM      6  C   UNL     1      -7.121   3.218  -1.308  1.00  0.00     0.096 C 
ATOM      7  O   UNL     1      -8.332   3.350  -1.627  1.00  0.00    -0.544 OA
ATOM      8  O   UNL     1      -6.180   4.120  -1.789  1.00  0.00    -0.544 OA
ENDBRANCH   1   6
TORSDOF 2
ENDMDL
MODEL 7
REMARK VINA RESULT:    -2.735      6.021      6.195
REMARK INTER + INTRA:          -2.975
REMARK INTER:                  -2.975
REMARK INTRA:                   0.000
REMARK UNBOUND:                 0.000
REMARK SMILES [NH3+]CC(=O)[O-]
REMARK SMILES IDX 2 1 1 2 3 6 4 7 5 8
REMARK H PARENT 1 3 1 4 1 5
REMARK Flexibility Score: inf
ROOT
ATOM      1  C   UNL     1      -5.938  -1.202   0.614  1.00  0.00     0.312 C 
ENDROOT
BRANCH   1   2
ATOM      2  N   UNL     1      -5.595  -1.217   2.035  1.00  0.00    -0.353 N 
ATOM      3  H   UNL     1      -6.475  -1.270   2.598  1.00  0.00     0.344 HD
ATOM      4  H   UNL     1      -5.083  -0.341   2.288  1.00  0.00     0.344 HD
ATOM      5  H   UNL     1      -5.002  -2.051   2.252  1.00  0.00     0.344 HD
ENDBRANCH   1   2
BRANCH   1   6
ATOM      6  C   UNL     1      -4.809  -1.743  -0.208  1.00  0.00     0.096 C 
ATOM      7  O   UNL     1      -4.381  -2.910  -0.007  1.00  0.00    -0.544 OA
ATOM      8  O   UNL     1      -4.196  -0.939  -1.161  1.00  0.00    -0.544 OA
ENDBRANCH   1   6
TORSDOF 2
ENDMDL
MODEL 8
REMARK VINA RESULT:    -2.698     10.556     10.982
REMARK INTER + INTRA:          -2.934
REMARK INTER:                  -2.934
REMARK INTRA:                   0.000
REMARK UNBOUND:                 0.000
REMARK SMILES [NH3+]CC(=O)[O-]
REMARK SMILES IDX 2 1 1 2 3 6 4 7 5 8
REMARK H PARENT 1 3 1 4 1 5
REMARK Flexibility Score: inf
ROOT
ATOM      1  C   UNL     1      -0.745   4.719   7.179  1.00  0.00     0.312 C 
ENDROOT
BRANCH   1   2
ATOM      2  N   UNL     1      -1.470   3.681   6.449  1.00  0.00    -0.353 N 
ATOM      3  H   UNL     1      -0.806   3.181   5.815  1.00  0.00     0.344 HD
ATOM      4  H   UNL     1      -2.230   4.112   5.873  1.00  0.00     0.344 HD
ATOM      5  H   UNL     1      -1.882   2.992   7.120  1.00  0.00     0.344 HD
ENDBRANCH   1   2
BRANCH   1   6
ATOM      6  C   UNL     1       0.500   4.160   7.796  1.00  0.00     0.096 C 
ATOM      7  O   UNL     1       0.943   4.640   8.873  1.00  0.00    -0.544 OA
ATOM      8  O   UNL     1       1.197   3.143   7.156  1.00  0.00    -0.544 OA
ENDBRANCH   1   6
TORSDOF 2
ENDMDL
MODEL 9
REMARK VINA RESULT:    -2.613     10.946     11.258
REMARK INTER + INTRA:          -2.842
REMARK INTER:                  -2.842
REMARK INTRA:                   0.000
REMARK UNBOUND:                 0.000
REMARK SMILES [NH3+]CC(=O)[O-]
REMARK SMILES IDX 2 1 1 2 3 6 4 7 5 8
REMARK H PARENT 1 3 1 4 1 5
REMARK Flexibility Score: inf
ROOT
ATOM      1  C   UNL     1      -0.513   5.645   7.152  1.00  0.00     0.312 C 
ENDROOT
BRANCH   1   2
ATOM      2  N   UNL     1       0.555   6.638   7.060  1.00  0.00    -0.353 N 
ATOM      3  H   UNL     1       0.210   7.462   6.517  1.00  0.00     0.344 HD
ATOM      4  H   UNL     1       1.383   6.230   6.567  1.00  0.00     0.344 HD
ATOM      5  H   UNL     1       0.834   6.955   8.018  1.00  0.00     0.344 HD
ENDBRANCH   1   2
BRANCH   1   6
ATOM      6  C   UNL     1      -0.183   4.607   8.180  1.00  0.00     0.096 C 
ATOM      7  O   UNL     1      -1.032   4.291   9.056  1.00  0.00    -0.544 OA
ATOM      8  O   UNL     1       1.078   4.027   8.203  1.00  0.00    -0.544 OA
ENDBRANCH   1   6
TORSDOF 2
ENDMDL
