MODEL 1
REMARK VINA RESULT:    -4.850      0.000      0.000
REMARK INTER + INTRA:          -5.299
REMARK INTER:                  -5.275
REMARK INTRA:                  -0.023
REMARK UNBOUND:                -0.023
REMARK SMILES CC1(C)[C@@H]2CC=C(CO)[C@H]1C2
REMARK SMILES IDX 8 1 7 2 1 3 2 4 4 5 3 6 10 7 5 8 11 9 6 10 9 11
REMARK H PARENT 9 12
REMARK Flexibility Score: inf
ROOT
ATOM      1  C   UNL     1      28.011   8.136  18.529  1.00  0.00     0.187 C 
ENDROOT
BRANCH   1   2
ATOM      2  C   UNL     1      27.343   6.805  18.339  1.00  0.00    -0.045 C 
ATOM      3  C   UNL     1      28.847   4.261  18.247  1.00  0.00     0.012 C 
ATOM      4  C   UNL     1      27.556   4.415  19.102  1.00  0.00    -0.026 C 
ATOM      5  C   UNL     1      26.178   4.314  18.393  1.00  0.00    -0.000 C 
ATOM      6  C   UNL     1      27.662   3.459  20.317  1.00  0.00     0.012 C 
ATOM      7  C   UNL     1      27.111   5.842  19.514  1.00  0.00     0.023 C 
ATOM      8  C   UNL     1      26.234   5.011  16.989  1.00  0.00     0.031 C 
ATOM      9  C   UNL     1      25.647   5.383  19.370  1.00  0.00     0.013 C 
ATOM     10  C   UNL     1      26.889   6.401  17.115  1.00  0.00    -0.025 C 
ENDBRANCH   1   2
BRANCH   1  11
ATOM     11  O   UNL     1      27.629   9.003  17.500  1.00  0.00    -0.392 OA
ATOM     12  H   UNL     1      26.750   9.378  17.767  1.00  0.00     0.211 HD
ENDBRANCH   1  11
TORSDOF 2
ENDMDL
MODEL 2
REMARK VINA RESULT:    -4.839      1.189      1.189
REMARK INTER + INTRA:          -5.287
REMARK INTER:                  -5.242
REMARK INTRA:                  -0.045
REMARK UNBOUND:                -0.023
REMARK SMILES CC1(C)[C@@H]2CC=C(CO)[C@H]1C2
REMARK SMILES IDX 8 1 7 2 1 3 2 4 4 5 3 6 10 7 5 8 11 9 6 10 9 11
REMARK H PARENT 9 12
REMARK Flexibility Score: inf
ROOT
ATOM      1  C   UNL     1      27.332   8.231  19.464  1.00  0.00     0.187 C 
ENDROOT
BRANCH   1   2
ATOM      2  C   UNL     1      27.012   6.902  18.843  1.00  0.00    -0.045 C 
ATOM      3  C   UNL     1      29.077   4.868  18.265  1.00  0.00     0.012 C 
ATOM      4  C   UNL     1      27.738   4.494  18.961  1.00  0.00    -0.026 C 
ATOM      5  C   UNL     1      26.468   4.314  18.085  1.00  0.00    -0.000 C 
ATOM      6  C   UNL     1      27.994   3.273  19.880  1.00  0.00     0.012 C 
ATOM      7  C   UNL     1      26.944   5.615  19.680  1.00  0.00     0.023 C 
ATOM      8  C   UNL     1      26.443   5.382  16.937  1.00  0.00     0.031 C 
ATOM      9  C   UNL     1      25.641   4.920  19.237  1.00  0.00     0.013 C 
ATOM     10  C   UNL     1      26.740   6.782  17.510  1.00  0.00    -0.025 C 
ENDBRANCH   1   2
BRANCH   1  11
ATOM     11  O   UNL     1      26.911   8.238  20.798  1.00  0.00    -0.392 OA
ATOM     12  H   UNL     1      25.979   8.578  20.791  1.00  0.00     0.211 HD
ENDBRANCH   1  11
TORSDOF 2
ENDMDL
MODEL 3
REMARK VINA RESULT:    -4.795      2.019      2.975
REMARK INTER + INTRA:          -5.239
REMARK INTER:                  -5.215
REMARK INTRA:                  -0.024
REMARK UNBOUND:                -0.023
REMARK SMILES CC1(C)[C@@H]2CC=C(CO)[C@H]1C2
REMARK SMILES IDX 8 1 7 2 1 3 2 4 4 5 3 6 10 7 5 8 11 9 6 10 9 11
REMARK H PARENT 9 12
REMARK Flexibility Score: inf
ROOT
ATOM      1  C   UNL     1      24.899   5.270  20.633  1.00  0.00     0.187 C 
ENDROOT
BRANCH   1   2
ATOM      2  C   UNL     1      25.833   5.626  19.513  1.00  0.00    -0.045 C 
ATOM      3  C   UNL     1      28.774   5.588  19.809  1.00  0.00     0.012 C 
ATOM      4  C   UNL     1      28.071   4.947  18.579  1.00  0.00    -0.026 C 
ATOM      5  C   UNL     1      27.604   5.874  17.423  1.00  0.00    -0.000 C 
ATOM      6  C   UNL     1      28.950   3.776  18.073  1.00  0.00     0.012 C 
ATOM      7  C   UNL     1      26.577   4.549  18.709  1.00  0.00     0.023 C 
ATOM      8  C   UNL     1      27.032   7.217  17.997  1.00  0.00     0.031 C 
ATOM      9  C   UNL     1      26.384   4.948  17.233  1.00  0.00     0.013 C 
ATOM     10  C   UNL     1      26.042   6.924  19.141  1.00  0.00    -0.025 C 
ENDBRANCH   1   2
BRANCH   1  11
ATOM     11  O   UNL     1      23.727   6.026  20.525  1.00  0.00    -0.392 OA
ATOM     12  H   UNL     1      23.226   5.881  21.368  1.00  0.00     0.211 HD
ENDBRANCH   1  11
TORSDOF 2
ENDMDL
MODEL 4
REMARK VINA RESULT:    -4.637      2.039      2.882
REMARK INTER + INTRA:          -5.067
REMARK INTER:                  -5.024
REMARK INTRA:                  -0.043
REMARK UNBOUND:                -0.023
REMARK SMILES CC1(C)[C@@H]2CC=C(CO)[C@H]1C2
REMARK SMILES IDX 8 1 7 2 1 3 2 4 4 5 3 6 10 7 5 8 11 9 6 10 9 11
REMARK H PARENT 9 12
REMARK Flexibility Score: inf
ROOT
ATOM      1  C   UNL     1      28.138   7.467  21.452  1.00  0.00     0.187 C 
ENDROOT
BRANCH   1   2
ATOM      2  C   UNL     1      27.920   7.445  19.967  1.00  0.00    -0.045 C 
ATOM      3  C   UNL     1      29.132   5.406  18.203  1.00  0.00     0.012 C 
ATOM      4  C   UNL     1      27.632   5.797  18.085  1.00  0.00    -0.026 C 
ATOM      5  C   UNL     1      27.259   7.096  17.320  1.00  0.00    -0.000 C 
ATOM      6  C   UNL     1      26.849   4.565  17.565  1.00  0.00     0.012 C 
ATOM      7  C   UNL     1      26.944   6.457  19.309  1.00  0.00     0.023 C 
ATOM      8  C   UNL     1      28.306   8.225  17.619  1.00  0.00     0.031 C 
ATOM      9  C   UNL     1      26.113   7.310  18.330  1.00  0.00     0.013 C 
ATOM     10  C   UNL     1      28.560   8.321  19.136  1.00  0.00    -0.025 C 
ENDBRANCH   1   2
BRANCH   1  11
ATOM     11  O   UNL     1      26.902   7.472  22.107  1.00  0.00    -0.392 OA
ATOM     12  H   UNL     1      26.239   7.142  21.447  1.00  0.00     0.211 HD
ENDBRANCH   1  11
TORSDOF 2
ENDMDL
MODEL 5
REMARK VINA RESULT:    -4.593      1.864      3.484
REMARK INTER + INTRA:          -5.019
REMARK INTER:                  -4.958
REMARK INTRA:                  -0.061
REMARK UNBOUND:                -0.023
REMARK SMILES CC1(C)[C@@H]2CC=C(CO)[C@H]1C2
REMARK SMILES IDX 8 1 7 2 1 3 2 4 4 5 3 6 10 7 5 8 11 9 6 10 9 11
REMARK H PARENT 9 12
REMARK Flexibility Score: inf
ROOT
ATOM      1  C   UNL     1      25.048   5.031  20.659  1.00  0.00     0.187 C 
ENDROOT
BRANCH   1   2
ATOM      2  C   UNL     1      26.293   4.997  19.821  1.00  0.00    -0.045 C 
ATOM      3  C   UNL     1      26.254   5.369  16.888  1.00  0.00     0.012 C 
ATOM      4  C   UNL     1      27.280   6.113  17.790  1.00  0.00    -0.026 C 
ATOM      5  C   UNL     1      28.540   5.344  18.273  1.00  0.00    -0.000 C 
ATOM      6  C   UNL     1      27.638   7.458  17.111  1.00  0.00     0.012 C 
ATOM      7  C   UNL     1      26.948   6.284  19.296  1.00  0.00     0.023 C 
ATOM      8  C   UNL     1      28.174   3.860  18.622  1.00  0.00     0.031 C 
ATOM      9  C   UNL     1      28.450   6.120  19.603  1.00  0.00     0.013 C 
ATOM     10  C   UNL     1      26.913   3.821  19.508  1.00  0.00    -0.025 C 
ENDBRANCH   1   2
BRANCH   1  11
ATOM     11  O   UNL     1      24.212   6.061  20.215  1.00  0.00    -0.392 OA
ATOM     12  H   UNL     1      23.283   5.746  20.365  1.00  0.00     0.211 HD
ENDBRANCH   1  11
TORSDOF 2
ENDMDL
MODEL 6
REMARK VINA RESULT:    -4.583      1.355      2.093
REMARK INTER + INTRA:          -5.008
REMARK INTER:                  -4.961
REMARK INTRA:                  -0.047
REMARK UNBOUND:                -0.023
REMARK SMILES CC1(C)[C@@H]2CC=C(CO)[C@H]1C2
REMARK SMILES IDX 8 1 7 2 1 3 2 4 4 5 3 6 10 7 5 8 11 9 6 10 9 11
REMARK H PARENT 9 12
REMARK Flexibility Score: inf
ROOT
ATOM      1  C   UNL     1      26.771   7.925  19.068  1.00  0.00     0.187 C 
ENDROOT
BRANCH   1   2
ATOM      2  C   UNL     1      27.174   6.516  18.744  1.00  0.00    -0.045 C 
ATOM      3  C   UNL     1      27.292   4.378  20.782  1.00  0.00     0.012 C 
ATOM      4  C   UNL     1      26.614   4.151  19.401  1.00  0.00    -0.026 C 
ATOM      5  C   UNL     1      27.513   3.847  18.171  1.00  0.00    -0.000 C 
ATOM      6  C   UNL     1      25.490   3.099  19.579  1.00  0.00     0.012 C 
ATOM      7  C   UNL     1      26.137   5.392  18.601  1.00  0.00     0.023 C 
ATOM      8  C   UNL     1      28.825   4.705  18.230  1.00  0.00     0.031 C 
ATOM      9  C   UNL     1      26.524   4.654  17.305  1.00  0.00     0.013 C 
ATOM     10  C   UNL     1      28.481   6.176  18.535  1.00  0.00    -0.025 C 
ENDBRANCH   1   2
BRANCH   1  11
ATOM     11  O   UNL     1      25.378   8.044  18.987  1.00  0.00    -0.392 OA
ATOM     12  H   UNL     1      25.150   7.958  18.026  1.00  0.00     0.211 HD
ENDBRANCH   1  11
TORSDOF 2
ENDMDL
MODEL 7
REMARK VINA RESULT:    -4.582      2.499      4.094
REMARK INTER + INTRA:          -5.007
REMARK INTER:                  -4.958
REMARK INTRA:                  -0.049
REMARK UNBOUND:                -0.023
REMARK SMILES CC1(C)[C@@H]2CC=C(CO)[C@H]1C2
REMARK SMILES IDX 8 1 7 2 1 3 2 4 4 5 3 6 10 7 5 8 11 9 6 10 9 11
REMARK H PARENT 9 12
REMARK Flexibility Score: inf
ROOT
ATOM      1  C   UNL     1      25.235   1.867  18.632  1.00  0.00     0.187 C 
ENDROOT
BRANCH   1   2
ATOM      2  C   UNL     1      25.958   3.065  19.175  1.00  0.00    -0.045 C 
ATOM      3  C   UNL     1      28.427   4.131  17.949  1.00  0.00     0.012 C 
ATOM      4  C   UNL     1      27.254   5.065  18.362  1.00  0.00    -0.026 C 
ATOM      5  C   UNL     1      27.113   5.466  19.856  1.00  0.00    -0.000 C 
ATOM      6  C   UNL     1      27.260   6.297  17.422  1.00  0.00     0.012 C 
ATOM      7  C   UNL     1      25.840   4.447  18.514  1.00  0.00     0.023 C 
ATOM      8  C   UNL     1      27.466   4.251  20.783  1.00  0.00     0.031 C 
ATOM      9  C   UNL     1      25.582   5.425  19.677  1.00  0.00     0.013 C 
ATOM     10  C   UNL     1      26.733   2.985  20.297  1.00  0.00    -0.025 C 
ENDBRANCH   1   2
BRANCH   1  11
ATOM     11  O   UNL     1      24.554   2.221  17.461  1.00  0.00    -0.392 OA
ATOM     12  H   UNL     1      25.147   2.853  16.979  1.00  0.00     0.211 HD
ENDBRANCH   1  11
TORSDOF 2
ENDMDL
MODEL 8
REMARK VINA RESULT:    -4.572      1.139      2.212
REMARK INTER + INTRA:          -4.996
REMARK INTER:                  -4.972
REMARK INTRA:                  -0.024
REMARK UNBOUND:                -0.023
REMARK SMILES CC1(C)[C@@H]2CC=C(CO)[C@H]1C2
REMARK SMILES IDX 8 1 7 2 1 3 2 4 4 5 3 6 10 7 5 8 11 9 6 10 9 11
REMARK H PARENT 9 12
REMARK Flexibility Score: inf
ROOT
ATOM      1  C   UNL     1      28.272   8.715  17.784  1.00  0.00     0.187 C 
ENDROOT
BRANCH   1   2
ATOM      2  C   UNL     1      27.995   7.265  18.054  1.00  0.00    -0.045 C 
ATOM      3  C   UNL     1      27.299   6.245  20.740  1.00  0.00     0.012 C 
ATOM      4  C   UNL     1      26.499   5.821  19.475  1.00  0.00    -0.026 C 
ATOM      5  C   UNL     1      27.090   4.717  18.557  1.00  0.00    -0.000 C 
ATOM      6  C   UNL     1      25.043   5.511  19.903  1.00  0.00     0.012 C 
ATOM      7  C   UNL     1      26.563   6.735  18.223  1.00  0.00     0.023 C 
ATOM      8  C   UNL     1      28.645   4.878  18.440  1.00  0.00     0.031 C 
ATOM      9  C   UNL     1      26.500   5.469  17.347  1.00  0.00     0.013 C 
ATOM     10  C   UNL     1      29.003   6.347  18.136  1.00  0.00    -0.025 C 
ENDBRANCH   1   2
BRANCH   1  11
ATOM     11  O   UNL     1      29.200   8.828  16.742  1.00  0.00    -0.392 OA
ATOM     12  H   UNL     1      29.605   7.929  16.635  1.00  0.00     0.211 HD
ENDBRANCH   1  11
TORSDOF 2
ENDMDL
MODEL 9
REMARK VINA RESULT:    -4.570      2.051      3.690
REMARK INTER + INTRA:          -4.994
REMARK INTER:                  -4.955
REMARK INTRA:                  -0.040
REMARK UNBOUND:                -0.023
REMARK SMILES CC1(C)[C@@H]2CC=C(CO)[C@H]1C2
REMARK SMILES IDX 8 1 7 2 1 3 2 4 4 5 3 6 10 7 5 8 11 9 6 10 9 11
REMARK H PARENT 9 12
REMARK Flexibility Score: inf
ROOT
ATOM      1  C   UNL     1      29.134   3.928  18.764  1.00  0.00     0.187 C 
ENDROOT
BRANCH   1   2
ATOM      2  C   UNL     1      28.051   4.967  18.763  1.00  0.00    -0.045 C 
ATOM      3  C   UNL     1      28.253   7.489  20.292  1.00  0.00     0.012 C 
ATOM      4  C   UNL     1      27.780   7.471  18.811  1.00  0.00    -0.026 C 
ATOM      5  C   UNL     1      26.309   7.081  18.503  1.00  0.00    -0.000 C 
ATOM      6  C   UNL     1      28.178   8.818  18.158  1.00  0.00     0.012 C 
ATOM      7  C   UNL     1      28.166   6.253  17.930  1.00  0.00     0.023 C 
ATOM      8  C   UNL     1      25.842   5.923  19.453  1.00  0.00     0.031 C 
ATOM      9  C   UNL     1      26.807   6.391  17.217  1.00  0.00     0.013 C 
ATOM     10  C   UNL     1      26.901   4.804  19.482  1.00  0.00    -0.025 C 
ENDBRANCH   1   2
BRANCH   1  11
ATOM     11  O   UNL     1      29.183   3.302  17.514  1.00  0.00    -0.392 OA
ATOM     12  H   UNL     1      29.205   4.030  16.841  1.00  0.00     0.211 HD
ENDBRANCH   1  11
TORSDOF 2
ENDMDL
