MODEL 1
REMARK VINA RESULT:     7.853      0.000      0.000
REMARK INTER + INTRA:           7.853
REMARK INTER:                   7.853
REMARK INTRA:                   0.000
REMARK UNBOUND:                 0.000
REMARK SMILES C=C1CCC[C@]2(C)C=C3OC(=O)C(C)=C3C[C@H]12
REMARK SMILES IDX 14 1 13 2 15 3 16 4 17 5 2 6 1 7 3 8 4 9 5 10 6 11 8 12 9 13
REMARK SMILES IDX 10 14 11 15 12 16 7 17
REMARK H PARENT
REMARK Flexibility Score: inf
ROOT
ATOM      1  C   UNL     1       5.123 -12.984  18.609  1.00  0.00     0.053 C 
ATOM      2  C   UNL     1       5.055 -13.654  17.273  1.00  0.00     0.041 C 
ATOM      3  C   UNL     1       4.036 -13.614  16.418  1.00  0.00     0.005 C 
ATOM      4  C   UNL     1       2.713 -12.936  16.560  1.00  0.00     0.049 C 
ATOM      5  C   UNL     1       2.059 -12.779  15.163  1.00  0.00     0.029 C 
ATOM      6  C   UNL     1       0.631 -12.293  15.330  1.00  0.00    -0.073 C 
ATOM      7  C   UNL     1       0.342 -10.984  15.260  1.00  0.00     0.008 C 
ATOM      8  C   UNL     1      -0.434 -13.288  15.737  1.00  0.00     0.031 C 
ATOM      9  C   UNL     1      -0.361 -14.555  14.881  1.00  0.00     0.005 C 
ATOM     10  C   UNL     1       1.065 -15.124  14.810  1.00  0.00     0.012 C 
ATOM     11  C   UNL     1       2.104 -14.094  14.290  1.00  0.00    -0.004 C 
ATOM     12  C   UNL     1       3.481 -14.753  14.327  1.00  0.00     0.027 C 
ATOM     13  C   UNL     1       4.321 -14.526  15.331  1.00  0.00     0.131 C 
ATOM     14  O   UNL     1       5.560 -15.122  15.515  1.00  0.00    -0.423 OA
ATOM     15  C   UNL     1       6.026 -14.599  16.714  1.00  0.00     0.339 C 
ATOM     16  O   UNL     1       7.124 -14.916  17.240  1.00  0.00    -0.246 OA
ATOM     17  C   UNL     1       1.817 -13.736  12.812  1.00  0.00     0.016 C 
ENDROOT
TORSDOF 0
ENDMDL
MODEL 2
REMARK VINA RESULT:     9.992      1.354      2.856
REMARK INTER + INTRA:           9.992
REMARK INTER:                   9.992
REMARK INTRA:                   0.000
REMARK UNBOUND:                 0.000
REMARK SMILES C=C1CCC[C@]2(C)C=C3OC(=O)C(C)=C3C[C@H]12
REMARK SMILES IDX 14 1 13 2 15 3 16 4 17 5 2 6 1 7 3 8 4 9 5 10 6 11 8 12 9 13
REMARK SMILES IDX 10 14 11 15 12 16 7 17
REMARK H PARENT
REMARK Flexibility Score: inf
ROOT
ATOM      1  C   UNL     1       7.032 -14.814  14.681  1.00  0.00     0.053 C 
ATOM      2  C   UNL     1       5.914 -14.853  15.673  1.00  0.00     0.041 C 
ATOM      3  C   UNL     1       4.618 -14.696  15.413  1.00  0.00     0.005 C 
ATOM      4  C   UNL     1       3.946 -14.421  14.108  1.00  0.00     0.049 C 
ATOM      5  C   UNL     1       2.440 -14.776  14.217  1.00  0.00     0.029 C 
ATOM      6  C   UNL     1       1.720 -14.294  12.970  1.00  0.00    -0.073 C 
ATOM      7  C   UNL     1       1.514 -15.125  11.937  1.00  0.00     0.008 C 
ATOM      8  C   UNL     1       1.384 -12.825  12.846  1.00  0.00     0.031 C 
ATOM      9  C   UNL     1       0.722 -12.300  14.123  1.00  0.00     0.005 C 
ATOM     10  C   UNL     1       1.515 -12.679  15.384  1.00  0.00     0.012 C 
ATOM     11  C   UNL     1       1.747 -14.209  15.517  1.00  0.00    -0.004 C 
ATOM     12  C   UNL     1       2.594 -14.450  16.764  1.00  0.00     0.027 C 
ATOM     13  C   UNL     1       3.906 -14.642  16.672  1.00  0.00     0.131 C 
ATOM     14  O   UNL     1       4.789 -14.794  17.731  1.00  0.00    -0.423 OA
ATOM     15  C   UNL     1       6.036 -14.919  17.132  1.00  0.00     0.339 C 
ATOM     16  O   UNL     1       7.112 -15.054  17.771  1.00  0.00    -0.246 OA
ATOM     17  C   UNL     1       0.401 -14.941  15.740  1.00  0.00     0.016 C 
ENDROOT
TORSDOF 0
ENDMDL
MODEL 3
REMARK VINA RESULT:    10.297      1.365      2.876
REMARK INTER + INTRA:          10.297
REMARK INTER:                  10.297
REMARK INTRA:                   0.000
REMARK UNBOUND:                 0.000
REMARK SMILES C=C1CCC[C@]2(C)C=C3OC(=O)C(C)=C3C[C@H]12
REMARK SMILES IDX 14 1 13 2 15 3 16 4 17 5 2 6 1 7 3 8 4 9 5 10 6 11 8 12 9 13
REMARK SMILES IDX 10 14 11 15 12 16 7 17
REMARK H PARENT
REMARK Flexibility Score: inf
ROOT
ATOM      1  C   UNL     1       6.267 -15.100  14.993  1.00  0.00     0.053 C 
ATOM      2  C   UNL     1       5.455 -14.510  16.103  1.00  0.00     0.041 C 
ATOM      3  C   UNL     1       4.171 -14.168  16.048  1.00  0.00     0.005 C 
ATOM      4  C   UNL     1       3.222 -14.248  14.898  1.00  0.00     0.049 C 
ATOM      5  C   UNL     1       1.764 -14.181  15.423  1.00  0.00     0.029 C 
ATOM      6  C   UNL     1       0.814 -14.042  14.246  1.00  0.00    -0.073 C 
ATOM      7  C   UNL     1       0.232 -15.125  13.708  1.00  0.00     0.008 C 
ATOM      8  C   UNL     1       0.660 -12.688  13.591  1.00  0.00     0.031 C 
ATOM      9  C   UNL     1       0.435 -11.591  14.635  1.00  0.00     0.005 C 
ATOM     10  C   UNL     1       1.473 -11.649  15.767  1.00  0.00     0.012 C 
ATOM     11  C   UNL     1       1.522 -13.030  16.476  1.00  0.00    -0.004 C 
ATOM     12  C   UNL     1       2.627 -12.982  17.528  1.00  0.00     0.027 C 
ATOM     13  C   UNL     1       3.830 -13.489  17.281  1.00  0.00     0.131 C 
ATOM     14  O   UNL     1       4.931 -13.438  18.122  1.00  0.00    -0.423 OA
ATOM     15  C   UNL     1       5.947 -14.059  17.407  1.00  0.00     0.339 C 
ATOM     16  O   UNL     1       7.125 -14.192  17.831  1.00  0.00    -0.246 OA
ATOM     17  C   UNL     1       0.196 -13.298  17.229  1.00  0.00     0.016 C 
ENDROOT
TORSDOF 0
ENDMDL
MODEL 4
REMARK VINA RESULT:    10.670      8.996     11.681
REMARK INTER + INTRA:          10.670
REMARK INTER:                  10.670
REMARK INTRA:                   0.000
REMARK UNBOUND:                 0.000
REMARK SMILES C=C1CCC[C@]2(C)C=C3OC(=O)C(C)=C3C[C@H]12
REMARK SMILES IDX 14 1 13 2 15 3 16 4 17 5 2 6 1 7 3 8 4 9 5 10 6 11 8 12 9 13
REMARK SMILES IDX 10 14 11 15 12 16 7 17
REMARK H PARENT
REMARK Flexibility Score: inf
ROOT
ATOM      1  C   UNL     1      -2.100 -14.764   6.144  1.00  0.00     0.053 C 
ATOM      2  C   UNL     1      -1.075 -14.873   5.060  1.00  0.00     0.041 C 
ATOM      3  C   UNL     1       0.242 -14.743   5.200  1.00  0.00     0.005 C 
ATOM      4  C   UNL     1       1.033 -14.435   6.428  1.00  0.00     0.049 C 
ATOM      5  C   UNL     1       2.515 -14.836   6.204  1.00  0.00     0.029 C 
ATOM      6  C   UNL     1       3.353 -14.324   7.362  1.00  0.00    -0.073 C 
ATOM      7  C   UNL     1       3.629 -15.119   8.408  1.00  0.00     0.008 C 
ATOM      8  C   UNL     1       3.734 -12.861   7.395  1.00  0.00     0.031 C 
ATOM      9  C   UNL     1       4.293 -12.406   6.044  1.00  0.00     0.005 C 
ATOM     10  C   UNL     1       3.383 -12.813   4.874  1.00  0.00     0.012 C 
ATOM     11  C   UNL     1       3.104 -14.340   4.826  1.00  0.00    -0.004 C 
ATOM     12  C   UNL     1       2.144 -14.607   3.669  1.00  0.00     0.027 C 
ATOM     13  C   UNL     1       0.841 -14.758   3.882  1.00  0.00     0.131 C 
ATOM     14  O   UNL     1      -0.136 -14.928   2.912  1.00  0.00    -0.423 OA
ATOM     15  C   UNL     1      -1.327 -14.994   3.622  1.00  0.00     0.339 C 
ATOM     16  O   UNL     1      -2.458 -15.125   3.086  1.00  0.00    -0.246 OA
ATOM     17  C   UNL     1       4.406 -15.118   4.517  1.00  0.00     0.016 C 
ENDROOT
TORSDOF 0
ENDMDL
