MODEL 1
REMARK VINA RESULT:    -3.876      0.000      0.000
REMARK INTER + INTRA:          -6.873
REMARK INTER:                  -5.916
REMARK INTRA:                  -0.957
REMARK UNBOUND:                -0.957
REMARK SMILES CCCCCCCCCCC(=O)[O-]
REMARK SMILES IDX 7 1 8 2 9 3 10 4 11 5 12 6 13 7 6 8 5 9 4 10 3 11 2 12 1 13
REMARK H PARENT
REMARK Flexibility Score: inf
ROOT
ATOM      1  C   UNL     1      28.300  33.438  33.531  1.00  0.00     0.000 C 
ENDROOT
BRANCH   1   2
ATOM      2  C   UNL     1      27.536  34.750  33.758  1.00  0.00     0.000 C 
BRANCH   2   3
ATOM      3  C   UNL     1      27.145  35.448  32.442  1.00  0.00     0.006 C 
BRANCH   3   4
ATOM      4  C   UNL     1      27.255  34.557  31.195  1.00  0.00     0.053 C 
BRANCH   4   5
ATOM      5  C   UNL     1      25.924  34.013  30.776  1.00  0.00     0.041 C 
ATOM      6  O   UNL     1      25.345  33.141  31.477  1.00  0.00    -0.550 OA
ATOM      7  O   UNL     1      25.307  34.494  29.627  1.00  0.00    -0.550 OA
ENDBRANCH   4   5
ENDBRANCH   3   4
ENDBRANCH   2   3
ENDBRANCH   1   2
BRANCH   1   8
ATOM      8  C   UNL     1      28.792  32.853  34.864  1.00  0.00     0.000 C 
BRANCH   8   9
ATOM      9  C   UNL     1      27.918  33.276  36.055  1.00  0.00    -0.000 C 
BRANCH   9  10
ATOM     10  C   UNL     1      26.845  32.233  36.403  1.00  0.00    -0.000 C 
BRANCH  10  11
ATOM     11  C   UNL     1      25.649  32.889  37.105  1.00  0.00    -0.000 C 
BRANCH  11  12
ATOM     12  C   UNL     1      24.880  33.801  36.142  1.00  0.00    -0.003 C 
ATOM     13  C   UNL     1      24.385  33.024  34.924  1.00  0.00     0.004 C 
ENDBRANCH  11  12
ENDBRANCH  10  11
ENDBRANCH   9  10
ENDBRANCH   8   9
ENDBRANCH   1   8
TORSDOF 9
ENDMDL
MODEL 2
REMARK VINA RESULT:    -3.838      1.318      2.881
REMARK INTER + INTRA:          -6.814
REMARK INTER:                  -5.833
REMARK INTRA:                  -0.980
REMARK UNBOUND:                -0.957
REMARK SMILES CCCCCCCCCCC(=O)[O-]
REMARK SMILES IDX 7 1 8 2 9 3 10 4 11 5 12 6 13 7 6 8 5 9 4 10 3 11 2 12 1 13
REMARK H PARENT
REMARK Flexibility Score: inf
ROOT
ATOM      1  C   UNL     1      25.485  34.379  35.433  1.00  0.00     0.000 C 
ENDROOT
BRANCH   1   2
ATOM      2  C   UNL     1      26.207  34.004  34.131  1.00  0.00     0.000 C 
BRANCH   2   3
ATOM      3  C   UNL     1      27.024  35.170  33.544  1.00  0.00     0.006 C 
BRANCH   3   4
ATOM      4  C   UNL     1      26.758  35.442  32.055  1.00  0.00     0.053 C 
BRANCH   4   5
ATOM      5  C   UNL     1      27.007  34.230  31.210  1.00  0.00     0.041 C 
ATOM      6  O   UNL     1      28.163  33.737  31.133  1.00  0.00    -0.550 OA
ATOM      7  O   UNL     1      25.954  33.627  30.534  1.00  0.00    -0.550 OA
ENDBRANCH   4   5
ENDBRANCH   3   4
ENDBRANCH   2   3
ENDBRANCH   1   2
BRANCH   1   8
ATOM      8  C   UNL     1      25.125  33.123  36.240  1.00  0.00     0.000 C 
BRANCH   8   9
ATOM      9  C   UNL     1      26.283  32.633  37.125  1.00  0.00    -0.000 C 
BRANCH   9  10
ATOM     10  C   UNL     1      26.933  31.348  36.592  1.00  0.00    -0.000 C 
BRANCH  10  11
ATOM     11  C   UNL     1      28.382  31.604  36.160  1.00  0.00    -0.000 C 
BRANCH  11  12
ATOM     12  C   UNL     1      28.828  33.019  36.544  1.00  0.00    -0.003 C 
ATOM     13  C   UNL     1      29.917  33.528  35.603  1.00  0.00     0.004 C 
ENDBRANCH  11  12
ENDBRANCH  10  11
ENDBRANCH   9  10
ENDBRANCH   8   9
ENDBRANCH   1   8
TORSDOF 9
ENDMDL
MODEL 3
REMARK VINA RESULT:    -3.776      2.712      5.087
REMARK INTER + INTRA:          -6.719
REMARK INTER:                  -5.837
REMARK INTRA:                  -0.882
REMARK UNBOUND:                -0.957
REMARK SMILES CCCCCCCCCCC(=O)[O-]
REMARK SMILES IDX 7 1 8 2 9 3 10 4 11 5 12 6 13 7 6 8 5 9 4 10 3 11 2 12 1 13
REMARK H PARENT
REMARK Flexibility Score: inf
ROOT
ATOM      1  C   UNL     1      25.930  33.574  34.303  1.00  0.00     0.000 C 
ENDROOT
BRANCH   1   2
ATOM      2  C   UNL     1      25.809  33.070  35.748  1.00  0.00     0.000 C 
BRANCH   2   3
ATOM      3  C   UNL     1      27.173  32.725  36.376  1.00  0.00     0.006 C 
BRANCH   3   4
ATOM      4  C   UNL     1      28.001  31.711  35.572  1.00  0.00     0.053 C 
BRANCH   4   5
ATOM      5  C   UNL     1      29.256  32.320  35.025  1.00  0.00     0.041 C 
ATOM      6  O   UNL     1      29.991  31.662  34.243  1.00  0.00    -0.550 OA
ATOM      7  O   UNL     1      29.595  33.627  35.353  1.00  0.00    -0.550 OA
ENDBRANCH   4   5
ENDBRANCH   3   4
ENDBRANCH   2   3
ENDBRANCH   1   2
BRANCH   1   8
ATOM      8  C   UNL     1      26.542  34.982  34.263  1.00  0.00     0.000 C 
BRANCH   8   9
ATOM      9  C   UNL     1      26.986  35.397  32.851  1.00  0.00    -0.000 C 
BRANCH   9  10
ATOM     10  C   UNL     1      27.863  34.334  32.171  1.00  0.00    -0.000 C 
BRANCH  10  11
ATOM     11  C   UNL     1      27.391  34.071  30.735  1.00  0.00    -0.000 C 
BRANCH  11  12
ATOM     12  C   UNL     1      25.915  33.657  30.709  1.00  0.00    -0.003 C 
ATOM     13  C   UNL     1      25.121  34.512  29.724  1.00  0.00     0.004 C 
ENDBRANCH  11  12
ENDBRANCH  10  11
ENDBRANCH   9  10
ENDBRANCH   8   9
ENDBRANCH   1   8
TORSDOF 9
ENDMDL
MODEL 4
REMARK VINA RESULT:    -3.710      2.108      4.695
REMARK INTER + INTRA:          -6.618
REMARK INTER:                  -5.858
REMARK INTRA:                  -0.761
REMARK UNBOUND:                -0.957
REMARK SMILES CCCCCCCCCCC(=O)[O-]
REMARK SMILES IDX 7 1 8 2 9 3 10 4 11 5 12 6 13 7 6 8 5 9 4 10 3 11 2 12 1 13
REMARK H PARENT
REMARK Flexibility Score: inf
ROOT
ATOM      1  C   UNL     1      28.506  33.028  34.091  1.00  0.00     0.000 C 
ENDROOT
BRANCH   1   2
ATOM      2  C   UNL     1      28.625  33.434  35.567  1.00  0.00     0.000 C 
BRANCH   2   3
ATOM      3  C   UNL     1      27.421  32.977  36.411  1.00  0.00     0.006 C 
BRANCH   3   4
ATOM      4  C   UNL     1      26.254  32.404  35.592  1.00  0.00     0.053 C 
BRANCH   4   5
ATOM      5  C   UNL     1      25.085  33.341  35.550  1.00  0.00     0.041 C 
ATOM      6  O   UNL     1      23.971  32.946  35.115  1.00  0.00    -0.550 OA
ATOM      7  O   UNL     1      25.218  34.640  36.025  1.00  0.00    -0.550 OA
ENDBRANCH   4   5
ENDBRANCH   3   4
ENDBRANCH   2   3
ENDBRANCH   1   2
BRANCH   1   8
ATOM      8  C   UNL     1      28.603  34.257  33.175  1.00  0.00     0.000 C 
BRANCH   8   9
ATOM      9  C   UNL     1      27.401  35.203  33.322  1.00  0.00    -0.000 C 
BRANCH   9  10
ATOM     10  C   UNL     1      26.651  35.418  31.999  1.00  0.00    -0.000 C 
BRANCH  10  11
ATOM     11  C   UNL     1      27.092  34.394  30.946  1.00  0.00    -0.000 C 
BRANCH  11  12
ATOM     12  C   UNL     1      25.888  33.626  30.388  1.00  0.00    -0.003 C 
ATOM     13  C   UNL     1      24.936  34.560  29.645  1.00  0.00     0.004 C 
ENDBRANCH  11  12
ENDBRANCH  10  11
ENDBRANCH   9  10
ENDBRANCH   8   9
ENDBRANCH   1   8
TORSDOF 9
ENDMDL
MODEL 5
REMARK VINA RESULT:    -3.661      2.721      5.398
REMARK INTER + INTRA:          -6.545
REMARK INTER:                  -5.857
REMARK INTRA:                  -0.687
REMARK UNBOUND:                -0.957
REMARK SMILES CCCCCCCCCCC(=O)[O-]
REMARK SMILES IDX 7 1 8 2 9 3 10 4 11 5 12 6 13 7 6 8 5 9 4 10 3 11 2 12 1 13
REMARK H PARENT
REMARK Flexibility Score: inf
ROOT
ATOM      1  C   UNL     1      24.814  33.338  35.232  1.00  0.00     0.000 C 
ENDROOT
BRANCH   1   2
ATOM      2  C   UNL     1      25.468  33.313  36.621  1.00  0.00     0.000 C 
BRANCH   2   3
ATOM      3  C   UNL     1      26.606  32.281  36.727  1.00  0.00     0.006 C 
BRANCH   3   4
ATOM      4  C   UNL     1      27.966  32.876  37.125  1.00  0.00     0.053 C 
BRANCH   4   5
ATOM      5  C   UNL     1      29.051  32.484  36.170  1.00  0.00     0.041 C 
ATOM      6  O   UNL     1      29.505  33.321  35.346  1.00  0.00    -0.550 OA
ATOM      7  O   UNL     1      29.585  31.202  36.213  1.00  0.00    -0.550 OA
ENDBRANCH   4   5
ENDBRANCH   3   4
ENDBRANCH   2   3
ENDBRANCH   1   2
BRANCH   1   8
ATOM      8  C   UNL     1      25.877  33.448  34.128  1.00  0.00     0.000 C 
BRANCH   8   9
ATOM      9  C   UNL     1      26.609  34.800  34.142  1.00  0.00    -0.000 C 
BRANCH   9  10
ATOM     10  C   UNL     1      26.613  35.485  32.767  1.00  0.00    -0.000 C 
BRANCH  10  11
ATOM     11  C   UNL     1      27.774  34.976  31.904  1.00  0.00    -0.000 C 
BRANCH  11  12
ATOM     12  C   UNL     1      27.269  34.039  30.800  1.00  0.00    -0.003 C 
ATOM     13  C   UNL     1      25.851  34.408  30.371  1.00  0.00     0.004 C 
ENDBRANCH  11  12
ENDBRANCH  10  11
ENDBRANCH   9  10
ENDBRANCH   8   9
ENDBRANCH   1   8
TORSDOF 9
ENDMDL
MODEL 6
REMARK VINA RESULT:    -3.603      2.594      5.214
REMARK INTER + INTRA:          -6.455
REMARK INTER:                  -5.643
REMARK INTRA:                  -0.813
REMARK UNBOUND:                -0.957
REMARK SMILES CCCCCCCCCCC(=O)[O-]
REMARK SMILES IDX 7 1 8 2 9 3 10 4 11 5 12 6 13 7 6 8 5 9 4 10 3 11 2 12 1 13
REMARK H PARENT
REMARK Flexibility Score: inf
ROOT
ATOM      1  C   UNL     1      25.852  33.287  36.522  1.00  0.00     0.000 C 
ENDROOT
BRANCH   1   2
ATOM      2  C   UNL     1      26.580  32.005  36.095  1.00  0.00     0.000 C 
BRANCH   2   3
ATOM      3  C   UNL     1      27.962  31.853  36.757  1.00  0.00     0.006 C 
BRANCH   3   4
ATOM      4  C   UNL     1      28.776  33.155  36.829  1.00  0.00     0.053 C 
BRANCH   4   5
ATOM      5  C   UNL     1      29.777  33.252  35.718  1.00  0.00     0.041 C 
ATOM      6  O   UNL     1      30.822  33.939  35.864  1.00  0.00    -0.550 OA
ATOM      7  O   UNL     1      29.570  32.555  34.533  1.00  0.00    -0.550 OA
ENDBRANCH   4   5
ENDBRANCH   3   4
ENDBRANCH   2   3
ENDBRANCH   1   2
BRANCH   1   8
ATOM      8  C   UNL     1      25.360  34.071  35.296  1.00  0.00     0.000 C 
BRANCH   8   9
ATOM      9  C   UNL     1      26.250  33.862  34.061  1.00  0.00    -0.000 C 
BRANCH   9  10
ATOM     10  C   UNL     1      27.078  35.107  33.711  1.00  0.00    -0.000 C 
BRANCH  10  11
ATOM     11  C   UNL     1      26.800  35.565  32.274  1.00  0.00    -0.000 C 
BRANCH  11  12
ATOM     12  C   UNL     1      26.914  34.392  31.292  1.00  0.00    -0.003 C 
ATOM     13  C   UNL     1      25.726  34.359  30.334  1.00  0.00     0.004 C 
ENDBRANCH  11  12
ENDBRANCH  10  11
ENDBRANCH   9  10
ENDBRANCH   8   9
ENDBRANCH   1   8
TORSDOF 9
ENDMDL
MODEL 7
REMARK VINA RESULT:    -3.536      3.025      5.275
REMARK INTER + INTRA:          -6.353
REMARK INTER:                  -5.600
REMARK INTRA:                  -0.753
REMARK UNBOUND:                -0.957
REMARK SMILES CCCCCCCCCCC(=O)[O-]
REMARK SMILES IDX 7 1 8 2 9 3 10 4 11 5 12 6 13 7 6 8 5 9 4 10 3 11 2 12 1 13
REMARK H PARENT
REMARK Flexibility Score: inf
ROOT
ATOM      1  C   UNL     1      26.454  32.553  35.216  1.00  0.00     0.000 C 
ENDROOT
BRANCH   1   2
ATOM      2  C   UNL     1      27.571  33.211  36.040  1.00  0.00     0.000 C 
BRANCH   2   3
ATOM      3  C   UNL     1      28.698  32.229  36.410  1.00  0.00     0.006 C 
BRANCH   3   4
ATOM      4  C   UNL     1      28.501  30.805  35.866  1.00  0.00     0.053 C 
BRANCH   4   5
ATOM      5  C   UNL     1      29.508  30.465  34.810  1.00  0.00     0.041 C 
ATOM      6  O   UNL     1      30.358  31.319  34.446  1.00  0.00    -0.550 OA
ATOM      7  O   UNL     1      29.527  29.192  34.253  1.00  0.00    -0.550 OA
ENDBRANCH   4   5
ENDBRANCH   3   4
ENDBRANCH   2   3
ENDBRANCH   1   2
BRANCH   1   8
ATOM      8  C   UNL     1      25.888  33.535  34.179  1.00  0.00     0.000 C 
BRANCH   8   9
ATOM      9  C   UNL     1      26.629  34.881  34.170  1.00  0.00    -0.000 C 
BRANCH   9  10
ATOM     10  C   UNL     1      26.803  35.452  32.755  1.00  0.00    -0.000 C 
BRANCH  10  11
ATOM     11  C   UNL     1      27.925  34.725  32.004  1.00  0.00    -0.000 C 
BRANCH  11  12
ATOM     12  C   UNL     1      27.393  34.061  30.728  1.00  0.00    -0.003 C 
ATOM     13  C   UNL     1      25.922  34.403  30.502  1.00  0.00     0.004 C 
ENDBRANCH  11  12
ENDBRANCH  10  11
ENDBRANCH   9  10
ENDBRANCH   8   9
ENDBRANCH   1   8
TORSDOF 9
ENDMDL
MODEL 8
REMARK VINA RESULT:    -3.431      1.120      2.572
REMARK INTER + INTRA:          -6.193
REMARK INTER:                  -5.897
REMARK INTRA:                  -0.296
REMARK UNBOUND:                -0.957
REMARK SMILES CCCCCCCCCCC(=O)[O-]
REMARK SMILES IDX 7 1 8 2 9 3 10 4 11 5 12 6 13 7 6 8 5 9 4 10 3 11 2 12 1 13
REMARK H PARENT
REMARK Flexibility Score: inf
ROOT
ATOM      1  C   UNL     1      26.618  35.314  34.139  1.00  0.00     0.000 C 
ENDROOT
BRANCH   1   2
ATOM      2  C   UNL     1      26.720  35.653  32.644  1.00  0.00     0.000 C 
BRANCH   2   3
ATOM      3  C   UNL     1      27.937  34.997  31.965  1.00  0.00     0.006 C 
BRANCH   3   4
ATOM      4  C   UNL     1      27.577  33.954  30.894  1.00  0.00     0.053 C 
BRANCH   4   5
ATOM      5  C   UNL     1      26.111  33.946  30.590  1.00  0.00     0.041 C 
ATOM      6  O   UNL     1      25.646  34.692  29.687  1.00  0.00    -0.550 OA
ATOM      7  O   UNL     1      25.262  33.090  31.281  1.00  0.00    -0.550 OA
ENDBRANCH   4   5
ENDBRANCH   3   4
ENDBRANCH   2   3
ENDBRANCH   1   2
BRANCH   1   8
ATOM      8  C   UNL     1      26.132  33.871  34.341  1.00  0.00     0.000 C 
BRANCH   8   9
ATOM      9  C   UNL     1      25.138  33.738  35.506  1.00  0.00    -0.000 C 
BRANCH   9  10
ATOM     10  C   UNL     1      25.707  32.924  36.679  1.00  0.00    -0.000 C 
BRANCH  10  11
ATOM     11  C   UNL     1      27.121  32.421  36.362  1.00  0.00    -0.000 C 
BRANCH  11  12
ATOM     12  C   UNL     1      27.427  31.126  37.124  1.00  0.00    -0.003 C 
ATOM     13  C   UNL     1      28.762  30.531  36.684  1.00  0.00     0.004 C 
ENDBRANCH  11  12
ENDBRANCH  10  11
ENDBRANCH   9  10
ENDBRANCH   8   9
ENDBRANCH   1   8
TORSDOF 9
ENDMDL
