MODEL 1
REMARK VINA RESULT:    -5.681      0.000      0.000
REMARK INTER + INTRA:          -6.409
REMARK INTER:                  -6.346
REMARK INTRA:                  -0.063
REMARK UNBOUND:                -0.063
REMARK SMILES COc1cc2ccc(=O)oc2c(O)c1O
REMARK SMILES IDX 3 1 14 2 12 3 11 4 5 5 4 6 6 7 7 8 8 9 9 10 10 11 2 12 1 13
REMARK SMILES IDX 15 14 13 16
REMARK H PARENT 15 15 13 17
REMARK Flexibility Score: inf
ROOT
ATOM      1  C   UNL     1      26.122 -25.335  -7.023  1.00  0.00     0.165 A 
ATOM      2  C   UNL     1      26.910 -26.195  -6.234  1.00  0.00     0.204 A 
ATOM      3  C   UNL     1      27.241 -25.839  -4.913  1.00  0.00     0.205 A 
ATOM      4  C   UNL     1      26.786 -24.628  -4.379  1.00  0.00     0.184 A 
ATOM      5  C   UNL     1      25.997 -23.764  -5.167  1.00  0.00     0.025 A 
ATOM      6  C   UNL     1      25.668 -24.117  -6.481  1.00  0.00     0.062 A 
ATOM      7  C   UNL     1      25.559 -22.560  -4.603  1.00  0.00     0.020 A 
ATOM      8  C   UNL     1      25.911 -22.251  -3.290  1.00  0.00     0.094 A 
ATOM      9  C   UNL     1      26.696 -23.155  -2.569  1.00  0.00     0.336 A 
ATOM     10  O   UNL     1      27.026 -22.894  -1.382  1.00  0.00    -0.246 OA
ATOM     11  O   UNL     1      27.099 -24.292  -3.129  1.00  0.00    -0.419 OA
ENDROOT
BRANCH   1  12
ATOM     12  O   UNL     1      25.811 -25.721  -8.338  1.00  0.00    -0.493 OA
ATOM     13  C   UNL     1      24.627 -26.415  -8.719  1.00  0.00     0.278 C 
ENDBRANCH   1  12
BRANCH   2  14
ATOM     14  O   UNL     1      27.372 -27.407  -6.750  1.00  0.00    -0.502 OA
ATOM     15  H   UNL     1      27.286 -27.647  -7.730  1.00  0.00     0.293 HD
ENDBRANCH   2  14
BRANCH   3  16
ATOM     16  O   UNL     1      28.021 -26.682  -4.118  1.00  0.00    -0.502 OA
ATOM     17  H   UNL     1      28.238 -27.633  -4.390  1.00  0.00     0.293 HD
ENDBRANCH   3  16
TORSDOF 3
ENDMDL
MODEL 2
REMARK VINA RESULT:    -5.629      9.983     11.283
REMARK INTER + INTRA:          -6.350
REMARK INTER:                  -6.287
REMARK INTRA:                  -0.063
REMARK UNBOUND:                -0.063
REMARK SMILES COc1cc2ccc(=O)oc2c(O)c1O
REMARK SMILES IDX 3 1 14 2 12 3 11 4 5 5 4 6 6 7 7 8 8 9 9 10 10 11 2 12 1 13
REMARK SMILES IDX 15 14 13 16
REMARK H PARENT 15 15 13 17
REMARK Flexibility Score: inf
ROOT
ATOM      1  C   UNL     1      24.467 -13.710  -9.923  1.00  0.00     0.165 A 
ATOM      2  C   UNL     1      23.327 -14.124  -9.208  1.00  0.00     0.204 A 
ATOM      3  C   UNL     1      23.443 -14.551  -7.872  1.00  0.00     0.205 A 
ATOM      4  C   UNL     1      24.696 -14.566  -7.249  1.00  0.00     0.184 A 
ATOM      5  C   UNL     1      25.842 -14.153  -7.961  1.00  0.00     0.025 A 
ATOM      6  C   UNL     1      25.726 -13.728  -9.290  1.00  0.00     0.062 A 
ATOM      7  C   UNL     1      27.079 -14.181  -7.308  1.00  0.00     0.020 A 
ATOM      8  C   UNL     1      27.146 -14.611  -5.984  1.00  0.00     0.094 A 
ATOM      9  C   UNL     1      25.970 -15.006  -5.341  1.00  0.00     0.336 A 
ATOM     10  O   UNL     1      26.008 -15.399  -4.145  1.00  0.00    -0.246 OA
ATOM     11  O   UNL     1      24.806 -14.970  -5.985  1.00  0.00    -0.419 OA
ENDROOT
BRANCH   1  12
ATOM     12  O   UNL     1      24.315 -13.291 -11.255  1.00  0.00    -0.493 OA
ATOM     13  C   UNL     1      24.957 -13.896 -12.372  1.00  0.00     0.278 C 
ENDBRANCH   1  12
BRANCH   2  14
ATOM     14  O   UNL     1      22.069 -14.115  -9.814  1.00  0.00    -0.502 OA
ATOM     15  H   UNL     1      21.217 -14.303  -9.299  1.00  0.00     0.293 HD
ENDBRANCH   2  14
BRANCH   3  16
ATOM     16  O   UNL     1      22.321 -14.963  -7.152  1.00  0.00    -0.502 OA
ATOM     17  H   UNL     1      22.393 -15.385  -6.234  1.00  0.00     0.293 HD
ENDBRANCH   3  16
TORSDOF 3
ENDMDL
MODEL 3
REMARK VINA RESULT:    -5.419      1.828      5.169
REMARK INTER + INTRA:          -6.115
REMARK INTER:                  -6.062
REMARK INTRA:                  -0.054
REMARK UNBOUND:                -0.063
REMARK SMILES COc1cc2ccc(=O)oc2c(O)c1O
REMARK SMILES IDX 3 1 14 2 12 3 11 4 5 5 4 6 6 7 7 8 8 9 9 10 10 11 2 12 1 13
REMARK SMILES IDX 15 14 13 16
REMARK H PARENT 15 15 13 17
REMARK Flexibility Score: inf
ROOT
ATOM      1  C   UNL     1      25.776 -23.780  -5.600  1.00  0.00     0.165 A 
ATOM      2  C   UNL     1      26.581 -24.901  -5.880  1.00  0.00     0.204 A 
ATOM      3  C   UNL     1      26.137 -25.885  -6.784  1.00  0.00     0.205 A 
ATOM      4  C   UNL     1      24.892 -25.751  -7.408  1.00  0.00     0.184 A 
ATOM      5  C   UNL     1      24.081 -24.630  -7.130  1.00  0.00     0.025 A 
ATOM      6  C   UNL     1      24.523 -23.652  -6.231  1.00  0.00     0.062 A 
ATOM      7  C   UNL     1      22.842 -24.528  -7.771  1.00  0.00     0.020 A 
ATOM      8  C   UNL     1      22.445 -25.526  -8.658  1.00  0.00     0.094 A 
ATOM      9  C   UNL     1      23.298 -26.609  -8.885  1.00  0.00     0.336 A 
ATOM     10  O   UNL     1      22.958 -27.522  -9.682  1.00  0.00    -0.246 OA
ATOM     11  O   UNL     1      24.472 -26.682  -8.262  1.00  0.00    -0.419 OA
ENDROOT
BRANCH   1  12
ATOM     12  O   UNL     1      26.249 -22.818  -4.693  1.00  0.00    -0.493 OA
ATOM     13  C   UNL     1      25.445 -22.159  -3.720  1.00  0.00     0.278 C 
ENDBRANCH   1  12
BRANCH   2  14
ATOM     14  O   UNL     1      27.826 -25.050  -5.267  1.00  0.00    -0.502 OA
ATOM     15  H   UNL     1      28.095 -24.517  -4.449  1.00  0.00     0.293 HD
ENDBRANCH   2  14
BRANCH   3  16
ATOM     16  O   UNL     1      26.925 -27.001  -7.071  1.00  0.00    -0.502 OA
ATOM     17  H   UNL     1      26.579 -27.780  -7.619  1.00  0.00     0.293 HD
ENDBRANCH   3  16
TORSDOF 3
ENDMDL
MODEL 4
REMARK VINA RESULT:    -5.361     10.883     12.687
REMARK INTER + INTRA:          -6.051
REMARK INTER:                  -5.983
REMARK INTRA:                  -0.068
REMARK UNBOUND:                -0.063
REMARK SMILES COc1cc2ccc(=O)oc2c(O)c1O
REMARK SMILES IDX 3 1 14 2 12 3 11 4 5 5 4 6 6 7 7 8 8 9 9 10 10 11 2 12 1 13
REMARK SMILES IDX 15 14 13 16
REMARK H PARENT 15 15 13 17
REMARK Flexibility Score: inf
ROOT
ATOM      1  C   UNL     1      25.386 -14.521  -6.628  1.00  0.00     0.165 A 
ATOM      2  C   UNL     1      26.009 -13.496  -7.365  1.00  0.00     0.204 A 
ATOM      3  C   UNL     1      25.238 -12.610  -8.139  1.00  0.00     0.205 A 
ATOM      4  C   UNL     1      23.846 -12.745  -8.179  1.00  0.00     0.184 A 
ATOM      5  C   UNL     1      23.217 -13.772  -7.443  1.00  0.00     0.025 A 
ATOM      6  C   UNL     1      23.984 -14.654  -6.673  1.00  0.00     0.062 A 
ATOM      7  C   UNL     1      21.823 -13.880  -7.506  1.00  0.00     0.020 A 
ATOM      8  C   UNL     1      21.101 -12.979  -8.287  1.00  0.00     0.094 A 
ATOM      9  C   UNL     1      21.790 -11.988  -8.990  1.00  0.00     0.336 A 
ATOM     10  O   UNL     1      21.157 -11.164  -9.701  1.00  0.00    -0.246 OA
ATOM     11  O   UNL     1      23.116 -11.907  -8.913  1.00  0.00    -0.419 OA
ENDROOT
BRANCH   1  12
ATOM     12  O   UNL     1      26.187 -15.389  -5.866  1.00  0.00    -0.493 OA
ATOM     13  C   UNL     1      26.247 -15.393  -4.443  1.00  0.00     0.278 C 
ENDBRANCH   1  12
BRANCH   2  14
ATOM     14  O   UNL     1      27.397 -13.346  -7.335  1.00  0.00    -0.502 OA
ATOM     15  H   UNL     1      28.027 -14.059  -7.682  1.00  0.00     0.293 HD
ENDBRANCH   2  14
BRANCH   3  16
ATOM     16  O   UNL     1      25.843 -11.588  -8.874  1.00  0.00    -0.502 OA
ATOM     17  H   UNL     1      26.832 -11.592  -9.092  1.00  0.00     0.293 HD
ENDBRANCH   3  16
TORSDOF 3
ENDMDL
MODEL 5
REMARK VINA RESULT:    -5.279     17.089     17.752
REMARK INTER + INTRA:          -5.959
REMARK INTER:                  -5.903
REMARK INTRA:                  -0.056
REMARK UNBOUND:                -0.063
REMARK SMILES COc1cc2ccc(=O)oc2c(O)c1O
REMARK SMILES IDX 3 1 14 2 12 3 11 4 5 5 4 6 6 7 7 8 8 9 9 10 10 11 2 12 1 13
REMARK SMILES IDX 15 14 13 16
REMARK H PARENT 15 15 13 17
REMARK Flexibility Score: inf
ROOT
ATOM      1  C   UNL     1      34.544 -10.802 -11.863  1.00  0.00     0.165 A 
ATOM      2  C   UNL     1      33.840 -10.075 -10.884  1.00  0.00     0.204 A 
ATOM      3  C   UNL     1      32.474  -9.789 -11.058  1.00  0.00     0.205 A 
ATOM      4  C   UNL     1      31.809 -10.227 -12.209  1.00  0.00     0.184 A 
ATOM      5  C   UNL     1      32.509 -10.954 -13.194  1.00  0.00     0.025 A 
ATOM      6  C   UNL     1      33.869 -11.239 -13.020  1.00  0.00     0.062 A 
ATOM      7  C   UNL     1      31.814 -11.376 -14.333  1.00  0.00     0.020 A 
ATOM      8  C   UNL     1      30.461 -11.070 -14.462  1.00  0.00     0.094 A 
ATOM      9  C   UNL     1      29.832 -10.344 -13.447  1.00  0.00     0.336 A 
ATOM     10  O   UNL     1      28.609 -10.056 -13.545  1.00  0.00    -0.246 OA
ATOM     11  O   UNL     1      30.515  -9.955 -12.375  1.00  0.00    -0.419 OA
ENDROOT
BRANCH   1  12
ATOM     12  O   UNL     1      35.907 -11.070 -11.657  1.00  0.00    -0.493 OA
ATOM     13  C   UNL     1      36.972 -10.232 -12.096  1.00  0.00     0.278 C 
ENDBRANCH   1  12
BRANCH   2  14
ATOM     14  O   UNL     1      34.488  -9.632  -9.729  1.00  0.00    -0.502 OA
ATOM     15  H   UNL     1      35.426  -9.249  -9.746  1.00  0.00     0.293 HD
ENDBRANCH   2  14
BRANCH   3  16
ATOM     16  O   UNL     1      31.764  -9.070 -10.095  1.00  0.00    -0.502 OA
ATOM     17  H   UNL     1      30.976  -9.466  -9.596  1.00  0.00     0.293 HD
ENDBRANCH   3  16
TORSDOF 3
ENDMDL
MODEL 6
REMARK VINA RESULT:    -5.137     17.222     17.570
REMARK INTER + INTRA:          -5.800
REMARK INTER:                  -5.820
REMARK INTRA:                   0.019
REMARK UNBOUND:                -0.063
REMARK SMILES COc1cc2ccc(=O)oc2c(O)c1O
REMARK SMILES IDX 3 1 14 2 12 3 11 4 5 5 4 6 6 7 7 8 8 9 9 10 10 11 2 12 1 13
REMARK SMILES IDX 15 14 13 16
REMARK H PARENT 15 15 13 17
REMARK Flexibility Score: inf
ROOT
ATOM      1  C   UNL     1      29.736 -10.392 -13.921  1.00  0.00     0.165 A 
ATOM      2  C   UNL     1      29.931  -9.670 -12.728  1.00  0.00     0.204 A 
ATOM      3  C   UNL     1      31.183  -9.686 -12.085  1.00  0.00     0.205 A 
ATOM      4  C   UNL     1      32.240 -10.421 -12.632  1.00  0.00     0.184 A 
ATOM      5  C   UNL     1      32.050 -11.147 -13.826  1.00  0.00     0.025 A 
ATOM      6  C   UNL     1      30.805 -11.131 -14.465  1.00  0.00     0.062 A 
ATOM      7  C   UNL     1      33.128 -11.873 -14.345  1.00  0.00     0.020 A 
ATOM      8  C   UNL     1      34.350 -11.859 -13.674  1.00  0.00     0.094 A 
ATOM      9  C   UNL     1      34.465 -11.118 -12.495  1.00  0.00     0.336 A 
ATOM     10  O   UNL     1      35.560 -11.093 -11.873  1.00  0.00    -0.246 OA
ATOM     11  O   UNL     1      33.425 -10.437 -12.023  1.00  0.00    -0.419 OA
ENDROOT
BRANCH   1  12
ATOM     12  O   UNL     1      28.474 -10.354 -14.536  1.00  0.00    -0.493 OA
ATOM     13  C   UNL     1      27.990  -9.270 -15.323  1.00  0.00     0.278 C 
ENDBRANCH   1  12
BRANCH   2  14
ATOM     14  O   UNL     1      28.887  -8.930 -12.169  1.00  0.00    -0.502 OA
ATOM     15  H   UNL     1      28.027  -9.360 -11.850  1.00  0.00     0.293 HD
ENDBRANCH   2  14
BRANCH   3  16
ATOM     16  O   UNL     1      31.390  -8.974 -10.902  1.00  0.00    -0.502 OA
ATOM     17  H   UNL     1      31.991  -8.160 -10.860  1.00  0.00     0.293 HD
ENDBRANCH   3  16
TORSDOF 3
ENDMDL
MODEL 7
REMARK VINA RESULT:    -4.965      9.990     11.446
REMARK INTER + INTRA:          -5.609
REMARK INTER:                  -5.544
REMARK INTRA:                  -0.065
REMARK UNBOUND:                -0.063
REMARK SMILES COc1cc2ccc(=O)oc2c(O)c1O
REMARK SMILES IDX 3 1 14 2 12 3 11 4 5 5 4 6 6 7 7 8 8 9 9 10 10 11 2 12 1 13
REMARK SMILES IDX 15 14 13 16
REMARK H PARENT 15 15 13 17
REMARK Flexibility Score: inf
ROOT
ATOM      1  C   UNL     1      22.422 -13.964  -8.795  1.00  0.00     0.165 A 
ATOM      2  C   UNL     1      23.594 -13.298  -9.201  1.00  0.00     0.204 A 
ATOM      3  C   UNL     1      24.769 -13.399  -8.433  1.00  0.00     0.205 A 
ATOM      4  C   UNL     1      24.775 -14.163  -7.261  1.00  0.00     0.184 A 
ATOM      5  C   UNL     1      23.603 -14.831  -6.849  1.00  0.00     0.025 A 
ATOM      6  C   UNL     1      22.434 -14.731  -7.613  1.00  0.00     0.062 A 
ATOM      7  C   UNL     1      23.643 -15.586  -5.672  1.00  0.00     0.020 A 
ATOM      8  C   UNL     1      24.830 -15.657  -4.944  1.00  0.00     0.094 A 
ATOM      9  C   UNL     1      25.952 -14.968  -5.411  1.00  0.00     0.336 A 
ATOM     10  O   UNL     1      27.034 -15.019  -4.768  1.00  0.00    -0.246 OA
ATOM     11  O   UNL     1      25.887 -14.258  -6.534  1.00  0.00    -0.419 OA
ENDROOT
BRANCH   1  12
ATOM     12  O   UNL     1      21.267 -13.841  -9.585  1.00  0.00    -0.493 OA
ATOM     13  C   UNL     1      20.876 -14.766 -10.595  1.00  0.00     0.278 C 
ENDBRANCH   1  12
BRANCH   2  14
ATOM     14  O   UNL     1      23.606 -12.532 -10.368  1.00  0.00    -0.502 OA
ATOM     15  H   UNL     1      23.516 -12.944 -11.289  1.00  0.00     0.293 HD
ENDBRANCH   2  14
BRANCH   3  16
ATOM     16  O   UNL     1      25.939 -12.744  -8.824  1.00  0.00    -0.502 OA
ATOM     17  H   UNL     1      26.154 -11.799  -8.529  1.00  0.00     0.293 HD
ENDBRANCH   3  16
TORSDOF 3
ENDMDL
MODEL 8
REMARK VINA RESULT:    -4.886     10.391     12.280
REMARK INTER + INTRA:          -5.520
REMARK INTER:                  -5.471
REMARK INTRA:                  -0.049
REMARK UNBOUND:                -0.063
REMARK SMILES COc1cc2ccc(=O)oc2c(O)c1O
REMARK SMILES IDX 3 1 14 2 12 3 11 4 5 5 4 6 6 7 7 8 8 9 9 10 10 11 2 12 1 13
REMARK SMILES IDX 15 14 13 16
REMARK H PARENT 15 15 13 17
REMARK Flexibility Score: inf
ROOT
ATOM      1  C   UNL     1      25.125 -14.804  -5.960  1.00  0.00     0.165 A 
ATOM      2  C   UNL     1      23.743 -15.014  -6.124  1.00  0.00     0.204 A 
ATOM      3  C   UNL     1      23.033 -14.320  -7.120  1.00  0.00     0.205 A 
ATOM      4  C   UNL     1      23.701 -13.415  -7.953  1.00  0.00     0.184 A 
ATOM      5  C   UNL     1      25.086 -13.200  -7.792  1.00  0.00     0.025 A 
ATOM      6  C   UNL     1      25.792 -13.891  -6.801  1.00  0.00     0.062 A 
ATOM      7  C   UNL     1      25.723 -12.288  -8.641  1.00  0.00     0.020 A 
ATOM      8  C   UNL     1      24.978 -11.623  -9.614  1.00  0.00     0.094 A 
ATOM      9  C   UNL     1      23.610 -11.885  -9.716  1.00  0.00     0.336 A 
ATOM     10  O   UNL     1      22.919 -11.294 -10.588  1.00  0.00    -0.246 OA
ATOM     11  O   UNL     1      23.029 -12.757  -8.896  1.00  0.00    -0.419 OA
ENDROOT
BRANCH   1  12
ATOM     12  O   UNL     1      25.803 -15.514  -4.954  1.00  0.00    -0.493 OA
ATOM     13  C   UNL     1      27.218 -15.653  -4.876  1.00  0.00     0.278 C 
ENDBRANCH   1  12
BRANCH   2  14
ATOM     14  O   UNL     1      23.061 -15.914  -5.302  1.00  0.00    -0.502 OA
ATOM     15  H   UNL     1      23.230 -16.912  -5.332  1.00  0.00     0.293 HD
ENDBRANCH   2  14
BRANCH   3  16
ATOM     16  O   UNL     1      21.662 -14.519  -7.294  1.00  0.00    -0.502 OA
ATOM     17  H   UNL     1      20.970 -13.907  -6.878  1.00  0.00     0.293 HD
ENDBRANCH   3  16
TORSDOF 3
ENDMDL
MODEL 9
REMARK VINA RESULT:    -4.790     10.348     11.931
REMARK INTER + INTRA:          -5.413
REMARK INTER:                  -5.344
REMARK INTRA:                  -0.069
REMARK UNBOUND:                -0.063
REMARK SMILES COc1cc2ccc(=O)oc2c(O)c1O
REMARK SMILES IDX 3 1 14 2 12 3 11 4 5 5 4 6 6 7 7 8 8 9 9 10 10 11 2 12 1 13
REMARK SMILES IDX 15 14 13 16
REMARK H PARENT 15 15 13 17
REMARK Flexibility Score: inf
ROOT
ATOM      1  C   UNL     1      25.026 -14.414  -7.394  1.00  0.00     0.165 A 
ATOM      2  C   UNL     1      23.720 -14.918  -7.241  1.00  0.00     0.204 A 
ATOM      3  C   UNL     1      22.963 -15.278  -8.371  1.00  0.00     0.205 A 
ATOM      4  C   UNL     1      23.507 -15.136  -9.653  1.00  0.00     0.184 A 
ATOM      5  C   UNL     1      24.814 -14.630  -9.810  1.00  0.00     0.025 A 
ATOM      6  C   UNL     1      25.568 -14.271  -8.686  1.00  0.00     0.062 A 
ATOM      7  C   UNL     1      25.328 -14.499 -11.106  1.00  0.00     0.020 A 
ATOM      8  C   UNL     1      24.541 -14.869 -12.195  1.00  0.00     0.094 A 
ATOM      9  C   UNL     1      23.254 -15.362 -11.964  1.00  0.00     0.336 A 
ATOM     10  O   UNL     1      22.526 -15.701 -12.934  1.00  0.00    -0.246 OA
ATOM     11  O   UNL     1      22.790 -15.476 -10.722  1.00  0.00    -0.419 OA
ENDROOT
BRANCH   1  12
ATOM     12  O   UNL     1      25.754 -14.064  -6.244  1.00  0.00    -0.493 OA
ATOM     13  C   UNL     1      26.762 -14.873  -5.647  1.00  0.00     0.278 C 
ENDBRANCH   1  12
BRANCH   2  14
ATOM     14  O   UNL     1      23.162 -15.068  -5.970  1.00  0.00    -0.502 OA
ATOM     15  H   UNL     1      23.126 -14.308  -5.301  1.00  0.00     0.293 HD
ENDBRANCH   2  14
BRANCH   3  16
ATOM     16  O   UNL     1      21.667 -15.780  -8.235  1.00  0.00    -0.502 OA
ATOM     17  H   UNL     1      20.874 -15.182  -8.038  1.00  0.00     0.293 HD
ENDBRANCH   3  16
TORSDOF 3
ENDMDL
