MODEL 1
REMARK VINA RESULT:    -7.126      0.000      0.000
REMARK INTER + INTRA:          -8.655
REMARK INTER:                  -8.376
REMARK INTRA:                  -0.279
REMARK UNBOUND:                -0.279
REMARK SMILES O=c1cc(-c2ccc(O)c(O)c2)oc2cc(O)cc(O)c12
REMARK SMILES IDX 4 1 3 2 2 3 1 4 21 5 19 6 18 7 16 8 15 9 14 10 13 11 5 12
REMARK SMILES IDX 6 13 7 14 8 15 12 16 10 17 9 18 11 20 20 22 17 24
REMARK H PARENT 9 19 11 21 20 23 17 25
REMARK Flexibility Score: inf
ROOT
ATOM      1  C   UNL     1     -12.448 -18.061  24.549  1.00  0.00     0.138 A 
ATOM      2  C   UNL     1     -12.457 -19.135  25.448  1.00  0.00     0.100 A 
ATOM      3  C   UNL     1     -12.358 -18.890  26.818  1.00  0.00     0.197 A 
ATOM      4  O   UNL     1     -12.431 -19.870  27.604  1.00  0.00    -0.289 OA
ATOM      5  C   UNL     1     -12.217 -17.563  27.286  1.00  0.00     0.107 A 
ATOM      6  C   UNL     1     -12.067 -17.196  28.657  1.00  0.00     0.134 A 
ATOM      7  C   UNL     1     -12.052 -15.841  29.012  1.00  0.00     0.093 A 
ATOM      8  C   UNL     1     -12.123 -14.840  28.039  1.00  0.00     0.123 A 
ATOM      9  C   UNL     1     -12.216 -15.189  26.694  1.00  0.00     0.094 A 
ATOM     10  C   UNL     1     -12.266 -16.531  26.311  1.00  0.00     0.146 A 
ATOM     11  O   UNL     1     -12.370 -16.819  25.018  1.00  0.00    -0.456 OA
ENDROOT
BRANCH   1  12
ATOM     12  C   UNL     1     -12.549 -18.265  23.081  1.00  0.00     0.021 A 
ATOM     13  C   UNL     1     -13.401 -17.440  22.325  1.00  0.00     0.016 A 
ATOM     14  C   UNL     1     -13.508 -17.606  20.942  1.00  0.00     0.051 A 
ATOM     15  C   UNL     1     -12.759 -18.594  20.291  1.00  0.00     0.157 A 
ATOM     16  C   UNL     1     -11.790 -19.248  22.416  1.00  0.00     0.062 A 
ATOM     17  C   UNL     1     -11.897 -19.413  21.028  1.00  0.00     0.158 A 
BRANCH  15  18
ATOM     18  O   UNL     1     -12.866 -18.765  18.911  1.00  0.00    -0.504 OA
ATOM     19  H   UNL     1     -12.774 -19.677  18.481  1.00  0.00     0.293 HD
ENDBRANCH  15  18
BRANCH  17  20
ATOM     20  O   UNL     1     -11.146 -20.389  20.374  1.00  0.00    -0.504 OA
ATOM     21  H   UNL     1     -10.565 -21.043  20.885  1.00  0.00     0.293 HD
ENDBRANCH  17  20
ENDBRANCH   1  12
BRANCH   6  22
ATOM     22  O   UNL     1     -11.903 -18.115  29.698  1.00  0.00    -0.507 OA
ATOM     23  H   UNL     1     -11.533 -19.046  29.591  1.00  0.00     0.293 HD
ENDBRANCH   6  22
BRANCH   8  24
ATOM     24  O   UNL     1     -12.093 -13.495  28.400  1.00  0.00    -0.508 OA
ATOM     25  H   UNL     1     -11.277 -13.081  28.836  1.00  0.00     0.293 HD
ENDBRANCH   8  24
TORSDOF 5
ENDMDL
MODEL 2
REMARK VINA RESULT:    -7.011      4.749      7.812
REMARK INTER + INTRA:          -8.519
REMARK INTER:                  -8.224
REMARK INTRA:                  -0.295
REMARK UNBOUND:                -0.279
REMARK SMILES O=c1cc(-c2ccc(O)c(O)c2)oc2cc(O)cc(O)c12
REMARK SMILES IDX 4 1 3 2 2 3 1 4 21 5 19 6 18 7 16 8 15 9 14 10 13 11 5 12
REMARK SMILES IDX 6 13 7 14 8 15 12 16 10 17 9 18 11 20 20 22 17 24
REMARK H PARENT 9 19 11 21 20 23 17 25
REMARK Flexibility Score: inf
ROOT
ATOM      1  C   UNL     1     -10.304 -16.479  18.976  1.00  0.00     0.138 A 
ATOM      2  C   UNL     1     -10.043 -17.610  18.191  1.00  0.00     0.100 A 
ATOM      3  C   UNL     1     -10.635 -18.829  18.519  1.00  0.00     0.197 A 
ATOM      4  O   UNL     1     -10.432 -19.812  17.760  1.00  0.00    -0.289 OA
ATOM      5  C   UNL     1     -11.470 -18.922  19.658  1.00  0.00     0.107 A 
ATOM      6  C   UNL     1     -12.095 -20.121  20.112  1.00  0.00     0.134 A 
ATOM      7  C   UNL     1     -12.993 -20.069  21.186  1.00  0.00     0.093 A 
ATOM      8  C   UNL     1     -13.241 -18.870  21.859  1.00  0.00     0.123 A 
ATOM      9  C   UNL     1     -12.594 -17.704  21.457  1.00  0.00     0.094 A 
ATOM     10  C   UNL     1     -11.719 -17.718  20.369  1.00  0.00     0.146 A 
ATOM     11  O   UNL     1     -11.134 -16.580  20.009  1.00  0.00    -0.456 OA
ENDROOT
BRANCH   1  12
ATOM     12  C   UNL     1      -9.698 -15.157  18.674  1.00  0.00     0.021 A 
ATOM     13  C   UNL     1      -8.347 -15.087  18.289  1.00  0.00     0.016 A 
ATOM     14  C   UNL     1      -7.755 -13.857  17.993  1.00  0.00     0.051 A 
ATOM     15  C   UNL     1      -8.505 -12.677  18.067  1.00  0.00     0.157 A 
ATOM     16  C   UNL     1     -10.449 -13.966  18.734  1.00  0.00     0.062 A 
ATOM     17  C   UNL     1      -9.854 -12.732  18.435  1.00  0.00     0.158 A 
BRANCH  15  18
ATOM     18  O   UNL     1      -7.917 -11.447  17.774  1.00  0.00    -0.504 OA
ATOM     19  H   UNL     1      -6.994 -11.206  18.114  1.00  0.00     0.293 HD
ENDBRANCH  15  18
BRANCH  17  20
ATOM     20  O   UNL     1     -10.601 -11.556  18.498  1.00  0.00    -0.504 OA
ATOM     21  H   UNL     1     -10.157 -10.648  18.553  1.00  0.00     0.293 HD
ENDBRANCH  17  20
ENDBRANCH   1  12
BRANCH   6  22
ATOM     22  O   UNL     1     -11.851 -21.385  19.564  1.00  0.00    -0.507 OA
ATOM     23  H   UNL     1     -12.421 -21.828  18.860  1.00  0.00     0.293 HD
ENDBRANCH   6  22
BRANCH   8  24
ATOM     24  O   UNL     1     -14.125 -18.829  22.936  1.00  0.00    -0.508 OA
ATOM     25  H   UNL     1     -15.069 -19.192  22.860  1.00  0.00     0.293 HD
ENDBRANCH   8  24
TORSDOF 5
ENDMDL
MODEL 3
REMARK VINA RESULT:    -6.910      1.573      3.188
REMARK INTER + INTRA:          -8.400
REMARK INTER:                  -8.134
REMARK INTRA:                  -0.266
REMARK UNBOUND:                -0.279
REMARK SMILES O=c1cc(-c2ccc(O)c(O)c2)oc2cc(O)cc(O)c12
REMARK SMILES IDX 4 1 3 2 2 3 1 4 21 5 19 6 18 7 16 8 15 9 14 10 13 11 5 12
REMARK SMILES IDX 6 13 7 14 8 15 12 16 10 17 9 18 11 20 20 22 17 24
REMARK H PARENT 9 19 11 21 20 23 17 25
REMARK Flexibility Score: inf
ROOT
ATOM      1  C   UNL     1     -12.524 -18.366  24.400  1.00  0.00     0.138 A 
ATOM      2  C   UNL     1     -12.261 -17.046  24.790  1.00  0.00     0.100 A 
ATOM      3  C   UNL     1     -12.451 -16.668  26.119  1.00  0.00     0.197 A 
ATOM      4  O   UNL     1     -12.146 -15.493  26.452  1.00  0.00    -0.289 OA
ATOM      5  C   UNL     1     -12.937 -17.610  27.055  1.00  0.00     0.107 A 
ATOM      6  C   UNL     1     -13.207 -17.328  28.428  1.00  0.00     0.134 A 
ATOM      7  C   UNL     1     -13.577 -18.369  29.288  1.00  0.00     0.093 A 
ATOM      8  C   UNL     1     -13.743 -19.672  28.812  1.00  0.00     0.123 A 
ATOM      9  C   UNL     1     -13.534 -19.948  27.462  1.00  0.00     0.094 A 
ATOM     10  C   UNL     1     -13.133 -18.937  26.587  1.00  0.00     0.146 A 
ATOM     11  O   UNL     1     -12.929 -19.246  25.310  1.00  0.00    -0.456 OA
ENDROOT
BRANCH   1  12
ATOM     12  C   UNL     1     -12.341 -18.821  22.998  1.00  0.00     0.021 A 
ATOM     13  C   UNL     1     -11.170 -19.514  22.643  1.00  0.00     0.016 A 
ATOM     14  C   UNL     1     -10.977 -19.959  21.333  1.00  0.00     0.051 A 
ATOM     15  C   UNL     1     -11.955 -19.728  20.358  1.00  0.00     0.157 A 
ATOM     16  C   UNL     1     -13.326 -18.604  22.014  1.00  0.00     0.062 A 
ATOM     17  C   UNL     1     -13.132 -19.052  20.699  1.00  0.00     0.158 A 
BRANCH  15  18
ATOM     18  O   UNL     1     -11.765 -20.169  19.049  1.00  0.00    -0.504 OA
ATOM     19  H   UNL     1     -11.044 -19.774  18.456  1.00  0.00     0.293 HD
ENDBRANCH  15  18
BRANCH  17  20
ATOM     20  O   UNL     1     -14.108 -18.833  19.729  1.00  0.00    -0.504 OA
ATOM     21  H   UNL     1     -14.574 -19.601  19.260  1.00  0.00     0.293 HD
ENDBRANCH  17  20
ENDBRANCH   1  12
BRANCH   6  22
ATOM     22  O   UNL     1     -13.154 -16.047  28.987  1.00  0.00    -0.507 OA
ATOM     23  H   UNL     1     -12.308 -15.571  29.259  1.00  0.00     0.293 HD
ENDBRANCH   6  22
BRANCH   8  24
ATOM     24  O   UNL     1     -14.125 -20.700  29.671  1.00  0.00    -0.508 OA
ATOM     25  H   UNL     1     -14.164 -21.665  29.360  1.00  0.00     0.293 HD
ENDBRANCH   8  24
TORSDOF 5
ENDMDL
MODEL 4
REMARK VINA RESULT:    -6.293      6.777      8.749
REMARK INTER + INTRA:          -7.675
REMARK INTER:                  -7.371
REMARK INTRA:                  -0.305
REMARK UNBOUND:                -0.279
REMARK SMILES O=c1cc(-c2ccc(O)c(O)c2)oc2cc(O)cc(O)c12
REMARK SMILES IDX 4 1 3 2 2 3 1 4 21 5 19 6 18 7 16 8 15 9 14 10 13 11 5 12
REMARK SMILES IDX 6 13 7 14 8 15 12 16 10 17 9 18 11 20 20 22 17 24
REMARK H PARENT 9 19 11 21 20 23 17 25
REMARK Flexibility Score: inf
ROOT
ATOM      1  C   UNL     1      -9.555 -15.664  18.687  1.00  0.00     0.138 A 
ATOM      2  C   UNL     1      -8.192 -15.387  18.855  1.00  0.00     0.100 A 
ATOM      3  C   UNL     1      -7.726 -14.083  18.682  1.00  0.00     0.197 A 
ATOM      4  O   UNL     1      -6.509 -13.853  18.900  1.00  0.00    -0.289 OA
ATOM      5  C   UNL     1      -8.628 -13.058  18.310  1.00  0.00     0.107 A 
ATOM      6  C   UNL     1      -8.260 -11.701  18.067  1.00  0.00     0.134 A 
ATOM      7  C   UNL     1      -9.257 -10.749  17.816  1.00  0.00     0.093 A 
ATOM      8  C   UNL     1     -10.602 -11.118  17.741  1.00  0.00     0.123 A 
ATOM      9  C   UNL     1     -10.966 -12.450  17.924  1.00  0.00     0.094 A 
ATOM     10  C   UNL     1      -9.999 -13.416  18.208  1.00  0.00     0.146 A 
ATOM     11  O   UNL     1     -10.390 -14.673  18.390  1.00  0.00    -0.456 OA
ENDROOT
BRANCH   1  12
ATOM     12  C   UNL     1     -10.104 -17.033  18.857  1.00  0.00     0.021 A 
ATOM     13  C   UNL     1      -9.497 -17.914  19.770  1.00  0.00     0.016 A 
ATOM     14  C   UNL     1      -9.998 -19.205  19.953  1.00  0.00     0.051 A 
ATOM     15  C   UNL     1     -11.120 -19.635  19.233  1.00  0.00     0.157 A 
ATOM     16  C   UNL     1     -11.240 -17.470  18.146  1.00  0.00     0.062 A 
ATOM     17  C   UNL     1     -11.743 -18.765  18.331  1.00  0.00     0.158 A 
BRANCH  15  18
ATOM     18  O   UNL     1     -11.621 -20.924  19.411  1.00  0.00    -0.504 OA
ATOM     19  H   UNL     1     -11.558 -21.399  20.304  1.00  0.00     0.293 HD
ENDBRANCH  15  18
BRANCH  17  20
ATOM     20  O   UNL     1     -12.866 -19.193  17.624  1.00  0.00    -0.504 OA
ATOM     21  H   UNL     1     -13.627 -18.563  17.404  1.00  0.00     0.293 HD
ENDBRANCH  17  20
ENDBRANCH   1  12
BRANCH   6  22
ATOM     22  O   UNL     1      -6.939 -11.243  18.034  1.00  0.00    -0.507 OA
ATOM     23  H   UNL     1      -6.170 -11.665  18.530  1.00  0.00     0.293 HD
ENDBRANCH   6  22
BRANCH   8  24
ATOM     24  O   UNL     1     -11.586 -10.167  17.477  1.00  0.00    -0.508 OA
ATOM     25  H   UNL     1     -11.946  -9.560  18.206  1.00  0.00     0.293 HD
ENDBRANCH   8  24
TORSDOF 5
ENDMDL
MODEL 5
REMARK VINA RESULT:    -5.725      2.901      7.241
REMARK INTER + INTRA:          -7.008
REMARK INTER:                  -6.712
REMARK INTRA:                  -0.296
REMARK UNBOUND:                -0.279
REMARK SMILES O=c1cc(-c2ccc(O)c(O)c2)oc2cc(O)cc(O)c12
REMARK SMILES IDX 4 1 3 2 2 3 1 4 21 5 19 6 18 7 16 8 15 9 14 10 13 11 5 12
REMARK SMILES IDX 6 13 7 14 8 15 12 16 10 17 9 18 11 20 20 22 17 24
REMARK H PARENT 9 19 11 21 20 23 17 25
REMARK Flexibility Score: inf
ROOT
ATOM      1  C   UNL     1     -12.678 -14.229  27.879  1.00  0.00     0.138 A 
ATOM      2  C   UNL     1     -12.110 -14.767  29.041  1.00  0.00     0.100 A 
ATOM      3  C   UNL     1     -11.794 -16.125  29.090  1.00  0.00     0.197 A 
ATOM      4  O   UNL     1     -11.228 -16.567  30.124  1.00  0.00    -0.289 OA
ATOM      5  C   UNL     1     -12.077 -16.954  27.979  1.00  0.00     0.107 A 
ATOM      6  C   UNL     1     -11.835 -18.359  27.930  1.00  0.00     0.134 A 
ATOM      7  C   UNL     1     -12.048 -19.056  26.734  1.00  0.00     0.093 A 
ATOM      8  C   UNL     1     -12.551 -18.408  25.602  1.00  0.00     0.123 A 
ATOM      9  C   UNL     1     -12.841 -17.046  25.657  1.00  0.00     0.094 A 
ATOM     10  C   UNL     1     -12.607 -16.318  26.824  1.00  0.00     0.146 A 
ATOM     11  O   UNL     1     -12.884 -15.018  26.829  1.00  0.00    -0.456 OA
ENDROOT
BRANCH   1  12
ATOM     12  C   UNL     1     -13.036 -12.792  27.773  1.00  0.00     0.021 A 
ATOM     13  C   UNL     1     -13.751 -12.337  26.650  1.00  0.00     0.016 A 
ATOM     14  C   UNL     1     -14.106 -10.992  26.530  1.00  0.00     0.051 A 
ATOM     15  C   UNL     1     -13.761 -10.079  27.535  1.00  0.00     0.157 A 
ATOM     16  C   UNL     1     -12.704 -11.869  28.785  1.00  0.00     0.062 A 
ATOM     17  C   UNL     1     -13.062 -10.519  28.665  1.00  0.00     0.158 A 
BRANCH  15  18
ATOM     18  O   UNL     1     -14.112  -8.735  27.418  1.00  0.00    -0.504 OA
ATOM     19  H   UNL     1     -13.597  -8.102  26.817  1.00  0.00     0.293 HD
ENDBRANCH  15  18
BRANCH  17  20
ATOM     20  O   UNL     1     -12.730  -9.610  29.668  1.00  0.00    -0.504 OA
ATOM     21  H   UNL     1     -12.137  -9.871  30.447  1.00  0.00     0.293 HD
ENDBRANCH  17  20
ENDBRANCH   1  12
BRANCH   6  22
ATOM     22  O   UNL     1     -11.414 -19.118  29.027  1.00  0.00    -0.507 OA
ATOM     23  H   UNL     1     -11.039 -20.052  28.971  1.00  0.00     0.293 HD
ENDBRANCH   6  22
BRANCH   8  24
ATOM     24  O   UNL     1     -12.774 -19.111  24.420  1.00  0.00    -0.508 OA
ATOM     25  H   UNL     1     -13.337 -18.724  23.672  1.00  0.00     0.293 HD
ENDBRANCH   8  24
TORSDOF 5
ENDMDL
MODEL 6
REMARK VINA RESULT:    -5.502      2.212      7.395
REMARK INTER + INTRA:          -6.745
REMARK INTER:                  -6.476
REMARK INTRA:                  -0.269
REMARK UNBOUND:                -0.279
REMARK SMILES O=c1cc(-c2ccc(O)c(O)c2)oc2cc(O)cc(O)c12
REMARK SMILES IDX 4 1 3 2 2 3 1 4 21 5 19 6 18 7 16 8 15 9 14 10 13 11 5 12
REMARK SMILES IDX 6 13 7 14 8 15 12 16 10 17 9 18 11 20 20 22 17 24
REMARK H PARENT 9 19 11 21 20 23 17 25
REMARK Flexibility Score: inf
ROOT
ATOM      1  C   UNL     1     -12.710 -18.533  22.468  1.00  0.00     0.138 A 
ATOM      2  C   UNL     1     -13.581 -19.341  21.725  1.00  0.00     0.100 A 
ATOM      3  C   UNL     1     -13.363 -19.516  20.358  1.00  0.00     0.197 A 
ATOM      4  O   UNL     1     -14.124 -20.296  19.729  1.00  0.00    -0.289 OA
ATOM      5  C   UNL     1     -12.285 -18.851  19.727  1.00  0.00     0.107 A 
ATOM      6  C   UNL     1     -11.990 -18.921  18.333  1.00  0.00     0.134 A 
ATOM      7  C   UNL     1     -10.829 -18.314  17.840  1.00  0.00     0.093 A 
ATOM      8  C   UNL     1      -9.983 -17.588  18.683  1.00  0.00     0.123 A 
ATOM      9  C   UNL     1     -10.291 -17.468  20.036  1.00  0.00     0.094 A 
ATOM     10  C   UNL     1     -11.424 -18.091  20.563  1.00  0.00     0.146 A 
ATOM     11  O   UNL     1     -11.673 -17.964  21.862  1.00  0.00    -0.456 OA
ENDROOT
BRANCH   1  12
ATOM     12  C   UNL     1     -12.896 -18.312  23.925  1.00  0.00     0.021 A 
ATOM     13  C   UNL     1     -13.924 -17.462  24.370  1.00  0.00     0.016 A 
ATOM     14  C   UNL     1     -14.125 -17.243  25.734  1.00  0.00     0.051 A 
ATOM     15  C   UNL     1     -13.307 -17.877  26.678  1.00  0.00     0.157 A 
ATOM     16  C   UNL     1     -12.086 -18.955  24.881  1.00  0.00     0.062 A 
ATOM     17  C   UNL     1     -12.289 -18.736  26.251  1.00  0.00     0.158 A 
BRANCH  15  18
ATOM     18  O   UNL     1     -13.503 -17.658  28.041  1.00  0.00    -0.504 OA
ATOM     19  H   UNL     1     -12.725 -17.502  28.671  1.00  0.00     0.293 HD
ENDBRANCH  15  18
BRANCH  17  20
ATOM     20  O   UNL     1     -11.483 -19.373  27.194  1.00  0.00    -0.504 OA
ATOM     21  H   UNL     1     -11.668 -19.298  28.187  1.00  0.00     0.293 HD
ENDBRANCH  17  20
ENDBRANCH   1  12
BRANCH   6  22
ATOM     22  O   UNL     1     -12.813 -19.548  17.391  1.00  0.00    -0.507 OA
ATOM     23  H   UNL     1     -13.748 -19.253  17.155  1.00  0.00     0.293 HD
ENDBRANCH   6  22
BRANCH   8  24
ATOM     24  O   UNL     1      -8.836 -16.974  18.183  1.00  0.00    -0.508 OA
ATOM     25  H   UNL     1      -8.426 -16.166  18.638  1.00  0.00     0.293 HD
ENDBRANCH   8  24
TORSDOF 5
ENDMDL
MODEL 7
REMARK VINA RESULT:    -5.462      5.722      8.727
REMARK INTER + INTRA:          -6.698
REMARK INTER:                  -6.424
REMARK INTRA:                  -0.274
REMARK UNBOUND:                -0.279
REMARK SMILES O=c1cc(-c2ccc(O)c(O)c2)oc2cc(O)cc(O)c12
REMARK SMILES IDX 4 1 3 2 2 3 1 4 21 5 19 6 18 7 16 8 15 9 14 10 13 11 5 12
REMARK SMILES IDX 6 13 7 14 8 15 12 16 10 17 9 18 11 20 20 22 17 24
REMARK H PARENT 9 19 11 21 20 23 17 25
REMARK Flexibility Score: inf
ROOT
ATOM      1  C   UNL     1     -10.349 -15.656  19.156  1.00  0.00     0.138 A 
ATOM      2  C   UNL     1     -11.375 -15.634  20.110  1.00  0.00     0.100 A 
ATOM      3  C   UNL     1     -12.169 -16.766  20.297  1.00  0.00     0.197 A 
ATOM      4  O   UNL     1     -13.041 -16.738  21.203  1.00  0.00    -0.289 OA
ATOM      5  C   UNL     1     -11.953 -17.915  19.501  1.00  0.00     0.107 A 
ATOM      6  C   UNL     1     -12.726 -19.112  19.574  1.00  0.00     0.134 A 
ATOM      7  C   UNL     1     -12.346 -20.228  18.817  1.00  0.00     0.093 A 
ATOM      8  C   UNL     1     -11.256 -20.169  17.944  1.00  0.00     0.123 A 
ATOM      9  C   UNL     1     -10.528 -18.987  17.825  1.00  0.00     0.094 A 
ATOM     10  C   UNL     1     -10.862 -17.869  18.592  1.00  0.00     0.146 A 
ATOM     11  O   UNL     1     -10.132 -16.766  18.459  1.00  0.00    -0.456 OA
ENDROOT
BRANCH   1  12
ATOM     12  C   UNL     1      -9.476 -14.479  18.915  1.00  0.00     0.021 A 
ATOM     13  C   UNL     1      -8.079 -14.642  18.912  1.00  0.00     0.016 A 
ATOM     14  C   UNL     1      -7.236 -13.553  18.681  1.00  0.00     0.051 A 
ATOM     15  C   UNL     1      -7.775 -12.283  18.440  1.00  0.00     0.157 A 
ATOM     16  C   UNL     1     -10.010 -13.200  18.659  1.00  0.00     0.062 A 
ATOM     17  C   UNL     1      -9.163 -12.107  18.426  1.00  0.00     0.158 A 
BRANCH  15  18
ATOM     18  O   UNL     1      -6.937 -11.193  18.212  1.00  0.00    -0.504 OA
ATOM     19  H   UNL     1      -5.997 -11.312  17.853  1.00  0.00     0.293 HD
ENDBRANCH  15  18
BRANCH  17  20
ATOM     20  O   UNL     1      -9.696 -10.844  18.176  1.00  0.00    -0.504 OA
ATOM     21  H   UNL     1      -9.611 -10.089  18.846  1.00  0.00     0.293 HD
ENDBRANCH  17  20
ENDBRANCH   1  12
BRANCH   6  22
ATOM     22  O   UNL     1     -13.882 -19.249  20.349  1.00  0.00    -0.507 OA
ATOM     23  H   UNL     1     -14.570 -19.977  20.234  1.00  0.00     0.293 HD
ENDBRANCH   6  22
BRANCH   8  24
ATOM     24  O   UNL     1     -10.894 -21.278  17.183  1.00  0.00    -0.508 OA
ATOM     25  H   UNL     1     -11.063 -21.314  16.184  1.00  0.00     0.293 HD
ENDBRANCH   8  24
TORSDOF 5
ENDMDL
MODEL 8
REMARK VINA RESULT:    -5.121      1.546      7.550
REMARK INTER + INTRA:          -6.298
REMARK INTER:                  -5.981
REMARK INTRA:                  -0.317
REMARK UNBOUND:                -0.279
REMARK SMILES O=c1cc(-c2ccc(O)c(O)c2)oc2cc(O)cc(O)c12
REMARK SMILES IDX 4 1 3 2 2 3 1 4 21 5 19 6 18 7 16 8 15 9 14 10 13 11 5 12
REMARK SMILES IDX 6 13 7 14 8 15 12 16 10 17 9 18 11 20 20 22 17 24
REMARK H PARENT 9 19 11 21 20 23 17 25
REMARK Flexibility Score: inf
ROOT
ATOM      1  C   UNL     1     -12.403 -18.209  23.476  1.00  0.00     0.138 A 
ATOM      2  C   UNL     1     -12.776 -17.276  22.500  1.00  0.00     0.100 A 
ATOM      3  C   UNL     1     -12.891 -17.676  21.168  1.00  0.00     0.197 A 
ATOM      4  O   UNL     1     -13.288 -16.832  20.325  1.00  0.00    -0.289 OA
ATOM      5  C   UNL     1     -12.600 -19.014  20.810  1.00  0.00     0.107 A 
ATOM      6  C   UNL     1     -12.644 -19.526  19.479  1.00  0.00     0.134 A 
ATOM      7  C   UNL     1     -12.448 -20.896  19.258  1.00  0.00     0.093 A 
ATOM      8  C   UNL     1     -12.151 -21.760  20.315  1.00  0.00     0.123 A 
ATOM      9  C   UNL     1     -12.053 -21.260  21.612  1.00  0.00     0.094 A 
ATOM     10  C   UNL     1     -12.276 -19.905  21.867  1.00  0.00     0.146 A 
ATOM     11  O   UNL     1     -12.187 -19.472  23.121  1.00  0.00    -0.456 OA
ENDROOT
BRANCH   1  12
ATOM     12  C   UNL     1     -12.263 -17.836  24.906  1.00  0.00     0.021 A 
ATOM     13  C   UNL     1     -12.387 -16.487  25.284  1.00  0.00     0.016 A 
ATOM     14  C   UNL     1     -12.267 -16.110  26.624  1.00  0.00     0.051 A 
ATOM     15  C   UNL     1     -12.030 -17.076  27.610  1.00  0.00     0.157 A 
ATOM     16  C   UNL     1     -12.037 -18.803  25.906  1.00  0.00     0.062 A 
ATOM     17  C   UNL     1     -11.918 -18.424  27.251  1.00  0.00     0.158 A 
BRANCH  15  18
ATOM     18  O   UNL     1     -11.907 -16.704  28.948  1.00  0.00    -0.504 OA
ATOM     19  H   UNL     1     -12.188 -17.323  29.699  1.00  0.00     0.293 HD
ENDBRANCH  15  18
BRANCH  17  20
ATOM     20  O   UNL     1     -11.692 -19.384  28.236  1.00  0.00    -0.504 OA
ATOM     21  H   UNL     1     -12.428 -20.006  28.550  1.00  0.00     0.293 HD
ENDBRANCH  17  20
ENDBRANCH   1  12
BRANCH   6  22
ATOM     22  O   UNL     1     -12.848 -18.735  18.343  1.00  0.00    -0.507 OA
ATOM     23  H   UNL     1     -12.156 -18.128  17.932  1.00  0.00     0.293 HD
ENDBRANCH   6  22
BRANCH   8  24
ATOM     24  O   UNL     1     -11.944 -23.119  20.086  1.00  0.00    -0.508 OA
ATOM     25  H   UNL     1     -11.374 -23.445  19.313  1.00  0.00     0.293 HD
ENDBRANCH   8  24
TORSDOF 5
ENDMDL
MODEL 9
REMARK VINA RESULT:    -4.563     20.127     21.915
REMARK INTER + INTRA:          -5.642
REMARK INTER:                  -5.353
REMARK INTRA:                  -0.289
REMARK UNBOUND:                -0.279
REMARK SMILES O=c1cc(-c2ccc(O)c(O)c2)oc2cc(O)cc(O)c12
REMARK SMILES IDX 4 1 3 2 2 3 1 4 21 5 19 6 18 7 16 8 15 9 14 10 13 11 5 12
REMARK SMILES IDX 6 13 7 14 8 15 12 16 10 17 9 18 11 20 20 22 17 24
REMARK H PARENT 9 19 11 21 20 23 17 25
REMARK Flexibility Score: inf
ROOT
ATOM      1  C   UNL     1       4.233 -16.092  11.257  1.00  0.00     0.138 A 
ATOM      2  C   UNL     1       5.061 -16.839  12.105  1.00  0.00     0.100 A 
ATOM      3  C   UNL     1       4.737 -18.165  12.393  1.00  0.00     0.197 A 
ATOM      4  O   UNL     1       5.532 -18.829  13.107  1.00  0.00    -0.289 OA
ATOM      5  C   UNL     1       3.561 -18.735  11.853  1.00  0.00     0.107 A 
ATOM      6  C   UNL     1       3.109 -20.064  12.110  1.00  0.00     0.134 A 
ATOM      7  C   UNL     1       1.990 -20.558  11.428  1.00  0.00     0.093 A 
ATOM      8  C   UNL     1       1.271 -19.750  10.543  1.00  0.00     0.123 A 
ATOM      9  C   UNL     1       1.673 -18.434  10.326  1.00  0.00     0.094 A 
ATOM     10  C   UNL     1       2.804 -17.924  10.966  1.00  0.00     0.146 A 
ATOM     11  O   UNL     1       3.162 -16.667  10.719  1.00  0.00    -0.456 OA
ENDROOT
BRANCH   1  12
ATOM     12  C   UNL     1       4.528 -14.677  10.918  1.00  0.00     0.021 A 
ATOM     13  C   UNL     1       5.823 -14.322  10.498  1.00  0.00     0.016 A 
ATOM     14  C   UNL     1       6.125 -12.999  10.167  1.00  0.00     0.051 A 
ATOM     15  C   UNL     1       5.137 -12.010  10.241  1.00  0.00     0.157 A 
ATOM     16  C   UNL     1       3.537 -13.677  10.978  1.00  0.00     0.062 A 
ATOM     17  C   UNL     1       3.840 -12.350  10.645  1.00  0.00     0.158 A 
BRANCH  15  18
ATOM     18  O   UNL     1       5.435 -10.688   9.914  1.00  0.00    -0.504 OA
ATOM     19  H   UNL     1       5.978 -10.454   9.091  1.00  0.00     0.293 HD
ENDBRANCH  15  18
BRANCH  17  20
ATOM     20  O   UNL     1       2.857 -11.364  10.708  1.00  0.00    -0.504 OA
ATOM     21  H   UNL     1       2.817 -10.702  11.473  1.00  0.00     0.293 HD
ENDBRANCH  17  20
ENDBRANCH   1  12
BRANCH   6  22
ATOM     22  O   UNL     1       3.702 -20.925  13.039  1.00  0.00    -0.507 OA
ATOM     23  H   UNL     1       3.936 -20.677  13.988  1.00  0.00     0.293 HD
ENDBRANCH   6  22
BRANCH   8  24
ATOM     24  O   UNL     1       0.151 -20.244   9.879  1.00  0.00    -0.508 OA
ATOM     25  H   UNL     1      -0.626 -19.642   9.629  1.00  0.00     0.293 HD
ENDBRANCH   8  24
TORSDOF 5
ENDMDL
