MODEL 1
REMARK VINA RESULT:    -4.759      0.000      0.000
REMARK INTER + INTRA:          -7.589
REMARK INTER:                  -7.263
REMARK INTRA:                  -0.327
REMARK UNBOUND:                -0.327
REMARK SMILES CC1=CCC[C@H](C)C(=O)C[C@H](C(C)C)C(=O)C1
REMARK SMILES IDX 8 1 9 2 6 3 7 4 5 5 4 6 3 7 2 8 1 9 10 11 11 12 15 13 16 14
REMARK SMILES IDX 17 15 12 17 13 18 14 19
REMARK H PARENT
REMARK Flexibility Score: 70.00
ROOT
ATOM      1  C   UNL     1     118.695 178.544 125.443  1.00  0.00     0.136 C 
ATOM      2  O   UNL     1     119.050 179.712 125.513  1.00  0.00    -0.299 OA
ENDROOT
BRANCH   1   3
ATOM      3  C   UNL     1     119.171 177.706 124.270  1.00  0.00     0.053 C 
ATOM      4  C   UNL     1     119.357 178.575 123.020  1.00  0.00     0.016 C 
BRANCH   3   5
ATOM      5  C   UNL     1     120.460 176.937 124.609  1.00  0.00     0.015 C 
BRANCH   5   6
ATOM      6  C   UNL     1     120.185 175.452 124.908  1.00  0.00     0.028 C 
BRANCH   6   7
ATOM      7  C   UNL     1     120.368 175.158 126.373  1.00  0.00    -0.028 C 
ATOM      8  C   UNL     1     119.377 174.761 127.205  1.00  0.00    -0.070 CG0
ATOM      9  C   UNL     1     119.712 174.567 128.663  1.00  0.00     0.039 C 
ATOM     10  G   UNL     1     117.957 174.490 126.731  1.00  0.00     0.000 G0
ENDBRANCH   6   7
ENDBRANCH   5   6
ENDBRANCH   3   5
ENDBRANCH   1   3
BRANCH   1  11
ATOM     11  C   UNL     1     117.823 177.984 126.544  1.00  0.00     0.087 C 
BRANCH  11  12
ATOM     12  C   UNL     1     116.932 176.811 126.050  1.00  0.00     0.066 C 
BRANCH  12  13
ATOM     13  C   UNL     1     117.002 175.625 127.002  1.00  0.00     0.140 C 
ATOM     14  O   UNL     1     116.239 175.566 127.956  1.00  0.00    -0.299 OA
BRANCH  13  15
ATOM     15  C   UNL     1     117.946 174.475 126.747  1.00  0.00     0.106 CG0
ATOM     16  G   UNL     1     119.361 174.776 127.221  1.00  0.00     0.000 G0
ENDBRANCH  13  15
ENDBRANCH  12  13
BRANCH  12  17
ATOM     17  C   UNL     1     115.447 177.222 125.796  1.00  0.00    -0.006 C 
ATOM     18  C   UNL     1     114.915 178.288 126.772  1.00  0.00     0.008 C 
ATOM     19  C   UNL     1     115.228 177.683 124.346  1.00  0.00     0.008 C 
ENDBRANCH  12  17
ENDBRANCH  11  12
ENDBRANCH   1  11
TORSDOF 1
ENDMDL
MODEL 2
REMARK VINA RESULT:    -4.752      2.383      5.171
REMARK INTER + INTRA:          -7.580
REMARK INTER:                  -7.861
REMARK INTRA:                   0.282
REMARK UNBOUND:                -0.327
REMARK SMILES CC1=CCC[C@H](C)C(=O)C[C@H](C(C)C)C(=O)C1
REMARK SMILES IDX 8 1 9 2 6 3 7 4 5 5 4 6 3 7 2 8 1 9 10 11 11 12 15 13 16 14
REMARK SMILES IDX 17 15 12 17 13 18 14 19
REMARK H PARENT
REMARK Flexibility Score: 70.00
ROOT
ATOM      1  C   UNL     1     118.976 176.843 129.585  1.00  0.00     0.136 C 
ATOM      2  O   UNL     1     119.870 176.819 130.418  1.00  0.00    -0.299 OA
ENDROOT
BRANCH   1   3
ATOM      3  C   UNL     1     117.967 175.709 129.564  1.00  0.00     0.053 C 
ATOM      4  C   UNL     1     117.591 175.287 130.990  1.00  0.00     0.016 C 
BRANCH   3   5
ATOM      5  C   UNL     1     116.716 176.076 128.746  1.00  0.00     0.015 C 
BRANCH   5   6
ATOM      6  C   UNL     1     116.724 175.422 127.353  1.00  0.00     0.028 C 
BRANCH   6   7
ATOM      7  C   UNL     1     115.911 176.232 126.377  1.00  0.00    -0.028 C 
ATOM      8  C   UNL     1     116.436 177.042 125.429  1.00  0.00    -0.070 CG0
ATOM      9  C   UNL     1     115.484 177.834 124.568  1.00  0.00     0.039 C 
ATOM     10  G   UNL     1     117.933 177.173 125.188  1.00  0.00     0.000 G0
ENDBRANCH   6   7
ENDBRANCH   5   6
ENDBRANCH   3   5
ENDBRANCH   1   3
BRANCH   1  11
ATOM     11  C   UNL     1     118.901 178.017 128.635  1.00  0.00     0.087 C 
BRANCH  11  12
ATOM     12  C   UNL     1     119.508 177.687 127.243  1.00  0.00     0.066 C 
BRANCH  12  13
ATOM     13  C   UNL     1     118.596 178.154 126.117  1.00  0.00     0.140 C 
ATOM     14  O   UNL     1     118.439 179.351 125.919  1.00  0.00    -0.299 OA
BRANCH  13  15
ATOM     15  C   UNL     1     117.939 177.165 125.185  1.00  0.00     0.106 CG0
ATOM     16  G   UNL     1     116.445 177.037 125.442  1.00  0.00     0.000 G0
ENDBRANCH  13  15
ENDBRANCH  12  13
BRANCH  12  17
ATOM     17  C   UNL     1     120.952 178.249 127.046  1.00  0.00    -0.006 C 
ATOM     18  C   UNL     1     121.803 178.259 128.329  1.00  0.00     0.008 C 
ATOM     19  C   UNL     1     121.700 177.504 125.928  1.00  0.00     0.008 C 
ENDBRANCH  12  17
ENDBRANCH  11  12
ENDBRANCH   1  11
TORSDOF 1
ENDMDL
MODEL 3
REMARK VINA RESULT:    -4.650      2.651      4.000
REMARK INTER + INTRA:          -7.424
REMARK INTER:                  -7.280
REMARK INTRA:                  -0.144
REMARK UNBOUND:                -0.327
REMARK SMILES CC1=CCC[C@H](C)C(=O)C[C@H](C(C)C)C(=O)C1
REMARK SMILES IDX 8 1 9 2 6 3 7 4 5 5 4 6 3 7 2 8 1 9 10 11 11 12 15 13 16 14
REMARK SMILES IDX 17 15 12 17 13 18 14 19
REMARK H PARENT
REMARK Flexibility Score: 70.00
ROOT
ATOM      1  C   UNL     1     119.168 176.729 128.593  1.00  0.00     0.136 C 
ATOM      2  O   UNL     1     119.718 175.639 128.538  1.00  0.00    -0.299 OA
ENDROOT
BRANCH   1   3
ATOM      3  C   UNL     1     119.931 177.903 129.180  1.00  0.00     0.053 C 
ATOM      4  C   UNL     1     119.698 178.002 130.693  1.00  0.00     0.016 C 
BRANCH   3   5
ATOM      5  C   UNL     1     121.433 177.823 128.854  1.00  0.00     0.015 C 
BRANCH   5   6
ATOM      6  C   UNL     1     121.796 178.642 127.601  1.00  0.00     0.028 C 
BRANCH   6   7
ATOM      7  C   UNL     1     122.003 177.740 126.414  1.00  0.00    -0.028 C 
ATOM      8  C   UNL     1     121.100 177.557 125.423  1.00  0.00    -0.070 CG0
ATOM      9  C   UNL     1     121.435 176.569 124.333  1.00  0.00     0.039 C 
ATOM     10  G   UNL     1     119.781 178.312 125.356  1.00  0.00     0.000 G0
ENDBRANCH   6   7
ENDBRANCH   5   6
ENDBRANCH   3   5
ENDBRANCH   1   3
BRANCH   1  11
ATOM     11  C   UNL     1     117.764 176.862 128.046  1.00  0.00     0.087 C 
BRANCH  11  12
ATOM     12  C   UNL     1     117.680 177.893 126.886  1.00  0.00     0.066 C 
BRANCH  12  13
ATOM     13  C   UNL     1     118.575 177.489 125.722  1.00  0.00     0.140 C 
ATOM     14  O   UNL     1     118.288 176.512 125.046  1.00  0.00    -0.299 OA
BRANCH  13  15
ATOM     15  C   UNL     1     119.773 178.322 125.335  1.00  0.00     0.106 CG0
ATOM     16  G   UNL     1     121.075 177.541 125.439  1.00  0.00     0.000 G0
ENDBRANCH  13  15
ENDBRANCH  12  13
BRANCH  12  17
ATOM     17  C   UNL     1     116.222 178.154 126.390  1.00  0.00    -0.006 C 
ATOM     18  C   UNL     1     115.135 177.503 127.266  1.00  0.00     0.008 C 
ATOM     19  C   UNL     1     115.939 179.657 126.235  1.00  0.00     0.008 C 
ENDBRANCH  12  17
ENDBRANCH  11  12
ENDBRANCH   1  11
TORSDOF 1
ENDMDL
MODEL 4
REMARK VINA RESULT:    -4.531      2.142      4.478
REMARK INTER + INTRA:          -7.241
REMARK INTER:                  -6.991
REMARK INTRA:                  -0.251
REMARK UNBOUND:                -0.327
REMARK SMILES CC1=CCC[C@H](C)C(=O)C[C@H](C(C)C)C(=O)C1
REMARK SMILES IDX 8 1 9 2 6 3 7 4 5 5 4 6 3 7 2 8 1 9 10 11 11 12 15 13 16 14
REMARK SMILES IDX 17 15 12 17 13 18 14 19
REMARK H PARENT
REMARK Flexibility Score: 70.00
ROOT
ATOM      1  C   UNL     1     117.118 175.883 126.650  1.00  0.00     0.136 C 
ATOM      2  O   UNL     1     116.528 174.860 126.334  1.00  0.00    -0.299 OA
ENDROOT
BRANCH   1   3
ATOM      3  C   UNL     1     116.489 176.798 127.685  1.00  0.00     0.053 C 
ATOM      4  C   UNL     1     115.352 177.620 127.068  1.00  0.00     0.016 C 
BRANCH   3   5
ATOM      5  C   UNL     1     116.000 176.011 128.915  1.00  0.00     0.015 C 
BRANCH   5   6
ATOM      6  C   UNL     1     117.166 175.556 129.811  1.00  0.00     0.028 C 
BRANCH   6   7
ATOM      7  C   UNL     1     117.440 174.086 129.627  1.00  0.00    -0.028 C 
ATOM      8  C   UNL     1     118.626 173.572 129.225  1.00  0.00    -0.070 CG0
ATOM      9  C   UNL     1     118.720 172.079 129.030  1.00  0.00     0.039 C 
ATOM     10  G   UNL     1     119.860 174.428 128.981  1.00  0.00     0.000 G0
ENDBRANCH   6   7
ENDBRANCH   5   6
ENDBRANCH   3   5
ENDBRANCH   1   3
BRANCH   1  11
ATOM     11  C   UNL     1     118.460 176.172 126.016  1.00  0.00     0.087 C 
BRANCH  11  12
ATOM     12  C   UNL     1     119.605 176.229 127.063  1.00  0.00     0.066 C 
BRANCH  12  13
ATOM     13  C   UNL     1     119.997 174.833 127.530  1.00  0.00     0.140 C 
ATOM     14  O   UNL     1     120.493 174.045 126.738  1.00  0.00    -0.299 OA
BRANCH  13  15
ATOM     15  C   UNL     1     119.859 174.428 128.977  1.00  0.00     0.106 CG0
ATOM     16  G   UNL     1     118.619 173.580 129.221  1.00  0.00     0.000 G0
ENDBRANCH  13  15
ENDBRANCH  12  13
BRANCH  12  17
ATOM     17  C   UNL     1     120.862 177.013 126.569  1.00  0.00    -0.006 C 
ATOM     18  C   UNL     1     120.882 177.276 125.051  1.00  0.00     0.008 C 
ATOM     19  C   UNL     1     121.039 178.337 127.332  1.00  0.00     0.008 C 
ENDBRANCH  12  17
ENDBRANCH  11  12
ENDBRANCH   1  11
TORSDOF 1
ENDMDL
MODEL 5
REMARK VINA RESULT:    -4.448      2.355      4.025
REMARK INTER + INTRA:          -7.116
REMARK INTER:                  -6.799
REMARK INTRA:                  -0.317
REMARK UNBOUND:                -0.327
REMARK SMILES CC1=CCC[C@H](C)C(=O)C[C@H](C(C)C)C(=O)C1
REMARK SMILES IDX 8 1 9 2 6 3 7 4 5 5 4 6 3 7 2 8 1 9 10 11 11 12 15 13 16 14
REMARK SMILES IDX 17 15 12 17 13 18 14 19
REMARK H PARENT
REMARK Flexibility Score: 70.00
ROOT
ATOM      1  C   UNL     1     119.611 177.059 125.826  1.00  0.00     0.136 C 
ATOM      2  O   UNL     1     119.811 176.709 124.672  1.00  0.00    -0.299 OA
ENDROOT
BRANCH   1   3
ATOM      3  C   UNL     1     118.397 177.919 126.127  1.00  0.00     0.053 C 
ATOM      4  C   UNL     1     118.638 179.371 125.698  1.00  0.00     0.016 C 
BRANCH   3   5
ATOM      5  C   UNL     1     117.123 177.352 125.473  1.00  0.00     0.015 C 
BRANCH   5   6
ATOM      6  C   UNL     1     116.780 175.947 126.001  1.00  0.00     0.028 C 
BRANCH   6   7
ATOM      7  C   UNL     1     116.382 176.003 127.453  1.00  0.00    -0.028 C 
ATOM      8  C   UNL     1     117.033 175.361 128.451  1.00  0.00    -0.070 CG0
ATOM      9  C   UNL     1     116.470 175.468 129.846  1.00  0.00     0.039 C 
ATOM     10  G   UNL     1     118.304 174.555 128.227  1.00  0.00     0.000 G0
ENDBRANCH   6   7
ENDBRANCH   5   6
ENDBRANCH   3   5
ENDBRANCH   1   3
BRANCH   1  11
ATOM     11  C   UNL     1     120.566 176.592 126.901  1.00  0.00     0.087 C 
BRANCH  11  12
ATOM     12  C   UNL     1     119.929 176.648 128.317  1.00  0.00     0.066 C 
BRANCH  12  13
ATOM     13  C   UNL     1     119.535 175.259 128.801  1.00  0.00     0.140 C 
ATOM     14  O   UNL     1     120.175 174.723 129.695  1.00  0.00    -0.299 OA
BRANCH  13  15
ATOM     15  C   UNL     1     118.317 174.559 128.251  1.00  0.00     0.106 CG0
ATOM     16  G   UNL     1     117.045 175.368 128.461  1.00  0.00     0.000 G0
ENDBRANCH  13  15
ENDBRANCH  12  13
BRANCH  12  17
ATOM     17  C   UNL     1     120.829 177.361 129.377  1.00  0.00    -0.006 C 
ATOM     18  C   UNL     1     121.906 178.280 128.769  1.00  0.00     0.008 C 
ATOM     19  C   UNL     1     119.988 178.144 130.398  1.00  0.00     0.008 C 
ENDBRANCH  12  17
ENDBRANCH  11  12
ENDBRANCH   1  11
TORSDOF 1
ENDMDL
MODEL 6
REMARK VINA RESULT:    -4.399      2.130      4.086
REMARK INTER + INTRA:          -7.040
REMARK INTER:                  -6.921
REMARK INTRA:                  -0.119
REMARK UNBOUND:                -0.327
REMARK SMILES CC1=CCC[C@H](C)C(=O)C[C@H](C(C)C)C(=O)C1
REMARK SMILES IDX 8 1 9 2 6 3 7 4 5 5 4 6 3 7 2 8 1 9 10 11 11 12 15 13 16 14
REMARK SMILES IDX 17 15 12 17 13 18 14 19
REMARK H PARENT
REMARK Flexibility Score: 70.00
ROOT
ATOM      1  C   UNL     1     118.113 178.127 125.628  1.00  0.00     0.136 C 
ATOM      2  O   UNL     1     117.701 177.723 124.551  1.00  0.00    -0.299 OA
ENDROOT
BRANCH   1   3
ATOM      3  C   UNL     1     117.106 178.498 126.702  1.00  0.00     0.053 C 
ATOM      4  C   UNL     1     116.249 179.689 126.257  1.00  0.00     0.016 C 
BRANCH   3   5
ATOM      5  C   UNL     1     116.226 177.297 127.094  1.00  0.00     0.015 C 
BRANCH   5   6
ATOM      6  C   UNL     1     116.950 176.342 128.061  1.00  0.00     0.028 C 
BRANCH   6   7
ATOM      7  C   UNL     1     117.069 174.965 127.464  1.00  0.00    -0.028 C 
ATOM      8  C   UNL     1     118.239 174.312 127.268  1.00  0.00    -0.070 CG0
ATOM      9  C   UNL     1     118.192 172.961 126.601  1.00  0.00     0.039 C 
ATOM     10  G   UNL     1     119.583 174.875 127.705  1.00  0.00     0.000 G0
ENDBRANCH   6   7
ENDBRANCH   5   6
ENDBRANCH   3   5
ENDBRANCH   1   3
BRANCH   1  11
ATOM     11  C   UNL     1     119.607 178.208 125.849  1.00  0.00     0.087 C 
BRANCH  11  12
ATOM     12  C   UNL     1     120.064 177.389 127.088  1.00  0.00     0.066 C 
BRANCH  12  13
ATOM     13  C   UNL     1     120.143 175.902 126.768  1.00  0.00     0.140 C 
ATOM     14  O   UNL     1     120.720 175.528 125.757  1.00  0.00    -0.299 OA
BRANCH  13  15
ATOM     15  C   UNL     1     119.589 174.870 127.720  1.00  0.00     0.106 CG0
ATOM     16  G   UNL     1     118.248 174.320 127.255  1.00  0.00     0.000 G0
ENDBRANCH  13  15
ENDBRANCH  12  13
BRANCH  12  17
ATOM     17  C   UNL     1     121.410 177.889 127.702  1.00  0.00    -0.006 C 
ATOM     18  C   UNL     1     121.901 179.232 127.131  1.00  0.00     0.008 C 
ATOM     19  C   UNL     1     121.337 177.967 129.236  1.00  0.00     0.008 C 
ENDBRANCH  12  17
ENDBRANCH  11  12
ENDBRANCH   1  11
TORSDOF 1
ENDMDL
MODEL 7
REMARK VINA RESULT:    -4.374      1.851      4.143
REMARK INTER + INTRA:          -7.002
REMARK INTER:                  -6.777
REMARK INTRA:                  -0.225
REMARK UNBOUND:                -0.327
REMARK SMILES CC1=CCC[C@H](C)C(=O)C[C@H](C(C)C)C(=O)C1
REMARK SMILES IDX 8 1 9 2 6 3 7 4 5 5 4 6 3 7 2 8 1 9 10 11 11 12 15 13 16 14
REMARK SMILES IDX 17 15 12 17 13 18 14 19
REMARK H PARENT
REMARK Flexibility Score: 70.00
ROOT
ATOM      1  C   UNL     1     119.711 176.440 125.955  1.00  0.00     0.136 C 
ATOM      2  O   UNL     1     120.454 176.096 125.047  1.00  0.00    -0.299 OA
ENDROOT
BRANCH   1   3
ATOM      3  C   UNL     1     119.547 177.922 126.242  1.00  0.00     0.053 C 
ATOM      4  C   UNL     1     120.888 178.553 126.635  1.00  0.00     0.016 C 
BRANCH   3   5
ATOM      5  C   UNL     1     118.911 178.663 125.052  1.00  0.00     0.015 C 
BRANCH   5   6
ATOM      6  C   UNL     1     117.719 177.890 124.460  1.00  0.00     0.028 C 
BRANCH   6   7
ATOM      7  C   UNL     1     116.435 178.285 125.139  1.00  0.00    -0.028 C 
ATOM      8  C   UNL     1     115.715 177.474 125.950  1.00  0.00    -0.070 CG0
ATOM      9  C   UNL     1     114.415 178.000 126.505  1.00  0.00     0.039 C 
ATOM     10  G   UNL     1     116.169 176.073 126.333  1.00  0.00     0.000 G0
ENDBRANCH   6   7
ENDBRANCH   5   6
ENDBRANCH   3   5
ENDBRANCH   1   3
BRANCH   1  11
ATOM     11  C   UNL     1     118.969 175.373 126.728  1.00  0.00     0.087 C 
BRANCH  11  12
ATOM     12  C   UNL     1     118.229 175.951 127.966  1.00  0.00     0.066 C 
BRANCH  12  13
ATOM     13  C   UNL     1     116.724 175.997 127.739  1.00  0.00     0.140 C 
ATOM     14  O   UNL     1     115.967 176.045 128.698  1.00  0.00    -0.299 OA
BRANCH  13  15
ATOM     15  C   UNL     1     116.148 176.064 126.346  1.00  0.00     0.106 CG0
ATOM     16  G   UNL     1     115.712 177.473 125.972  1.00  0.00     0.000 G0
ENDBRANCH  13  15
ENDBRANCH  12  13
BRANCH  12  17
ATOM     17  C   UNL     1     118.560 175.199 129.295  1.00  0.00    -0.006 C 
ATOM     18  C   UNL     1     119.023 173.744 129.095  1.00  0.00     0.008 C 
ATOM     19  C   UNL     1     119.593 175.967 130.136  1.00  0.00     0.008 C 
ENDBRANCH  12  17
ENDBRANCH  11  12
ENDBRANCH   1  11
TORSDOF 1
ENDMDL
MODEL 8
REMARK VINA RESULT:    -4.339      2.087      4.146
REMARK INTER + INTRA:          -6.949
REMARK INTER:                  -6.945
REMARK INTRA:                  -0.004
REMARK UNBOUND:                -0.327
REMARK SMILES CC1=CCC[C@H](C)C(=O)C[C@H](C(C)C)C(=O)C1
REMARK SMILES IDX 8 1 9 2 6 3 7 4 5 5 4 6 3 7 2 8 1 9 10 11 11 12 15 13 16 14
REMARK SMILES IDX 17 15 12 17 13 18 14 19
REMARK H PARENT
REMARK Flexibility Score: 70.00
ROOT
ATOM      1  C   UNL     1     117.524 175.353 127.376  1.00  0.00     0.136 C 
ATOM      2  O   UNL     1     118.057 174.257 127.273  1.00  0.00    -0.299 OA
ENDROOT
BRANCH   1   3
ATOM      3  C   UNL     1     117.578 176.067 128.714  1.00  0.00     0.053 C 
ATOM      4  C   UNL     1     116.769 175.307 129.771  1.00  0.00     0.016 C 
BRANCH   3   5
ATOM      5  C   UNL     1     119.029 176.291 129.179  1.00  0.00     0.015 C 
BRANCH   5   6
ATOM      6  C   UNL     1     119.597 177.629 128.675  1.00  0.00     0.028 C 
BRANCH   6   7
ATOM      7  C   UNL     1     120.664 177.400 127.637  1.00  0.00    -0.028 C 
ATOM      8  C   UNL     1     120.596 177.836 126.358  1.00  0.00    -0.070 CG0
ATOM      9  C   UNL     1     121.722 177.470 125.424  1.00  0.00     0.039 C 
ATOM     10  G   UNL     1     119.447 178.686 125.833  1.00  0.00     0.000 G0
ENDBRANCH   6   7
ENDBRANCH   5   6
ENDBRANCH   3   5
ENDBRANCH   1   3
BRANCH   1  11
ATOM     11  C   UNL     1     116.862 175.955 126.157  1.00  0.00     0.087 C 
BRANCH  11  12
ATOM     12  C   UNL     1     117.090 177.489 126.061  1.00  0.00     0.066 C 
BRANCH  12  13
ATOM     13  C   UNL     1     118.334 177.813 125.246  1.00  0.00     0.140 C 
ATOM     14  O   UNL     1     118.419 177.429 124.088  1.00  0.00    -0.299 OA
BRANCH  13  15
ATOM     15  C   UNL     1     119.437 178.671 125.815  1.00  0.00     0.106 CG0
ATOM     16  G   UNL     1     120.594 177.840 126.351  1.00  0.00     0.000 G0
ENDBRANCH  13  15
ENDBRANCH  12  13
BRANCH  12  17
ATOM     17  C   UNL     1     115.855 178.268 125.508  1.00  0.00    -0.006 C 
ATOM     18  C   UNL     1     115.436 177.853 124.085  1.00  0.00     0.008 C 
ATOM     19  C   UNL     1     114.650 178.167 126.458  1.00  0.00     0.008 C 
ENDBRANCH  12  17
ENDBRANCH  11  12
ENDBRANCH   1  11
TORSDOF 1
ENDMDL
MODEL 9
REMARK VINA RESULT:    -4.181      2.065      3.034
REMARK INTER + INTRA:          -6.707
REMARK INTER:                  -7.023
REMARK INTRA:                   0.316
REMARK UNBOUND:                -0.327
REMARK SMILES CC1=CCC[C@H](C)C(=O)C[C@H](C(C)C)C(=O)C1
REMARK SMILES IDX 8 1 9 2 6 3 7 4 5 5 4 6 3 7 2 8 1 9 10 11 11 12 15 13 16 14
REMARK SMILES IDX 17 15 12 17 13 18 14 19
REMARK H PARENT
REMARK Flexibility Score: 70.00
ROOT
ATOM      1  C   UNL     1     119.672 177.891 127.496  1.00  0.00     0.136 C 
ATOM      2  O   UNL     1     120.112 178.491 126.526  1.00  0.00    -0.299 OA
ENDROOT
BRANCH   1   3
ATOM      3  C   UNL     1     120.630 177.491 128.603  1.00  0.00     0.053 C 
ATOM      4  C   UNL     1     121.999 178.153 128.405  1.00  0.00     0.016 C 
BRANCH   3   5
ATOM      5  C   UNL     1     120.055 177.810 129.995  1.00  0.00     0.015 C 
BRANCH   5   6
ATOM      6  C   UNL     1     119.313 176.607 130.603  1.00  0.00     0.028 C 
BRANCH   6   7
ATOM      7  C   UNL     1     119.707 175.329 129.911  1.00  0.00    -0.028 C 
ATOM      8  C   UNL     1     118.894 174.615 129.097  1.00  0.00    -0.070 CG0
ATOM      9  C   UNL     1     119.421 173.321 128.529  1.00  0.00     0.039 C 
ATOM     10  G   UNL     1     117.491 175.070 128.724  1.00  0.00     0.000 G0
ENDBRANCH   6   7
ENDBRANCH   5   6
ENDBRANCH   3   5
ENDBRANCH   1   3
BRANCH   1  11
ATOM     11  C   UNL     1     118.188 177.604 127.559  1.00  0.00     0.087 C 
BRANCH  11  12
ATOM     12  C   UNL     1     117.753 176.528 126.527  1.00  0.00     0.066 C 
BRANCH  12  13
ATOM     13  C   UNL     1     117.330 175.239 127.217  1.00  0.00     0.140 C 
ATOM     14  O   UNL     1     116.913 174.302 126.551  1.00  0.00    -0.299 OA
BRANCH  13  15
ATOM     15  C   UNL     1     117.490 175.064 128.707  1.00  0.00     0.106 CG0
ATOM     16  G   UNL     1     118.896 174.623 129.087  1.00  0.00     0.000 G0
ENDBRANCH  13  15
ENDBRANCH  12  13
BRANCH  12  17
ATOM     17  C   UNL     1     116.636 177.018 125.551  1.00  0.00    -0.006 C 
ATOM     18  C   UNL     1     115.455 177.719 126.249  1.00  0.00     0.008 C 
ATOM     19  C   UNL     1     117.206 177.926 124.448  1.00  0.00     0.008 C 
ENDBRANCH  12  17
ENDBRANCH  11  12
ENDBRANCH   1  11
TORSDOF 1
ENDMDL
