MODEL 1
REMARK VINA RESULT:    -3.585      0.000      0.000
REMARK INTER + INTRA:          -4.821
REMARK INTER:                  -4.842
REMARK INTRA:                   0.021
REMARK UNBOUND:                 0.021
REMARK SMILES C=C1CCC=C(C)CC[C@@H]2[C@H]1CC2(C)C
REMARK SMILES IDX 11 1 12 2 13 3 10 4 14 5 15 6 9 7 8 8 6 9 7 10 5 11 2 13
REMARK SMILES IDX 1 14 3 15 4 16
REMARK H PARENT
REMARK Flexibility Score: 70.00
ROOT
ATOM      1  C   UNL     1     140.097 134.648 135.008  1.00  0.00     0.018 C 
ATOM      2  C   UNL     1     140.777 135.963 134.599  1.00  0.00     0.015 C 
ATOM      3  C   UNL     1     140.194 135.830 133.180  1.00  0.00    -0.031 C 
ATOM      4  C   UNL     1     139.504 134.501 133.591  1.00  0.00     0.002 C 
ATOM      5  C   UNL     1     139.273 137.008 132.800  1.00  0.00     0.011 C 
ATOM      6  C   UNL     1     141.287 135.621 132.116  1.00  0.00     0.011 C 
ENDROOT
BRANCH   4   7
ATOM      7  C   UNL     1     137.964 134.424 133.428  1.00  0.00     0.009 C 
BRANCH   7   8
ATOM      8  C   UNL     1     137.448 132.975 133.288  1.00  0.00     0.030 C 
BRANCH   8   9
ATOM      9  C   UNL     1     136.628 132.527 134.486  1.00  0.00    -0.077 C 
ATOM     10  C   UNL     1     135.128 132.489 134.350  1.00  0.00     0.039 C 
ATOM     11  C   UNL     1     137.166 132.172 135.676  1.00  0.00    -0.028 CG0
ATOM     12  G   UNL     1     138.627 132.263 136.045  1.00  0.00     0.000 G0
ENDBRANCH   8   9
ENDBRANCH   7   8
ENDBRANCH   4   7
BRANCH   1  13
ATOM     13  C   UNL     1     139.145 134.718 136.200  1.00  0.00    -0.074 C 
ATOM     14  C   UNL     1     138.507 135.844 136.572  1.00  0.00     0.008 C 
BRANCH  13  15
ATOM     15  C   UNL     1     138.901 133.445 136.979  1.00  0.00     0.035 C 
BRANCH  15  16
ATOM     16  C   UNL     1     138.630 132.260 136.047  1.00  0.00     0.032 CG0
ATOM     17  G   UNL     1     137.170 132.190 135.671  1.00  0.00     0.000 G0
ENDBRANCH  15  16
ENDBRANCH  13  15
ENDBRANCH   1  13
TORSDOF 0
ENDMDL
MODEL 2
REMARK VINA RESULT:    -3.574      3.696      5.560
REMARK INTER + INTRA:          -4.807
REMARK INTER:                  -4.819
REMARK INTRA:                   0.012
REMARK UNBOUND:                 0.021
REMARK SMILES C=C1CCC=C(C)CC[C@@H]2[C@H]1CC2(C)C
REMARK SMILES IDX 11 1 12 2 13 3 10 4 14 5 15 6 9 7 8 8 6 9 7 10 5 11 2 13
REMARK SMILES IDX 1 14 3 15 4 16
REMARK H PARENT
REMARK Flexibility Score: 70.00
ROOT
ATOM      1  C   UNL     1     138.046 140.175 134.829  1.00  0.00     0.018 C 
ATOM      2  C   UNL     1     136.725 140.866 134.466  1.00  0.00     0.015 C 
ATOM      3  C   UNL     1     136.706 140.130 133.113  1.00  0.00    -0.031 C 
ATOM      4  C   UNL     1     138.041 139.428 133.479  1.00  0.00     0.002 C 
ATOM      5  C   UNL     1     135.465 139.228 132.942  1.00  0.00     0.011 C 
ATOM      6  C   UNL     1     136.853 141.093 131.921  1.00  0.00     0.011 C 
ENDROOT
BRANCH   4   7
ATOM      7  C   UNL     1     138.048 137.878 133.481  1.00  0.00     0.009 C 
BRANCH   7   8
ATOM      8  C   UNL     1     139.447 137.285 133.200  1.00  0.00     0.030 C 
BRANCH   8   9
ATOM      9  C   UNL     1     140.038 136.581 134.408  1.00  0.00    -0.077 C 
ATOM     10  C   UNL     1     140.086 135.075 134.405  1.00  0.00     0.039 C 
ATOM     11  C   UNL     1     140.515 137.228 135.498  1.00  0.00    -0.028 CG0
ATOM     12  G   UNL     1     140.441 138.716 135.741  1.00  0.00     0.000 G0
ENDBRANCH   8   9
ENDBRANCH   7   8
ENDBRANCH   4   7
BRANCH   1  13
ATOM     13  C   UNL     1     138.053 139.360 136.120  1.00  0.00    -0.074 C 
ATOM     14  C   UNL     1     136.939 138.853 136.681  1.00  0.00     0.008 C 
BRANCH  13  15
ATOM     15  C   UNL     1     139.390 139.098 136.779  1.00  0.00     0.035 C 
BRANCH  15  16
ATOM     16  C   UNL     1     140.461 138.731 135.748  1.00  0.00     0.032 CG0
ATOM     17  G   UNL     1     140.497 137.240 135.512  1.00  0.00     0.000 G0
ENDBRANCH  15  16
ENDBRANCH  13  15
ENDBRANCH   1  13
TORSDOF 0
ENDMDL
MODEL 3
REMARK VINA RESULT:    -3.572      5.819      7.797
REMARK INTER + INTRA:          -4.803
REMARK INTER:                  -4.849
REMARK INTRA:                   0.046
REMARK UNBOUND:                 0.021
REMARK SMILES C=C1CCC=C(C)CC[C@@H]2[C@H]1CC2(C)C
REMARK SMILES IDX 11 1 12 2 13 3 10 4 14 5 15 6 9 7 8 8 6 9 7 10 5 11 2 13
REMARK SMILES IDX 1 14 3 15 4 16
REMARK H PARENT
REMARK Flexibility Score: 70.00
ROOT
ATOM      1  C   UNL     1     132.615 138.139 135.075  1.00  0.00     0.018 C 
ATOM      2  C   UNL     1     131.878 136.847 134.698  1.00  0.00     0.015 C 
ATOM      3  C   UNL     1     132.529 136.875 133.303  1.00  0.00    -0.031 C 
ATOM      4  C   UNL     1     133.279 138.181 133.682  1.00  0.00     0.002 C 
ATOM      5  C   UNL     1     133.394 135.628 133.023  1.00  0.00     0.011 C 
ATOM      6  C   UNL     1     131.499 137.092 132.180  1.00  0.00     0.011 C 
ENDROOT
BRANCH   4   7
ATOM      7  C   UNL     1     134.826 138.161 133.589  1.00  0.00     0.009 C 
BRANCH   7   8
ATOM      8  C   UNL     1     135.428 139.560 133.327  1.00  0.00     0.030 C 
BRANCH   8   9
ATOM      9  C   UNL     1     136.210 140.092 134.515  1.00  0.00    -0.077 C 
ATOM     10  C   UNL     1     137.714 140.110 134.431  1.00  0.00     0.039 C 
ATOM     11  C   UNL     1     135.634 140.542 135.655  1.00  0.00    -0.028 CG0
ATOM     12  G   UNL     1     134.160 140.489 135.978  1.00  0.00     0.000 G0
ENDBRANCH   8   9
ENDBRANCH   7   8
ENDBRANCH   4   7
BRANCH   1  13
ATOM     13  C   UNL     1     133.507 138.075 136.312  1.00  0.00    -0.074 C 
ATOM     14  C   UNL     1     134.010 136.927 136.803  1.00  0.00     0.008 C 
BRANCH  13  15
ATOM     15  C   UNL     1     133.853 139.380 136.997  1.00  0.00     0.035 C 
BRANCH  15  16
ATOM     16  C   UNL     1     134.157 140.484 135.981  1.00  0.00     0.032 CG0
ATOM     17  G   UNL     1     135.635 140.549 135.679  1.00  0.00     0.000 G0
ENDBRANCH  15  16
ENDBRANCH  13  15
ENDBRANCH   1  13
TORSDOF 0
ENDMDL
MODEL 4
REMARK VINA RESULT:    -3.443      2.859      4.874
REMARK INTER + INTRA:          -4.630
REMARK INTER:                  -4.640
REMARK INTRA:                   0.010
REMARK UNBOUND:                 0.021
REMARK SMILES C=C1CCC=C(C)CC[C@@H]2[C@H]1CC2(C)C
REMARK SMILES IDX 11 1 12 2 13 3 10 4 14 5 15 6 9 7 8 8 6 9 7 10 5 11 2 13
REMARK SMILES IDX 1 14 3 15 4 16
REMARK H PARENT
REMARK Flexibility Score: 70.00
ROOT
ATOM      1  C   UNL     1     137.014 133.487 133.671  1.00  0.00     0.018 C 
ATOM      2  C   UNL     1     138.223 132.605 134.013  1.00  0.00     0.015 C 
ATOM      3  C   UNL     1     138.127 133.036 135.487  1.00  0.00    -0.031 C 
ATOM      4  C   UNL     1     136.903 133.928 135.146  1.00  0.00     0.002 C 
ATOM      5  C   UNL     1     137.883 131.848 136.442  1.00  0.00     0.011 C 
ATOM      6  C   UNL     1     139.349 133.859 135.937  1.00  0.00     0.011 C 
ENDROOT
BRANCH   4   7
ATOM      7  C   UNL     1     135.586 133.647 135.914  1.00  0.00     0.009 C 
BRANCH   7   8
ATOM      8  C   UNL     1     134.679 134.893 136.022  1.00  0.00     0.030 C 
BRANCH   8   9
ATOM      9  C   UNL     1     133.408 134.764 135.201  1.00  0.00    -0.077 C 
ATOM     10  C   UNL     1     132.112 134.512 135.927  1.00  0.00     0.039 C 
ATOM     11  C   UNL     1     133.371 134.850 133.851  1.00  0.00    -0.028 CG0
ATOM     12  G   UNL     1     134.572 134.973 132.944  1.00  0.00     0.000 G0
ENDBRANCH   8   9
ENDBRANCH   7   8
ENDBRANCH   4   7
BRANCH   1  13
ATOM     13  C   UNL     1     135.823 132.785 133.022  1.00  0.00    -0.074 C 
ATOM     14  C   UNL     1     135.586 131.466 133.143  1.00  0.00     0.008 C 
BRANCH  13  15
ATOM     15  C   UNL     1     134.858 133.634 132.223  1.00  0.00     0.035 C 
BRANCH  15  16
ATOM     16  C   UNL     1     134.575 134.968 132.919  1.00  0.00     0.032 CG0
ATOM     17  G   UNL     1     133.385 134.856 133.841  1.00  0.00     0.000 G0
ENDBRANCH  15  16
ENDBRANCH  13  15
ENDBRANCH   1  13
TORSDOF 0
ENDMDL
MODEL 5
REMARK VINA RESULT:    -3.442      1.855      3.501
REMARK INTER + INTRA:          -4.628
REMARK INTER:                  -4.663
REMARK INTRA:                   0.036
REMARK UNBOUND:                 0.021
REMARK SMILES C=C1CCC=C(C)CC[C@@H]2[C@H]1CC2(C)C
REMARK SMILES IDX 11 1 12 2 13 3 10 4 14 5 15 6 9 7 8 8 6 9 7 10 5 11 2 13
REMARK SMILES IDX 1 14 3 15 4 16
REMARK H PARENT
REMARK Flexibility Score: 70.00
ROOT
ATOM      1  C   UNL     1     139.042 136.937 133.941  1.00  0.00     0.018 C 
ATOM      2  C   UNL     1     140.043 138.085 134.131  1.00  0.00     0.015 C 
ATOM      3  C   UNL     1     139.696 138.147 135.629  1.00  0.00    -0.031 C 
ATOM      4  C   UNL     1     138.684 136.984 135.441  1.00  0.00     0.002 C 
ATOM      5  C   UNL     1     140.914 137.873 136.536  1.00  0.00     0.011 C 
ATOM      6  C   UNL     1     139.009 139.469 136.017  1.00  0.00     0.011 C 
ENDROOT
BRANCH   4   7
ATOM      7  C   UNL     1     138.899 135.713 136.302  1.00  0.00     0.009 C 
BRANCH   7   8
ATOM      8  C   UNL     1     137.634 134.830 136.391  1.00  0.00     0.030 C 
BRANCH   8   9
ATOM      9  C   UNL     1     137.798 133.500 135.677  1.00  0.00    -0.077 C 
ATOM     10  C   UNL     1     138.175 132.292 136.494  1.00  0.00     0.039 C 
ATOM     11  C   UNL     1     137.637 133.337 134.342  1.00  0.00    -0.028 CG0
ATOM     12  G   UNL     1     137.384 134.440 133.344  1.00  0.00     0.000 G0
ENDBRANCH   8   9
ENDBRANCH   7   8
ENDBRANCH   4   7
BRANCH   1  13
ATOM     13  C   UNL     1     139.599 135.640 133.358  1.00  0.00    -0.074 C 
ATOM     14  C   UNL     1     140.867 135.228 133.550  1.00  0.00     0.008 C 
BRANCH  13  15
ATOM     15  C   UNL     1     138.661 134.775 132.545  1.00  0.00     0.035 C 
BRANCH  15  16
ATOM     16  C   UNL     1     137.393 134.431 133.331  1.00  0.00     0.032 CG0
ATOM     17  G   UNL     1     137.660 133.341 134.340  1.00  0.00     0.000 G0
ENDBRANCH  15  16
ENDBRANCH  13  15
ENDBRANCH   1  13
TORSDOF 0
ENDMDL
MODEL 6
REMARK VINA RESULT:    -3.389      5.169      7.401
REMARK INTER + INTRA:          -4.556
REMARK INTER:                  -4.604
REMARK INTRA:                   0.048
REMARK UNBOUND:                 0.021
REMARK SMILES C=C1CCC=C(C)CC[C@@H]2[C@H]1CC2(C)C
REMARK SMILES IDX 11 1 12 2 13 3 10 4 14 5 15 6 9 7 8 8 6 9 7 10 5 11 2 13
REMARK SMILES IDX 1 14 3 15 4 16
REMARK H PARENT
REMARK Flexibility Score: 70.00
ROOT
ATOM      1  C   UNL     1     133.633 135.598 133.978  1.00  0.00     0.018 C 
ATOM      2  C   UNL     1     132.636 134.436 134.087  1.00  0.00     0.015 C 
ATOM      3  C   UNL     1     132.843 134.393 135.611  1.00  0.00    -0.031 C 
ATOM      4  C   UNL     1     133.850 135.569 135.506  1.00  0.00     0.002 C 
ATOM      5  C   UNL     1     131.541 134.655 136.399  1.00  0.00     0.011 C 
ATOM      6  C   UNL     1     133.511 133.085 136.075  1.00  0.00     0.011 C 
ENDROOT
BRANCH   4   7
ATOM      7  C   UNL     1     133.538 136.844 136.330  1.00  0.00     0.009 C 
BRANCH   7   8
ATOM      8  C   UNL     1     134.807 137.644 136.701  1.00  0.00     0.030 C 
BRANCH   8   9
ATOM      9  C   UNL     1     134.884 138.983 135.988  1.00  0.00    -0.077 C 
ATOM     10  C   UNL     1     134.613 140.233 136.785  1.00  0.00     0.039 C 
ATOM     11  C   UNL     1     135.170 139.120 134.672  1.00  0.00    -0.028 CG0
ATOM     12  G   UNL     1     135.347 137.991 133.687  1.00  0.00     0.000 G0
ENDBRANCH   8   9
ENDBRANCH   7   8
ENDBRANCH   4   7
BRANCH   1  13
ATOM     13  C   UNL     1     133.112 136.881 133.334  1.00  0.00    -0.074 C 
ATOM     14  C   UNL     1     131.806 137.198 133.268  1.00  0.00     0.008 C 
BRANCH  13  15
ATOM     15  C   UNL     1     134.131 137.843 132.763  1.00  0.00     0.035 C 
BRANCH  15  16
ATOM     16  C   UNL     1     135.345 137.987 133.686  1.00  0.00     0.032 CG0
ATOM     17  G   UNL     1     135.148 139.118 134.667  1.00  0.00     0.000 G0
ENDBRANCH  15  16
ENDBRANCH  13  15
ENDBRANCH   1  13
TORSDOF 0
ENDMDL
MODEL 7
REMARK VINA RESULT:    -3.382      2.685      4.688
REMARK INTER + INTRA:          -4.547
REMARK INTER:                  -4.571
REMARK INTRA:                   0.024
REMARK UNBOUND:                 0.021
REMARK SMILES C=C1CCC=C(C)CC[C@@H]2[C@H]1CC2(C)C
REMARK SMILES IDX 11 1 12 2 13 3 10 4 14 5 15 6 9 7 8 8 6 9 7 10 5 11 2 13
REMARK SMILES IDX 1 14 3 15 4 16
REMARK H PARENT
REMARK Flexibility Score: 70.00
ROOT
ATOM      1  C   UNL     1     139.439 134.836 136.074  1.00  0.00     0.018 C 
ATOM      2  C   UNL     1     139.737 133.356 135.798  1.00  0.00     0.015 C 
ATOM      3  C   UNL     1     138.255 133.114 135.462  1.00  0.00    -0.031 C 
ATOM      4  C   UNL     1     137.949 134.611 135.738  1.00  0.00     0.002 C 
ATOM      5  C   UNL     1     138.044 132.612 134.017  1.00  0.00     0.011 C 
ATOM      6  C   UNL     1     137.570 132.177 136.473  1.00  0.00     0.011 C 
ENDROOT
BRANCH   4   7
ATOM      7  C   UNL     1     137.311 135.428 134.585  1.00  0.00     0.009 C 
BRANCH   7   8
ATOM      8  C   UNL     1     136.620 136.719 135.078  1.00  0.00     0.030 C 
BRANCH   8   9
ATOM      9  C   UNL     1     137.332 137.977 134.611  1.00  0.00    -0.077 C 
ATOM     10  C   UNL     1     136.794 138.693 133.399  1.00  0.00     0.039 C 
ATOM     11  C   UNL     1     138.431 138.488 135.212  1.00  0.00    -0.028 CG0
ATOM     12  G   UNL     1     139.187 137.851 136.354  1.00  0.00     0.000 G0
ENDBRANCH   8   9
ENDBRANCH   7   8
ENDBRANCH   4   7
BRANCH   1  13
ATOM     13  C   UNL     1     140.232 135.852 135.256  1.00  0.00    -0.074 C 
ATOM     14  C   UNL     1     140.688 135.607 134.013  1.00  0.00     0.008 C 
BRANCH  13  15
ATOM     15  C   UNL     1     140.491 137.207 135.878  1.00  0.00     0.035 C 
BRANCH  15  16
ATOM     16  C   UNL     1     139.193 137.860 136.361  1.00  0.00     0.032 CG0
ATOM     17  G   UNL     1     138.446 138.493 135.213  1.00  0.00     0.000 G0
ENDBRANCH  15  16
ENDBRANCH  13  15
ENDBRANCH   1  13
TORSDOF 0
ENDMDL
MODEL 8
REMARK VINA RESULT:    -3.373      4.423      5.565
REMARK INTER + INTRA:          -4.535
REMARK INTER:                  -4.601
REMARK INTRA:                   0.066
REMARK UNBOUND:                 0.021
REMARK SMILES C=C1CCC=C(C)CC[C@@H]2[C@H]1CC2(C)C
REMARK SMILES IDX 11 1 12 2 13 3 10 4 14 5 15 6 9 7 8 8 6 9 7 10 5 11 2 13
REMARK SMILES IDX 1 14 3 15 4 16
REMARK H PARENT
REMARK Flexibility Score: 70.00
ROOT
ATOM      1  C   UNL     1     137.891 139.475 136.031  1.00  0.00     0.018 C 
ATOM      2  C   UNL     1     139.379 139.682 135.717  1.00  0.00     0.015 C 
ATOM      3  C   UNL     1     139.525 138.183 135.395  1.00  0.00    -0.031 C 
ATOM      4  C   UNL     1     138.020 137.971 135.709  1.00  0.00     0.002 C 
ATOM      5  C   UNL     1     139.980 137.927 133.943  1.00  0.00     0.011 C 
ATOM      6  C   UNL     1     140.444 137.457 136.394  1.00  0.00     0.011 C 
ENDROOT
BRANCH   4   7
ATOM      7  C   UNL     1     137.140 137.368 134.584  1.00  0.00     0.009 C 
BRANCH   7   8
ATOM      8  C   UNL     1     135.939 136.563 135.129  1.00  0.00     0.030 C 
BRANCH   8   9
ATOM      9  C   UNL     1     134.608 137.238 134.850  1.00  0.00    -0.077 C 
ATOM     10  C   UNL     1     133.698 136.622 133.818  1.00  0.00     0.039 C 
ATOM     11  C   UNL     1     134.193 138.370 135.466  1.00  0.00    -0.028 CG0
ATOM     12  G   UNL     1     135.009 139.198 136.429  1.00  0.00     0.000 G0
ENDBRANCH   8   9
ENDBRANCH   7   8
ENDBRANCH   4   7
BRANCH   1  13
ATOM     13  C   UNL     1     136.904 140.317 135.225  1.00  0.00    -0.074 C 
ATOM     14  C   UNL     1     137.212 140.891 134.047  1.00  0.00     0.008 C 
BRANCH  13  15
ATOM     15  C   UNL     1     135.508 140.488 135.783  1.00  0.00     0.035 C 
BRANCH  15  16
ATOM     16  C   UNL     1     135.005 139.199 136.440  1.00  0.00     0.032 CG0
ATOM     17  G   UNL     1     134.203 138.371 135.465  1.00  0.00     0.000 G0
ENDBRANCH  15  16
ENDBRANCH  13  15
ENDBRANCH   1  13
TORSDOF 0
ENDMDL
MODEL 9
REMARK VINA RESULT:    -3.339      4.646      6.152
REMARK INTER + INTRA:          -4.489
REMARK INTER:                  -4.534
REMARK INTRA:                   0.045
REMARK UNBOUND:                 0.021
REMARK SMILES C=C1CCC=C(C)CC[C@@H]2[C@H]1CC2(C)C
REMARK SMILES IDX 11 1 12 2 13 3 10 4 14 5 15 6 9 7 8 8 6 9 7 10 5 11 2 13
REMARK SMILES IDX 1 14 3 15 4 16
REMARK H PARENT
REMARK Flexibility Score: 70.00
ROOT
ATOM      1  C   UNL     1     133.115 137.919 135.887  1.00  0.00     0.018 C 
ATOM      2  C   UNL     1     132.906 139.413 135.605  1.00  0.00     0.015 C 
ATOM      3  C   UNL     1     134.421 139.591 135.394  1.00  0.00    -0.031 C 
ATOM      4  C   UNL     1     134.636 138.080 135.677  1.00  0.00     0.002 C 
ATOM      5  C   UNL     1     134.771 140.094 133.977  1.00  0.00     0.011 C 
ATOM      6  C   UNL     1     135.060 140.488 136.469  1.00  0.00     0.011 C 
ENDROOT
BRANCH   4   7
ATOM      7  C   UNL     1     135.331 137.244 134.571  1.00  0.00     0.009 C 
BRANCH   7   8
ATOM      8  C   UNL     1     135.900 135.908 135.098  1.00  0.00     0.030 C 
BRANCH   8   9
ATOM      9  C   UNL     1     135.164 134.700 134.546  1.00  0.00    -0.077 C 
ATOM     10  C   UNL     1     135.751 133.989 133.354  1.00  0.00     0.039 C 
ATOM     11  C   UNL     1     134.001 134.230 135.055  1.00  0.00    -0.028 CG0
ATOM     12  G   UNL     1     133.199 134.874 136.160  1.00  0.00     0.000 G0
ENDBRANCH   8   9
ENDBRANCH   7   8
ENDBRANCH   4   7
BRANCH   1  13
ATOM     13  C   UNL     1     132.349 136.946 134.994  1.00  0.00    -0.074 C 
ATOM     14  C   UNL     1     132.017 137.217 133.718  1.00  0.00     0.008 C 
BRANCH  13  15
ATOM     15  C   UNL     1     131.968 135.604 135.582  1.00  0.00     0.035 C 
BRANCH  15  16
ATOM     16  C   UNL     1     133.188 134.877 136.156  1.00  0.00     0.032 CG0
ATOM     17  G   UNL     1     133.992 134.222 135.059  1.00  0.00     0.000 G0
ENDBRANCH  15  16
ENDBRANCH  13  15
ENDBRANCH   1  13
TORSDOF 0
ENDMDL
