MODEL 1
REMARK VINA RESULT:    -3.218      0.000      0.000
REMARK INTER + INTRA:          -4.660
REMARK INTER:                  -4.347
REMARK INTRA:                  -0.313
REMARK UNBOUND:                -0.313
REMARK SMILES CCCCCCCC(=O)[O-]
REMARK SMILES IDX 5 1 6 2 7 3 8 4 9 5 10 6 4 7 3 8 2 9 1 10
REMARK H PARENT
REMARK Flexibility Score: inf
ROOT
ATOM      1  C   UNL     1      35.054   6.539 -31.057  1.00  0.00     0.000 C 
ENDROOT
BRANCH   1   2
ATOM      2  C   UNL     1      34.273   7.819 -31.418  1.00  0.00     0.006 C 
BRANCH   2   3
ATOM      3  C   UNL     1      33.228   8.240 -30.372  1.00  0.00     0.053 C 
BRANCH   3   4
ATOM      4  C   UNL     1      32.663   9.598 -30.660  1.00  0.00     0.041 C 
ATOM      5  O   UNL     1      31.584   9.963 -30.125  1.00  0.00    -0.550 OA
ATOM      6  O   UNL     1      33.314  10.447 -31.546  1.00  0.00    -0.550 OA
ENDBRANCH   3   4
ENDBRANCH   2   3
ENDBRANCH   1   2
BRANCH   1   7
ATOM      7  C   UNL     1      35.874   5.929 -32.211  1.00  0.00     0.000 C 
BRANCH   7   8
ATOM      8  C   UNL     1      35.045   5.428 -33.410  1.00  0.00    -0.000 C 
BRANCH   8   9
ATOM      9  C   UNL     1      34.280   4.115 -33.163  1.00  0.00    -0.003 C 
ATOM     10  C   UNL     1      32.775   4.324 -33.003  1.00  0.00     0.004 C 
ENDBRANCH   8   9
ENDBRANCH   7   8
ENDBRANCH   1   7
TORSDOF 6
ENDMDL
MODEL 2
REMARK VINA RESULT:    -3.147     15.455     16.462
REMARK INTER + INTRA:          -4.564
REMARK INTER:                  -3.986
REMARK INTRA:                  -0.578
REMARK UNBOUND:                -0.313
REMARK SMILES CCCCCCCC(=O)[O-]
REMARK SMILES IDX 5 1 6 2 7 3 8 4 9 5 10 6 4 7 3 8 2 9 1 10
REMARK H PARENT
REMARK Flexibility Score: inf
ROOT
ATOM      1  C   UNL     1      24.375  -5.336 -27.812  1.00  0.00     0.000 C 
ENDROOT
BRANCH   1   2
ATOM      2  C   UNL     1      24.043  -4.518 -29.077  1.00  0.00     0.006 C 
BRANCH   2   3
ATOM      3  C   UNL     1      23.733  -5.368 -30.319  1.00  0.00     0.053 C 
BRANCH   3   4
ATOM      4  C   UNL     1      24.808  -5.255 -31.356  1.00  0.00     0.041 C 
ATOM      5  O   UNL     1      25.994  -5.005 -31.017  1.00  0.00    -0.550 OA
ATOM      6  O   UNL     1      24.493  -5.395 -32.702  1.00  0.00    -0.550 OA
ENDBRANCH   3   4
ENDBRANCH   2   3
ENDBRANCH   1   2
BRANCH   1   7
ATOM      7  C   UNL     1      24.018  -6.834 -27.893  1.00  0.00     0.000 C 
BRANCH   7   8
ATOM      8  C   UNL     1      25.211  -7.800 -27.750  1.00  0.00    -0.000 C 
BRANCH   8   9
ATOM      9  C   UNL     1      26.082  -7.944 -29.011  1.00  0.00    -0.003 C 
ATOM     10  C   UNL     1      27.483  -7.360 -28.836  1.00  0.00     0.004 C 
ENDBRANCH   8   9
ENDBRANCH   7   8
ENDBRANCH   1   7
TORSDOF 6
ENDMDL
MODEL 3
REMARK VINA RESULT:    -3.135     15.336     16.787
REMARK INTER + INTRA:          -4.547
REMARK INTER:                  -4.006
REMARK INTRA:                  -0.541
REMARK UNBOUND:                -0.313
REMARK SMILES CCCCCCCC(=O)[O-]
REMARK SMILES IDX 5 1 6 2 7 3 8 4 9 5 10 6 4 7 3 8 2 9 1 10
REMARK H PARENT
REMARK Flexibility Score: inf
ROOT
ATOM      1  C   UNL     1      25.394  -8.076 -26.969  1.00  0.00     0.000 C 
ENDROOT
BRANCH   1   2
ATOM      2  C   UNL     1      26.861  -8.125 -27.442  1.00  0.00     0.006 C 
BRANCH   2   3
ATOM      3  C   UNL     1      27.053  -7.842 -28.941  1.00  0.00     0.053 C 
BRANCH   3   4
ATOM      4  C   UNL     1      27.902  -6.631 -29.178  1.00  0.00     0.041 C 
ATOM      5  O   UNL     1      29.009  -6.507 -28.592  1.00  0.00    -0.550 OA
ATOM      6  O   UNL     1      27.453  -5.623 -30.022  1.00  0.00    -0.550 OA
ENDBRANCH   3   4
ENDBRANCH   2   3
ENDBRANCH   1   2
BRANCH   1   7
ATOM      7  C   UNL     1      24.404  -7.459 -27.977  1.00  0.00     0.000 C 
BRANCH   7   8
ATOM      8  C   UNL     1      24.104  -5.962 -27.768  1.00  0.00    -0.000 C 
BRANCH   8   9
ATOM      9  C   UNL     1      24.102  -5.117 -29.055  1.00  0.00    -0.003 C 
ATOM     10  C   UNL     1      23.909  -5.956 -30.317  1.00  0.00     0.004 C 
ENDBRANCH   8   9
ENDBRANCH   7   8
ENDBRANCH   1   7
TORSDOF 6
ENDMDL
MODEL 4
REMARK VINA RESULT:    -3.063     15.044     16.408
REMARK INTER + INTRA:          -4.450
REMARK INTER:                  -4.029
REMARK INTRA:                  -0.421
REMARK UNBOUND:                -0.313
REMARK SMILES CCCCCCCC(=O)[O-]
REMARK SMILES IDX 5 1 6 2 7 3 8 4 9 5 10 6 4 7 3 8 2 9 1 10
REMARK H PARENT
REMARK Flexibility Score: inf
ROOT
ATOM      1  C   UNL     1      27.296  -6.269 -29.281  1.00  0.00     0.000 C 
ENDROOT
BRANCH   1   2
ATOM      2  C   UNL     1      26.179  -5.245 -29.568  1.00  0.00     0.006 C 
BRANCH   2   3
ATOM      3  C   UNL     1      25.935  -4.975 -31.062  1.00  0.00     0.053 C 
BRANCH   3   4
ATOM      4  C   UNL     1      24.506  -5.205 -31.446  1.00  0.00     0.041 C 
ATOM      5  O   UNL     1      24.158  -5.157 -32.655  1.00  0.00    -0.550 OA
ATOM      6  O   UNL     1      23.552  -5.440 -30.464  1.00  0.00    -0.550 OA
ENDBRANCH   3   4
ENDBRANCH   2   3
ENDBRANCH   1   2
BRANCH   1   7
ATOM      7  C   UNL     1      26.811  -7.714 -29.051  1.00  0.00     0.000 C 
BRANCH   7   8
ATOM      8  C   UNL     1      25.299  -7.864 -28.796  1.00  0.00    -0.000 C 
BRANCH   8   9
ATOM      9  C   UNL     1      24.907  -8.062 -27.321  1.00  0.00    -0.003 C 
ATOM     10  C   UNL     1      24.611  -6.746 -26.603  1.00  0.00     0.004 C 
ENDBRANCH   8   9
ENDBRANCH   7   8
ENDBRANCH   1   7
TORSDOF 6
ENDMDL
MODEL 5
REMARK VINA RESULT:    -3.016      1.065      1.549
REMARK INTER + INTRA:          -4.386
REMARK INTER:                  -4.062
REMARK INTRA:                  -0.324
REMARK UNBOUND:                -0.313
REMARK SMILES CCCCCCCC(=O)[O-]
REMARK SMILES IDX 5 1 6 2 7 3 8 4 9 5 10 6 4 7 3 8 2 9 1 10
REMARK H PARENT
REMARK Flexibility Score: inf
ROOT
ATOM      1  C   UNL     1      34.429   7.810 -31.541  1.00  0.00     0.000 C 
ENDROOT
BRANCH   1   2
ATOM      2  C   UNL     1      33.115   7.470 -30.810  1.00  0.00     0.006 C 
BRANCH   2   3
ATOM      3  C   UNL     1      33.029   8.010 -29.374  1.00  0.00     0.053 C 
BRANCH   3   4
ATOM      4  C   UNL     1      32.724   9.476 -29.343  1.00  0.00     0.041 C 
ATOM      5  O   UNL     1      33.130  10.189 -28.389  1.00  0.00    -0.550 OA
ATOM      6  O   UNL     1      31.962  10.048 -30.355  1.00  0.00    -0.550 OA
ENDBRANCH   3   4
ENDBRANCH   2   3
ENDBRANCH   1   2
BRANCH   1   7
ATOM      7  C   UNL     1      35.583   6.816 -31.303  1.00  0.00     0.000 C 
BRANCH   7   8
ATOM      8  C   UNL     1      35.242   5.339 -31.583  1.00  0.00    -0.000 C 
BRANCH   8   9
ATOM      9  C   UNL     1      35.037   4.992 -33.068  1.00  0.00    -0.003 C 
ATOM     10  C   UNL     1      34.009   3.883 -33.284  1.00  0.00     0.004 C 
ENDBRANCH   8   9
ENDBRANCH   7   8
ENDBRANCH   1   7
TORSDOF 6
ENDMDL
MODEL 6
REMARK VINA RESULT:    -2.992     15.197     17.114
REMARK INTER + INTRA:          -4.355
REMARK INTER:                  -3.706
REMARK INTRA:                  -0.649
REMARK UNBOUND:                -0.313
REMARK SMILES CCCCCCCC(=O)[O-]
REMARK SMILES IDX 5 1 6 2 7 3 8 4 9 5 10 6 4 7 3 8 2 9 1 10
REMARK H PARENT
REMARK Flexibility Score: inf
ROOT
ATOM      1  C   UNL     1      25.176  -7.955 -26.645  1.00  0.00     0.000 C 
ENDROOT
BRANCH   1   2
ATOM      2  C   UNL     1      24.546  -7.983 -28.053  1.00  0.00     0.006 C 
BRANCH   2   3
ATOM      3  C   UNL     1      25.518  -7.628 -29.189  1.00  0.00     0.053 C 
BRANCH   3   4
ATOM      4  C   UNL     1      25.109  -6.378 -29.906  1.00  0.00     0.041 C 
ATOM      5  O   UNL     1      23.910  -6.207 -30.250  1.00  0.00    -0.550 OA
ATOM      6  O   UNL     1      26.060  -5.416 -30.224  1.00  0.00    -0.550 OA
ENDBRANCH   3   4
ENDBRANCH   2   3
ENDBRANCH   1   2
BRANCH   1   7
ATOM      7  C   UNL     1      24.882  -6.683 -25.825  1.00  0.00     0.000 C 
BRANCH   7   8
ATOM      8  C   UNL     1      23.783  -5.771 -26.403  1.00  0.00    -0.000 C 
BRANCH   8   9
ATOM      9  C   UNL     1      24.278  -4.409 -26.921  1.00  0.00    -0.003 C 
ATOM     10  C   UNL     1      25.792  -4.243 -26.803  1.00  0.00     0.004 C 
ENDBRANCH   8   9
ENDBRANCH   7   8
ENDBRANCH   1   7
TORSDOF 6
ENDMDL
MODEL 7
REMARK VINA RESULT:    -2.982     15.113     16.552
REMARK INTER + INTRA:          -4.341
REMARK INTER:                  -3.776
REMARK INTRA:                  -0.565
REMARK UNBOUND:                -0.313
REMARK SMILES CCCCCCCC(=O)[O-]
REMARK SMILES IDX 5 1 6 2 7 3 8 4 9 5 10 6 4 7 3 8 2 9 1 10
REMARK H PARENT
REMARK Flexibility Score: inf
ROOT
ATOM      1  C   UNL     1      24.630  -6.437 -26.037  1.00  0.00     0.000 C 
ENDROOT
BRANCH   1   2
ATOM      2  C   UNL     1      23.847  -5.509 -26.990  1.00  0.00     0.006 C 
BRANCH   2   3
ATOM      3  C   UNL     1      24.669  -4.338 -27.551  1.00  0.00     0.053 C 
BRANCH   3   4
ATOM      4  C   UNL     1      24.659  -4.313 -29.048  1.00  0.00     0.041 C 
ATOM      5  O   UNL     1      25.742  -4.315 -29.690  1.00  0.00    -0.550 OA
ATOM      6  O   UNL     1      23.453  -4.256 -29.734  1.00  0.00    -0.550 OA
ENDBRANCH   3   4
ENDBRANCH   2   3
ENDBRANCH   1   2
BRANCH   1   7
ATOM      7  C   UNL     1      25.127  -7.751 -26.670  1.00  0.00     0.000 C 
BRANCH   7   8
ATOM      8  C   UNL     1      24.652  -8.002 -28.115  1.00  0.00    -0.000 C 
BRANCH   8   9
ATOM      9  C   UNL     1      25.738  -7.834 -29.192  1.00  0.00    -0.003 C 
ATOM     10  C   UNL     1      27.143  -7.708 -28.605  1.00  0.00     0.004 C 
ENDBRANCH   8   9
ENDBRANCH   7   8
ENDBRANCH   1   7
TORSDOF 6
ENDMDL
MODEL 8
REMARK VINA RESULT:    -2.965      3.096      5.591
REMARK INTER + INTRA:          -4.319
REMARK INTER:                  -4.117
REMARK INTRA:                  -0.202
REMARK UNBOUND:                -0.313
REMARK SMILES CCCCCCCC(=O)[O-]
REMARK SMILES IDX 5 1 6 2 7 3 8 4 9 5 10 6 4 7 3 8 2 9 1 10
REMARK H PARENT
REMARK Flexibility Score: inf
ROOT
ATOM      1  C   UNL     1      33.436   7.956 -30.654  1.00  0.00     0.000 C 
ENDROOT
BRANCH   1   2
ATOM      2  C   UNL     1      34.674   7.663 -31.526  1.00  0.00     0.006 C 
BRANCH   2   3
ATOM      3  C   UNL     1      35.356   6.318 -31.229  1.00  0.00     0.053 C 
BRANCH   3   4
ATOM      4  C   UNL     1      35.020   5.281 -32.256  1.00  0.00     0.041 C 
ATOM      5  O   UNL     1      34.387   4.244 -31.927  1.00  0.00    -0.550 OA
ATOM      6  O   UNL     1      35.435   5.446 -33.571  1.00  0.00    -0.550 OA
ENDBRANCH   3   4
ENDBRANCH   2   3
ENDBRANCH   1   2
BRANCH   1   7
ATOM      7  C   UNL     1      32.904   9.400 -30.742  1.00  0.00     0.000 C 
BRANCH   7   8
ATOM      8  C   UNL     1      32.177   9.907 -29.481  1.00  0.00    -0.000 C 
BRANCH   8   9
ATOM      9  C   UNL     1      32.799   9.454 -28.148  1.00  0.00    -0.003 C 
ATOM     10  C   UNL     1      33.390  10.611 -27.344  1.00  0.00     0.004 C 
ENDBRANCH   8   9
ENDBRANCH   7   8
ENDBRANCH   1   7
TORSDOF 6
ENDMDL
MODEL 9
REMARK VINA RESULT:    -2.945      3.195      5.312
REMARK INTER + INTRA:          -4.291
REMARK INTER:                  -4.054
REMARK INTRA:                  -0.238
REMARK UNBOUND:                -0.313
REMARK SMILES CCCCCCCC(=O)[O-]
REMARK SMILES IDX 5 1 6 2 7 3 8 4 9 5 10 6 4 7 3 8 2 9 1 10
REMARK H PARENT
REMARK Flexibility Score: inf
ROOT
ATOM      1  C   UNL     1      35.400   7.351 -31.498  1.00  0.00     0.000 C 
ENDROOT
BRANCH   1   2
ATOM      2  C   UNL     1      35.682   5.864 -31.798  1.00  0.00     0.006 C 
BRANCH   2   3
ATOM      3  C   UNL     1      35.055   5.350 -33.103  1.00  0.00     0.053 C 
BRANCH   3   4
ATOM      4  C   UNL     1      34.115   4.210 -32.862  1.00  0.00     0.041 C 
ATOM      5  O   UNL     1      33.933   3.338 -33.751  1.00  0.00    -0.550 OA
ATOM      6  O   UNL     1      33.414   4.129 -31.665  1.00  0.00    -0.550 OA
ENDBRANCH   3   4
ENDBRANCH   2   3
ENDBRANCH   1   2
BRANCH   1   7
ATOM      7  C   UNL     1      33.946   7.670 -31.098  1.00  0.00     0.000 C 
BRANCH   7   8
ATOM      8  C   UNL     1      33.542   9.152 -31.225  1.00  0.00    -0.000 C 
BRANCH   8   9
ATOM      9  C   UNL     1      32.408   9.597 -30.285  1.00  0.00    -0.003 C 
ATOM     10  C   UNL     1      32.866   9.759 -28.836  1.00  0.00     0.004 C 
ENDBRANCH   8   9
ENDBRANCH   7   8
ENDBRANCH   1   7
TORSDOF 6
ENDMDL
