MODEL 1
REMARK VINA RESULT:    -3.550      0.000      0.000
REMARK INTER + INTRA:          -5.617
REMARK INTER:                  -5.003
REMARK INTRA:                  -0.614
REMARK UNBOUND:                -0.614
REMARK SMILES CCCCCCCCC(=O)[O-]
REMARK SMILES IDX 6 1 7 2 8 3 9 4 10 5 11 6 5 7 4 8 3 9 2 10 1 11
REMARK H PARENT
REMARK Flexibility Score: inf
ROOT
ATOM      1  C   UNL     1    -115.899  11.282  22.422  1.00  0.00     0.000 C 
ENDROOT
BRANCH   1   2
ATOM      2  C   UNL     1    -116.112  11.650  23.901  1.00  0.00     0.006 C 
BRANCH   2   3
ATOM      3  C   UNL     1    -114.988  12.517  24.499  1.00  0.00     0.053 C 
BRANCH   3   4
ATOM      4  C   UNL     1    -113.911  11.701  25.148  1.00  0.00     0.041 C 
ATOM      5  O   UNL     1    -114.170  10.560  25.613  1.00  0.00    -0.550 OA
ATOM      6  O   UNL     1    -112.626  12.216  25.267  1.00  0.00    -0.550 OA
ENDBRANCH   3   4
ENDBRANCH   2   3
ENDBRANCH   1   2
BRANCH   1   7
ATOM      7  C   UNL     1    -116.785  12.096  21.465  1.00  0.00     0.000 C 
BRANCH   7   8
ATOM      8  C   UNL     1    -118.089  12.570  22.130  1.00  0.00    -0.000 C 
BRANCH   8   9
ATOM      9  C   UNL     1    -118.239  14.102  22.106  1.00  0.00    -0.000 C 
BRANCH   9  10
ATOM     10  C   UNL     1    -118.694  14.671  23.458  1.00  0.00    -0.003 C 
ATOM     11  C   UNL     1    -117.524  15.101  24.344  1.00  0.00     0.004 C 
ENDBRANCH   9  10
ENDBRANCH   8   9
ENDBRANCH   7   8
ENDBRANCH   1   7
TORSDOF 7
ENDMDL
MODEL 2
REMARK VINA RESULT:    -3.482      1.399      1.927
REMARK INTER + INTRA:          -5.521
REMARK INTER:                  -5.206
REMARK INTRA:                  -0.316
REMARK UNBOUND:                -0.614
REMARK SMILES CCCCCCCCC(=O)[O-]
REMARK SMILES IDX 6 1 7 2 8 3 9 4 10 5 11 6 5 7 4 8 3 9 2 10 1 11
REMARK H PARENT
REMARK Flexibility Score: inf
ROOT
ATOM      1  C   UNL     1    -114.976  10.967  23.871  1.00  0.00     0.000 C 
ENDROOT
BRANCH   1   2
ATOM      2  C   UNL     1    -114.444  11.982  24.898  1.00  0.00     0.006 C 
BRANCH   2   3
ATOM      3  C   UNL     1    -112.909  12.096  24.929  1.00  0.00     0.053 C 
BRANCH   3   4
ATOM      4  C   UNL     1    -112.226  10.784  24.688  1.00  0.00     0.041 C 
ATOM      5  O   UNL     1    -111.603  10.579  23.613  1.00  0.00    -0.550 OA
ATOM      6  O   UNL     1    -112.305   9.775  25.639  1.00  0.00    -0.550 OA
ENDBRANCH   3   4
ENDBRANCH   2   3
ENDBRANCH   1   2
BRANCH   1   7
ATOM      7  C   UNL     1    -116.114  11.529  23.003  1.00  0.00     0.000 C 
BRANCH   7   8
ATOM      8  C   UNL     1    -116.537  12.944  23.431  1.00  0.00    -0.000 C 
BRANCH   8   9
ATOM      9  C   UNL     1    -117.818  13.416  22.719  1.00  0.00    -0.000 C 
BRANCH   9  10
ATOM     10  C   UNL     1    -118.397  14.699  23.336  1.00  0.00    -0.003 C 
ATOM     11  C   UNL     1    -117.556  15.230  24.497  1.00  0.00     0.004 C 
ENDBRANCH   9  10
ENDBRANCH   8   9
ENDBRANCH   7   8
ENDBRANCH   1   7
TORSDOF 7
ENDMDL
MODEL 3
REMARK VINA RESULT:    -3.481      1.393      2.178
REMARK INTER + INTRA:          -5.520
REMARK INTER:                  -5.268
REMARK INTRA:                  -0.252
REMARK UNBOUND:                -0.614
REMARK SMILES CCCCCCCCC(=O)[O-]
REMARK SMILES IDX 6 1 7 2 8 3 9 4 10 5 11 6 5 7 4 8 3 9 2 10 1 11
REMARK H PARENT
REMARK Flexibility Score: inf
ROOT
ATOM      1  C   UNL     1    -115.507  12.652  24.139  1.00  0.00     0.000 C 
ENDROOT
BRANCH   1   2
ATOM      2  C   UNL     1    -114.609  11.740  24.995  1.00  0.00     0.006 C 
BRANCH   2   3
ATOM      3  C   UNL     1    -113.112  12.093  24.928  1.00  0.00     0.053 C 
BRANCH   3   4
ATOM      4  C   UNL     1    -112.247  10.902  24.647  1.00  0.00     0.041 C 
ATOM      5  O   UNL     1    -111.535  10.863  23.610  1.00  0.00    -0.550 OA
ATOM      6  O   UNL     1    -112.253   9.818  25.517  1.00  0.00    -0.550 OA
ENDBRANCH   3   4
ENDBRANCH   2   3
ENDBRANCH   1   2
BRANCH   1   7
ATOM      7  C   UNL     1    -116.248  11.892  23.027  1.00  0.00     0.000 C 
BRANCH   7   8
ATOM      8  C   UNL     1    -117.252  12.781  22.274  1.00  0.00    -0.000 C 
BRANCH   8   9
ATOM      9  C   UNL     1    -117.831  13.897  23.162  1.00  0.00    -0.000 C 
BRANCH   9  10
ATOM     10  C   UNL     1    -118.823  14.796  22.408  1.00  0.00    -0.003 C 
ATOM     11  C   UNL     1    -118.611  14.774  20.894  1.00  0.00     0.004 C 
ENDBRANCH   9  10
ENDBRANCH   8   9
ENDBRANCH   7   8
ENDBRANCH   1   7
TORSDOF 7
ENDMDL
MODEL 4
REMARK VINA RESULT:    -3.424      2.664      4.684
REMARK INTER + INTRA:          -5.440
REMARK INTER:                  -4.973
REMARK INTRA:                  -0.466
REMARK UNBOUND:                -0.614
REMARK SMILES CCCCCCCCC(=O)[O-]
REMARK SMILES IDX 6 1 7 2 8 3 9 4 10 5 11 6 5 7 4 8 3 9 2 10 1 11
REMARK H PARENT
REMARK Flexibility Score: inf
ROOT
ATOM      1  C   UNL     1    -117.804  12.320  21.843  1.00  0.00     0.000 C 
ENDROOT
BRANCH   1   2
ATOM      2  C   UNL     1    -117.850  13.794  21.402  1.00  0.00     0.006 C 
BRANCH   2   3
ATOM      3  C   UNL     1    -118.823  14.662  22.221  1.00  0.00     0.053 C 
BRANCH   3   4
ATOM      4  C   UNL     1    -118.532  14.629  23.690  1.00  0.00     0.041 C 
ATOM      5  O   UNL     1    -119.368  14.137  24.494  1.00  0.00    -0.550 OA
ATOM      6  O   UNL     1    -117.350  15.173  24.177  1.00  0.00    -0.550 OA
ENDBRANCH   3   4
ENDBRANCH   2   3
ENDBRANCH   1   2
BRANCH   1   7
ATOM      7  C   UNL     1    -116.414  11.882  22.333  1.00  0.00     0.000 C 
BRANCH   7   8
ATOM      8  C   UNL     1    -116.335  11.777  23.866  1.00  0.00    -0.000 C 
BRANCH   8   9
ATOM      9  C   UNL     1    -115.096  12.484  24.442  1.00  0.00    -0.000 C 
BRANCH   9  10
ATOM     10  C   UNL     1    -113.922  11.520  24.675  1.00  0.00    -0.003 C 
ATOM     11  C   UNL     1    -112.604  12.245  24.946  1.00  0.00     0.004 C 
ENDBRANCH   9  10
ENDBRANCH   8   9
ENDBRANCH   7   8
ENDBRANCH   1   7
TORSDOF 7
ENDMDL
MODEL 5
REMARK VINA RESULT:    -3.385      3.078      5.540
REMARK INTER + INTRA:          -5.385
REMARK INTER:                  -5.038
REMARK INTRA:                  -0.347
REMARK UNBOUND:                -0.614
REMARK SMILES CCCCCCCCC(=O)[O-]
REMARK SMILES IDX 6 1 7 2 8 3 9 4 10 5 11 6 5 7 4 8 3 9 2 10 1 11
REMARK H PARENT
REMARK Flexibility Score: inf
ROOT
ATOM      1  C   UNL     1    -115.503  11.453  23.788  1.00  0.00     0.000 C 
ENDROOT
BRANCH   1   2
ATOM      2  C   UNL     1    -115.907  12.927  23.976  1.00  0.00     0.006 C 
BRANCH   2   3
ATOM      3  C   UNL     1    -117.283  13.279  23.382  1.00  0.00     0.053 C 
BRANCH   3   4
ATOM      4  C   UNL     1    -117.985  14.360  24.148  1.00  0.00     0.041 C 
ATOM      5  O   UNL     1    -119.201  14.238  24.450  1.00  0.00    -0.550 OA
ATOM      6  O   UNL     1    -117.302  15.518  24.500  1.00  0.00    -0.550 OA
ENDBRANCH   3   4
ENDBRANCH   2   3
ENDBRANCH   1   2
BRANCH   1   7
ATOM      7  C   UNL     1    -114.829  10.851  25.032  1.00  0.00     0.000 C 
BRANCH   7   8
ATOM      8  C   UNL     1    -113.651  11.702  25.535  1.00  0.00    -0.000 C 
BRANCH   8   9
ATOM      9  C   UNL     1    -112.444  11.659  24.582  1.00  0.00    -0.000 C 
BRANCH   9  10
ATOM     10  C   UNL     1    -111.929  10.231  24.347  1.00  0.00    -0.003 C 
ATOM     11  C   UNL     1    -111.259  10.059  22.983  1.00  0.00     0.004 C 
ENDBRANCH   9  10
ENDBRANCH   8   9
ENDBRANCH   7   8
ENDBRANCH   1   7
TORSDOF 7
ENDMDL
MODEL 6
REMARK VINA RESULT:    -3.335      1.821      3.272
REMARK INTER + INTRA:          -5.314
REMARK INTER:                  -5.042
REMARK INTRA:                  -0.272
REMARK UNBOUND:                -0.614
REMARK SMILES CCCCCCCCC(=O)[O-]
REMARK SMILES IDX 6 1 7 2 8 3 9 4 10 5 11 6 5 7 4 8 3 9 2 10 1 11
REMARK H PARENT
REMARK Flexibility Score: inf
ROOT
ATOM      1  C   UNL     1    -115.071  12.568  24.482  1.00  0.00     0.000 C 
ENDROOT
BRANCH   1   2
ATOM      2  C   UNL     1    -114.128  11.633  25.261  1.00  0.00     0.006 C 
BRANCH   2   3
ATOM      3  C   UNL     1    -112.641  11.798  24.895  1.00  0.00     0.053 C 
BRANCH   3   4
ATOM      4  C   UNL     1    -112.024  10.527  24.394  1.00  0.00     0.041 C 
ATOM      5  O   UNL     1    -111.728  10.400  23.176  1.00  0.00    -0.550 OA
ATOM      6  O   UNL     1    -111.805   9.469  25.268  1.00  0.00    -0.550 OA
ENDBRANCH   3   4
ENDBRANCH   2   3
ENDBRANCH   1   2
BRANCH   1   7
ATOM      7  C   UNL     1    -116.087  11.809  23.613  1.00  0.00     0.000 C 
BRANCH   7   8
ATOM      8  C   UNL     1    -117.135  12.740  22.980  1.00  0.00    -0.000 C 
BRANCH   8   9
ATOM      9  C   UNL     1    -117.191  12.609  21.448  1.00  0.00    -0.000 C 
BRANCH   9  10
ATOM     10  C   UNL     1    -116.305  11.469  20.922  1.00  0.00    -0.003 C 
ATOM     11  C   UNL     1    -116.579  11.134  19.455  1.00  0.00     0.004 C 
ENDBRANCH   9  10
ENDBRANCH   8   9
ENDBRANCH   7   8
ENDBRANCH   1   7
TORSDOF 7
ENDMDL
MODEL 7
REMARK VINA RESULT:    -3.222      3.478      5.497
REMARK INTER + INTRA:          -5.154
REMARK INTER:                  -4.918
REMARK INTRA:                  -0.237
REMARK UNBOUND:                -0.614
REMARK SMILES CCCCCCCCC(=O)[O-]
REMARK SMILES IDX 6 1 7 2 8 3 9 4 10 5 11 6 5 7 4 8 3 9 2 10 1 11
REMARK H PARENT
REMARK Flexibility Score: inf
ROOT
ATOM      1  C   UNL     1    -116.401  11.325  22.111  1.00  0.00     0.000 C 
ENDROOT
BRANCH   1   2
ATOM      2  C   UNL     1    -117.058  12.696  22.357  1.00  0.00     0.006 C 
BRANCH   2   3
ATOM      3  C   UNL     1    -118.059  13.116  21.265  1.00  0.00     0.053 C 
BRANCH   3   4
ATOM      4  C   UNL     1    -118.540  14.525  21.431  1.00  0.00     0.041 C 
ATOM      5  O   UNL     1    -118.823  14.971  22.575  1.00  0.00    -0.550 OA
ATOM      6  O   UNL     1    -118.707  15.339  20.317  1.00  0.00    -0.550 OA
ENDBRANCH   3   4
ENDBRANCH   2   3
ENDBRANCH   1   2
BRANCH   1   7
ATOM      7  C   UNL     1    -115.385  10.941  23.199  1.00  0.00     0.000 C 
BRANCH   7   8
ATOM      8  C   UNL     1    -115.224  12.035  24.268  1.00  0.00    -0.000 C 
BRANCH   8   9
ATOM      9  C   UNL     1    -114.151  11.684  25.314  1.00  0.00    -0.000 C 
BRANCH   9  10
ATOM     10  C   UNL     1    -112.751  12.170  24.908  1.00  0.00    -0.003 C 
ATOM     11  C   UNL     1    -111.969  11.126  24.110  1.00  0.00     0.004 C 
ENDBRANCH   9  10
ENDBRANCH   8   9
ENDBRANCH   7   8
ENDBRANCH   1   7
TORSDOF 7
ENDMDL
MODEL 8
REMARK VINA RESULT:    -3.146     18.650     19.611
REMARK INTER + INTRA:          -5.047
REMARK INTER:                  -4.294
REMARK INTRA:                  -0.753
REMARK UNBOUND:                -0.614
REMARK SMILES CCCCCCCCC(=O)[O-]
REMARK SMILES IDX 6 1 7 2 8 3 9 4 10 5 11 6 5 7 4 8 3 9 2 10 1 11
REMARK H PARENT
REMARK Flexibility Score: inf
ROOT
ATOM      1  C   UNL     1    -100.484  24.633  19.624  1.00  0.00     0.000 C 
ENDROOT
BRANCH   1   2
ATOM      2  C   UNL     1    -101.920  24.622  20.177  1.00  0.00     0.006 C 
BRANCH   2   3
ATOM      3  C   UNL     1    -102.840  25.687  19.554  1.00  0.00     0.053 C 
BRANCH   3   4
ATOM      4  C   UNL     1    -102.894  26.949  20.360  1.00  0.00     0.041 C 
ATOM      5  O   UNL     1    -103.937  27.253  20.998  1.00  0.00    -0.550 OA
ATOM      6  O   UNL     1    -101.802  27.808  20.381  1.00  0.00    -0.550 OA
ENDBRANCH   3   4
ENDBRANCH   2   3
ENDBRANCH   1   2
BRANCH   1   7
ATOM      7  C   UNL     1    -100.425  24.883  18.109  1.00  0.00     0.000 C 
BRANCH   7   8
ATOM      8  C   UNL     1    -100.412  23.578  17.295  1.00  0.00    -0.000 C 
BRANCH   8   9
ATOM      9  C   UNL     1    -101.814  23.178  16.803  1.00  0.00    -0.000 C 
BRANCH   9  10
ATOM     10  C   UNL     1    -102.372  21.954  17.546  1.00  0.00    -0.003 C 
ATOM     11  C   UNL     1    -103.782  22.183  18.092  1.00  0.00     0.004 C 
ENDBRANCH   9  10
ENDBRANCH   8   9
ENDBRANCH   7   8
ENDBRANCH   1   7
TORSDOF 7
ENDMDL
MODEL 9
REMARK VINA RESULT:    -3.080     18.911     19.758
REMARK INTER + INTRA:          -4.955
REMARK INTER:                  -4.434
REMARK INTRA:                  -0.521
REMARK UNBOUND:                -0.614
REMARK SMILES CCCCCCCCC(=O)[O-]
REMARK SMILES IDX 6 1 7 2 8 3 9 4 10 5 11 6 5 7 4 8 3 9 2 10 1 11
REMARK H PARENT
REMARK Flexibility Score: inf
ROOT
ATOM      1  C   UNL     1    -100.584  21.293  31.662  1.00  0.00     0.000 C 
ENDROOT
BRANCH   1   2
ATOM      2  C   UNL     1    -100.239  20.124  32.603  1.00  0.00     0.006 C 
BRANCH   2   3
ATOM      3  C   UNL     1    -100.362  20.468  34.099  1.00  0.00     0.053 C 
BRANCH   3   4
ATOM      4  C   UNL     1    -101.776  20.410  34.592  1.00  0.00     0.041 C 
ATOM      5  O   UNL     1    -102.252  19.332  35.037  1.00  0.00    -0.550 OA
ATOM      6  O   UNL     1    -102.581  21.542  34.530  1.00  0.00    -0.550 OA
ENDBRANCH   3   4
ENDBRANCH   2   3
ENDBRANCH   1   2
BRANCH   1   7
ATOM      7  C   UNL     1     -99.956  22.625  32.102  1.00  0.00     0.000 C 
BRANCH   7   8
ATOM      8  C   UNL     1    -100.761  23.844  31.621  1.00  0.00    -0.000 C 
BRANCH   8   9
ATOM      9  C   UNL     1    -102.279  23.593  31.643  1.00  0.00    -0.000 C 
BRANCH   9  10
ATOM     10  C   UNL     1    -103.032  24.607  32.520  1.00  0.00    -0.003 C 
ATOM     11  C   UNL     1    -104.459  24.165  32.844  1.00  0.00     0.004 C 
ENDBRANCH   9  10
ENDBRANCH   8   9
ENDBRANCH   7   8
ENDBRANCH   1   7
TORSDOF 7
ENDMDL
