MODEL 1
REMARK VINA RESULT:    -3.169      0.000      0.000
REMARK INTER + INTRA:          -3.572
REMARK INTER:                  -3.539
REMARK INTRA:                  -0.033
REMARK UNBOUND:                -0.033
REMARK SMILES CCCC(=O)[O-]
REMARK SMILES IDX 3 1 4 2 5 3 6 4 2 5 1 6
REMARK H PARENT
REMARK Flexibility Score: inf
ROOT
ATOM      1  C   UNL     1      -9.247   4.431  -9.151  1.00  0.00     0.052 C 
ENDROOT
BRANCH   1   2
ATOM      2  C   UNL     1      -8.705   5.328  -8.083  1.00  0.00     0.041 C 
ATOM      3  O   UNL     1      -9.455   5.735  -7.157  1.00  0.00    -0.550 OA
ATOM      4  O   UNL     1      -7.360   5.675  -8.082  1.00  0.00    -0.550 OA
ENDBRANCH   1   2
BRANCH   1   5
ATOM      5  C   UNL     1      -9.616   5.242 -10.395  1.00  0.00     0.003 C 
ATOM      6  C   UNL     1      -8.708   4.891 -11.570  1.00  0.00     0.004 C 
ENDBRANCH   1   5
TORSDOF 2
ENDMDL
MODEL 2
REMARK VINA RESULT:    -3.086      1.225      1.920
REMARK INTER + INTRA:          -3.480
REMARK INTER:                  -3.457
REMARK INTRA:                  -0.022
REMARK UNBOUND:                -0.033
REMARK SMILES CCCC(=O)[O-]
REMARK SMILES IDX 3 1 4 2 5 3 6 4 2 5 1 6
REMARK H PARENT
REMARK Flexibility Score: inf
ROOT
ATOM      1  C   UNL     1      -9.133   5.560  -7.940  1.00  0.00     0.052 C 
ENDROOT
BRANCH   1   2
ATOM      2  C   UNL     1      -7.786   5.540  -7.288  1.00  0.00     0.041 C 
ATOM      3  O   UNL     1      -6.774   5.954  -7.913  1.00  0.00    -0.550 OA
ATOM      4  O   UNL     1      -7.655   5.111  -5.973  1.00  0.00    -0.550 OA
ENDBRANCH   1   2
BRANCH   1   5
ATOM      5  C   UNL     1      -9.145   4.651  -9.171  1.00  0.00     0.003 C 
ATOM      6  C   UNL     1      -9.895   5.303 -10.329  1.00  0.00     0.004 C 
ENDBRANCH   1   5
TORSDOF 2
ENDMDL
MODEL 3
REMARK VINA RESULT:    -3.041      1.376      1.736
REMARK INTER + INTRA:          -3.430
REMARK INTER:                  -3.419
REMARK INTRA:                  -0.011
REMARK UNBOUND:                -0.033
REMARK SMILES CCCC(=O)[O-]
REMARK SMILES IDX 3 1 4 2 5 3 6 4 2 5 1 6
REMARK H PARENT
REMARK Flexibility Score: inf
ROOT
ATOM      1  C   UNL     1      -9.163   5.593  -7.734  1.00  0.00     0.052 C 
ENDROOT
BRANCH   1   2
ATOM      2  C   UNL     1      -7.856   5.672  -7.010  1.00  0.00     0.041 C 
ATOM      3  O   UNL     1      -7.662   4.981  -5.976  1.00  0.00    -0.550 OA
ATOM      4  O   UNL     1      -6.833   6.472  -7.505  1.00  0.00    -0.550 OA
ENDBRANCH   1   2
BRANCH   1   5
ATOM      5  C   UNL     1      -8.991   4.867  -9.071  1.00  0.00     0.003 C 
ATOM      6  C   UNL     1      -9.993   5.373 -10.104  1.00  0.00     0.004 C 
ENDBRANCH   1   5
TORSDOF 2
ENDMDL
MODEL 4
REMARK VINA RESULT:    -2.912      1.150      1.413
REMARK INTER + INTRA:          -3.285
REMARK INTER:                  -3.278
REMARK INTRA:                  -0.007
REMARK UNBOUND:                -0.033
REMARK SMILES CCCC(=O)[O-]
REMARK SMILES IDX 3 1 4 2 5 3 6 4 2 5 1 6
REMARK H PARENT
REMARK Flexibility Score: inf
ROOT
ATOM      1  C   UNL     1      -8.240   5.288  -8.280  1.00  0.00     0.052 C 
ENDROOT
BRANCH   1   2
ATOM      2  C   UNL     1      -8.482   5.972  -6.971  1.00  0.00     0.041 C 
ATOM      3  O   UNL     1      -9.465   5.643  -6.256  1.00  0.00    -0.550 OA
ATOM      4  O   UNL     1      -7.594   6.940  -6.517  1.00  0.00    -0.550 OA
ENDBRANCH   1   2
BRANCH   1   5
ATOM      5  C   UNL     1      -9.517   5.279  -9.123  1.00  0.00     0.003 C 
ATOM      6  C   UNL     1      -9.207   4.989 -10.589  1.00  0.00     0.004 C 
ENDBRANCH   1   5
TORSDOF 2
ENDMDL
MODEL 5
REMARK VINA RESULT:    -2.854      1.927      2.786
REMARK INTER + INTRA:          -3.220
REMARK INTER:                  -3.208
REMARK INTRA:                  -0.012
REMARK UNBOUND:                -0.033
REMARK SMILES CCCC(=O)[O-]
REMARK SMILES IDX 3 1 4 2 5 3 6 4 2 5 1 6
REMARK H PARENT
REMARK Flexibility Score: inf
ROOT
ATOM      1  C   UNL     1      -7.824   5.432  -7.183  1.00  0.00     0.052 C 
ENDROOT
BRANCH   1   2
ATOM      2  C   UNL     1      -8.168   5.227  -5.741  1.00  0.00     0.041 C 
ATOM      3  O   UNL     1      -7.403   4.561  -4.996  1.00  0.00    -0.550 OA
ATOM      4  O   UNL     1      -9.309   5.814  -5.208  1.00  0.00    -0.550 OA
ENDBRANCH   1   2
BRANCH   1   5
ATOM      5  C   UNL     1      -9.095   5.614  -8.016  1.00  0.00     0.003 C 
ATOM      6  C   UNL     1      -9.066   4.735  -9.263  1.00  0.00     0.004 C 
ENDBRANCH   1   5
TORSDOF 2
ENDMDL
MODEL 6
REMARK VINA RESULT:    -2.819      2.146      3.250
REMARK INTER + INTRA:          -3.181
REMARK INTER:                  -3.169
REMARK INTRA:                  -0.012
REMARK UNBOUND:                -0.033
REMARK SMILES CCCC(=O)[O-]
REMARK SMILES IDX 3 1 4 2 5 3 6 4 2 5 1 6
REMARK H PARENT
REMARK Flexibility Score: inf
ROOT
ATOM      1  C   UNL     1      -8.387   5.063  -8.924  1.00  0.00     0.052 C 
ENDROOT
BRANCH   1   2
ATOM      2  C   UNL     1      -9.241   5.122 -10.152  1.00  0.00     0.041 C 
ATOM      3  O   UNL     1     -10.397   5.617 -10.096  1.00  0.00    -0.550 OA
ATOM      4  O   UNL     1      -8.741   4.675 -11.369  1.00  0.00    -0.550 OA
ENDBRANCH   1   2
BRANCH   1   5
ATOM      5  C   UNL     1      -9.154   5.600  -7.713  1.00  0.00     0.003 C 
ATOM      6  C   UNL     1      -8.283   5.586  -6.460  1.00  0.00     0.004 C 
ENDBRANCH   1   5
TORSDOF 2
ENDMDL
MODEL 7
REMARK VINA RESULT:    -2.803      2.179      3.420
REMARK INTER + INTRA:          -3.164
REMARK INTER:                  -3.151
REMARK INTRA:                  -0.012
REMARK UNBOUND:                -0.033
REMARK SMILES CCCC(=O)[O-]
REMARK SMILES IDX 3 1 4 2 5 3 6 4 2 5 1 6
REMARK H PARENT
REMARK Flexibility Score: inf
ROOT
ATOM      1  C   UNL     1      -7.247   5.685  -8.037  1.00  0.00     0.052 C 
ENDROOT
BRANCH   1   2
ATOM      2  C   UNL     1      -8.690   5.289  -8.066  1.00  0.00     0.041 C 
ATOM      3  O   UNL     1      -9.464   5.645  -7.140  1.00  0.00    -0.550 OA
ATOM      4  O   UNL     1      -9.191   4.567  -9.143  1.00  0.00    -0.550 OA
ENDBRANCH   1   2
BRANCH   1   5
ATOM      5  C   UNL     1      -6.986   6.668  -6.894  1.00  0.00     0.003 C 
ATOM      6  C   UNL     1      -5.579   7.252  -6.980  1.00  0.00     0.004 C 
ENDBRANCH   1   5
TORSDOF 2
ENDMDL
MODEL 8
REMARK VINA RESULT:    -2.725      4.067      4.844
REMARK INTER + INTRA:          -3.076
REMARK INTER:                  -3.070
REMARK INTRA:                  -0.006
REMARK UNBOUND:                -0.033
REMARK SMILES CCCC(=O)[O-]
REMARK SMILES IDX 3 1 4 2 5 3 6 4 2 5 1 6
REMARK H PARENT
REMARK Flexibility Score: inf
ROOT
ATOM      1  C   UNL     1      -7.712   5.218 -12.110  1.00  0.00     0.052 C 
ENDROOT
BRANCH   1   2
ATOM      2  C   UNL     1      -7.570   4.953 -13.576  1.00  0.00     0.041 C 
ATOM      3  O   UNL     1      -8.162   5.685 -14.412  1.00  0.00    -0.550 OA
ATOM      4  O   UNL     1      -6.745   3.928 -14.021  1.00  0.00    -0.550 OA
ENDBRANCH   1   2
BRANCH   1   5
ATOM      5  C   UNL     1      -9.059   4.700 -11.600  1.00  0.00     0.003 C 
ATOM      6  C   UNL     1      -9.240   5.004 -10.116  1.00  0.00     0.004 C 
ENDBRANCH   1   5
TORSDOF 2
ENDMDL
MODEL 9
REMARK VINA RESULT:    -2.712      3.652      4.688
REMARK INTER + INTRA:          -3.061
REMARK INTER:                  -3.038
REMARK INTRA:                  -0.023
REMARK UNBOUND:                -0.033
REMARK SMILES CCCC(=O)[O-]
REMARK SMILES IDX 3 1 4 2 5 3 6 4 2 5 1 6
REMARK H PARENT
REMARK Flexibility Score: inf
ROOT
ATOM      1  C   UNL     1      -6.982   5.328 -12.598  1.00  0.00     0.052 C 
ENDROOT
BRANCH   1   2
ATOM      2  C   UNL     1      -8.371   4.819 -12.371  1.00  0.00     0.041 C 
ATOM      3  O   UNL     1      -9.002   4.262 -13.308  1.00  0.00    -0.550 OA
ATOM      4  O   UNL     1      -8.951   4.915 -11.112  1.00  0.00    -0.550 OA
ENDBRANCH   1   2
BRANCH   1   5
ATOM      5  C   UNL     1      -6.328   4.593 -13.770  1.00  0.00     0.003 C 
ATOM      6  C   UNL     1      -5.444   5.534 -14.585  1.00  0.00     0.004 C 
ENDBRANCH   1   5
TORSDOF 2
ENDMDL
