MODEL 1
REMARK VINA RESULT:    -3.772      0.000      0.000
REMARK INTER + INTRA:          -6.930
REMARK INTER:                  -5.756
REMARK INTRA:                  -1.174
REMARK UNBOUND:                -1.174
REMARK SMILES CCCCCCCCCCC(=O)[O-]
REMARK SMILES IDX 7 1 8 2 9 3 10 4 11 5 12 6 13 7 6 8 5 9 4 10 3 11 2 12 1 13
REMARK H PARENT
REMARK Flexibility Score: inf
ROOT
ATOM      1  C   UNL     1      93.143  84.801  79.190  1.00  0.00     0.000 C 
ENDROOT
BRANCH   1   2
ATOM      2  C   UNL     1      93.512  83.310  79.157  1.00  0.00     0.000 C 
BRANCH   2   3
ATOM      3  C   UNL     1      94.250  82.900  80.437  1.00  0.00     0.006 C 
BRANCH   3   4
ATOM      4  C   UNL     1      95.249  83.979  80.865  1.00  0.00     0.053 C 
BRANCH   4   5
ATOM      5  C   UNL     1      96.638  83.597  80.462  1.00  0.00     0.041 C 
ATOM      6  O   UNL     1      97.091  82.458  80.752  1.00  0.00    -0.550 OA
ATOM      7  O   UNL     1      97.450  84.514  79.807  1.00  0.00    -0.550 OA
ENDBRANCH   4   5
ENDBRANCH   3   4
ENDBRANCH   2   3
ENDBRANCH   1   2
BRANCH   1   8
ATOM      8  C   UNL     1      91.759  85.081  78.582  1.00  0.00     0.000 C 
BRANCH   8   9
ATOM      9  C   UNL     1      90.751  83.955  78.858  1.00  0.00    -0.000 C 
BRANCH   9  10
ATOM     10  C   UNL     1      89.738  84.375  79.930  1.00  0.00    -0.000 C 
BRANCH  10  11
ATOM     11  C   UNL     1      89.639  83.316  81.038  1.00  0.00    -0.000 C 
BRANCH  11  12
ATOM     12  C   UNL     1      90.923  83.219  81.877  1.00  0.00    -0.003 C 
ATOM     13  C   UNL     1      91.317  84.550  82.514  1.00  0.00     0.004 C 
ENDBRANCH  11  12
ENDBRANCH  10  11
ENDBRANCH   9  10
ENDBRANCH   8   9
ENDBRANCH   1   8
TORSDOF 9
ENDMDL
MODEL 2
REMARK VINA RESULT:    -3.720      2.447      3.610
REMARK INTER + INTRA:          -6.851
REMARK INTER:                  -6.334
REMARK INTRA:                  -0.516
REMARK UNBOUND:                -1.174
REMARK SMILES CCCCCCCCCCC(=O)[O-]
REMARK SMILES IDX 7 1 8 2 9 3 10 4 11 5 12 6 13 7 6 8 5 9 4 10 3 11 2 12 1 13
REMARK H PARENT
REMARK Flexibility Score: inf
ROOT
ATOM      1  C   UNL     1      90.943  83.356  81.126  1.00  0.00     0.000 C 
ENDROOT
BRANCH   1   2
ATOM      2  C   UNL     1      91.665  84.585  80.552  1.00  0.00     0.000 C 
BRANCH   2   3
ATOM      3  C   UNL     1      92.332  84.252  79.211  1.00  0.00     0.006 C 
BRANCH   3   4
ATOM      4  C   UNL     1      93.533  83.323  79.411  1.00  0.00     0.053 C 
BRANCH   4   5
ATOM      5  C   UNL     1      94.771  84.119  79.681  1.00  0.00     0.041 C 
ATOM      6  O   UNL     1      95.272  84.838  78.776  1.00  0.00    -0.550 OA
ATOM      7  O   UNL     1      95.400  84.030  80.916  1.00  0.00    -0.550 OA
ENDBRANCH   4   5
ENDBRANCH   3   4
ENDBRANCH   2   3
ENDBRANCH   1   2
BRANCH   1   8
ATOM      8  C   UNL     1      89.416  83.443  80.977  1.00  0.00     0.000 C 
BRANCH   8   9
ATOM      9  C   UNL     1      88.936  83.076  79.565  1.00  0.00    -0.000 C 
BRANCH   9  10
ATOM     10  C   UNL     1      87.945  81.907  79.608  1.00  0.00    -0.000 C 
BRANCH  10  11
ATOM     11  C   UNL     1      87.312  81.772  81.001  1.00  0.00    -0.000 C 
BRANCH  11  12
ATOM     12  C   UNL     1      86.574  80.437  81.186  1.00  0.00    -0.003 C 
ATOM     13  C   UNL     1      86.639  79.548  79.946  1.00  0.00     0.004 C 
ENDBRANCH  11  12
ENDBRANCH  10  11
ENDBRANCH   9  10
ENDBRANCH   8   9
ENDBRANCH   1   8
TORSDOF 9
ENDMDL
MODEL 3
REMARK VINA RESULT:    -3.643      3.276      4.597
REMARK INTER + INTRA:          -6.733
REMARK INTER:                  -6.089
REMARK INTRA:                  -0.645
REMARK UNBOUND:                -1.174
REMARK SMILES CCCCCCCCCCC(=O)[O-]
REMARK SMILES IDX 7 1 8 2 9 3 10 4 11 5 12 6 13 7 6 8 5 9 4 10 3 11 2 12 1 13
REMARK H PARENT
REMARK Flexibility Score: inf
ROOT
ATOM      1  C   UNL     1      88.901  84.338  80.405  1.00  0.00     0.000 C 
ENDROOT
BRANCH   1   2
ATOM      2  C   UNL     1      90.039  84.611  81.400  1.00  0.00     0.000 C 
BRANCH   2   3
ATOM      3  C   UNL     1      90.868  83.344  81.644  1.00  0.00     0.006 C 
BRANCH   3   4
ATOM      4  C   UNL     1      92.366  83.664  81.673  1.00  0.00     0.053 C 
BRANCH   4   5
ATOM      5  C   UNL     1      93.032  83.161  80.432  1.00  0.00     0.041 C 
ATOM      6  O   UNL     1      93.944  82.296  80.508  1.00  0.00    -0.550 OA
ATOM      7  O   UNL     1      92.680  83.682  79.193  1.00  0.00    -0.550 OA
ENDBRANCH   4   5
ENDBRANCH   3   4
ENDBRANCH   2   3
ENDBRANCH   1   2
BRANCH   1   8
ATOM      8  C   UNL     1      89.198  83.149  79.476  1.00  0.00     0.000 C 
BRANCH   8   9
ATOM      9  C   UNL     1      88.021  82.169  79.374  1.00  0.00    -0.000 C 
BRANCH   9  10
ATOM     10  C   UNL     1      87.479  81.813  80.764  1.00  0.00    -0.000 C 
BRANCH  10  11
ATOM     11  C   UNL     1      87.035  80.344  80.823  1.00  0.00    -0.000 C 
BRANCH  11  12
ATOM     12  C   UNL     1      85.756  80.082  80.012  1.00  0.00    -0.003 C 
ATOM     13  C   UNL     1      85.415  78.597  79.909  1.00  0.00     0.004 C 
ENDBRANCH  11  12
ENDBRANCH  10  11
ENDBRANCH   9  10
ENDBRANCH   8   9
ENDBRANCH   1   8
TORSDOF 9
ENDMDL
MODEL 4
REMARK VINA RESULT:    -3.636      1.562      2.641
REMARK INTER + INTRA:          -6.722
REMARK INTER:                  -6.369
REMARK INTRA:                  -0.353
REMARK UNBOUND:                -1.174
REMARK SMILES CCCCCCCCCCC(=O)[O-]
REMARK SMILES IDX 7 1 8 2 9 3 10 4 11 5 12 6 13 7 6 8 5 9 4 10 3 11 2 12 1 13
REMARK H PARENT
REMARK Flexibility Score: inf
ROOT
ATOM      1  C   UNL     1      92.512  83.500  80.189  1.00  0.00     0.000 C 
ENDROOT
BRANCH   1   2
ATOM      2  C   UNL     1      93.844  82.759  80.379  1.00  0.00     0.000 C 
BRANCH   2   3
ATOM      3  C   UNL     1      95.032  83.704  80.160  1.00  0.00     0.006 C 
BRANCH   3   4
ATOM      4  C   UNL     1      96.350  83.030  80.555  1.00  0.00     0.053 C 
BRANCH   4   5
ATOM      5  C   UNL     1      97.501  83.959  80.329  1.00  0.00     0.041 C 
ATOM      6  O   UNL     1      97.294  85.148  79.969  1.00  0.00    -0.550 OA
ATOM      7  O   UNL     1      98.804  83.500  80.470  1.00  0.00    -0.550 OA
ENDBRANCH   4   5
ENDBRANCH   3   4
ENDBRANCH   2   3
ENDBRANCH   1   2
BRANCH   1   8
ATOM      8  C   UNL     1      91.720  83.641  81.499  1.00  0.00     0.000 C 
BRANCH   8   9
ATOM      9  C   UNL     1      90.235  83.289  81.335  1.00  0.00    -0.000 C 
BRANCH   9  10
ATOM     10  C   UNL     1      89.755  83.581  79.908  1.00  0.00    -0.000 C 
BRANCH  10  11
ATOM     11  C   UNL     1      88.257  83.274  79.757  1.00  0.00    -0.000 C 
BRANCH  11  12
ATOM     12  C   UNL     1      87.986  81.790  79.465  1.00  0.00    -0.003 C 
ATOM     13  C   UNL     1      87.282  81.078  80.619  1.00  0.00     0.004 C 
ENDBRANCH  11  12
ENDBRANCH  10  11
ENDBRANCH   9  10
ENDBRANCH   8   9
ENDBRANCH   1   8
TORSDOF 9
ENDMDL
MODEL 5
REMARK VINA RESULT:    -3.628      2.539      4.121
REMARK INTER + INTRA:          -6.710
REMARK INTER:                  -6.308
REMARK INTRA:                  -0.402
REMARK UNBOUND:                -1.174
REMARK SMILES CCCCCCCCCCC(=O)[O-]
REMARK SMILES IDX 7 1 8 2 9 3 10 4 11 5 12 6 13 7 6 8 5 9 4 10 3 11 2 12 1 13
REMARK H PARENT
REMARK Flexibility Score: inf
ROOT
ATOM      1  C   UNL     1      96.914  83.959  80.425  1.00  0.00     0.000 C 
ENDROOT
BRANCH   1   2
ATOM      2  C   UNL     1      97.193  82.500  80.817  1.00  0.00     0.000 C 
BRANCH   2   3
ATOM      3  C   UNL     1      98.389  82.408  81.772  1.00  0.00     0.006 C 
BRANCH   3   4
ATOM      4  C   UNL     1      99.429  83.488  81.456  1.00  0.00     0.053 C 
BRANCH   4   5
ATOM      5  C   UNL     1     100.397  83.630  82.588  1.00  0.00     0.041 C 
ATOM      6  O   UNL     1      99.985  83.624  83.778  1.00  0.00    -0.550 OA
ATOM      7  O   UNL     1     101.748  83.818  82.328  1.00  0.00    -0.550 OA
ENDBRANCH   4   5
ENDBRANCH   3   4
ENDBRANCH   2   3
ENDBRANCH   1   2
BRANCH   1   8
ATOM      8  C   UNL     1      95.458  84.185  79.985  1.00  0.00     0.000 C 
BRANCH   8   9
ATOM      9  C   UNL     1      94.556  82.978  80.279  1.00  0.00    -0.000 C 
BRANCH   9  10
ATOM     10  C   UNL     1      93.319  82.982  79.372  1.00  0.00    -0.000 C 
BRANCH  10  11
ATOM     11  C   UNL     1      92.225  83.900  79.939  1.00  0.00    -0.000 C 
BRANCH  11  12
ATOM     12  C   UNL     1      91.077  84.132  78.944  1.00  0.00    -0.003 C 
ATOM     13  C   UNL     1      91.306  85.347  78.048  1.00  0.00     0.004 C 
ENDBRANCH  11  12
ENDBRANCH  10  11
ENDBRANCH   9  10
ENDBRANCH   8   9
ENDBRANCH   1   8
TORSDOF 9
ENDMDL
MODEL 6
REMARK VINA RESULT:    -3.622      1.747      3.040
REMARK INTER + INTRA:          -6.701
REMARK INTER:                  -6.161
REMARK INTRA:                  -0.540
REMARK UNBOUND:                -1.174
REMARK SMILES CCCCCCCCCCC(=O)[O-]
REMARK SMILES IDX 7 1 8 2 9 3 10 4 11 5 12 6 13 7 6 8 5 9 4 10 3 11 2 12 1 13
REMARK H PARENT
REMARK Flexibility Score: inf
ROOT
ATOM      1  C   UNL     1      95.487  83.794  80.934  1.00  0.00     0.000 C 
ENDROOT
BRANCH   1   2
ATOM      2  C   UNL     1      96.280  84.491  79.818  1.00  0.00     0.000 C 
BRANCH   2   3
ATOM      3  C   UNL     1      97.790  84.337  80.041  1.00  0.00     0.006 C 
BRANCH   3   4
ATOM      4  C   UNL     1      98.107  83.027  80.768  1.00  0.00     0.053 C 
BRANCH   4   5
ATOM      5  C   UNL     1      99.089  83.265  81.871  1.00  0.00     0.041 C 
ATOM      6  O   UNL     1      98.730  83.859  82.922  1.00  0.00    -0.550 OA
ATOM      7  O   UNL     1     100.413  82.873  81.721  1.00  0.00    -0.550 OA
ENDBRANCH   4   5
ENDBRANCH   3   4
ENDBRANCH   2   3
ENDBRANCH   1   2
BRANCH   1   8
ATOM      8  C   UNL     1      94.444  82.804  80.389  1.00  0.00     0.000 C 
BRANCH   8   9
ATOM      9  C   UNL     1      93.560  83.418  79.293  1.00  0.00    -0.000 C 
BRANCH   9  10
ATOM     10  C   UNL     1      92.255  83.965  79.882  1.00  0.00    -0.000 C 
BRANCH  10  11
ATOM     11  C   UNL     1      91.853  83.189  81.146  1.00  0.00    -0.000 C 
BRANCH  11  12
ATOM     12  C   UNL     1      90.487  83.627  81.697  1.00  0.00    -0.003 C 
ATOM     13  C   UNL     1      89.318  83.092  80.872  1.00  0.00     0.004 C 
ENDBRANCH  11  12
ENDBRANCH  10  11
ENDBRANCH   9  10
ENDBRANCH   8   9
ENDBRANCH   1   8
TORSDOF 9
ENDMDL
MODEL 7
REMARK VINA RESULT:    -3.579      3.038      4.262
REMARK INTER + INTRA:          -6.635
REMARK INTER:                  -5.943
REMARK INTRA:                  -0.692
REMARK UNBOUND:                -1.174
REMARK SMILES CCCCCCCCCCC(=O)[O-]
REMARK SMILES IDX 7 1 8 2 9 3 10 4 11 5 12 6 13 7 6 8 5 9 4 10 3 11 2 12 1 13
REMARK H PARENT
REMARK Flexibility Score: inf
ROOT
ATOM      1  C   UNL     1      89.656  84.023  81.856  1.00  0.00     0.000 C 
ENDROOT
BRANCH   1   2
ATOM      2  C   UNL     1      90.797  83.007  81.691  1.00  0.00     0.000 C 
BRANCH   2   3
ATOM      3  C   UNL     1      92.160  83.709  81.698  1.00  0.00     0.006 C 
BRANCH   3   4
ATOM      4  C   UNL     1      93.016  83.259  80.509  1.00  0.00     0.053 C 
BRANCH   4   5
ATOM      5  C   UNL     1      92.830  84.186  79.350  1.00  0.00     0.041 C 
ATOM      6  O   UNL     1      91.790  84.116  78.643  1.00  0.00    -0.550 OA
ATOM      7  O   UNL     1      93.825  85.097  79.020  1.00  0.00    -0.550 OA
ENDBRANCH   4   5
ENDBRANCH   3   4
ENDBRANCH   2   3
ENDBRANCH   1   2
BRANCH   1   8
ATOM      8  C   UNL     1      88.355  83.567  81.174  1.00  0.00     0.000 C 
BRANCH   8   9
ATOM      9  C   UNL     1      88.589  83.015  79.761  1.00  0.00    -0.000 C 
BRANCH   9  10
ATOM     10  C   UNL     1      87.737  81.765  79.511  1.00  0.00    -0.000 C 
BRANCH  10  11
ATOM     11  C   UNL     1      87.539  80.965  80.807  1.00  0.00    -0.000 C 
BRANCH  11  12
ATOM     12  C   UNL     1      86.062  80.647  81.085  1.00  0.00    -0.003 C 
ATOM     13  C   UNL     1      85.695  80.782  82.562  1.00  0.00     0.004 C 
ENDBRANCH  11  12
ENDBRANCH  10  11
ENDBRANCH   9  10
ENDBRANCH   8   9
ENDBRANCH   1   8
TORSDOF 9
ENDMDL
MODEL 8
REMARK VINA RESULT:    -3.566      3.336      6.858
REMARK INTER + INTRA:          -6.616
REMARK INTER:                  -5.991
REMARK INTRA:                  -0.626
REMARK UNBOUND:                -1.174
REMARK SMILES CCCCCCCCCCC(=O)[O-]
REMARK SMILES IDX 7 1 8 2 9 3 10 4 11 5 12 6 13 7 6 8 5 9 4 10 3 11 2 12 1 13
REMARK H PARENT
REMARK Flexibility Score: inf
ROOT
ATOM      1  C   UNL     1      97.310  84.083  80.139  1.00  0.00     0.000 C 
ENDROOT
BRANCH   1   2
ATOM      2  C   UNL     1      95.928  84.648  79.779  1.00  0.00     0.000 C 
BRANCH   2   3
ATOM      3  C   UNL     1      94.812  83.818  80.425  1.00  0.00     0.006 C 
BRANCH   3   4
ATOM      4  C   UNL     1      93.818  83.317  79.373  1.00  0.00     0.053 C 
BRANCH   4   5
ATOM      5  C   UNL     1      92.524  84.061  79.479  1.00  0.00     0.041 C 
ATOM      6  O   UNL     1      91.667  83.722  80.337  1.00  0.00    -0.550 OA
ATOM      7  O   UNL     1      92.243  85.098  78.599  1.00  0.00    -0.550 OA
ENDBRANCH   4   5
ENDBRANCH   3   4
ENDBRANCH   2   3
ENDBRANCH   1   2
BRANCH   1   8
ATOM      8  C   UNL     1      97.247  82.624  80.620  1.00  0.00     0.000 C 
BRANCH   8   9
ATOM      9  C   UNL     1      98.265  82.322  81.729  1.00  0.00    -0.000 C 
BRANCH   9  10
ATOM     10  C   UNL     1      99.554  83.129  81.527  1.00  0.00    -0.000 C 
BRANCH  10  11
ATOM     11  C   UNL     1     100.292  83.330  82.860  1.00  0.00    -0.000 C 
BRANCH  11  12
ATOM     12  C   UNL     1     100.755  84.781  83.064  1.00  0.00    -0.003 C 
ATOM     13  C   UNL     1      99.890  85.790  82.311  1.00  0.00     0.004 C 
ENDBRANCH  11  12
ENDBRANCH  10  11
ENDBRANCH   9  10
ENDBRANCH   8   9
ENDBRANCH   1   8
TORSDOF 9
ENDMDL
MODEL 9
REMARK VINA RESULT:    -3.503      3.566      6.016
REMARK INTER + INTRA:          -6.520
REMARK INTER:                  -5.881
REMARK INTRA:                  -0.639
REMARK UNBOUND:                -1.174
REMARK SMILES CCCCCCCCCCC(=O)[O-]
REMARK SMILES IDX 7 1 8 2 9 3 10 4 11 5 12 6 13 7 6 8 5 9 4 10 3 11 2 12 1 13
REMARK H PARENT
REMARK Flexibility Score: inf
ROOT
ATOM      1  C   UNL     1      91.196  83.153  81.771  1.00  0.00     0.000 C 
ENDROOT
BRANCH   1   2
ATOM      2  C   UNL     1      89.820  83.834  81.810  1.00  0.00     0.000 C 
BRANCH   2   3
ATOM      3  C   UNL     1      88.828  83.116  80.886  1.00  0.00     0.006 C 
BRANCH   3   4
ATOM      4  C   UNL     1      89.121  83.429  79.415  1.00  0.00     0.053 C 
BRANCH   4   5
ATOM      5  C   UNL     1      89.016  84.899  79.161  1.00  0.00     0.041 C 
ATOM      6  O   UNL     1      90.003  85.536  78.705  1.00  0.00    -0.550 OA
ATOM      7  O   UNL     1      87.845  85.577  79.472  1.00  0.00    -0.550 OA
ENDBRANCH   4   5
ENDBRANCH   3   4
ENDBRANCH   2   3
ENDBRANCH   1   2
BRANCH   1   8
ATOM      8  C   UNL     1      92.304  84.086  81.256  1.00  0.00     0.000 C 
BRANCH   8   9
ATOM      9  C   UNL     1      92.848  83.658  79.884  1.00  0.00    -0.000 C 
BRANCH   9  10
ATOM     10  C   UNL     1      94.336  84.003  79.751  1.00  0.00    -0.000 C 
BRANCH  10  11
ATOM     11  C   UNL     1      95.210  82.955  80.457  1.00  0.00    -0.000 C 
BRANCH  11  12
ATOM     12  C   UNL     1      96.695  83.347  80.484  1.00  0.00    -0.003 C 
ATOM     13  C   UNL     1      97.569  82.310  81.187  1.00  0.00     0.004 C 
ENDBRANCH  11  12
ENDBRANCH  10  11
ENDBRANCH   9  10
ENDBRANCH   8   9
ENDBRANCH   1   8
TORSDOF 9
ENDMDL
