MODEL 1
REMARK VINA RESULT:    -4.832      0.000      0.000
REMARK INTER + INTRA:          -5.669
REMARK INTER:                  -5.538
REMARK INTRA:                  -0.131
REMARK UNBOUND:                -0.131
REMARK SMILES CC=Cc1ccc(O)c(OC)c1
REMARK SMILES IDX 4 1 12 2 9 3 7 4 6 5 5 6 3 7 1 8 2 9 10 10 11 11 8 12
REMARK H PARENT 8 13
REMARK Flexibility Score: inf
ROOT
ATOM      1  C   UNL     1      10.741  -9.559 -44.385  1.00  0.00    -0.022 A 
ATOM      2  C   UNL     1      11.999 -10.018 -43.968  1.00  0.00     0.058 A 
ATOM      3  C   UNL     1      12.355 -11.373 -44.121  1.00  0.00     0.161 A 
ATOM      4  C   UNL     1      11.445 -12.259 -44.715  1.00  0.00     0.157 A 
ATOM      5  C   UNL     1      10.200 -11.795 -45.158  1.00  0.00     0.051 A 
ATOM      6  C   UNL     1       9.853 -10.452 -45.004  1.00  0.00     0.012 A 
ENDROOT
BRANCH   1   7
ATOM      7  C   UNL     1      10.410  -8.126 -44.236  1.00  0.00     0.003 C 
ATOM      8  C   UNL     1      10.104  -8.237 -41.749  1.00  0.00     0.035 C 
ATOM      9  C   UNL     1      10.105  -7.535 -43.073  1.00  0.00    -0.030 C 
ENDBRANCH   1   7
BRANCH   3  10
ATOM     10  O   UNL     1      13.597 -11.873 -43.699  1.00  0.00    -0.493 OA
ATOM     11  C   UNL     1      14.850 -11.502 -44.265  1.00  0.00     0.278 C 
ENDBRANCH   3  10
BRANCH   4  12
ATOM     12  O   UNL     1      11.790 -13.601 -44.867  1.00  0.00    -0.504 OA
ATOM     13  H   UNL     1      11.342 -14.188 -45.561  1.00  0.00     0.293 HD
ENDBRANCH   4  12
TORSDOF 3
ENDMDL
MODEL 2
REMARK VINA RESULT:    -4.823      1.317      3.037
REMARK INTER + INTRA:          -5.659
REMARK INTER:                  -5.494
REMARK INTRA:                  -0.165
REMARK UNBOUND:                -0.131
REMARK SMILES CC=Cc1ccc(O)c(OC)c1
REMARK SMILES IDX 4 1 12 2 9 3 7 4 6 5 5 6 3 7 1 8 2 9 10 10 11 11 8 12
REMARK H PARENT 8 13
REMARK Flexibility Score: inf
ROOT
ATOM      1  C   UNL     1      10.675  -9.563 -44.443  1.00  0.00    -0.022 A 
ATOM      2  C   UNL     1       9.607 -10.337 -44.924  1.00  0.00     0.058 A 
ATOM      3  C   UNL     1       9.766 -11.720 -45.141  1.00  0.00     0.161 A 
ATOM      4  C   UNL     1      10.998 -12.324 -44.852  1.00  0.00     0.157 A 
ATOM      5  C   UNL     1      12.054 -11.557 -44.344  1.00  0.00     0.051 A 
ATOM      6  C   UNL     1      11.892 -10.188 -44.131  1.00  0.00     0.012 A 
ENDROOT
BRANCH   1   7
ATOM      7  C   UNL     1      10.467  -8.120 -44.199  1.00  0.00     0.003 C 
ATOM      8  C   UNL     1      10.222  -8.359 -41.714  1.00  0.00     0.035 C 
ATOM      9  C   UNL     1      10.244  -7.579 -42.994  1.00  0.00    -0.030 C 
ENDBRANCH   1   7
BRANCH   3  10
ATOM     10  O   UNL     1       8.727 -12.523 -45.639  1.00  0.00    -0.493 OA
ATOM     11  C   UNL     1       7.422 -12.049 -45.952  1.00  0.00     0.278 C 
ENDBRANCH   3  10
BRANCH   4  12
ATOM     12  O   UNL     1      11.161 -13.691 -45.067  1.00  0.00    -0.504 OA
ATOM     13  H   UNL     1      11.012 -14.366 -44.325  1.00  0.00     0.293 HD
ENDBRANCH   4  12
TORSDOF 3
ENDMDL
MODEL 3
REMARK VINA RESULT:    -4.797      2.845      4.839
REMARK INTER + INTRA:          -5.630
REMARK INTER:                  -5.411
REMARK INTRA:                  -0.219
REMARK UNBOUND:                -0.131
REMARK SMILES CC=Cc1ccc(O)c(OC)c1
REMARK SMILES IDX 4 1 12 2 9 3 7 4 6 5 5 6 3 7 1 8 2 9 10 10 11 11 8 12
REMARK H PARENT 8 13
REMARK Flexibility Score: inf
ROOT
ATOM      1  C   UNL     1      11.457  -9.894 -43.668  1.00  0.00    -0.022 A 
ATOM      2  C   UNL     1      10.997  -9.759 -42.349  1.00  0.00     0.058 A 
ATOM      3  C   UNL     1      10.272  -8.616 -41.956  1.00  0.00     0.161 A 
ATOM      4  C   UNL     1       9.995  -7.619 -42.902  1.00  0.00     0.157 A 
ATOM      5  C   UNL     1      10.428  -7.768 -44.226  1.00  0.00     0.051 A 
ATOM      6  C   UNL     1      11.145  -8.901 -44.610  1.00  0.00     0.012 A 
ENDROOT
BRANCH   1   7
ATOM      7  C   UNL     1      12.189 -11.118 -44.055  1.00  0.00     0.003 C 
ATOM      8  C   UNL     1      10.138 -12.377 -44.761  1.00  0.00     0.035 C 
ATOM      9  C   UNL     1      11.610 -12.232 -44.521  1.00  0.00    -0.030 C 
ENDBRANCH   1   7
BRANCH   3  10
ATOM     10  O   UNL     1       9.813  -8.437 -40.642  1.00  0.00    -0.493 OA
ATOM     11  C   UNL     1      10.454  -8.964 -39.485  1.00  0.00     0.278 C 
ENDBRANCH   3  10
BRANCH   4  12
ATOM     12  O   UNL     1       9.280  -6.486 -42.519  1.00  0.00    -0.504 OA
ATOM     13  H   UNL     1       9.533  -5.954 -41.695  1.00  0.00     0.293 HD
ENDBRANCH   4  12
TORSDOF 3
ENDMDL
MODEL 4
REMARK VINA RESULT:    -4.557      2.519      3.615
REMARK INTER + INTRA:          -5.354
REMARK INTER:                  -5.266
REMARK INTRA:                  -0.088
REMARK UNBOUND:                -0.131
REMARK SMILES CC=Cc1ccc(O)c(OC)c1
REMARK SMILES IDX 4 1 12 2 9 3 7 4 6 5 5 6 3 7 1 8 2 9 10 10 11 11 8 12
REMARK H PARENT 8 13
REMARK Flexibility Score: inf
ROOT
ATOM      1  C   UNL     1       9.996 -10.797 -44.737  1.00  0.00    -0.022 A 
ATOM      2  C   UNL     1      10.415 -11.905 -45.488  1.00  0.00     0.058 A 
ATOM      3  C   UNL     1       9.585 -12.449 -46.489  1.00  0.00     0.161 A 
ATOM      4  C   UNL     1       8.340 -11.857 -46.744  1.00  0.00     0.157 A 
ATOM      5  C   UNL     1       7.934 -10.732 -46.015  1.00  0.00     0.051 A 
ATOM      6  C   UNL     1       8.760 -10.199 -45.025  1.00  0.00     0.012 A 
ENDROOT
BRANCH   1   7
ATOM      7  C   UNL     1      10.902 -10.234 -43.714  1.00  0.00     0.003 C 
ATOM      8  C   UNL     1      11.380  -8.129 -44.991  1.00  0.00     0.035 C 
ATOM      9  C   UNL     1      11.538  -9.060 -43.827  1.00  0.00    -0.030 C 
ENDBRANCH   1   7
BRANCH   3  10
ATOM     10  O   UNL     1       9.963 -13.568 -47.247  1.00  0.00    -0.493 OA
ATOM     11  C   UNL     1      11.236 -13.735 -47.860  1.00  0.00     0.278 C 
ENDBRANCH   3  10
BRANCH   4  12
ATOM     12  O   UNL     1       7.514 -12.391 -47.731  1.00  0.00    -0.504 OA
ATOM     13  H   UNL     1       7.874 -13.015 -48.444  1.00  0.00     0.293 HD
ENDBRANCH   4  12
TORSDOF 3
ENDMDL
MODEL 5
REMARK VINA RESULT:    -4.416      1.869      4.455
REMARK INTER + INTRA:          -5.193
REMARK INTER:                  -4.959
REMARK INTRA:                  -0.233
REMARK UNBOUND:                -0.131
REMARK SMILES CC=Cc1ccc(O)c(OC)c1
REMARK SMILES IDX 4 1 12 2 9 3 7 4 6 5 5 6 3 7 1 8 2 9 10 10 11 11 8 12
REMARK H PARENT 8 13
REMARK Flexibility Score: inf
ROOT
ATOM      1  C   UNL     1      13.097 -11.895 -43.541  1.00  0.00    -0.022 A 
ATOM      2  C   UNL     1      12.490 -10.707 -43.975  1.00  0.00     0.058 A 
ATOM      3  C   UNL     1      11.144 -10.700 -44.393  1.00  0.00     0.161 A 
ATOM      4  C   UNL     1      10.406 -11.892 -44.353  1.00  0.00     0.157 A 
ATOM      5  C   UNL     1      11.003 -13.072 -43.891  1.00  0.00     0.051 A 
ATOM      6  C   UNL     1      12.336 -13.073 -43.478  1.00  0.00     0.012 A 
ENDROOT
BRANCH   1   7
ATOM      7  C   UNL     1      14.501 -11.862 -43.082  1.00  0.00     0.003 C 
ATOM      8  C   UNL     1      15.442 -12.785 -45.216  1.00  0.00     0.035 C 
ATOM      9  C   UNL     1      15.547 -12.275 -43.811  1.00  0.00    -0.030 C 
ENDBRANCH   1   7
BRANCH   3  10
ATOM     10  O   UNL     1      10.509  -9.535 -44.852  1.00  0.00    -0.493 OA
ATOM     11  C   UNL     1      10.287  -8.373 -44.060  1.00  0.00     0.278 C 
ENDBRANCH   3  10
BRANCH   4  12
ATOM     12  O   UNL     1       9.076 -11.893 -44.767  1.00  0.00    -0.504 OA
ATOM     13  H   UNL     1       8.773 -12.424 -45.575  1.00  0.00     0.293 HD
ENDBRANCH   4  12
TORSDOF 3
ENDMDL
MODEL 6
REMARK VINA RESULT:    -4.416      1.634      1.945
REMARK INTER + INTRA:          -5.192
REMARK INTER:                  -4.972
REMARK INTRA:                  -0.220
REMARK UNBOUND:                -0.131
REMARK SMILES CC=Cc1ccc(O)c(OC)c1
REMARK SMILES IDX 4 1 12 2 9 3 7 4 6 5 5 6 3 7 1 8 2 9 10 10 11 11 8 12
REMARK H PARENT 8 13
REMARK Flexibility Score: inf
ROOT
ATOM      1  C   UNL     1      10.805 -10.195 -44.622  1.00  0.00    -0.022 A 
ATOM      2  C   UNL     1      11.423 -11.190 -43.850  1.00  0.00     0.058 A 
ATOM      3  C   UNL     1      10.869 -12.484 -43.771  1.00  0.00     0.161 A 
ATOM      4  C   UNL     1       9.701 -12.776 -44.488  1.00  0.00     0.157 A 
ATOM      5  C   UNL     1       9.099 -11.791 -45.283  1.00  0.00     0.051 A 
ATOM      6  C   UNL     1       9.652 -10.512 -45.357  1.00  0.00     0.012 A 
ENDROOT
BRANCH   1   7
ATOM      7  C   UNL     1      11.427  -8.857 -44.706  1.00  0.00     0.003 C 
ATOM      8  C   UNL     1       9.810  -7.772 -43.126  1.00  0.00     0.035 C 
ATOM      9  C   UNL     1      10.980  -7.771 -44.062  1.00  0.00    -0.030 C 
ENDBRANCH   1   7
BRANCH   3  10
ATOM     10  O   UNL     1      11.449 -13.499 -42.994  1.00  0.00    -0.493 OA
ATOM     11  C   UNL     1      12.540 -14.311 -43.413  1.00  0.00     0.278 C 
ENDBRANCH   3  10
BRANCH   4  12
ATOM     12  O   UNL     1       9.146 -14.052 -44.413  1.00  0.00    -0.504 OA
ATOM     13  H   UNL     1       9.216 -14.611 -43.570  1.00  0.00     0.293 HD
ENDBRANCH   4  12
TORSDOF 3
ENDMDL
MODEL 7
REMARK VINA RESULT:    -4.377     13.066     14.131
REMARK INTER + INTRA:          -5.147
REMARK INTER:                  -4.940
REMARK INTRA:                  -0.207
REMARK UNBOUND:                -0.131
REMARK SMILES CC=Cc1ccc(O)c(OC)c1
REMARK SMILES IDX 4 1 12 2 9 3 7 4 6 5 5 6 3 7 1 8 2 9 10 10 11 11 8 12
REMARK H PARENT 8 13
REMARK Flexibility Score: inf
ROOT
ATOM      1  C   UNL     1       8.749 -21.391 -35.780  1.00  0.00    -0.022 A 
ATOM      2  C   UNL     1       9.912 -21.304 -36.560  1.00  0.00     0.058 A 
ATOM      3  C   UNL     1      10.746 -22.428 -36.732  1.00  0.00     0.161 A 
ATOM      4  C   UNL     1      10.392 -23.644 -36.131  1.00  0.00     0.157 A 
ATOM      5  C   UNL     1       9.216 -23.738 -35.376  1.00  0.00     0.051 A 
ATOM      6  C   UNL     1       8.394 -22.623 -35.209  1.00  0.00     0.012 A 
ENDROOT
BRANCH   1   7
ATOM      7  C   UNL     1       7.882 -20.202 -35.643  1.00  0.00     0.003 C 
ATOM      8  C   UNL     1       6.308 -20.878 -37.476  1.00  0.00     0.035 C 
ATOM      9  C   UNL     1       6.808 -19.955 -36.406  1.00  0.00    -0.030 C 
ENDBRANCH   1   7
BRANCH   3  10
ATOM     10  O   UNL     1      11.926 -22.374 -37.489  1.00  0.00    -0.493 OA
ATOM     11  C   UNL     1      12.795 -21.248 -37.549  1.00  0.00     0.278 C 
ENDBRANCH   3  10
BRANCH   4  12
ATOM     12  O   UNL     1      11.213 -24.758 -36.295  1.00  0.00    -0.504 OA
ATOM     13  H   UNL     1      11.279 -25.477 -35.584  1.00  0.00     0.293 HD
ENDBRANCH   4  12
TORSDOF 3
ENDMDL
MODEL 8
REMARK VINA RESULT:    -4.360      1.519      2.118
REMARK INTER + INTRA:          -5.128
REMARK INTER:                  -4.914
REMARK INTRA:                  -0.214
REMARK UNBOUND:                -0.131
REMARK SMILES CC=Cc1ccc(O)c(OC)c1
REMARK SMILES IDX 4 1 12 2 9 3 7 4 6 5 5 6 3 7 1 8 2 9 10 10 11 11 8 12
REMARK H PARENT 8 13
REMARK Flexibility Score: inf
ROOT
ATOM      1  C   UNL     1      11.670 -11.227 -43.668  1.00  0.00    -0.022 A 
ATOM      2  C   UNL     1      12.980 -11.523 -43.262  1.00  0.00     0.058 A 
ATOM      3  C   UNL     1      13.697 -12.577 -43.865  1.00  0.00     0.161 A 
ATOM      4  C   UNL     1      13.095 -13.317 -44.892  1.00  0.00     0.157 A 
ATOM      5  C   UNL     1      11.798 -13.003 -45.318  1.00  0.00     0.051 A 
ATOM      6  C   UNL     1      11.093 -11.959 -44.718  1.00  0.00     0.012 A 
ENDROOT
BRANCH   1   7
ATOM      7  C   UNL     1      10.957 -10.098 -43.036  1.00  0.00     0.003 C 
ATOM      8  C   UNL     1      11.632  -8.421 -44.775  1.00  0.00     0.035 C 
ATOM      9  C   UNL     1      10.952  -8.844 -43.508  1.00  0.00    -0.030 C 
ENDBRANCH   1   7
BRANCH   3  10
ATOM     10  O   UNL     1      15.001 -12.915 -43.472  1.00  0.00    -0.493 OA
ATOM     11  C   UNL     1      15.990 -11.975 -43.065  1.00  0.00     0.278 C 
ENDBRANCH   3  10
BRANCH   4  12
ATOM     12  O   UNL     1      13.797 -14.362 -45.491  1.00  0.00    -0.504 OA
ATOM     13  H   UNL     1      14.442 -14.938 -44.962  1.00  0.00     0.293 HD
ENDBRANCH   4  12
TORSDOF 3
ENDMDL
MODEL 9
REMARK VINA RESULT:    -4.325      1.969      4.623
REMARK INTER + INTRA:          -5.088
REMARK INTER:                  -4.862
REMARK INTRA:                  -0.226
REMARK UNBOUND:                -0.131
REMARK SMILES CC=Cc1ccc(O)c(OC)c1
REMARK SMILES IDX 4 1 12 2 9 3 7 4 6 5 5 6 3 7 1 8 2 9 10 10 11 11 8 12
REMARK H PARENT 8 13
REMARK Flexibility Score: inf
ROOT
ATOM      1  C   UNL     1      14.017 -12.269 -44.281  1.00  0.00    -0.022 A 
ATOM      2  C   UNL     1      13.220 -11.162 -43.952  1.00  0.00     0.058 A 
ATOM      3  C   UNL     1      11.958 -11.341 -43.349  1.00  0.00     0.161 A 
ATOM      4  C   UNL     1      11.513 -12.638 -43.060  1.00  0.00     0.157 A 
ATOM      5  C   UNL     1      12.321 -13.742 -43.362  1.00  0.00     0.051 A 
ATOM      6  C   UNL     1      13.569 -13.559 -43.959  1.00  0.00     0.012 A 
ENDROOT
BRANCH   1   7
ATOM      7  C   UNL     1      15.346 -12.046 -44.887  1.00  0.00     0.003 C 
ATOM      8  C   UNL     1      16.548 -11.855 -42.693  1.00  0.00     0.035 C 
ATOM      9  C   UNL     1      16.472 -11.840 -44.190  1.00  0.00    -0.030 C 
ENDBRANCH   1   7
BRANCH   3  10
ATOM     10  O   UNL     1      11.126 -10.259 -43.023  1.00  0.00    -0.493 OA
ATOM     11  C   UNL     1      10.771  -9.215 -43.923  1.00  0.00     0.278 C 
ENDBRANCH   3  10
BRANCH   4  12
ATOM     12  O   UNL     1      10.266 -12.822 -42.466  1.00  0.00    -0.504 OA
ATOM     13  H   UNL     1      10.117 -13.526 -41.753  1.00  0.00     0.293 HD
ENDBRANCH   4  12
TORSDOF 3
ENDMDL
