MODEL 1
REMARK VINA RESULT:    -4.755      0.000      0.000
REMARK INTER + INTRA:          -5.524
REMARK INTER:                  -5.311
REMARK INTRA:                  -0.212
REMARK UNBOUND:                -0.212
REMARK SMILES CC(C)c1ccc(C(=O)[O-])cc1
REMARK SMILES IDX 7 1 6 2 11 3 5 4 12 5 4 6 8 7 9 8 10 9 2 10 1 11 3 12
REMARK H PARENT
REMARK Flexibility Score: inf
ROOT
ATOM      1  C   UNL     1      18.392   8.739   4.475  1.00  0.00    -0.003 A 
ATOM      2  C   UNL     1      18.900   7.712   5.288  1.00  0.00     0.010 A 
ATOM      3  C   UNL     1      18.528  10.072   4.900  1.00  0.00     0.010 A 
ATOM      4  C   UNL     1      19.530   8.011   6.499  1.00  0.00     0.004 A 
ATOM      5  C   UNL     1      19.158  10.371   6.110  1.00  0.00     0.004 A 
ATOM      6  C   UNL     1      19.667   9.343   6.925  1.00  0.00    -0.045 A 
ENDROOT
BRANCH   1   7
ATOM      7  C   UNL     1      17.726   8.419   3.195  1.00  0.00     0.071 C 
ATOM      8  O   UNL     1      16.470   8.464   3.096  1.00  0.00    -0.545 OA
ATOM      9  O   UNL     1      18.475   8.062   2.079  1.00  0.00    -0.545 OA
ENDBRANCH   1   7
BRANCH   6  10
ATOM     10  C   UNL     1      20.354   9.652   8.241  1.00  0.00     0.013 C 
ATOM     11  C   UNL     1      20.777  11.125   8.312  1.00  0.00     0.012 C 
ATOM     12  C   UNL     1      21.552   8.723   8.472  1.00  0.00     0.012 C 
ENDBRANCH   6  10
TORSDOF 2
ENDMDL
MODEL 2
REMARK VINA RESULT:    -4.727      0.188      1.680
REMARK INTER + INTRA:          -5.492
REMARK INTER:                  -5.277
REMARK INTRA:                  -0.214
REMARK UNBOUND:                -0.212
REMARK SMILES CC(C)c1ccc(C(=O)[O-])cc1
REMARK SMILES IDX 7 1 6 2 11 3 5 4 12 5 4 6 8 7 9 8 10 9 2 10 1 11 3 12
REMARK H PARENT
REMARK Flexibility Score: inf
ROOT
ATOM      1  C   UNL     1      18.399   8.847   4.501  1.00  0.00    -0.003 A 
ATOM      2  C   UNL     1      18.535  10.162   4.977  1.00  0.00     0.010 A 
ATOM      3  C   UNL     1      18.905   7.789   5.275  1.00  0.00     0.010 A 
ATOM      4  C   UNL     1      19.162  10.413   6.201  1.00  0.00     0.004 A 
ATOM      5  C   UNL     1      19.533   8.039   6.498  1.00  0.00     0.004 A 
ATOM      6  C   UNL     1      19.669   9.355   6.975  1.00  0.00    -0.045 A 
ENDROOT
BRANCH   1   7
ATOM      7  C   UNL     1      17.735   8.586   3.206  1.00  0.00     0.071 C 
ATOM      8  O   UNL     1      18.353   8.008   2.273  1.00  0.00    -0.545 OA
ATOM      9  O   UNL     1      16.416   8.976   2.999  1.00  0.00    -0.545 OA
ENDBRANCH   1   7
BRANCH   6  10
ATOM     10  C   UNL     1      20.347   9.643   8.301  1.00  0.00     0.013 C 
ATOM     11  C   UNL     1      20.733  11.123   8.415  1.00  0.00     0.012 C 
ATOM     12  C   UNL     1      21.568   8.738   8.506  1.00  0.00     0.012 C 
ENDBRANCH   6  10
TORSDOF 2
ENDMDL
MODEL 3
REMARK VINA RESULT:    -4.714      1.521      2.005
REMARK INTER + INTRA:          -5.477
REMARK INTER:                  -5.266
REMARK INTRA:                  -0.211
REMARK UNBOUND:                -0.212
REMARK SMILES CC(C)c1ccc(C(=O)[O-])cc1
REMARK SMILES IDX 7 1 6 2 11 3 5 4 12 5 4 6 8 7 9 8 10 9 2 10 1 11 3 12
REMARK H PARENT
REMARK Flexibility Score: inf
ROOT
ATOM      1  C   UNL     1      18.362   8.708   3.042  1.00  0.00    -0.003 A 
ATOM      2  C   UNL     1      18.458   7.728   4.043  1.00  0.00     0.010 A 
ATOM      3  C   UNL     1      18.512  10.060   3.397  1.00  0.00     0.010 A 
ATOM      4  C   UNL     1      18.700   8.091   5.371  1.00  0.00     0.004 A 
ATOM      5  C   UNL     1      18.753  10.423   4.724  1.00  0.00     0.004 A 
ATOM      6  C   UNL     1      18.851   9.442   5.728  1.00  0.00    -0.045 A 
ENDROOT
BRANCH   1   7
ATOM      7  C   UNL     1      18.105   8.320   1.638  1.00  0.00     0.071 C 
ATOM      8  O   UNL     1      17.837   7.124   1.342  1.00  0.00    -0.545 OA
ATOM      9  O   UNL     1      18.157   9.268   0.623  1.00  0.00    -0.545 OA
ENDBRANCH   1   7
BRANCH   6  10
ATOM     10  C   UNL     1      19.113   9.821   7.173  1.00  0.00     0.013 C 
ATOM     11  C   UNL     1      17.803   9.921   7.965  1.00  0.00     0.012 C 
ATOM     12  C   UNL     1      19.914  11.125   7.266  1.00  0.00     0.012 C 
ENDBRANCH   6  10
TORSDOF 2
ENDMDL
MODEL 4
REMARK VINA RESULT:    -4.697      1.140      1.861
REMARK INTER + INTRA:          -5.458
REMARK INTER:                  -5.239
REMARK INTRA:                  -0.219
REMARK UNBOUND:                -0.212
REMARK SMILES CC(C)c1ccc(C(=O)[O-])cc1
REMARK SMILES IDX 7 1 6 2 11 3 5 4 12 5 4 6 8 7 9 8 10 9 2 10 1 11 3 12
REMARK H PARENT
REMARK Flexibility Score: inf
ROOT
ATOM      1  C   UNL     1      18.313   7.714   3.865  1.00  0.00    -0.003 A 
ATOM      2  C   UNL     1      18.089   9.084   4.080  1.00  0.00     0.010 A 
ATOM      3  C   UNL     1      18.992   6.973   4.847  1.00  0.00     0.010 A 
ATOM      4  C   UNL     1      18.534   9.700   5.254  1.00  0.00     0.004 A 
ATOM      5  C   UNL     1      19.438   7.589   6.020  1.00  0.00     0.004 A 
ATOM      6  C   UNL     1      19.213   8.961   6.237  1.00  0.00    -0.045 A 
ENDROOT
BRANCH   1   7
ATOM      7  C   UNL     1      17.841   7.066   2.623  1.00  0.00     0.071 C 
ATOM      8  O   UNL     1      16.854   7.531   1.992  1.00  0.00    -0.545 OA
ATOM      9  O   UNL     1      18.479   5.933   2.131  1.00  0.00    -0.545 OA
ENDBRANCH   1   7
BRANCH   6  10
ATOM     10  C   UNL     1      19.690   9.644   7.504  1.00  0.00     0.013 C 
ATOM     11  C   UNL     1      20.000  11.125   7.252  1.00  0.00     0.012 C 
ATOM     12  C   UNL     1      20.904   8.920   8.099  1.00  0.00     0.012 C 
ENDBRANCH   6  10
TORSDOF 2
ENDMDL
MODEL 5
REMARK VINA RESULT:    -4.597      2.331      3.380
REMARK INTER + INTRA:          -5.347
REMARK INTER:                  -5.134
REMARK INTRA:                  -0.213
REMARK UNBOUND:                -0.212
REMARK SMILES CC(C)c1ccc(C(=O)[O-])cc1
REMARK SMILES IDX 7 1 6 2 11 3 5 4 12 5 4 6 8 7 9 8 10 9 2 10 1 11 3 12
REMARK H PARENT
REMARK Flexibility Score: inf
ROOT
ATOM      1  C   UNL     1      17.471   6.600   2.914  1.00  0.00    -0.003 A 
ATOM      2  C   UNL     1      18.798   6.828   3.313  1.00  0.00     0.010 A 
ATOM      3  C   UNL     1      16.483   6.437   3.900  1.00  0.00     0.010 A 
ATOM      4  C   UNL     1      19.131   6.892   4.670  1.00  0.00     0.004 A 
ATOM      5  C   UNL     1      16.815   6.501   5.256  1.00  0.00     0.004 A 
ATOM      6  C   UNL     1      18.144   6.729   5.657  1.00  0.00    -0.045 A 
ENDROOT
BRANCH   1   7
ATOM      7  C   UNL     1      17.123   6.533   1.478  1.00  0.00     0.071 C 
ATOM      8  O   UNL     1      16.297   7.344   0.980  1.00  0.00    -0.545 OA
ATOM      9  O   UNL     1      17.704   5.574   0.656  1.00  0.00    -0.545 OA
ENDBRANCH   1   7
BRANCH   6  10
ATOM     10  C   UNL     1      18.520   6.801   7.125  1.00  0.00     0.013 C 
ATOM     11  C   UNL     1      17.277   6.992   8.004  1.00  0.00     0.012 C 
ATOM     12  C   UNL     1      19.550   7.909   7.378  1.00  0.00     0.012 C 
ENDBRANCH   6  10
TORSDOF 2
ENDMDL
MODEL 6
REMARK VINA RESULT:    -4.484      1.861      2.483
REMARK INTER + INTRA:          -5.220
REMARK INTER:                  -5.009
REMARK INTRA:                  -0.211
REMARK UNBOUND:                -0.212
REMARK SMILES CC(C)c1ccc(C(=O)[O-])cc1
REMARK SMILES IDX 7 1 6 2 11 3 5 4 12 5 4 6 8 7 9 8 10 9 2 10 1 11 3 12
REMARK H PARENT
REMARK Flexibility Score: inf
ROOT
ATOM      1  C   UNL     1      18.560   9.377   5.964  1.00  0.00    -0.003 A 
ATOM      2  C   UNL     1      18.848   8.038   5.653  1.00  0.00     0.010 A 
ATOM      3  C   UNL     1      19.346  10.036   6.926  1.00  0.00     0.010 A 
ATOM      4  C   UNL     1      19.899   7.372   6.290  1.00  0.00     0.004 A 
ATOM      5  C   UNL     1      20.396   9.370   7.562  1.00  0.00     0.004 A 
ATOM      6  C   UNL     1      20.685   8.029   7.251  1.00  0.00    -0.045 A 
ENDROOT
BRANCH   1   7
ATOM      7  C   UNL     1      17.447  10.079   5.289  1.00  0.00     0.071 C 
ATOM      8  O   UNL     1      16.252   9.738   5.500  1.00  0.00    -0.545 OA
ATOM      9  O   UNL     1      17.703  11.125   4.409  1.00  0.00    -0.545 OA
ENDBRANCH   1   7
BRANCH   6  10
ATOM     10  C   UNL     1      21.822   7.293   7.934  1.00  0.00     0.013 C 
ATOM     11  C   UNL     1      22.621   8.233   8.846  1.00  0.00     0.012 C 
ATOM     12  C   UNL     1      22.737   6.614   6.907  1.00  0.00     0.012 C 
ENDBRANCH   6  10
TORSDOF 2
ENDMDL
MODEL 7
REMARK VINA RESULT:    -4.470      3.423      5.103
REMARK INTER + INTRA:          -5.205
REMARK INTER:                  -4.989
REMARK INTRA:                  -0.216
REMARK UNBOUND:                -0.212
REMARK SMILES CC(C)c1ccc(C(=O)[O-])cc1
REMARK SMILES IDX 7 1 6 2 11 3 5 4 12 5 4 6 8 7 9 8 10 9 2 10 1 11 3 12
REMARK H PARENT
REMARK Flexibility Score: inf
ROOT
ATOM      1  C   UNL     1      20.362   8.986   7.483  1.00  0.00    -0.003 A 
ATOM      2  C   UNL     1      20.252   7.645   7.079  1.00  0.00     0.010 A 
ATOM      3  C   UNL     1      19.616   9.964   6.804  1.00  0.00     0.010 A 
ATOM      4  C   UNL     1      19.414   7.290   6.017  1.00  0.00     0.004 A 
ATOM      5  C   UNL     1      18.779   9.610   5.743  1.00  0.00     0.004 A 
ATOM      6  C   UNL     1      18.668   8.267   5.337  1.00  0.00    -0.045 A 
ENDROOT
BRANCH   1   7
ATOM      7  C   UNL     1      21.249   9.357   8.606  1.00  0.00     0.071 C 
ATOM      8  O   UNL     1      22.031   8.508   9.114  1.00  0.00    -0.545 OA
ATOM      9  O   UNL     1      21.235  10.649   9.119  1.00  0.00    -0.545 OA
ENDBRANCH   1   7
BRANCH   6  10
ATOM     10  C   UNL     1      17.763   7.867   4.188  1.00  0.00     0.013 C 
ATOM     11  C   UNL     1      16.290   8.133   4.525  1.00  0.00     0.012 C 
ATOM     12  C   UNL     1      17.982   6.401   3.795  1.00  0.00     0.012 C 
ENDBRANCH   6  10
TORSDOF 2
ENDMDL
MODEL 8
REMARK VINA RESULT:    -4.342      2.417      3.292
REMARK INTER + INTRA:          -5.062
REMARK INTER:                  -4.849
REMARK INTRA:                  -0.212
REMARK UNBOUND:                -0.212
REMARK SMILES CC(C)c1ccc(C(=O)[O-])cc1
REMARK SMILES IDX 7 1 6 2 11 3 5 4 12 5 4 6 8 7 9 8 10 9 2 10 1 11 3 12
REMARK H PARENT
REMARK Flexibility Score: inf
ROOT
ATOM      1  C   UNL     1      16.744   8.146   2.966  1.00  0.00    -0.003 A 
ATOM      2  C   UNL     1      15.894   7.387   3.787  1.00  0.00     0.010 A 
ATOM      3  C   UNL     1      18.053   8.412   3.403  1.00  0.00     0.010 A 
ATOM      4  C   UNL     1      16.343   6.902   5.019  1.00  0.00     0.004 A 
ATOM      5  C   UNL     1      18.502   7.928   4.635  1.00  0.00     0.004 A 
ATOM      6  C   UNL     1      17.651   7.167   5.458  1.00  0.00    -0.045 A 
ENDROOT
BRANCH   1   7
ATOM      7  C   UNL     1      16.265   8.657   1.663  1.00  0.00     0.071 C 
ATOM      8  O   UNL     1      15.875   7.861   0.767  1.00  0.00    -0.545 OA
ATOM      9  O   UNL     1      16.237  10.023   1.408  1.00  0.00    -0.545 OA
ENDBRANCH   1   7
BRANCH   6  10
ATOM     10  C   UNL     1      18.125   6.635   6.797  1.00  0.00     0.013 C 
ATOM     11  C   UNL     1      17.137   6.993   7.915  1.00  0.00     0.012 C 
ATOM     12  C   UNL     1      19.535   7.139   7.125  1.00  0.00     0.012 C 
ENDBRANCH   6  10
TORSDOF 2
ENDMDL
