MODEL 1
REMARK VINA RESULT:    -3.612      0.000      0.000
REMARK INTER + INTRA:          -4.647
REMARK INTER:                  -4.456
REMARK INTRA:                  -0.190
REMARK UNBOUND:                -0.190
REMARK SMILES CCCCC=CC(C)=O
REMARK SMILES IDX 4 1 3 2 2 3 1 4 5 5 6 6 7 7 9 8 8 9
REMARK H PARENT
REMARK Flexibility Score: inf
ROOT
ATOM      1  C   UNL     1      20.145 -19.608  22.891  1.00  0.00     0.027 C 
ENDROOT
BRANCH   1   2
ATOM      2  C   UNL     1      21.398 -20.382  22.446  1.00  0.00     0.004 C 
BRANCH   2   3
ATOM      3  C   UNL     1      21.758 -21.570  23.356  1.00  0.00    -0.003 C 
ATOM      4  C   UNL     1      20.628 -21.949  24.313  1.00  0.00     0.004 C 
ENDBRANCH   2   3
ENDBRANCH   1   2
BRANCH   1   5
ATOM      5  C   UNL     1      19.832 -18.446  21.991  1.00  0.00    -0.023 C 
ATOM      6  C   UNL     1      20.663 -18.077  21.009  1.00  0.00     0.042 C 
BRANCH   6   7
ATOM      7  C   UNL     1      20.372 -16.943  20.114  1.00  0.00     0.152 C 
ATOM      8  O   UNL     1      21.150 -15.952  20.052  1.00  0.00    -0.295 OA
ATOM      9  C   UNL     1      19.142 -16.968  19.265  1.00  0.00     0.093 C 
ENDBRANCH   6   7
ENDBRANCH   1   5
TORSDOF 4
ENDMDL
MODEL 2
REMARK VINA RESULT:    -3.586      3.620      4.857
REMARK INTER + INTRA:          -4.614
REMARK INTER:                  -4.437
REMARK INTRA:                  -0.178
REMARK UNBOUND:                -0.190
REMARK SMILES CCCCC=CC(C)=O
REMARK SMILES IDX 4 1 3 2 2 3 1 4 5 5 6 6 7 7 9 8 8 9
REMARK H PARENT
REMARK Flexibility Score: inf
ROOT
ATOM      1  C   UNL     1      19.696 -19.219  22.989  1.00  0.00     0.027 C 
ENDROOT
BRANCH   1   2
ATOM      2  C   UNL     1      20.690 -18.966  21.842  1.00  0.00     0.004 C 
BRANCH   2   3
ATOM      3  C   UNL     1      20.303 -17.794  20.923  1.00  0.00    -0.003 C 
ATOM      4  C   UNL     1      21.439 -17.368  19.994  1.00  0.00     0.004 C 
ENDBRANCH   2   3
ENDBRANCH   1   2
BRANCH   1   5
ATOM      5  C   UNL     1      18.265 -19.048  22.563  1.00  0.00    -0.023 C 
ATOM      6  C   UNL     1      17.271 -19.712  23.164  1.00  0.00     0.042 C 
BRANCH   6   7
ATOM      7  C   UNL     1      15.861 -19.554  22.762  1.00  0.00     0.152 C 
ATOM      8  O   UNL     1      15.035 -20.494  22.923  1.00  0.00    -0.295 OA
ATOM      9  C   UNL     1      15.403 -18.264  22.162  1.00  0.00     0.093 C 
ENDBRANCH   6   7
ENDBRANCH   1   5
TORSDOF 4
ENDMDL
MODEL 3
REMARK VINA RESULT:    -3.519      3.417      3.996
REMARK INTER + INTRA:          -4.532
REMARK INTER:                  -4.260
REMARK INTRA:                  -0.272
REMARK UNBOUND:                -0.190
REMARK SMILES CCCCC=CC(C)=O
REMARK SMILES IDX 4 1 3 2 2 3 1 4 5 5 6 6 7 7 9 8 8 9
REMARK H PARENT
REMARK Flexibility Score: inf
ROOT
ATOM      1  C   UNL     1      20.161 -19.054  22.895  1.00  0.00     0.027 C 
ENDROOT
BRANCH   1   2
ATOM      2  C   UNL     1      20.792 -20.456  22.829  1.00  0.00     0.004 C 
BRANCH   2   3
ATOM      3  C   UNL     1      21.492 -20.891  24.129  1.00  0.00    -0.003 C 
ATOM      4  C   UNL     1      20.771 -22.037  24.837  1.00  0.00     0.004 C 
ENDBRANCH   2   3
ENDBRANCH   1   2
BRANCH   1   5
ATOM      5  C   UNL     1      18.681 -19.074  22.632  1.00  0.00    -0.023 C 
ATOM      6  C   UNL     1      17.889 -20.018  23.152  1.00  0.00     0.042 C 
BRANCH   6   7
ATOM      7  C   UNL     1      16.436 -20.051  22.909  1.00  0.00     0.152 C 
ATOM      8  O   UNL     1      15.802 -21.141  22.933  1.00  0.00    -0.295 OA
ATOM      9  C   UNL     1      15.703 -18.778  22.633  1.00  0.00     0.093 C 
ENDBRANCH   6   7
ENDBRANCH   1   5
TORSDOF 4
ENDMDL
MODEL 4
REMARK VINA RESULT:    -3.496      3.165      3.858
REMARK INTER + INTRA:          -4.504
REMARK INTER:                  -4.258
REMARK INTRA:                  -0.246
REMARK UNBOUND:                -0.190
REMARK SMILES CCCCC=CC(C)=O
REMARK SMILES IDX 4 1 3 2 2 3 1 4 5 5 6 6 7 7 9 8 8 9
REMARK H PARENT
REMARK Flexibility Score: inf
ROOT
ATOM      1  C   UNL     1      16.311 -19.137  22.874  1.00  0.00     0.027 C 
ENDROOT
BRANCH   1   2
ATOM      2  C   UNL     1      16.316 -20.311  23.868  1.00  0.00     0.004 C 
BRANCH   2   3
ATOM      3  C   UNL     1      16.205 -21.695  23.205  1.00  0.00    -0.003 C 
ATOM      4  C   UNL     1      17.276 -22.672  23.688  1.00  0.00     0.004 C 
ENDBRANCH   2   3
ENDBRANCH   1   2
BRANCH   1   5
ATOM      5  C   UNL     1      17.637 -18.952  22.191  1.00  0.00    -0.023 C 
ATOM      6  C   UNL     1      18.790 -19.211  22.817  1.00  0.00     0.042 C 
BRANCH   6   7
ATOM      7  C   UNL     1      20.100 -19.039  22.163  1.00  0.00     0.152 C 
ATOM      8  O   UNL     1      21.072 -19.786  22.459  1.00  0.00    -0.295 OA
ATOM      9  C   UNL     1      20.278 -17.971  21.133  1.00  0.00     0.093 C 
ENDBRANCH   6   7
ENDBRANCH   1   5
TORSDOF 4
ENDMDL
MODEL 5
REMARK VINA RESULT:    -3.473      1.975      2.885
REMARK INTER + INTRA:          -4.476
REMARK INTER:                  -4.344
REMARK INTRA:                  -0.131
REMARK UNBOUND:                -0.190
REMARK SMILES CCCCC=CC(C)=O
REMARK SMILES IDX 4 1 3 2 2 3 1 4 5 5 6 6 7 7 9 8 8 9
REMARK H PARENT
REMARK Flexibility Score: inf
ROOT
ATOM      1  C   UNL     1      19.881 -19.031  22.593  1.00  0.00     0.027 C 
ENDROOT
BRANCH   1   2
ATOM      2  C   UNL     1      18.365 -18.879  22.378  1.00  0.00     0.004 C 
BRANCH   2   3
ATOM      3  C   UNL     1      17.514 -19.878  23.182  1.00  0.00    -0.003 C 
ATOM      4  C   UNL     1      16.027 -19.527  23.181  1.00  0.00     0.004 C 
ENDBRANCH   2   3
ENDBRANCH   1   2
BRANCH   1   5
ATOM      5  C   UNL     1      20.682 -18.565  21.409  1.00  0.00    -0.023 C 
ATOM      6  C   UNL     1      20.518 -17.344  20.888  1.00  0.00     0.042 C 
BRANCH   6   7
ATOM      7  C   UNL     1      21.297 -16.868  19.731  1.00  0.00     0.152 C 
ATOM      8  O   UNL     1      21.166 -15.688  19.305  1.00  0.00    -0.295 OA
ATOM      9  C   UNL     1      22.258 -17.793  19.055  1.00  0.00     0.093 C 
ENDBRANCH   6   7
ENDBRANCH   1   5
TORSDOF 4
ENDMDL
MODEL 6
REMARK VINA RESULT:    -3.455     13.843     14.274
REMARK INTER + INTRA:          -4.453
REMARK INTER:                  -4.309
REMARK INTRA:                  -0.144
REMARK UNBOUND:                -0.190
REMARK SMILES CCCCC=CC(C)=O
REMARK SMILES IDX 4 1 3 2 2 3 1 4 5 5 6 6 7 7 9 8 8 9
REMARK H PARENT
REMARK Flexibility Score: inf
ROOT
ATOM      1  C   UNL     1       6.854 -19.930  26.449  1.00  0.00     0.027 C 
ENDROOT
BRANCH   1   2
ATOM      2  C   UNL     1       6.443 -21.410  26.542  1.00  0.00     0.004 C 
BRANCH   2   3
ATOM      3  C   UNL     1       7.048 -22.156  27.744  1.00  0.00    -0.003 C 
ATOM      4  C   UNL     1       6.632 -23.625  27.802  1.00  0.00     0.004 C 
ENDBRANCH   2   3
ENDBRANCH   1   2
BRANCH   1   5
ATOM      5  C   UNL     1       7.131 -19.493  25.038  1.00  0.00    -0.023 C 
ATOM      6  C   UNL     1       6.631 -20.156  23.989  1.00  0.00     0.042 C 
BRANCH   6   7
ATOM      7  C   UNL     1       6.888 -19.741  22.598  1.00  0.00     0.152 C 
ATOM      8  O   UNL     1       6.979 -18.520  22.295  1.00  0.00    -0.295 OA
ATOM      9  C   UNL     1       7.048 -20.778  21.534  1.00  0.00     0.093 C 
ENDBRANCH   6   7
ENDBRANCH   1   5
TORSDOF 4
ENDMDL
MODEL 7
REMARK VINA RESULT:    -3.430      3.338      4.247
REMARK INTER + INTRA:          -4.423
REMARK INTER:                  -4.175
REMARK INTRA:                  -0.248
REMARK UNBOUND:                -0.190
REMARK SMILES CCCCC=CC(C)=O
REMARK SMILES IDX 4 1 3 2 2 3 1 4 5 5 6 6 7 7 9 8 8 9
REMARK H PARENT
REMARK Flexibility Score: inf
ROOT
ATOM      1  C   UNL     1      19.850 -18.865  22.856  1.00  0.00     0.027 C 
ENDROOT
BRANCH   1   2
ATOM      2  C   UNL     1      20.831 -20.023  22.603  1.00  0.00     0.004 C 
BRANCH   2   3
ATOM      3  C   UNL     1      21.370 -20.682  23.885  1.00  0.00    -0.003 C 
ATOM      4  C   UNL     1      20.924 -22.135  24.038  1.00  0.00     0.004 C 
ENDBRANCH   2   3
ENDBRANCH   1   2
BRANCH   1   5
ATOM      5  C   UNL     1      18.428 -19.232  22.537  1.00  0.00    -0.023 C 
ATOM      6  C   UNL     1      17.759 -20.137  23.259  1.00  0.00     0.042 C 
BRANCH   6   7
ATOM      7  C   UNL     1      16.363 -20.507  22.964  1.00  0.00     0.152 C 
ATOM      8  O   UNL     1      15.668 -19.819  22.166  1.00  0.00    -0.295 OA
ATOM      9  C   UNL     1      15.763 -21.713  23.612  1.00  0.00     0.093 C 
ENDBRANCH   6   7
ENDBRANCH   1   5
TORSDOF 4
ENDMDL
MODEL 8
REMARK VINA RESULT:    -3.405      3.214      5.212
REMARK INTER + INTRA:          -4.392
REMARK INTER:                  -4.180
REMARK INTRA:                  -0.212
REMARK UNBOUND:                -0.190
REMARK SMILES CCCCC=CC(C)=O
REMARK SMILES IDX 4 1 3 2 2 3 1 4 5 5 6 6 7 7 9 8 8 9
REMARK H PARENT
REMARK Flexibility Score: inf
ROOT
ATOM      1  C   UNL     1      20.302 -19.014  22.372  1.00  0.00     0.027 C 
ENDROOT
BRANCH   1   2
ATOM      2  C   UNL     1      18.772 -18.849  22.368  1.00  0.00     0.004 C 
BRANCH   2   3
ATOM      3  C   UNL     1      18.018 -19.973  23.101  1.00  0.00    -0.003 C 
ATOM      4  C   UNL     1      16.528 -19.677  23.269  1.00  0.00     0.004 C 
ENDBRANCH   2   3
ENDBRANCH   1   2
BRANCH   1   5
ATOM      5  C   UNL     1      20.768 -20.069  23.336  1.00  0.00    -0.023 C 
ATOM      6  C   UNL     1      21.429 -21.155  22.921  1.00  0.00     0.042 C 
BRANCH   6   7
ATOM      7  C   UNL     1      21.897 -22.197  23.852  1.00  0.00     0.152 C 
ATOM      8  O   UNL     1      22.934 -22.870  23.600  1.00  0.00    -0.295 OA
ATOM      9  C   UNL     1      21.138 -22.459  25.113  1.00  0.00     0.093 C 
ENDBRANCH   6   7
ENDBRANCH   1   5
TORSDOF 4
ENDMDL
MODEL 9
REMARK VINA RESULT:    -3.356     12.693     13.541
REMARK INTER + INTRA:          -4.331
REMARK INTER:                  -4.128
REMARK INTRA:                  -0.204
REMARK UNBOUND:                -0.190
REMARK SMILES CCCCC=CC(C)=O
REMARK SMILES IDX 4 1 3 2 2 3 1 4 5 5 6 6 7 7 9 8 8 9
REMARK H PARENT
REMARK Flexibility Score: inf
ROOT
ATOM      1  C   UNL     1       6.297 -18.217  23.605  1.00  0.00     0.027 C 
ENDROOT
BRANCH   1   2
ATOM      2  C   UNL     1       6.699 -19.696  23.472  1.00  0.00     0.004 C 
BRANCH   2   3
ATOM      3  C   UNL     1       6.615 -20.242  22.036  1.00  0.00    -0.003 C 
ATOM      4  C   UNL     1       7.283 -19.325  21.012  1.00  0.00     0.004 C 
ENDBRANCH   2   3
ENDBRANCH   1   2
BRANCH   1   5
ATOM      5  C   UNL     1       7.336 -17.398  24.320  1.00  0.00    -0.023 C 
ATOM      6  C   UNL     1       7.647 -16.159  23.922  1.00  0.00     0.042 C 
BRANCH   6   7
ATOM      7  C   UNL     1       8.659 -15.340  24.612  1.00  0.00     0.152 C 
ATOM      8  O   UNL     1       8.621 -15.185  25.864  1.00  0.00    -0.295 OA
ATOM      9  C   UNL     1       9.748 -14.688  23.822  1.00  0.00     0.093 C 
ENDBRANCH   6   7
ENDBRANCH   1   5
TORSDOF 4
ENDMDL
