MODEL 1
REMARK VINA RESULT:    -0.054      0.000      0.000
REMARK INTER + INTRA:          -1.500
REMARK INTER:                  -0.099
REMARK INTRA:                  -1.401
REMARK UNBOUND:                -1.401
REMARK SMILES CCCCCCCCCCCCCCCC(=O)[O-]
REMARK SMILES IDX 9 1 10 2 11 3 12 4 13 5 14 6 15 7 16 8 17 9 18 10 8 11 7 12
REMARK SMILES IDX 6 13 5 14 4 15 3 16 2 17 1 18
REMARK H PARENT
REMARK Flexibility Score: inf
ROOT
ATOM      1  C   UNL     1      20.704  54.066  32.956  1.00  0.00     0.000 C 
ENDROOT
BRANCH   1   2
ATOM      2  C   UNL     1      20.324  55.008  31.805  1.00  0.00     0.000 C 
BRANCH   2   3
ATOM      3  C   UNL     1      21.115  54.672  30.535  1.00  0.00     0.000 C 
BRANCH   3   4
ATOM      4  C   UNL     1      21.384  53.163  30.439  1.00  0.00     0.000 C 
BRANCH   4   5
ATOM      5  C   UNL     1      22.509  52.825  29.447  1.00  0.00     0.000 C 
BRANCH   5   6
ATOM      6  C   UNL     1      21.981  52.187  28.149  1.00  0.00     0.006 C 
BRANCH   6   7
ATOM      7  C   UNL     1      23.100  51.526  27.333  1.00  0.00     0.053 C 
BRANCH   7   8
ATOM      8  C   UNL     1      23.507  52.368  26.164  1.00  0.00     0.041 C 
ATOM      9  O   UNL     1      24.142  51.857  25.205  1.00  0.00    -0.550 OA
ATOM     10  O   UNL     1      23.153  53.711  26.117  1.00  0.00    -0.550 OA
ENDBRANCH   7   8
ENDBRANCH   6   7
ENDBRANCH   5   6
ENDBRANCH   4   5
ENDBRANCH   3   4
ENDBRANCH   2   3
ENDBRANCH   1   2
BRANCH   1  11
ATOM     11  C   UNL     1      19.894  54.327  34.239  1.00  0.00     0.000 C 
BRANCH  11  12
ATOM     12  C   UNL     1      20.703  54.233  35.546  1.00  0.00    -0.000 C 
BRANCH  12  13
ATOM     13  C   UNL     1      21.820  53.177  35.484  1.00  0.00    -0.000 C 
BRANCH  13  14
ATOM     14  C   UNL     1      23.203  53.763  35.807  1.00  0.00    -0.000 C 
BRANCH  14  15
ATOM     15  C   UNL     1      23.437  55.125  35.132  1.00  0.00    -0.000 C 
BRANCH  15  16
ATOM     16  C   UNL     1      24.545  55.080  34.065  1.00  0.00    -0.000 C 
BRANCH  16  17
ATOM     17  C   UNL     1      24.008  55.016  32.620  1.00  0.00    -0.003 C 
ATOM     18  C   UNL     1      25.119  54.792  31.594  1.00  0.00     0.004 C 
ENDBRANCH  16  17
ENDBRANCH  15  16
ENDBRANCH  14  15
ENDBRANCH  13  14
ENDBRANCH  12  13
ENDBRANCH  11  12
ENDBRANCH   1  11
TORSDOF 14
ENDMDL
MODEL 2
REMARK VINA RESULT:     0.981      2.986      6.936
REMARK INTER + INTRA:           0.383
REMARK INTER:                   1.259
REMARK INTRA:                  -0.876
REMARK UNBOUND:                -1.401
REMARK SMILES CCCCCCCCCCCCCCCC(=O)[O-]
REMARK SMILES IDX 9 1 10 2 11 3 12 4 13 5 14 6 15 7 16 8 17 9 18 10 8 11 7 12
REMARK SMILES IDX 6 13 5 14 4 15 3 16 2 17 1 18
REMARK H PARENT
REMARK Flexibility Score: inf
ROOT
ATOM      1  C   UNL     1      21.410  54.244  31.099  1.00  0.00     0.000 C 
ENDROOT
BRANCH   1   2
ATOM      2  C   UNL     1      21.177  54.960  32.437  1.00  0.00     0.000 C 
BRANCH   2   3
ATOM      3  C   UNL     1      19.991  54.347  33.190  1.00  0.00     0.000 C 
BRANCH   3   4
ATOM      4  C   UNL     1      20.472  53.367  34.271  1.00  0.00     0.000 C 
BRANCH   4   5
ATOM      5  C   UNL     1      21.156  54.078  35.450  1.00  0.00     0.000 C 
BRANCH   5   6
ATOM      6  C   UNL     1      22.659  53.760  35.542  1.00  0.00     0.006 C 
BRANCH   6   7
ATOM      7  C   UNL     1      23.516  55.031  35.607  1.00  0.00     0.053 C 
BRANCH   7   8
ATOM      8  C   UNL     1      24.596  55.026  34.570  1.00  0.00     0.041 C 
ATOM      9  O   UNL     1      25.805  55.117  34.912  1.00  0.00    -0.550 OA
ATOM     10  O   UNL     1      24.271  54.885  33.226  1.00  0.00    -0.550 OA
ENDBRANCH   7   8
ENDBRANCH   6   7
ENDBRANCH   5   6
ENDBRANCH   4   5
ENDBRANCH   3   4
ENDBRANCH   2   3
ENDBRANCH   1   2
BRANCH   1  11
ATOM     11  C   UNL     1      20.244  54.423  30.110  1.00  0.00     0.000 C 
BRANCH  11  12
ATOM     12  C   UNL     1      20.656  54.482  28.627  1.00  0.00    -0.000 C 
BRANCH  12  13
ATOM     13  C   UNL     1      20.592  53.110  27.934  1.00  0.00    -0.000 C 
BRANCH  13  14
ATOM     14  C   UNL     1      21.691  52.153  28.422  1.00  0.00    -0.000 C 
BRANCH  14  15
ATOM     15  C   UNL     1      22.654  51.740  27.296  1.00  0.00    -0.000 C 
BRANCH  15  16
ATOM     16  C   UNL     1      23.600  52.877  26.872  1.00  0.00    -0.000 C 
BRANCH  16  17
ATOM     17  C   UNL     1      23.618  53.130  25.350  1.00  0.00    -0.003 C 
ATOM     18  C   UNL     1      22.947  54.450  24.969  1.00  0.00     0.004 C 
ENDBRANCH  16  17
ENDBRANCH  15  16
ENDBRANCH  14  15
ENDBRANCH  13  14
ENDBRANCH  12  13
ENDBRANCH  11  12
ENDBRANCH   1  11
TORSDOF 14
ENDMDL
MODEL 3
REMARK VINA RESULT:     2.227      1.314      2.302
REMARK INTER + INTRA:           2.649
REMARK INTER:                   3.367
REMARK INTRA:                  -0.718
REMARK UNBOUND:                -1.401
REMARK SMILES CCCCCCCCCCCCCCCC(=O)[O-]
REMARK SMILES IDX 9 1 10 2 11 3 12 4 13 5 14 6 15 7 16 8 17 9 18 10 8 11 7 12
REMARK SMILES IDX 6 13 5 14 4 15 3 16 2 17 1 18
REMARK H PARENT
REMARK Flexibility Score: inf
ROOT
ATOM      1  C   UNL     1      21.689  53.827  31.445  1.00  0.00     0.000 C 
ENDROOT
BRANCH   1   2
ATOM      2  C   UNL     1      21.258  53.691  29.977  1.00  0.00     0.000 C 
BRANCH   2   3
ATOM      3  C   UNL     1      22.420  53.201  29.105  1.00  0.00     0.000 C 
BRANCH   3   4
ATOM      4  C   UNL     1      22.115  51.817  28.511  1.00  0.00     0.000 C 
BRANCH   4   5
ATOM      5  C   UNL     1      22.475  51.723  27.020  1.00  0.00     0.000 C 
BRANCH   5   6
ATOM      6  C   UNL     1      23.749  52.512  26.668  1.00  0.00     0.006 C 
BRANCH   6   7
ATOM      7  C   UNL     1      23.726  53.034  25.225  1.00  0.00     0.053 C 
BRANCH   7   8
ATOM      8  C   UNL     1      22.981  54.328  25.114  1.00  0.00     0.041 C 
ATOM      9  O   UNL     1      23.143  55.070  24.110  1.00  0.00    -0.550 OA
ATOM     10  O   UNL     1      22.078  54.699  26.104  1.00  0.00    -0.550 OA
ENDBRANCH   7   8
ENDBRANCH   6   7
ENDBRANCH   5   6
ENDBRANCH   4   5
ENDBRANCH   3   4
ENDBRANCH   2   3
ENDBRANCH   1   2
BRANCH   1  11
ATOM     11  C   UNL     1      20.532  54.227  32.378  1.00  0.00     0.000 C 
BRANCH  11  12
ATOM     12  C   UNL     1      20.965  54.719  33.772  1.00  0.00    -0.000 C 
BRANCH  12  13
ATOM     13  C   UNL     1      20.319  53.919  34.915  1.00  0.00    -0.000 C 
BRANCH  13  14
ATOM     14  C   UNL     1      21.261  53.745  36.117  1.00  0.00    -0.000 C 
BRANCH  14  15
ATOM     15  C   UNL     1      22.404  54.774  36.122  1.00  0.00    -0.000 C 
BRANCH  15  16
ATOM     16  C   UNL     1      23.794  54.122  36.024  1.00  0.00    -0.000 C 
BRANCH  16  17
ATOM     17  C   UNL     1      24.820  54.972  35.245  1.00  0.00    -0.003 C 
ATOM     18  C   UNL     1      24.452  55.123  33.769  1.00  0.00     0.004 C 
ENDBRANCH  16  17
ENDBRANCH  15  16
ENDBRANCH  14  15
ENDBRANCH  13  14
ENDBRANCH  12  13
ENDBRANCH  11  12
ENDBRANCH   1  11
TORSDOF 14
ENDMDL
MODEL 4
REMARK VINA RESULT:     2.859     23.812     25.955
REMARK INTER + INTRA:           3.799
REMARK INTER:                   1.126
REMARK INTRA:                   2.673
REMARK UNBOUND:                -1.401
REMARK SMILES CCCCCCCCCCCCCCCC(=O)[O-]
REMARK SMILES IDX 9 1 10 2 11 3 12 4 13 5 14 6 15 7 16 8 17 9 18 10 8 11 7 12
REMARK SMILES IDX 6 13 5 14 4 15 3 16 2 17 1 18
REMARK H PARENT
REMARK Flexibility Score: inf
ROOT
ATOM      1  C   UNL     1      38.286  39.747  19.065  1.00  0.00     0.000 C 
ENDROOT
BRANCH   1   2
ATOM      2  C   UNL     1      39.728  40.244  18.882  1.00  0.00     0.000 C 
BRANCH   2   3
ATOM      3  C   UNL     1      39.763  41.760  18.654  1.00  0.00     0.000 C 
BRANCH   3   4
ATOM      4  C   UNL     1      40.124  42.089  17.198  1.00  0.00     0.000 C 
BRANCH   4   5
ATOM      5  C   UNL     1      39.687  40.988  16.218  1.00  0.00     0.000 C 
BRANCH   5   6
ATOM      6  C   UNL     1      40.124  39.584  16.674  1.00  0.00     0.006 C 
BRANCH   6   7
ATOM      7  C   UNL     1      39.335  38.474  15.965  1.00  0.00     0.053 C 
BRANCH   7   8
ATOM      8  C   UNL     1      39.539  37.143  16.619  1.00  0.00     0.041 C 
ATOM      9  O   UNL     1      39.231  36.084  16.013  1.00  0.00    -0.550 OA
ATOM     10  O   UNL     1      40.104  37.069  17.887  1.00  0.00    -0.550 OA
ENDBRANCH   7   8
ENDBRANCH   6   7
ENDBRANCH   5   6
ENDBRANCH   4   5
ENDBRANCH   3   4
ENDBRANCH   2   3
ENDBRANCH   1   2
BRANCH   1  11
ATOM     11  C   UNL     1      38.144  38.721  20.203  1.00  0.00     0.000 C 
BRANCH  11  12
ATOM     12  C   UNL     1      36.895  38.900  21.085  1.00  0.00    -0.000 C 
BRANCH  12  13
ATOM     13  C   UNL     1      35.739  37.969  20.682  1.00  0.00    -0.000 C 
BRANCH  13  14
ATOM     14  C   UNL     1      36.222  36.558  20.314  1.00  0.00    -0.000 C 
BRANCH  14  15
ATOM     15  C   UNL     1      36.655  35.745  21.544  1.00  0.00    -0.000 C 
BRANCH  15  16
ATOM     16  C   UNL     1      37.954  34.954  21.311  1.00  0.00    -0.000 C 
BRANCH  16  17
ATOM     17  C   UNL     1      38.577  35.187  19.918  1.00  0.00    -0.003 C 
ATOM     18  C   UNL     1      37.549  35.070  18.792  1.00  0.00     0.004 C 
ENDBRANCH  16  17
ENDBRANCH  15  16
ENDBRANCH  14  15
ENDBRANCH  13  14
ENDBRANCH  12  13
ENDBRANCH  11  12
ENDBRANCH   1  11
TORSDOF 14
ENDMDL
