MODEL 1
REMARK VINA RESULT:    -3.469      0.000      0.000
REMARK INTER + INTRA:          -3.469
REMARK INTER:                  -3.469
REMARK INTRA:                   0.000
REMARK UNBOUND:                 0.000
REMARK SMILES c1cc[nH]c1
REMARK SMILES IDX 1 1 5 2 4 3 3 4 2 5
REMARK H PARENT 4 6
REMARK Flexibility Score: inf
ROOT
ATOM      1  C   UNL     1       6.111   6.466  12.544  1.00  0.00     0.019 A 
ATOM      2  C   UNL     1       7.443   6.327  12.210  1.00  0.00     0.082 A 
ATOM      3  N   UNL     1       8.214   6.911  13.145  1.00  0.00    -0.368 N 
ATOM      4  C   UNL     1       7.389   7.422  14.075  1.00  0.00     0.082 A 
ATOM      5  C   UNL     1       6.077   7.165  13.734  1.00  0.00     0.019 A 
ATOM      6  H   UNL     1       9.256   6.957  13.146  1.00  0.00     0.165 HD
ENDROOT
TORSDOF 0
ENDMDL
MODEL 2
REMARK VINA RESULT:    -3.415      1.415      2.096
REMARK INTER + INTRA:          -3.415
REMARK INTER:                  -3.415
REMARK INTRA:                   0.000
REMARK UNBOUND:                 0.000
REMARK SMILES c1cc[nH]c1
REMARK SMILES IDX 1 1 5 2 4 3 3 4 2 5
REMARK H PARENT 4 6
REMARK Flexibility Score: inf
ROOT
ATOM      1  C   UNL     1       5.794   7.063  13.199  1.00  0.00     0.019 A 
ATOM      2  C   UNL     1       6.933   6.537  13.774  1.00  0.00     0.082 A 
ATOM      3  N   UNL     1       6.972   5.206  13.581  1.00  0.00    -0.368 N 
ATOM      4  C   UNL     1       5.870   4.875  12.886  1.00  0.00     0.082 A 
ATOM      5  C   UNL     1       5.115   6.002  12.633  1.00  0.00     0.019 A 
ATOM      6  H   UNL     1       7.719   4.555  13.908  1.00  0.00     0.165 HD
ENDROOT
TORSDOF 0
ENDMDL
MODEL 3
REMARK VINA RESULT:    -3.415      1.373      1.517
REMARK INTER + INTRA:          -3.415
REMARK INTER:                  -3.415
REMARK INTRA:                   0.000
REMARK UNBOUND:                 0.000
REMARK SMILES c1cc[nH]c1
REMARK SMILES IDX 1 1 5 2 4 3 3 4 2 5
REMARK H PARENT 4 6
REMARK Flexibility Score: inf
ROOT
ATOM      1  C   UNL     1       5.141   5.989  12.608  1.00  0.00     0.019 A 
ATOM      2  C   UNL     1       5.948   4.892  12.827  1.00  0.00     0.082 A 
ATOM      3  N   UNL     1       7.041   5.257  13.520  1.00  0.00    -0.368 N 
ATOM      4  C   UNL     1       6.942   6.578  13.748  1.00  0.00     0.082 A 
ATOM      5  C   UNL     1       5.775   7.066  13.196  1.00  0.00     0.019 A 
ATOM      6  H   UNL     1       7.819   4.631  13.823  1.00  0.00     0.165 HD
ENDROOT
TORSDOF 0
ENDMDL
MODEL 4
REMARK VINA RESULT:    -3.085      4.004      4.414
REMARK INTER + INTRA:          -3.085
REMARK INTER:                  -3.085
REMARK INTRA:                   0.000
REMARK UNBOUND:                 0.000
REMARK SMILES c1cc[nH]c1
REMARK SMILES IDX 1 1 5 2 4 3 3 4 2 5
REMARK H PARENT 4 6
REMARK Flexibility Score: inf
ROOT
ATOM      1  C   UNL     1       3.405  10.568  12.025  1.00  0.00     0.019 A 
ATOM      2  C   UNL     1       3.938   9.517  11.308  1.00  0.00     0.082 A 
ATOM      3  N   UNL     1       4.284   8.521  12.142  1.00  0.00    -0.368 N 
ATOM      4  C   UNL     1       3.978   8.924  13.388  1.00  0.00     0.082 A 
ATOM      5  C   UNL     1       3.430  10.190  13.353  1.00  0.00     0.019 A 
ATOM      6  H   UNL     1       4.711   7.608  11.872  1.00  0.00     0.165 HD
ENDROOT
TORSDOF 0
ENDMDL
MODEL 5
REMARK VINA RESULT:    -3.084      1.915      2.689
REMARK INTER + INTRA:          -3.084
REMARK INTER:                  -3.084
REMARK INTRA:                   0.000
REMARK UNBOUND:                 0.000
REMARK SMILES c1cc[nH]c1
REMARK SMILES IDX 1 1 5 2 4 3 3 4 2 5
REMARK H PARENT 4 6
REMARK Flexibility Score: inf
ROOT
ATOM      1  C   UNL     1       6.611   5.889  13.460  1.00  0.00     0.019 A 
ATOM      2  C   UNL     1       5.978   7.115  13.480  1.00  0.00     0.082 A 
ATOM      3  N   UNL     1       4.782   7.024  12.871  1.00  0.00    -0.368 N 
ATOM      4  C   UNL     1       4.643   5.750  12.462  1.00  0.00     0.082 A 
ATOM      5  C   UNL     1       5.760   5.018  12.811  1.00  0.00     0.019 A 
ATOM      6  H   UNL     1       4.093   7.796  12.741  1.00  0.00     0.165 HD
ENDROOT
TORSDOF 0
ENDMDL
MODEL 6
REMARK VINA RESULT:    -3.035      3.751      4.294
REMARK INTER + INTRA:          -3.035
REMARK INTER:                  -3.035
REMARK INTRA:                   0.000
REMARK UNBOUND:                 0.000
REMARK SMILES c1cc[nH]c1
REMARK SMILES IDX 1 1 5 2 4 3 3 4 2 5
REMARK H PARENT 4 6
REMARK Flexibility Score: inf
ROOT
ATOM      1  C   UNL     1       3.976   9.091  13.878  1.00  0.00     0.019 A 
ATOM      2  C   UNL     1       4.367   8.286  12.828  1.00  0.00     0.082 A 
ATOM      3  N   UNL     1       4.140   8.912  11.659  1.00  0.00    -0.368 N 
ATOM      4  C   UNL     1       3.607  10.111  11.951  1.00  0.00     0.082 A 
ATOM      5  C   UNL     1       3.491  10.256  13.318  1.00  0.00     0.019 A 
ATOM      6  H   UNL     1       4.340   8.536  10.707  1.00  0.00     0.165 HD
ENDROOT
TORSDOF 0
ENDMDL
MODEL 7
REMARK VINA RESULT:    -2.944      4.021      4.411
REMARK INTER + INTRA:          -2.944
REMARK INTER:                  -2.944
REMARK INTRA:                   0.000
REMARK UNBOUND:                 0.000
REMARK SMILES c1cc[nH]c1
REMARK SMILES IDX 1 1 5 2 4 3 3 4 2 5
REMARK H PARENT 4 6
REMARK Flexibility Score: inf
ROOT
ATOM      1  C   UNL     1       4.026   9.302  11.571  1.00  0.00     0.019 A 
ATOM      2  C   UNL     1       4.299   8.468  12.636  1.00  0.00     0.082 A 
ATOM      3  N   UNL     1       3.848   9.019  13.777  1.00  0.00    -0.368 N 
ATOM      4  C   UNL     1       3.289  10.198  13.453  1.00  0.00     0.082 A 
ATOM      5  C   UNL     1       3.381  10.406  12.092  1.00  0.00     0.019 A 
ATOM      6  H   UNL     1       3.920   8.608  14.734  1.00  0.00     0.165 HD
ENDROOT
TORSDOF 0
ENDMDL
MODEL 8
REMARK VINA RESULT:    -2.858      3.166      3.554
REMARK INTER + INTRA:          -2.858
REMARK INTER:                  -2.858
REMARK INTRA:                   0.000
REMARK UNBOUND:                 0.000
REMARK SMILES c1cc[nH]c1
REMARK SMILES IDX 1 1 5 2 4 3 3 4 2 5
REMARK H PARENT 4 6
REMARK Flexibility Score: inf
ROOT
ATOM      1  C   UNL     1       4.856   7.555  12.291  1.00  0.00     0.019 A 
ATOM      2  C   UNL     1       4.398   8.552  11.454  1.00  0.00     0.082 A 
ATOM      3  N   UNL     1       3.826   9.532  12.177  1.00  0.00    -0.368 N 
ATOM      4  C   UNL     1       3.914   9.171  13.470  1.00  0.00     0.082 A 
ATOM      5  C   UNL     1       4.547   7.950  13.577  1.00  0.00     0.019 A 
ATOM      6  H   UNL     1       3.396  10.406  11.805  1.00  0.00     0.165 HD
ENDROOT
TORSDOF 0
ENDMDL
MODEL 9
REMARK VINA RESULT:    -2.816     10.561     10.989
REMARK INTER + INTRA:          -2.816
REMARK INTER:                  -2.816
REMARK INTRA:                   0.000
REMARK UNBOUND:                 0.000
REMARK SMILES c1cc[nH]c1
REMARK SMILES IDX 1 1 5 2 4 3 3 4 2 5
REMARK H PARENT 4 6
REMARK Flexibility Score: inf
ROOT
ATOM      1  C   UNL     1      13.801  14.664  12.229  1.00  0.00     0.019 A 
ATOM      2  C   UNL     1      13.755  15.836  12.956  1.00  0.00     0.082 A 
ATOM      3  N   UNL     1      12.997  16.744  12.315  1.00  0.00    -0.368 N 
ATOM      4  C   UNL     1      12.557  16.164  11.185  1.00  0.00     0.082 A 
ATOM      5  C   UNL     1      13.036  14.873  11.099  1.00  0.00     0.019 A 
ATOM      6  H   UNL     1      12.791  17.716  12.636  1.00  0.00     0.165 HD
ENDROOT
TORSDOF 0
ENDMDL
