MODEL 1
REMARK VINA RESULT:    -3.497      0.000      0.000
REMARK INTER + INTRA:          -4.717
REMARK INTER:                  -4.723
REMARK INTRA:                   0.006
REMARK UNBOUND:                 0.006
REMARK SMILES O=c1c(-c2ccc(O)cc2)coc2c([C@H]3O[C@@H](CO)[C@@H](O)[C@H](O)[C@H]3O)c(O)ccc12
REMARK SMILES IDX 3 1 11 2 12 3 13 4 30 5 2 6 1 7 29 8 28 9 26 10 14 11 4 12
REMARK SMILES IDX 5 13 6 14 7 15 10 16 9 17 8 18 15 20 24 21 16 22 22 23 17 24
REMARK SMILES IDX 20 25 25 26 23 28 18 30 19 31 21 33 27 35
REMARK H PARENT 8 19 25 27 23 29 19 32 21 34 27 36
REMARK Flexibility Score: inf
ROOT
ATOM      1  C   UNL     1      -3.392  -7.810  23.241  1.00  0.00     0.065 A 
ATOM      2  C   UNL     1      -4.455  -7.665  22.340  1.00  0.00     0.208 A 
ATOM      3  O   UNL     1      -5.703  -7.546  22.774  1.00  0.00    -0.463 OA
ATOM      4  C   UNL     1      -6.033  -7.563  24.061  1.00  0.00     0.147 A 
ATOM      5  C   UNL     1      -5.027  -7.725  25.040  1.00  0.00     0.066 A 
ATOM      6  C   UNL     1      -3.689  -7.840  24.617  1.00  0.00     0.200 A 
ATOM      7  O   UNL     1      -2.763  -7.951  25.466  1.00  0.00    -0.288 OA
ATOM      8  C   UNL     1      -5.380  -7.769  26.398  1.00  0.00     0.020 A 
ATOM      9  C   UNL     1      -6.720  -7.677  26.777  1.00  0.00     0.047 A 
ATOM     10  C   UNL     1      -7.725  -7.520  25.813  1.00  0.00     0.125 A 
ATOM     11  C   UNL     1      -7.390  -7.431  24.445  1.00  0.00     0.069 A 
ENDROOT
BRANCH   1  12
ATOM     12  C   UNL     1      -1.999  -7.908  22.729  1.00  0.00    -0.011 A 
ATOM     13  C   UNL     1      -0.912  -7.829  23.619  1.00  0.00     0.013 A 
ATOM     14  C   UNL     1       0.400  -7.902  23.146  1.00  0.00     0.047 A 
ATOM     15  C   UNL     1       0.647  -8.046  21.774  1.00  0.00     0.115 A 
ATOM     16  C   UNL     1      -1.743  -8.054  21.353  1.00  0.00     0.013 A 
ATOM     17  C   UNL     1      -0.426  -8.125  20.882  1.00  0.00     0.047 A 
BRANCH  15  18
ATOM     18  O   UNL     1       1.951  -8.105  21.289  1.00  0.00    -0.508 OA
ATOM     19  H   UNL     1       2.313  -8.943  20.846  1.00  0.00     0.293 HD
ENDBRANCH  15  18
ENDBRANCH   1  12
BRANCH  11  20
ATOM     20  C   UNL     1      -8.488  -7.274  23.397  1.00  0.00     0.188 C 
ATOM     21  C   UNL     1      -8.626  -5.806  22.905  1.00  0.00     0.179 C 
ATOM     22  O   UNL     1      -9.724  -7.731  23.916  1.00  0.00    -0.362 OA
ATOM     23  C   UNL     1     -10.030  -5.559  22.298  1.00  0.00     0.177 C 
ATOM     24  C   UNL     1     -10.681  -7.955  22.883  1.00  0.00     0.176 C 
ATOM     25  C   UNL     1     -10.645  -6.866  21.755  1.00  0.00     0.177 C 
BRANCH  21  26
ATOM     26  O   UNL     1      -8.437  -4.888  23.955  1.00  0.00    -0.387 OA
ATOM     27  H   UNL     1      -8.068  -4.058  23.556  1.00  0.00     0.211 HD
ENDBRANCH  21  26
BRANCH  23  28
ATOM     28  O   UNL     1      -9.974  -4.567  21.302  1.00  0.00    -0.387 OA
ATOM     29  H   UNL     1     -10.429  -3.760  21.656  1.00  0.00     0.211 HD
ENDBRANCH  23  28
BRANCH  24  30
ATOM     30  C   UNL     1     -12.060  -8.092  23.549  1.00  0.00     0.191 C 
BRANCH  30  31
ATOM     31  O   UNL     1     -11.958  -7.864  24.928  1.00  0.00    -0.394 OA
ATOM     32  H   UNL     1     -12.779  -7.376  25.192  1.00  0.00     0.210 HD
ENDBRANCH  30  31
ENDBRANCH  24  30
BRANCH  25  33
ATOM     33  O   UNL     1     -11.927  -6.624  21.228  1.00  0.00    -0.388 OA
ATOM     34  H   UNL     1     -12.349  -7.509  21.065  1.00  0.00     0.211 HD
ENDBRANCH  25  33
ENDBRANCH  11  20
BRANCH  10  35
ATOM     35  O   UNL     1      -9.058  -7.459  26.219  1.00  0.00    -0.507 OA
ATOM     36  H   UNL     1      -9.320  -7.135  27.144  1.00  0.00     0.293 HD
ENDBRANCH  10  35
TORSDOF 9
ENDMDL
MODEL 2
REMARK VINA RESULT:    -3.480      3.678      8.168
REMARK INTER + INTRA:          -4.694
REMARK INTER:                  -4.161
REMARK INTRA:                  -0.533
REMARK UNBOUND:                 0.006
REMARK SMILES O=c1c(-c2ccc(O)cc2)coc2c([C@H]3O[C@@H](CO)[C@@H](O)[C@H](O)[C@H]3O)c(O)ccc12
REMARK SMILES IDX 3 1 11 2 12 3 13 4 30 5 2 6 1 7 29 8 28 9 26 10 14 11 4 12
REMARK SMILES IDX 5 13 6 14 7 15 10 16 9 17 8 18 15 20 24 21 16 22 22 23 17 24
REMARK SMILES IDX 20 25 25 26 23 28 18 30 19 31 21 33 27 35
REMARK H PARENT 8 19 25 27 23 29 19 32 21 34 27 36
REMARK Flexibility Score: inf
ROOT
ATOM      1  C   UNL     1      -9.242  -2.198  23.248  1.00  0.00     0.065 A 
ATOM      2  C   UNL     1      -8.129  -2.930  23.683  1.00  0.00     0.208 A 
ATOM      3  O   UNL     1      -8.256  -4.188  24.084  1.00  0.00    -0.463 OA
ATOM      4  C   UNL     1      -9.418  -4.832  24.110  1.00  0.00     0.147 A 
ATOM      5  C   UNL     1     -10.597  -4.165  23.708  1.00  0.00     0.066 A 
ATOM      6  C   UNL     1     -10.498  -2.833  23.263  1.00  0.00     0.200 A 
ATOM      7  O   UNL     1     -11.526  -2.220  22.864  1.00  0.00    -0.288 OA
ATOM      8  C   UNL     1     -11.828  -4.838  23.763  1.00  0.00     0.020 A 
ATOM      9  C   UNL     1     -11.890  -6.150  24.234  1.00  0.00     0.047 A 
ATOM     10  C   UNL     1     -10.726  -6.818  24.639  1.00  0.00     0.125 A 
ATOM     11  C   UNL     1      -9.472  -6.177  24.553  1.00  0.00     0.069 A 
ENDROOT
BRANCH   1  12
ATOM     12  C   UNL     1      -9.065  -0.800  22.773  1.00  0.00    -0.011 A 
ATOM     13  C   UNL     1      -8.932  -0.534  21.397  1.00  0.00     0.013 A 
ATOM     14  C   UNL     1      -8.748   0.773  20.942  1.00  0.00     0.047 A 
ATOM     15  C   UNL     1      -8.685   1.835  21.855  1.00  0.00     0.115 A 
ATOM     16  C   UNL     1      -9.001   0.271  23.683  1.00  0.00     0.013 A 
ATOM     17  C   UNL     1      -8.815   1.580  23.223  1.00  0.00     0.047 A 
BRANCH  15  18
ATOM     18  O   UNL     1      -8.487   3.141  21.413  1.00  0.00    -0.508 OA
ATOM     19  H   UNL     1      -7.717   3.380  20.797  1.00  0.00     0.293 HD
ENDBRANCH  15  18
ENDBRANCH   1  12
BRANCH  11  20
ATOM     20  C   UNL     1      -8.209  -6.902  25.008  1.00  0.00     0.188 C 
ATOM     21  C   UNL     1      -7.879  -6.624  26.502  1.00  0.00     0.179 C 
ATOM     22  O   UNL     1      -7.114  -6.531  24.191  1.00  0.00    -0.362 OA
ATOM     23  C   UNL     1      -6.380  -6.888  26.791  1.00  0.00     0.177 C 
ATOM     24  C   UNL     1      -6.022  -7.437  24.326  1.00  0.00     0.176 C 
ATOM     25  C   UNL     1      -5.789  -7.914  25.802  1.00  0.00     0.177 C 
BRANCH  21  26
ATOM     26  O   UNL     1      -8.164  -5.292  26.856  1.00  0.00    -0.387 OA
ATOM     27  H   UNL     1      -7.542  -4.713  26.343  1.00  0.00     0.211 HD
ENDBRANCH  21  26
BRANCH  23  28
ATOM     28  O   UNL     1      -6.195  -7.298  28.125  1.00  0.00    -0.387 OA
ATOM     29  H   UNL     1      -5.345  -6.899  28.446  1.00  0.00     0.211 HD
ENDBRANCH  23  28
BRANCH  24  30
ATOM     30  C   UNL     1      -4.785  -6.771  23.702  1.00  0.00     0.191 C 
BRANCH  30  31
ATOM     31  O   UNL     1      -4.042  -7.711  22.976  1.00  0.00    -0.394 OA
ATOM     32  H   UNL     1      -3.114  -7.365  22.935  1.00  0.00     0.210 HD
ENDBRANCH  30  31
ENDBRANCH  24  30
BRANCH  25  33
ATOM     33  O   UNL     1      -4.422  -8.123  26.069  1.00  0.00    -0.388 OA
ATOM     34  H   UNL     1      -3.931  -7.333  25.719  1.00  0.00     0.211 HD
ENDBRANCH  25  33
ENDBRANCH  11  20
BRANCH  10  35
ATOM     35  O   UNL     1     -10.822  -8.119  25.132  1.00  0.00    -0.507 OA
ATOM     36  H   UNL     1     -10.026  -8.748  25.137  1.00  0.00     0.293 HD
ENDBRANCH  10  35
TORSDOF 9
ENDMDL
MODEL 3
REMARK VINA RESULT:    -2.965      1.860      3.310
REMARK INTER + INTRA:          -3.998
REMARK INTER:                  -4.107
REMARK INTRA:                   0.109
REMARK UNBOUND:                 0.006
REMARK SMILES O=c1c(-c2ccc(O)cc2)coc2c([C@H]3O[C@@H](CO)[C@@H](O)[C@H](O)[C@H]3O)c(O)ccc12
REMARK SMILES IDX 3 1 11 2 12 3 13 4 30 5 2 6 1 7 29 8 28 9 26 10 14 11 4 12
REMARK SMILES IDX 5 13 6 14 7 15 10 16 9 17 8 18 15 20 24 21 16 22 22 23 17 24
REMARK SMILES IDX 20 25 25 26 23 28 18 30 19 31 21 33 27 35
REMARK H PARENT 8 19 25 27 23 29 19 32 21 34 27 36
REMARK Flexibility Score: inf
ROOT
ATOM      1  C   UNL     1      -5.719  -7.126  24.234  1.00  0.00     0.065 A 
ATOM      2  C   UNL     1      -6.476  -6.444  23.272  1.00  0.00     0.208 A 
ATOM      3  O   UNL     1      -7.752  -6.157  23.488  1.00  0.00    -0.463 OA
ATOM      4  C   UNL     1      -8.397  -6.490  24.602  1.00  0.00     0.147 A 
ATOM      5  C   UNL     1      -7.717  -7.197  25.619  1.00  0.00     0.066 A 
ATOM      6  C   UNL     1      -6.357  -7.507  25.430  1.00  0.00     0.200 A 
ATOM      7  O   UNL     1      -5.711  -8.106  26.333  1.00  0.00    -0.288 OA
ATOM      8  C   UNL     1      -8.407  -7.572  26.784  1.00  0.00     0.020 A 
ATOM      9  C   UNL     1      -9.762  -7.268  26.924  1.00  0.00     0.047 A 
ATOM     10  C   UNL     1     -10.444  -6.572  25.918  1.00  0.00     0.125 A 
ATOM     11  C   UNL     1      -9.762  -6.147  24.758  1.00  0.00     0.069 A 
ENDROOT
BRANCH   1  12
ATOM     12  C   UNL     1      -4.281  -7.406  23.979  1.00  0.00    -0.011 A 
ATOM     13  C   UNL     1      -3.326  -7.168  24.985  1.00  0.00     0.013 A 
ATOM     14  C   UNL     1      -1.971  -7.412  24.749  1.00  0.00     0.047 A 
ATOM     15  C   UNL     1      -1.548  -7.887  23.501  1.00  0.00     0.115 A 
ATOM     16  C   UNL     1      -3.848  -7.884  22.728  1.00  0.00     0.013 A 
ATOM     17  C   UNL     1      -2.489  -8.125  22.495  1.00  0.00     0.047 A 
BRANCH  15  18
ATOM     18  O   UNL     1      -0.198  -8.119  23.250  1.00  0.00    -0.508 OA
ATOM     19  H   UNL     1       0.180  -9.060  23.216  1.00  0.00     0.293 HD
ENDBRANCH  15  18
ENDBRANCH   1  12
BRANCH  11  20
ATOM     20  C   UNL     1     -10.513  -5.402  23.659  1.00  0.00     0.188 C 
ATOM     21  C   UNL     1     -10.878  -6.328  22.465  1.00  0.00     0.179 C 
ATOM     22  O   UNL     1      -9.744  -4.303  23.205  1.00  0.00    -0.362 OA
ATOM     23  C   UNL     1     -11.124  -5.497  21.180  1.00  0.00     0.177 C 
ATOM     24  C   UNL     1     -10.533  -3.374  22.465  1.00  0.00     0.176 C 
ATOM     25  C   UNL     1     -11.578  -4.061  21.518  1.00  0.00     0.177 C 
BRANCH  21  26
ATOM     26  O   UNL     1      -9.853  -7.254  22.196  1.00  0.00    -0.387 OA
ATOM     27  H   UNL     1      -9.478  -7.537  23.070  1.00  0.00     0.211 HD
ENDBRANCH  21  26
BRANCH  23  28
ATOM     28  O   UNL     1     -12.050  -6.142  20.340  1.00  0.00    -0.387 OA
ATOM     29  H   UNL     1     -11.627  -6.978  20.013  1.00  0.00     0.211 HD
ENDBRANCH  23  28
BRANCH  24  30
ATOM     30  C   UNL     1      -9.571  -2.432  21.724  1.00  0.00     0.191 C 
BRANCH  30  31
ATOM     31  O   UNL     1      -8.428  -2.197  22.499  1.00  0.00    -0.394 OA
ATOM     32  H   UNL     1      -8.588  -2.633  23.375  1.00  0.00     0.210 HD
ENDBRANCH  30  31
ENDBRANCH  24  30
BRANCH  25  33
ATOM     33  O   UNL     1     -11.775  -3.318  20.339  1.00  0.00    -0.388 OA
ATOM     34  H   UNL     1     -12.025  -2.396  20.612  1.00  0.00     0.211 HD
ENDBRANCH  25  33
ENDBRANCH  11  20
BRANCH  10  35
ATOM     35  O   UNL     1     -11.805  -6.307  26.074  1.00  0.00    -0.507 OA
ATOM     36  H   UNL     1     -12.514  -6.989  25.825  1.00  0.00     0.293 HD
ENDBRANCH  10  35
TORSDOF 9
ENDMDL
MODEL 4
REMARK VINA RESULT:    -1.405      2.291      3.823
REMARK INTER + INTRA:          -1.892
REMARK INTER:                  -2.923
REMARK INTRA:                   1.032
REMARK UNBOUND:                 0.006
REMARK SMILES O=c1c(-c2ccc(O)cc2)coc2c([C@H]3O[C@@H](CO)[C@@H](O)[C@H](O)[C@H]3O)c(O)ccc12
REMARK SMILES IDX 3 1 11 2 12 3 13 4 30 5 2 6 1 7 29 8 28 9 26 10 14 11 4 12
REMARK SMILES IDX 5 13 6 14 7 15 10 16 9 17 8 18 15 20 24 21 16 22 22 23 17 24
REMARK SMILES IDX 20 25 25 26 23 28 18 30 19 31 21 33 27 35
REMARK H PARENT 8 19 25 27 23 29 19 32 21 34 27 36
REMARK Flexibility Score: inf
ROOT
ATOM      1  C   UNL     1      -3.256  -7.213  24.653  1.00  0.00     0.065 A 
ATOM      2  C   UNL     1      -4.277  -7.085  25.604  1.00  0.00     0.208 A 
ATOM      3  O   UNL     1      -5.547  -7.266  25.266  1.00  0.00    -0.463 OA
ATOM      4  C   UNL     1      -5.939  -7.566  24.032  1.00  0.00     0.147 A 
ATOM      5  C   UNL     1      -4.978  -7.695  23.005  1.00  0.00     0.066 A 
ATOM      6  C   UNL     1      -3.619  -7.524  23.329  1.00  0.00     0.200 A 
ATOM      7  O   UNL     1      -2.732  -7.666  22.443  1.00  0.00    -0.288 OA
ATOM      8  C   UNL     1      -5.396  -7.986  21.696  1.00  0.00     0.020 A 
ATOM      9  C   UNL     1      -6.754  -8.124  21.408  1.00  0.00     0.047 A 
ATOM     10  C   UNL     1      -7.714  -7.994  22.421  1.00  0.00     0.125 A 
ATOM     11  C   UNL     1      -7.316  -7.743  23.751  1.00  0.00     0.069 A 
ENDROOT
BRANCH   1  12
ATOM     12  C   UNL     1      -1.838  -7.037  25.066  1.00  0.00    -0.011 A 
ATOM     13  C   UNL     1      -1.366  -5.766  25.444  1.00  0.00     0.013 A 
ATOM     14  C   UNL     1      -0.031  -5.588  25.816  1.00  0.00     0.047 A 
ATOM     15  C   UNL     1       0.854  -6.674  25.808  1.00  0.00     0.115 A 
ATOM     16  C   UNL     1      -0.943  -8.123  25.061  1.00  0.00     0.013 A 
ATOM     17  C   UNL     1       0.394  -7.939  25.433  1.00  0.00     0.047 A 
BRANCH  15  18
ATOM     18  O   UNL     1       2.190  -6.504  26.163  1.00  0.00    -0.508 OA
ATOM     19  H   UNL     1       2.900  -6.297  25.468  1.00  0.00     0.293 HD
ENDBRANCH  15  18
ENDBRANCH   1  12
BRANCH  11  20
ATOM     20  C   UNL     1      -8.365  -7.588  24.848  1.00  0.00     0.188 C 
ATOM     21  C   UNL     1      -9.651  -6.880  24.335  1.00  0.00     0.179 C 
ATOM     22  O   UNL     1      -7.822  -6.874  25.943  1.00  0.00    -0.362 OA
ATOM     23  C   UNL     1     -10.440  -6.254  25.512  1.00  0.00     0.177 C 
ATOM     24  C   UNL     1      -8.615  -7.024  27.119  1.00  0.00     0.176 C 
ATOM     25  C   UNL     1     -10.158  -6.995  26.835  1.00  0.00     0.177 C 
BRANCH  21  26
ATOM     26  O   UNL     1      -9.348  -5.856  23.418  1.00  0.00    -0.387 OA
ATOM     27  H   UNL     1      -8.688  -6.225  22.775  1.00  0.00     0.211 HD
ENDBRANCH  21  26
BRANCH  23  28
ATOM     28  O   UNL     1     -11.818  -6.223  25.227  1.00  0.00    -0.387 OA
ATOM     29  H   UNL     1     -12.046  -5.299  24.947  1.00  0.00     0.211 HD
ENDBRANCH  23  28
BRANCH  24  30
ATOM     30  C   UNL     1      -8.163  -5.952  28.124  1.00  0.00     0.191 C 
BRANCH  30  31
ATOM     31  O   UNL     1      -8.276  -4.676  27.557  1.00  0.00    -0.394 OA
ATOM     32  H   UNL     1      -7.955  -4.755  26.623  1.00  0.00     0.210 HD
ENDBRANCH  30  31
ENDBRANCH  24  30
BRANCH  25  33
ATOM     33  O   UNL     1     -10.867  -6.397  27.894  1.00  0.00    -0.388 OA
ATOM     34  H   UNL     1     -11.519  -7.069  28.227  1.00  0.00     0.211 HD
ENDBRANCH  25  33
ENDBRANCH  11  20
BRANCH  10  35
ATOM     35  O   UNL     1      -9.067  -8.108  22.098  1.00  0.00    -0.507 OA
ATOM     36  H   UNL     1      -9.715  -8.618  22.689  1.00  0.00     0.293 HD
ENDBRANCH  10  35
TORSDOF 9
ENDMDL
