MODEL 1
REMARK VINA RESULT:    15.113      0.000      0.000
REMARK INTER + INTRA:          32.991
REMARK INTER:                  31.899
REMARK INTRA:                   1.091
REMARK UNBOUND:                 1.091
REMARK SMILES CCC(=O)CCCCC[C@H]1NC(=O)[C@@H]2CCCCN2C(=O)[C@@H]([C@H](C)CC)NC(=O)[C@@H](Cc2cn(OC)c3ccccc23)NC1=O
REMARK SMILES IDX 9 1 10 2 44 3 43 4 45 6 30 7 28 8 27 9 29 11 22 12 23 14
REMARK SMILES IDX 24 15 25 16 26 17 31 18 32 19 33 20 42 21 34 22 37 23 41 24
REMARK SMILES IDX 38 25 40 26 39 27 35 28 36 29 11 30 12 31 13 33 14 34 19 35
REMARK SMILES IDX 15 36 18 37 16 38 17 39 20 40 21 41 8 43 7 44 6 45 5 46 3 47
REMARK SMILES IDX 4 48 2 49 1 50
REMARK H PARENT 43 5 27 10 11 32
REMARK Flexibility Score: 80.00
ROOT
ATOM      1  C   UNL     1      13.438   8.481 -16.561  1.00  0.00     0.035 C 
ENDROOT
BRANCH   1   2
ATOM      2  C   UNL     1      12.037   9.095 -16.761  1.00  0.00     0.171 C 
BRANCH   2   3
ATOM      3  C   UNL     1      11.513   8.884 -18.166  1.00  0.00     0.243 C 
ATOM      4  N   UNL     1      10.967   9.992 -18.903  1.00  0.00    -0.342 N 
ATOM      5  H   UNL     1      10.705  10.838 -18.351  1.00  0.00     0.164 HD
ATOM      6  O   UNL     1      11.462   7.721 -18.651  1.00  0.00    -0.273 OA
BRANCH   4   7
ATOM      7  C   UNL     1      10.556   9.950 -20.311  1.00  0.00     0.175 C 
BRANCH   7   8
ATOM      8  C   UNL     1       9.486  10.995 -20.520  1.00  0.00     0.243 C 
ATOM      9  N   UNL     1       9.820  12.387 -20.465  1.00  0.00    -0.342 N 
ATOM     10  H   UNL     1      10.658  12.705 -20.998  1.00  0.00     0.164 HD
ATOM     11  O   UNL     1       8.285  10.648 -20.671  1.00  0.00    -0.273 OA
BRANCH   9  12
ATOM     12  C   UNL     1       9.307  13.250 -19.396  1.00  0.00     0.174 CG0
ATOM     13  G   UNL     1      10.351  13.390 -18.300  1.00  0.00     0.000 G0
BRANCH  12  14
ATOM     14  C   UNL     1       8.867  14.633 -19.964  1.00  0.00     0.018 C 
ATOM     15  C   UNL     1       8.723  15.643 -18.812  1.00  0.00     0.010 C 
BRANCH  14  16
ATOM     16  C   UNL     1       7.564  14.566 -20.806  1.00  0.00     0.002 C 
ATOM     17  C   UNL     1       6.992  15.951 -21.117  1.00  0.00     0.004 C 
ENDBRANCH  14  16
ENDBRANCH  12  14
ENDBRANCH   9  12
ENDBRANCH   7   8
BRANCH   7  18
ATOM     18  C   UNL     1      11.755  10.179 -21.263  1.00  0.00     0.073 C 
BRANCH  18  19
ATOM     19  C   UNL     1      12.686   8.999 -21.289  1.00  0.00    -0.016 A 
ATOM     20  C   UNL     1      12.358   7.685 -20.991  1.00  0.00     0.134 A 
ATOM     21  C   UNL     1      14.047   9.002 -21.527  1.00  0.00     0.006 A 
ATOM     22  N   UNL     1      13.457   6.899 -21.043  1.00  0.00    -0.191 N 
ATOM     23  C   UNL     1      14.500   7.709 -21.368  1.00  0.00     0.087 A 
ATOM     24  C   UNL     1      14.900  10.056 -21.858  1.00  0.00     0.011 A 
ATOM     25  C   UNL     1      15.864   7.409 -21.522  1.00  0.00     0.030 A 
ATOM     26  C   UNL     1      16.264   9.772 -22.019  1.00  0.00     0.001 A 
ATOM     27  C   UNL     1      16.744   8.457 -21.850  1.00  0.00     0.002 A 
BRANCH  22  28
ATOM     28  O   UNL     1      13.402   5.536 -20.793  1.00  0.00    -0.417 OA
ATOM     29  C   UNL     1      14.486   4.753 -20.317  1.00  0.00     0.313 C 
ENDBRANCH  22  28
ENDBRANCH  18  19
ENDBRANCH   7  18
ENDBRANCH   4   7
ENDBRANCH   2   3
BRANCH   2  30
ATOM     30  N   UNL     1      12.089  10.533 -16.458  1.00  0.00    -0.343 N 
ATOM     31  C   UNL     1      10.952  11.269 -15.979  1.00  0.00     0.243 C 
ATOM     32  H   UNL     1      12.943  11.062 -16.742  1.00  0.00     0.164 HD
ATOM     33  O   UNL     1       9.882  10.666 -15.692  1.00  0.00    -0.273 OA
BRANCH  31  34
ATOM     34  C   UNL     1      10.999  12.777 -15.919  1.00  0.00     0.174 C 
ATOM     35  N   UNL     1      10.038  13.350 -16.887  1.00  0.00    -0.329 N 
ATOM     36  C   UNL     1      10.731  13.282 -14.485  1.00  0.00     0.035 C 
ATOM     37  C   UNL     1       8.779  13.918 -16.376  1.00  0.00     0.120 C 
ATOM     38  C   UNL     1      10.350  14.763 -14.518  1.00  0.00     0.004 C 
ATOM     39  C   UNL     1       9.056  14.999 -15.315  1.00  0.00     0.022 C 
BRANCH  35  40
ATOM     40  C   UNL     1      10.354  13.331 -18.299  1.00  0.00     0.246 CG0
ATOM     41  O   UNL     1      11.565  13.314 -18.657  1.00  0.00    -0.272 OA
ATOM     42  G   UNL     1       9.281  13.302 -19.377  1.00  0.00     0.000 G0
ENDBRANCH  35  40
ENDBRANCH  31  34
ENDBRANCH   2  30
ENDBRANCH   1   2
BRANCH   1  43
ATOM     43  C   UNL     1      14.229   8.455 -17.883  1.00  0.00     0.003 C 
BRANCH  43  44
ATOM     44  C   UNL     1      15.733   8.213 -17.675  1.00  0.00     0.001 C 
BRANCH  44  45
ATOM     45  C   UNL     1      16.650   9.262 -18.323  1.00  0.00     0.008 C 
BRANCH  45  46
ATOM     46  C   UNL     1      17.851   8.644 -19.053  1.00  0.00     0.075 C 
BRANCH  46  47
ATOM     47  C   UNL     1      18.877   9.698 -19.373  1.00  0.00     0.132 C 
ATOM     48  O   UNL     1      20.066   9.408 -19.343  1.00  0.00    -0.300 OA
BRANCH  47  49
ATOM     49  C   UNL     1      18.463  11.112 -19.698  1.00  0.00     0.072 C 
ATOM     50  C   UNL     1      18.773  11.463 -21.152  1.00  0.00     0.012 C 
ENDBRANCH  47  49
ENDBRANCH  46  47
ENDBRANCH  45  46
ENDBRANCH  44  45
ENDBRANCH  43  44
ENDBRANCH   1  43
TORSDOF 12
ENDMDL
MODEL 2
REMARK VINA RESULT:    17.999      2.383      7.655
REMARK INTER + INTRA:          39.083
REMARK INTER:                  33.030
REMARK INTRA:                   6.053
REMARK UNBOUND:                 1.091
REMARK SMILES CCC(=O)CCCCC[C@H]1NC(=O)[C@@H]2CCCCN2C(=O)[C@@H]([C@H](C)CC)NC(=O)[C@@H](Cc2cn(OC)c3ccccc23)NC1=O
REMARK SMILES IDX 9 1 10 2 44 3 43 4 45 6 30 7 28 8 27 9 29 11 22 12 23 14
REMARK SMILES IDX 24 15 25 16 26 17 31 18 32 19 33 20 42 21 34 22 37 23 41 24
REMARK SMILES IDX 38 25 40 26 39 27 35 28 36 29 11 30 12 31 13 33 14 34 19 35
REMARK SMILES IDX 15 36 18 37 16 38 17 39 20 40 21 41 8 43 7 44 6 45 5 46 3 47
REMARK SMILES IDX 4 48 2 49 1 50
REMARK H PARENT 43 5 27 10 11 32
REMARK Flexibility Score: 80.00
ROOT
ATOM      1  C   UNL     1       7.661  13.572 -21.367  1.00  0.00     0.035 C 
ENDROOT
BRANCH   1   2
ATOM      2  C   UNL     1       8.990  13.719 -20.597  1.00  0.00     0.171 C 
BRANCH   2   3
ATOM      3  C   UNL     1       9.775  12.424 -20.557  1.00  0.00     0.243 C 
ATOM      4  N   UNL     1      11.164  12.438 -20.183  1.00  0.00    -0.342 N 
ATOM      5  H   UNL     1      11.648  13.361 -20.213  1.00  0.00     0.164 HD
ATOM      6  O   UNL     1       9.240  11.350 -20.948  1.00  0.00    -0.273 OA
BRANCH   4   7
ATOM      7  C   UNL     1      11.994  11.246 -19.973  1.00  0.00     0.175 C 
BRANCH   7   8
ATOM      8  C   UNL     1      11.431  10.481 -18.800  1.00  0.00     0.243 C 
ATOM      9  N   UNL     1      10.665  11.161 -17.798  1.00  0.00    -0.342 N 
ATOM     10  H   UNL     1       9.915  11.810 -18.120  1.00  0.00     0.164 HD
ATOM     11  O   UNL     1      11.693   9.256 -18.659  1.00  0.00    -0.273 OA
BRANCH   9  12
ATOM     12  C   UNL     1      11.160  11.298 -16.425  1.00  0.00     0.174 CG0
ATOM     13  G   UNL     1      10.275  12.262 -15.651  1.00  0.00     0.000 G0
BRANCH  12  14
ATOM     14  C   UNL     1      11.256   9.906 -15.729  1.00  0.00     0.018 C 
ATOM     15  C   UNL     1      11.080  10.075 -14.209  1.00  0.00     0.010 C 
BRANCH  14  16
ATOM     16  C   UNL     1      12.571   9.147 -16.051  1.00  0.00     0.002 C 
ATOM     17  C   UNL     1      12.560   7.705 -15.537  1.00  0.00     0.004 C 
ENDBRANCH  14  16
ENDBRANCH  12  14
ENDBRANCH   9  12
ENDBRANCH   7   8
BRANCH   7  18
ATOM     18  C   UNL     1      12.054  10.361 -21.241  1.00  0.00     0.073 C 
BRANCH  18  19
ATOM     19  C   UNL     1      13.250   9.448 -21.234  1.00  0.00    -0.016 A 
ATOM     20  C   UNL     1      14.540   9.779 -21.622  1.00  0.00     0.134 A 
ATOM     21  C   UNL     1      13.283   8.102 -20.929  1.00  0.00     0.006 A 
ATOM     22  N   UNL     1      15.346   8.696 -21.558  1.00  0.00    -0.191 N 
ATOM     23  C   UNL     1      14.573   7.659 -21.137  1.00  0.00     0.087 A 
ATOM     24  C   UNL     1      12.263   7.252 -20.497  1.00  0.00     0.011 A 
ATOM     25  C   UNL     1      14.903   6.309 -20.931  1.00  0.00     0.030 A 
ATOM     26  C   UNL     1      12.579   5.902 -20.284  1.00  0.00     0.001 A 
ATOM     27  C   UNL     1      13.890   5.432 -20.502  1.00  0.00     0.002 A 
BRANCH  22  28
ATOM     28  O   UNL     1      16.692   8.757 -21.886  1.00  0.00    -0.417 OA
ATOM     29  C   UNL     1      17.520   9.896 -21.711  1.00  0.00     0.313 C 
ENDBRANCH  22  28
ENDBRANCH  18  19
ENDBRANCH   7  18
ENDBRANCH   4   7
ENDBRANCH   2   3
BRANCH   2  30
ATOM     30  N   UNL     1       8.712  14.177 -19.229  1.00  0.00    -0.343 N 
ATOM     31  C   UNL     1       9.653  14.034 -18.153  1.00  0.00     0.243 C 
ATOM     32  H   UNL     1       7.739  14.483 -19.003  1.00  0.00     0.164 HD
ATOM     33  O   UNL     1      10.816  13.602 -18.382  1.00  0.00    -0.273 OA
BRANCH  31  34
ATOM     34  C   UNL     1       9.222  14.298 -16.731  1.00  0.00     0.174 C 
ATOM     35  N   UNL     1      10.228  13.758 -15.790  1.00  0.00    -0.329 N 
ATOM     36  C   UNL     1       8.977  15.805 -16.498  1.00  0.00     0.035 C 
ATOM     37  C   UNL     1      11.131  14.701 -15.108  1.00  0.00     0.120 C 
ATOM     38  C   UNL     1       8.975  16.106 -14.998  1.00  0.00     0.004 C 
ATOM     39  C   UNL     1      10.331  15.777 -14.351  1.00  0.00     0.022 C 
BRANCH  35  40
ATOM     40  C   UNL     1      10.302  12.329 -15.571  1.00  0.00     0.246 CG0
ATOM     41  O   UNL     1       9.631  11.817 -14.631  1.00  0.00    -0.272 OA
ATOM     42  G   UNL     1      11.136  11.410 -16.449  1.00  0.00     0.000 G0
ENDBRANCH  35  40
ENDBRANCH  31  34
ENDBRANCH   2  30
ENDBRANCH   1   2
BRANCH   1  43
ATOM     43  C   UNL     1       7.085  14.948 -21.752  1.00  0.00     0.003 C 
BRANCH  43  44
ATOM     44  C   UNL     1       5.553  14.942 -21.875  1.00  0.00     0.001 C 
BRANCH  44  45
ATOM     45  C   UNL     1       4.888  13.590 -21.575  1.00  0.00     0.008 C 
BRANCH  45  46
ATOM     46  C   UNL     1       3.486  13.460 -22.188  1.00  0.00     0.075 C 
BRANCH  46  47
ATOM     47  C   UNL     1       2.430  13.520 -21.116  1.00  0.00     0.132 C 
ATOM     48  O   UNL     1       1.785  12.514 -20.851  1.00  0.00    -0.300 OA
BRANCH  47  49
ATOM     49  C   UNL     1       2.134  14.808 -20.389  1.00  0.00     0.072 C 
ATOM     50  C   UNL     1       1.570  14.544 -18.994  1.00  0.00     0.012 C 
ENDBRANCH  47  49
ENDBRANCH  46  47
ENDBRANCH  45  46
ENDBRANCH  44  45
ENDBRANCH  43  44
ENDBRANCH   1  43
TORSDOF 12
ENDMDL
