MODEL 1
REMARK VINA RESULT:    -5.238      0.000      0.000
REMARK INTER + INTRA:          -5.637
REMARK INTER:                  -5.544
REMARK INTRA:                  -0.093
REMARK UNBOUND:                -0.093
REMARK SMILES C=C(C)[C@@H]1CC=C(C)C(=O)C1
REMARK SMILES IDX 8 1 7 2 6 3 5 4 4 5 11 6 9 7 10 8 2 9 1 10 3 11
REMARK H PARENT
REMARK Flexibility Score: inf
ROOT
ATOM      1  C   UNL     1      10.872  16.014  10.922  1.00  0.00     0.048 C 
ATOM      2  C   UNL     1      11.732  15.743  12.125  1.00  0.00    -0.012 C 
ATOM      3  C   UNL     1      12.993  15.305  11.962  1.00  0.00    -0.019 C 
ATOM      4  C   UNL     1      13.902  15.036  13.132  1.00  0.00     0.036 C 
ATOM      5  C   UNL     1      13.104  14.538  14.352  1.00  0.00     0.025 C 
ATOM      6  C   UNL     1      11.984  15.536  14.701  1.00  0.00     0.089 C 
ATOM      7  C   UNL     1      11.150  15.840  13.487  1.00  0.00     0.158 C 
ATOM      8  O   UNL     1       9.956  16.216  13.641  1.00  0.00    -0.295 OA
ENDROOT
BRANCH   5   9
ATOM      9  C   UNL     1      14.011  14.271  15.546  1.00  0.00    -0.077 C 
ATOM     10  C   UNL     1      13.629  13.460  16.548  1.00  0.00     0.008 C 
ATOM     11  C   UNL     1      15.370  14.920  15.622  1.00  0.00     0.039 C 
ENDBRANCH   5   9
TORSDOF 1
ENDMDL
MODEL 2
REMARK VINA RESULT:    -5.151      2.077      4.754
REMARK INTER + INTRA:          -5.546
REMARK INTER:                  -5.448
REMARK INTRA:                  -0.098
REMARK UNBOUND:                -0.093
REMARK SMILES C=C(C)[C@@H]1CC=C(C)C(=O)C1
REMARK SMILES IDX 8 1 7 2 6 3 5 4 4 5 11 6 9 7 10 8 2 9 1 10 3 11
REMARK H PARENT
REMARK Flexibility Score: inf
ROOT
ATOM      1  C   UNL     1      13.953  13.543  16.985  1.00  0.00     0.048 C 
ATOM      2  C   UNL     1      13.510  14.271  15.746  1.00  0.00    -0.012 C 
ATOM      3  C   UNL     1      12.288  14.830  15.700  1.00  0.00    -0.019 C 
ATOM      4  C   UNL     1      11.801  15.585  14.491  1.00  0.00     0.036 C 
ATOM      5  C   UNL     1      12.389  14.996  13.195  1.00  0.00     0.025 C 
ATOM      6  C   UNL     1      13.926  14.955  13.276  1.00  0.00     0.089 C 
ATOM      7  C   UNL     1      14.370  14.265  14.537  1.00  0.00     0.158 C 
ATOM      8  O   UNL     1      15.502  13.710  14.567  1.00  0.00    -0.295 OA
ENDROOT
BRANCH   5   9
ATOM      9  C   UNL     1      11.912  15.758  11.965  1.00  0.00    -0.077 C 
ATOM     10  C   UNL     1      12.595  15.717  10.807  1.00  0.00     0.008 C 
ATOM     11  C   UNL     1      10.649  16.579  12.028  1.00  0.00     0.039 C 
ENDBRANCH   5   9
TORSDOF 1
ENDMDL
MODEL 3
REMARK VINA RESULT:    -4.918      1.389      2.042
REMARK INTER + INTRA:          -5.299
REMARK INTER:                  -5.205
REMARK INTRA:                  -0.095
REMARK UNBOUND:                -0.093
REMARK SMILES C=C(C)[C@@H]1CC=C(C)C(=O)C1
REMARK SMILES IDX 8 1 7 2 6 3 5 4 4 5 11 6 9 7 10 8 2 9 1 10 3 11
REMARK H PARENT
REMARK Flexibility Score: inf
ROOT
ATOM      1  C   UNL     1      10.667  16.709  11.324  1.00  0.00     0.048 C 
ATOM      2  C   UNL     1      11.468  16.016  12.391  1.00  0.00    -0.012 C 
ATOM      3  C   UNL     1      11.076  16.087  13.675  1.00  0.00    -0.019 C 
ATOM      4  C   UNL     1      11.832  15.397  14.780  1.00  0.00     0.036 C 
ATOM      5  C   UNL     1      13.341  15.350  14.474  1.00  0.00     0.025 C 
ATOM      6  C   UNL     1      13.589  14.697  13.102  1.00  0.00     0.089 C 
ATOM      7  C   UNL     1      12.754  15.362  12.042  1.00  0.00     0.158 C 
ATOM      8  O   UNL     1      13.142  15.325  10.842  1.00  0.00    -0.295 OA
ENDROOT
BRANCH   5   9
ATOM      9  C   UNL     1      14.117  14.646  15.580  1.00  0.00    -0.077 C 
ATOM     10  C   UNL     1      13.570  13.642  16.288  1.00  0.00     0.008 C 
ATOM     11  C   UNL     1      15.527  15.069  15.902  1.00  0.00     0.039 C 
ENDBRANCH   5   9
TORSDOF 1
ENDMDL
MODEL 4
REMARK VINA RESULT:    -4.912      1.391      2.291
REMARK INTER + INTRA:          -5.293
REMARK INTER:                  -5.201
REMARK INTRA:                  -0.092
REMARK UNBOUND:                -0.093
REMARK SMILES C=C(C)[C@@H]1CC=C(C)C(=O)C1
REMARK SMILES IDX 8 1 7 2 6 3 5 4 4 5 11 6 9 7 10 8 2 9 1 10 3 11
REMARK H PARENT
REMARK Flexibility Score: inf
ROOT
ATOM      1  C   UNL     1      10.691  16.664  11.314  1.00  0.00     0.048 C 
ATOM      2  C   UNL     1      11.503  15.979  12.378  1.00  0.00    -0.012 C 
ATOM      3  C   UNL     1      11.117  16.051  13.664  1.00  0.00    -0.019 C 
ATOM      4  C   UNL     1      11.883  15.369  14.767  1.00  0.00     0.036 C 
ATOM      5  C   UNL     1      13.391  15.332  14.454  1.00  0.00     0.025 C 
ATOM      6  C   UNL     1      13.636  14.676  13.082  1.00  0.00     0.089 C 
ATOM      7  C   UNL     1      12.792  15.333  12.024  1.00  0.00     0.158 C 
ATOM      8  O   UNL     1      13.173  15.296  10.823  1.00  0.00    -0.295 OA
ENDROOT
BRANCH   5   9
ATOM      9  C   UNL     1      14.177  14.636  15.558  1.00  0.00    -0.077 C 
ATOM     10  C   UNL     1      15.438  14.997  15.854  1.00  0.00     0.008 C 
ATOM     11  C   UNL     1      13.544  13.516  16.345  1.00  0.00     0.039 C 
ENDBRANCH   5   9
TORSDOF 1
ENDMDL
MODEL 5
REMARK VINA RESULT:    -4.635      1.673      4.315
REMARK INTER + INTRA:          -4.999
REMARK INTER:                  -4.903
REMARK INTRA:                  -0.096
REMARK UNBOUND:                -0.093
REMARK SMILES C=C(C)[C@@H]1CC=C(C)C(=O)C1
REMARK SMILES IDX 8 1 7 2 6 3 5 4 4 5 11 6 9 7 10 8 2 9 1 10 3 11
REMARK H PARENT
REMARK Flexibility Score: inf
ROOT
ATOM      1  C   UNL     1      15.204  14.171  14.822  1.00  0.00     0.048 C 
ATOM      2  C   UNL     1      13.888  14.615  14.248  1.00  0.00    -0.012 C 
ATOM      3  C   UNL     1      13.786  14.877  12.933  1.00  0.00    -0.019 C 
ATOM      4  C   UNL     1      12.488  15.308  12.303  1.00  0.00     0.036 C 
ATOM      5  C   UNL     1      11.644  16.142  13.286  1.00  0.00     0.025 C 
ATOM      6  C   UNL     1      11.427  15.364  14.597  1.00  0.00     0.089 C 
ATOM      7  C   UNL     1      12.740  14.883  15.150  1.00  0.00     0.158 C 
ATOM      8  O   UNL     1      12.844  14.671  16.388  1.00  0.00    -0.295 OA
ENDROOT
BRANCH   5   9
ATOM      9  C   UNL     1      10.323  16.576  12.664  1.00  0.00    -0.077 C 
ATOM     10  C   UNL     1      10.010  16.261  11.395  1.00  0.00     0.008 C 
ATOM     11  C   UNL     1       9.334  17.376  13.472  1.00  0.00     0.039 C 
ENDBRANCH   5   9
TORSDOF 1
ENDMDL
MODEL 6
REMARK VINA RESULT:    -4.634      1.977      4.450
REMARK INTER + INTRA:          -4.998
REMARK INTER:                  -4.905
REMARK INTRA:                  -0.093
REMARK UNBOUND:                -0.093
REMARK SMILES C=C(C)[C@@H]1CC=C(C)C(=O)C1
REMARK SMILES IDX 8 1 7 2 6 3 5 4 4 5 11 6 9 7 10 8 2 9 1 10 3 11
REMARK H PARENT
REMARK Flexibility Score: inf
ROOT
ATOM      1  C   UNL     1      15.798  13.044  16.359  1.00  0.00     0.048 C 
ATOM      2  C   UNL     1      14.742  13.594  15.440  1.00  0.00    -0.012 C 
ATOM      3  C   UNL     1      15.087  14.452  14.463  1.00  0.00    -0.019 C 
ATOM      4  C   UNL     1      14.074  15.019  13.505  1.00  0.00     0.036 C 
ATOM      5  C   UNL     1      12.703  15.194  14.186  1.00  0.00     0.025 C 
ATOM      6  C   UNL     1      12.239  13.863  14.804  1.00  0.00     0.089 C 
ATOM      7  C   UNL     1      13.312  13.289  15.690  1.00  0.00     0.158 C 
ATOM      8  O   UNL     1      12.983  12.514  16.628  1.00  0.00    -0.295 OA
ENDROOT
BRANCH   5   9
ATOM      9  C   UNL     1      11.666  15.759  13.224  1.00  0.00    -0.077 C 
ATOM     10  C   UNL     1      10.607  16.459  13.668  1.00  0.00     0.008 C 
ATOM     11  C   UNL     1      11.813  15.539  11.740  1.00  0.00     0.039 C 
ENDBRANCH   5   9
TORSDOF 1
ENDMDL
MODEL 7
REMARK VINA RESULT:    -4.356      1.675      2.279
REMARK INTER + INTRA:          -4.704
REMARK INTER:                  -4.611
REMARK INTRA:                  -0.093
REMARK UNBOUND:                -0.093
REMARK SMILES C=C(C)[C@@H]1CC=C(C)C(=O)C1
REMARK SMILES IDX 8 1 7 2 6 3 5 4 4 5 11 6 9 7 10 8 2 9 1 10 3 11
REMARK H PARENT
REMARK Flexibility Score: inf
ROOT
ATOM      1  C   UNL     1      11.179  15.983  13.215  1.00  0.00     0.048 C 
ATOM      2  C   UNL     1      12.320  15.338  13.951  1.00  0.00    -0.012 C 
ATOM      3  C   UNL     1      13.506  15.176  13.337  1.00  0.00    -0.019 C 
ATOM      4  C   UNL     1      14.687  14.553  14.032  1.00  0.00     0.036 C 
ATOM      5  C   UNL     1      14.233  13.485  15.046  1.00  0.00     0.025 C 
ATOM      6  C   UNL     1      13.222  14.086  16.039  1.00  0.00     0.089 C 
ATOM      7  C   UNL     1      12.101  14.769  15.304  1.00  0.00     0.158 C 
ATOM      8  O   UNL     1      10.979  14.888  15.867  1.00  0.00    -0.295 OA
ENDROOT
BRANCH   5   9
ATOM      9  C   UNL     1      15.418  12.853  15.764  1.00  0.00    -0.077 C 
ATOM     10  C   UNL     1      16.131  13.538  16.675  1.00  0.00     0.008 C 
ATOM     11  C   UNL     1      15.815  11.431  15.460  1.00  0.00     0.039 C 
ENDBRANCH   5   9
TORSDOF 1
ENDMDL
MODEL 8
REMARK VINA RESULT:    -4.310      2.675      4.467
REMARK INTER + INTRA:          -4.656
REMARK INTER:                  -4.560
REMARK INTRA:                  -0.096
REMARK UNBOUND:                -0.093
REMARK SMILES C=C(C)[C@@H]1CC=C(C)C(=O)C1
REMARK SMILES IDX 8 1 7 2 6 3 5 4 4 5 11 6 9 7 10 8 2 9 1 10 3 11
REMARK H PARENT
REMARK Flexibility Score: inf
ROOT
ATOM      1  C   UNL     1      14.157  14.879  10.232  1.00  0.00     0.048 C 
ATOM      2  C   UNL     1      12.890  15.327  10.908  1.00  0.00    -0.012 C 
ATOM      3  C   UNL     1      11.886  15.839  10.174  1.00  0.00    -0.019 C 
ATOM      4  C   UNL     1      10.590  16.286  10.798  1.00  0.00     0.036 C 
ATOM      5  C   UNL     1      10.819  16.838  12.218  1.00  0.00     0.025 C 
ATOM      6  C   UNL     1      11.554  15.798  13.083  1.00  0.00     0.089 C 
ATOM      7  C   UNL     1      12.799  15.318  12.389  1.00  0.00     0.158 C 
ATOM      8  O   UNL     1      13.754  14.871  13.080  1.00  0.00    -0.295 OA
ENDROOT
BRANCH   5   9
ATOM      9  C   UNL     1       9.514  17.285  12.864  1.00  0.00    -0.077 C 
ATOM     10  C   UNL     1       9.082  16.744  14.016  1.00  0.00     0.008 C 
ATOM     11  C   UNL     1       8.676  18.355  12.212  1.00  0.00     0.039 C 
ENDBRANCH   5   9
TORSDOF 1
ENDMDL
