MODEL 1
REMARK VINA RESULT:    -3.902      0.000      0.000
REMARK INTER + INTRA:          -7.470
REMARK INTER:                  -6.184
REMARK INTRA:                  -1.286
REMARK UNBOUND:                -1.286
REMARK SMILES CCCCCCCCCCCC(=O)[O-]
REMARK SMILES IDX 7 1 8 2 9 3 10 4 11 5 12 6 13 7 14 8 6 9 5 10 4 11 3 12 2 13
REMARK SMILES IDX 1 14
REMARK H PARENT
REMARK Flexibility Score: inf
ROOT
ATOM      1  C   UNL     1      32.209  77.622   8.995  1.00  0.00     0.000 C 
ENDROOT
BRANCH   1   2
ATOM      2  C   UNL     1      31.775  78.421  10.235  1.00  0.00     0.000 C 
BRANCH   2   3
ATOM      3  C   UNL     1      32.942  78.786  11.176  1.00  0.00     0.000 C 
BRANCH   3   4
ATOM      4  C   UNL     1      32.894  77.996  12.496  1.00  0.00     0.006 C 
BRANCH   4   5
ATOM      5  C   UNL     1      31.801  78.509  13.442  1.00  0.00     0.053 C 
BRANCH   5   6
ATOM      6  C   UNL     1      32.379  79.207  14.634  1.00  0.00     0.041 C 
ATOM      7  O   UNL     1      31.715  80.093  15.234  1.00  0.00    -0.550 OA
ATOM      8  O   UNL     1      33.665  78.904  15.064  1.00  0.00    -0.550 OA
ENDBRANCH   5   6
ENDBRANCH   4   5
ENDBRANCH   3   4
ENDBRANCH   2   3
ENDBRANCH   1   2
BRANCH   1   9
ATOM      9  C   UNL     1      33.650  77.928   8.560  1.00  0.00     0.000 C 
BRANCH   9  10
ATOM     10  C   UNL     1      34.462  76.634   8.402  1.00  0.00    -0.000 C 
BRANCH  10  11
ATOM     11  C   UNL     1      34.095  75.571   9.450  1.00  0.00    -0.000 C 
BRANCH  11  12
ATOM     12  C   UNL     1      35.019  75.607  10.679  1.00  0.00    -0.000 C 
BRANCH  12  13
ATOM     13  C   UNL     1      36.295  76.428  10.433  1.00  0.00    -0.003 C 
ATOM     14  C   UNL     1      36.467  77.571  11.434  1.00  0.00     0.004 C 
ENDBRANCH  12  13
ENDBRANCH  11  12
ENDBRANCH  10  11
ENDBRANCH   9  10
ENDBRANCH   1   9
TORSDOF 10
ENDMDL
MODEL 2
REMARK VINA RESULT:    -3.797      3.984      5.717
REMARK INTER + INTRA:          -7.302
REMARK INTER:                  -6.079
REMARK INTRA:                  -1.223
REMARK UNBOUND:                -1.286
REMARK SMILES CCCCCCCCCCCC(=O)[O-]
REMARK SMILES IDX 7 1 8 2 9 3 10 4 11 5 12 6 13 7 14 8 6 9 5 10 4 11 3 12 2 13
REMARK SMILES IDX 1 14
REMARK H PARENT
REMARK Flexibility Score: inf
ROOT
ATOM      1  C   UNL     1      31.884  78.483  10.414  1.00  0.00     0.000 C 
ENDROOT
BRANCH   1   2
ATOM      2  C   UNL     1      32.145  77.804   9.059  1.00  0.00     0.000 C 
BRANCH   2   3
ATOM      3  C   UNL     1      33.641  77.711   8.691  1.00  0.00     0.000 C 
BRANCH   3   4
ATOM      4  C   UNL     1      34.042  76.296   8.240  1.00  0.00     0.006 C 
BRANCH   4   5
ATOM      5  C   UNL     1      35.419  75.882   8.775  1.00  0.00     0.053 C 
BRANCH   5   6
ATOM      6  C   UNL     1      36.240  75.194   7.728  1.00  0.00     0.041 C 
ATOM      7  O   UNL     1      37.418  74.830   7.983  1.00  0.00    -0.550 OA
ATOM      8  O   UNL     1      35.716  74.985   6.458  1.00  0.00    -0.550 OA
ENDBRANCH   5   6
ENDBRANCH   4   5
ENDBRANCH   3   4
ENDBRANCH   2   3
ENDBRANCH   1   2
BRANCH   1   9
ATOM      9  C   UNL     1      33.144  78.579  11.287  1.00  0.00     0.000 C 
BRANCH   9  10
ATOM     10  C   UNL     1      32.888  77.998  12.686  1.00  0.00    -0.000 C 
BRANCH  10  11
ATOM     11  C   UNL     1      32.522  76.505  12.651  1.00  0.00    -0.000 C 
BRANCH  11  12
ATOM     12  C   UNL     1      33.584  75.651  11.937  1.00  0.00    -0.000 C 
BRANCH  12  13
ATOM     13  C   UNL     1      33.294  74.146  12.039  1.00  0.00    -0.003 C 
ATOM     14  C   UNL     1      32.651  73.579  10.772  1.00  0.00     0.004 C 
ENDBRANCH  12  13
ENDBRANCH  11  12
ENDBRANCH  10  11
ENDBRANCH   9  10
ENDBRANCH   1   9
TORSDOF 10
ENDMDL
MODEL 3
REMARK VINA RESULT:    -3.782      1.626      2.844
REMARK INTER + INTRA:          -7.280
REMARK INTER:                  -6.476
REMARK INTRA:                  -0.804
REMARK UNBOUND:                -1.286
REMARK SMILES CCCCCCCCCCCC(=O)[O-]
REMARK SMILES IDX 7 1 8 2 9 3 10 4 11 5 12 6 13 7 14 8 6 9 5 10 4 11 3 12 2 13
REMARK SMILES IDX 1 14
REMARK H PARENT
REMARK Flexibility Score: inf
ROOT
ATOM      1  C   UNL     1      31.817  78.336  12.371  1.00  0.00     0.000 C 
ENDROOT
BRANCH   1   2
ATOM      2  C   UNL     1      32.676  77.958  13.590  1.00  0.00     0.000 C 
BRANCH   2   3
ATOM      3  C   UNL     1      32.773  79.076  14.649  1.00  0.00     0.000 C 
BRANCH   3   4
ATOM      4  C   UNL     1      31.409  79.730  14.930  1.00  0.00     0.006 C 
BRANCH   4   5
ATOM      5  C   UNL     1      31.482  81.263  14.906  1.00  0.00     0.053 C 
BRANCH   5   6
ATOM      6  C   UNL     1      32.173  81.806  16.119  1.00  0.00     0.041 C 
ATOM      7  O   UNL     1      32.001  81.264  17.242  1.00  0.00    -0.550 OA
ATOM      8  O   UNL     1      32.980  82.932  16.015  1.00  0.00    -0.550 OA
ENDBRANCH   5   6
ENDBRANCH   4   5
ENDBRANCH   3   4
ENDBRANCH   2   3
ENDBRANCH   1   2
BRANCH   1   9
ATOM      9  C   UNL     1      32.637  78.960  11.232  1.00  0.00     0.000 C 
BRANCH   9  10
ATOM     10  C   UNL     1      32.671  78.032  10.009  1.00  0.00    -0.000 C 
BRANCH  10  11
ATOM     11  C   UNL     1      34.096  77.803   9.478  1.00  0.00    -0.000 C 
BRANCH  11  12
ATOM     12  C   UNL     1      34.621  76.389   9.782  1.00  0.00    -0.000 C 
BRANCH  12  13
ATOM     13  C   UNL     1      36.003  76.407  10.455  1.00  0.00    -0.003 C 
ATOM     14  C   UNL     1      36.180  77.585  11.413  1.00  0.00     0.004 C 
ENDBRANCH  12  13
ENDBRANCH  11  12
ENDBRANCH  10  11
ENDBRANCH   9  10
ENDBRANCH   1   9
TORSDOF 10
ENDMDL
MODEL 4
REMARK VINA RESULT:    -3.751      4.219      6.050
REMARK INTER + INTRA:          -7.229
REMARK INTER:                  -5.554
REMARK INTRA:                  -1.675
REMARK UNBOUND:                -1.286
REMARK SMILES CCCCCCCCCCCC(=O)[O-]
REMARK SMILES IDX 7 1 8 2 9 3 10 4 11 5 12 6 13 7 14 8 6 9 5 10 4 11 3 12 2 13
REMARK SMILES IDX 1 14
REMARK H PARENT
REMARK Flexibility Score: inf
ROOT
ATOM      1  C   UNL     1      34.660  78.104  10.677  1.00  0.00     0.000 C 
ENDROOT
BRANCH   1   2
ATOM      2  C   UNL     1      35.542  76.919  11.106  1.00  0.00     0.000 C 
BRANCH   2   3
ATOM      3  C   UNL     1      35.881  75.951   9.952  1.00  0.00     0.000 C 
BRANCH   3   4
ATOM      4  C   UNL     1      35.091  76.273   8.672  1.00  0.00     0.006 C 
BRANCH   4   5
ATOM      5  C   UNL     1      34.417  75.031   8.075  1.00  0.00     0.053 C 
BRANCH   5   6
ATOM      6  C   UNL     1      35.272  74.380   7.032  1.00  0.00     0.041 C 
ATOM      7  O   UNL     1      36.371  74.898   6.700  1.00  0.00    -0.550 OA
ATOM      8  O   UNL     1      34.840  73.221   6.400  1.00  0.00    -0.550 OA
ENDBRANCH   5   6
ENDBRANCH   4   5
ENDBRANCH   3   4
ENDBRANCH   2   3
ENDBRANCH   1   2
BRANCH   1   9
ATOM      9  C   UNL     1      33.308  78.137  11.405  1.00  0.00     0.000 C 
BRANCH   9  10
ATOM     10  C   UNL     1      32.146  78.011  10.409  1.00  0.00    -0.000 C 
BRANCH  10  11
ATOM     11  C   UNL     1      31.673  76.559  10.229  1.00  0.00    -0.000 C 
BRANCH  11  12
ATOM     12  C   UNL     1      31.906  75.700  11.483  1.00  0.00    -0.000 C 
BRANCH  12  13
ATOM     13  C   UNL     1      32.520  74.330  11.153  1.00  0.00    -0.003 C 
ATOM     14  C   UNL     1      33.645  73.938  12.112  1.00  0.00     0.004 C 
ENDBRANCH  12  13
ENDBRANCH  11  12
ENDBRANCH  10  11
ENDBRANCH   9  10
ENDBRANCH   1   9
TORSDOF 10
ENDMDL
MODEL 5
REMARK VINA RESULT:    -3.724      1.957      2.133
REMARK INTER + INTRA:          -7.187
REMARK INTER:                  -5.698
REMARK INTRA:                  -1.489
REMARK UNBOUND:                -1.286
REMARK SMILES CCCCCCCCCCCC(=O)[O-]
REMARK SMILES IDX 7 1 8 2 9 3 10 4 11 5 12 6 13 7 14 8 6 9 5 10 4 11 3 12 2 13
REMARK SMILES IDX 1 14
REMARK H PARENT
REMARK Flexibility Score: inf
ROOT
ATOM      1  C   UNL     1      32.191  77.562   8.901  1.00  0.00     0.000 C 
ENDROOT
BRANCH   1   2
ATOM      2  C   UNL     1      31.653  78.461  10.027  1.00  0.00     0.000 C 
BRANCH   2   3
ATOM      3  C   UNL     1      32.720  78.845  11.075  1.00  0.00     0.000 C 
BRANCH   3   4
ATOM      4  C   UNL     1      32.252  78.561  12.513  1.00  0.00     0.006 C 
BRANCH   4   5
ATOM      5  C   UNL     1      32.687  77.174  13.003  1.00  0.00     0.053 C 
BRANCH   5   6
ATOM      6  C   UNL     1      31.624  76.143  12.773  1.00  0.00     0.041 C 
ATOM      7  O   UNL     1      30.408  76.470  12.803  1.00  0.00    -0.550 OA
ATOM      8  O   UNL     1      31.974  74.816  12.561  1.00  0.00    -0.550 OA
ENDBRANCH   5   6
ENDBRANCH   4   5
ENDBRANCH   3   4
ENDBRANCH   2   3
ENDBRANCH   1   2
BRANCH   1   9
ATOM      9  C   UNL     1      33.659  77.850   8.555  1.00  0.00     0.000 C 
BRANCH   9  10
ATOM     10  C   UNL     1      34.467  76.548   8.464  1.00  0.00    -0.000 C 
BRANCH  10  11
ATOM     11  C   UNL     1      34.076  75.530   9.547  1.00  0.00    -0.000 C 
BRANCH  11  12
ATOM     12  C   UNL     1      35.006  75.580  10.771  1.00  0.00    -0.000 C 
BRANCH  12  13
ATOM     13  C   UNL     1      36.246  76.455  10.533  1.00  0.00    -0.003 C 
ATOM     14  C   UNL     1      36.355  77.612  11.528  1.00  0.00     0.004 C 
ENDBRANCH  12  13
ENDBRANCH  11  12
ENDBRANCH  10  11
ENDBRANCH   9  10
ENDBRANCH   1   9
TORSDOF 10
ENDMDL
MODEL 6
REMARK VINA RESULT:    -3.709      1.981      2.753
REMARK INTER + INTRA:          -7.164
REMARK INTER:                  -6.553
REMARK INTRA:                  -0.612
REMARK UNBOUND:                -1.286
REMARK SMILES CCCCCCCCCCCC(=O)[O-]
REMARK SMILES IDX 7 1 8 2 9 3 10 4 11 5 12 6 13 7 14 8 6 9 5 10 4 11 3 12 2 13
REMARK SMILES IDX 1 14
REMARK H PARENT
REMARK Flexibility Score: inf
ROOT
ATOM      1  C   UNL     1      35.231  77.530  11.003  1.00  0.00     0.000 C 
ENDROOT
BRANCH   1   2
ATOM      2  C   UNL     1      34.005  78.263  10.432  1.00  0.00     0.000 C 
BRANCH   2   3
ATOM      3  C   UNL     1      32.929  78.586  11.490  1.00  0.00     0.000 C 
BRANCH   3   4
ATOM      4  C   UNL     1      33.009  77.647  12.706  1.00  0.00     0.006 C 
BRANCH   4   5
ATOM      5  C   UNL     1      31.977  78.002  13.785  1.00  0.00     0.053 C 
BRANCH   5   6
ATOM      6  C   UNL     1      32.487  79.057  14.718  1.00  0.00     0.041 C 
ATOM      7  O   UNL     1      31.938  80.190  14.755  1.00  0.00    -0.550 OA
ATOM      8  O   UNL     1      33.590  78.801  15.522  1.00  0.00    -0.550 OA
ENDBRANCH   5   6
ENDBRANCH   4   5
ENDBRANCH   3   4
ENDBRANCH   2   3
ENDBRANCH   1   2
BRANCH   1   9
ATOM      9  C   UNL     1      35.594  76.266  10.211  1.00  0.00     0.000 C 
BRANCH   9  10
ATOM     10  C   UNL     1      34.531  75.961   9.146  1.00  0.00    -0.000 C 
BRANCH  10  11
ATOM     11  C   UNL     1      35.132  75.780   7.742  1.00  0.00    -0.000 C 
BRANCH  11  12
ATOM     12  C   UNL     1      36.550  75.185   7.777  1.00  0.00    -0.000 C 
BRANCH  12  13
ATOM     13  C   UNL     1      36.810  74.215   6.614  1.00  0.00    -0.003 C 
ATOM     14  C   UNL     1      38.222  73.627   6.638  1.00  0.00     0.004 C 
ENDBRANCH  12  13
ENDBRANCH  11  12
ENDBRANCH  10  11
ENDBRANCH   9  10
ENDBRANCH   1   9
TORSDOF 10
ENDMDL
MODEL 7
REMARK VINA RESULT:    -3.709      1.602      2.761
REMARK INTER + INTRA:          -7.164
REMARK INTER:                  -6.421
REMARK INTRA:                  -0.742
REMARK UNBOUND:                -1.286
REMARK SMILES CCCCCCCCCCCC(=O)[O-]
REMARK SMILES IDX 7 1 8 2 9 3 10 4 11 5 12 6 13 7 14 8 6 9 5 10 4 11 3 12 2 13
REMARK SMILES IDX 1 14
REMARK H PARENT
REMARK Flexibility Score: inf
ROOT
ATOM      1  C   UNL     1      33.265  78.478  11.156  1.00  0.00     0.000 C 
ENDROOT
BRANCH   1   2
ATOM      2  C   UNL     1      32.315  79.003  12.245  1.00  0.00     0.000 C 
BRANCH   2   3
ATOM      3  C   UNL     1      32.423  78.237  13.581  1.00  0.00     0.000 C 
BRANCH   3   4
ATOM      4  C   UNL     1      32.555  79.185  14.786  1.00  0.00     0.006 C 
BRANCH   4   5
ATOM      5  C   UNL     1      31.550  80.343  14.729  1.00  0.00     0.053 C 
BRANCH   5   6
ATOM      6  C   UNL     1      31.680  81.252  15.912  1.00  0.00     0.041 C 
ATOM      7  O   UNL     1      30.905  81.125  16.897  1.00  0.00    -0.550 OA
ATOM      8  O   UNL     1      32.635  82.261  15.915  1.00  0.00    -0.550 OA
ENDBRANCH   5   6
ENDBRANCH   4   5
ENDBRANCH   3   4
ENDBRANCH   2   3
ENDBRANCH   1   2
BRANCH   1   9
ATOM      9  C   UNL     1      34.203  77.371  11.662  1.00  0.00     0.000 C 
BRANCH   9  10
ATOM     10  C   UNL     1      35.673  77.746  11.422  1.00  0.00    -0.000 C 
BRANCH  10  11
ATOM     11  C   UNL     1      36.452  76.647  10.681  1.00  0.00    -0.000 C 
BRANCH  11  12
ATOM     12  C   UNL     1      35.528  75.619  10.005  1.00  0.00    -0.000 C 
BRANCH  12  13
ATOM     13  C   UNL     1      35.502  75.767   8.476  1.00  0.00    -0.003 C 
ATOM     14  C   UNL     1      34.307  76.582   7.979  1.00  0.00     0.004 C 
ENDBRANCH  12  13
ENDBRANCH  11  12
ENDBRANCH  10  11
ENDBRANCH   9  10
ENDBRANCH   1   9
TORSDOF 10
ENDMDL
MODEL 8
REMARK VINA RESULT:    -3.704      1.092      1.603
REMARK INTER + INTRA:          -7.156
REMARK INTER:                  -6.237
REMARK INTRA:                  -0.919
REMARK UNBOUND:                -1.286
REMARK SMILES CCCCCCCCCCCC(=O)[O-]
REMARK SMILES IDX 7 1 8 2 9 3 10 4 11 5 12 6 13 7 14 8 6 9 5 10 4 11 3 12 2 13
REMARK SMILES IDX 1 14
REMARK H PARENT
REMARK Flexibility Score: inf
ROOT
ATOM      1  C   UNL     1      31.844  78.150  10.250  1.00  0.00     0.000 C 
ENDROOT
BRANCH   1   2
ATOM      2  C   UNL     1      32.797  78.896  11.198  1.00  0.00     0.000 C 
BRANCH   2   3
ATOM      3  C   UNL     1      32.849  78.298  12.620  1.00  0.00     0.000 C 
BRANCH   3   4
ATOM      4  C   UNL     1      31.920  79.039  13.597  1.00  0.00     0.006 C 
BRANCH   4   5
ATOM      5  C   UNL     1      32.586  79.290  14.957  1.00  0.00     0.053 C 
BRANCH   5   6
ATOM      6  C   UNL     1      32.059  80.530  15.613  1.00  0.00     0.041 C 
ATOM      7  O   UNL     1      31.527  81.437  14.920  1.00  0.00    -0.550 OA
ATOM      8  O   UNL     1      32.187  80.700  16.986  1.00  0.00    -0.550 OA
ENDBRANCH   5   6
ENDBRANCH   4   5
ENDBRANCH   3   4
ENDBRANCH   2   3
ENDBRANCH   1   2
BRANCH   1   9
ATOM      9  C   UNL     1      32.497  77.791   8.907  1.00  0.00     0.000 C 
BRANCH   9  10
ATOM     10  C   UNL     1      33.247  76.454   9.001  1.00  0.00    -0.000 C 
BRANCH  10  11
ATOM     11  C   UNL     1      34.674  76.532   8.435  1.00  0.00    -0.000 C 
BRANCH  11  12
ATOM     12  C   UNL     1      35.720  75.913   9.378  1.00  0.00    -0.000 C 
BRANCH  12  13
ATOM     13  C   UNL     1      35.466  76.267  10.852  1.00  0.00    -0.003 C 
ATOM     14  C   UNL     1      36.296  77.461  11.325  1.00  0.00     0.004 C 
ENDBRANCH  12  13
ENDBRANCH  11  12
ENDBRANCH  10  11
ENDBRANCH   9  10
ENDBRANCH   1   9
TORSDOF 10
ENDMDL
MODEL 9
REMARK VINA RESULT:    -3.693      2.618      6.280
REMARK INTER + INTRA:          -7.138
REMARK INTER:                  -6.049
REMARK INTRA:                  -1.088
REMARK UNBOUND:                -1.286
REMARK SMILES CCCCCCCCCCCC(=O)[O-]
REMARK SMILES IDX 7 1 8 2 9 3 10 4 11 5 12 6 13 7 14 8 6 9 5 10 4 11 3 12 2 13
REMARK SMILES IDX 1 14
REMARK H PARENT
REMARK Flexibility Score: inf
ROOT
ATOM      1  C   UNL     1      31.914  77.765  13.885  1.00  0.00     0.000 C 
ENDROOT
BRANCH   1   2
ATOM      2  C   UNL     1      33.096  78.442  13.171  1.00  0.00     0.000 C 
BRANCH   2   3
ATOM      3  C   UNL     1      32.789  78.843  11.712  1.00  0.00     0.000 C 
BRANCH   3   4
ATOM      4  C   UNL     1      33.752  78.180  10.712  1.00  0.00     0.006 C 
BRANCH   4   5
ATOM      5  C   UNL     1      34.418  76.924  11.290  1.00  0.00     0.053 C 
BRANCH   5   6
ATOM      6  C   UNL     1      35.910  76.980  11.168  1.00  0.00     0.041 C 
ATOM      7  O   UNL     1      36.570  77.814  11.842  1.00  0.00    -0.550 OA
ATOM      8  O   UNL     1      36.569  76.134  10.286  1.00  0.00    -0.550 OA
ENDBRANCH   5   6
ENDBRANCH   4   5
ENDBRANCH   3   4
ENDBRANCH   2   3
ENDBRANCH   1   2
BRANCH   1   9
ATOM      9  C   UNL     1      32.073  77.741  15.413  1.00  0.00     0.000 C 
BRANCH   9  10
ATOM     10  C   UNL     1      33.031  78.846  15.882  1.00  0.00    -0.000 C 
BRANCH  10  11
ATOM     11  C   UNL     1      32.314  79.963  16.659  1.00  0.00    -0.000 C 
BRANCH  11  12
ATOM     12  C   UNL     1      32.369  81.318  15.934  1.00  0.00    -0.000 C 
BRANCH  12  13
ATOM     13  C   UNL     1      31.295  81.447  14.844  1.00  0.00    -0.003 C 
ATOM     14  C   UNL     1      29.965  80.806  15.243  1.00  0.00     0.004 C 
ENDBRANCH  12  13
ENDBRANCH  11  12
ENDBRANCH  10  11
ENDBRANCH   9  10
ENDBRANCH   1   9
TORSDOF 10
ENDMDL
