MODEL 1
REMARK VINA RESULT:    -5.178      0.000      0.000
REMARK INTER + INTRA:         -10.569
REMARK INTER:                  -9.718
REMARK INTRA:                  -0.851
REMARK UNBOUND:                -0.851
REMARK SMILES O=C([O-])CCCCCCCCCCCCCCC(=O)[O-]
REMARK SMILES IDX 10 1 9 2 8 3 7 4 6 5 5 6 4 7 2 8 1 9 3 10 11 11 12 12 13 13
REMARK SMILES IDX 14 14 15 15 16 16 17 17 18 18 19 19 20 20
REMARK H PARENT
REMARK Flexibility Score: inf
ROOT
ATOM      1  C   UNL     1      40.130  56.047  18.292  1.00  0.00     0.000 C 
ENDROOT
BRANCH   1   2
ATOM      2  C   UNL     1      39.015  57.079  18.048  1.00  0.00     0.000 C 
BRANCH   2   3
ATOM      3  C   UNL     1      38.048  56.662  16.927  1.00  0.00     0.000 C 
BRANCH   3   4
ATOM      4  C   UNL     1      36.659  57.313  17.058  1.00  0.00     0.000 C 
BRANCH   4   5
ATOM      5  C   UNL     1      36.064  57.860  15.747  1.00  0.00     0.000 C 
BRANCH   5   6
ATOM      6  C   UNL     1      34.948  56.973  15.176  1.00  0.00     0.006 C 
BRANCH   6   7
ATOM      7  C   UNL     1      33.906  56.644  16.251  1.00  0.00     0.053 C 
BRANCH   7   8
ATOM      8  C   UNL     1      33.341  55.277  16.033  1.00  0.00     0.041 C 
ATOM      9  O   UNL     1      33.287  54.790  14.873  1.00  0.00    -0.550 OA
ATOM     10  O   UNL     1      32.917  54.519  17.118  1.00  0.00    -0.550 OA
ENDBRANCH   7   8
ENDBRANCH   6   7
ENDBRANCH   5   6
ENDBRANCH   4   5
ENDBRANCH   3   4
ENDBRANCH   2   3
ENDBRANCH   1   2
BRANCH   1  11
ATOM     11  C   UNL     1      41.110  55.842  17.117  1.00  0.00     0.000 C 
BRANCH  11  12
ATOM     12  C   UNL     1      42.563  55.534  17.521  1.00  0.00     0.000 C 
BRANCH  12  13
ATOM     13  C   UNL     1      43.005  54.077  17.293  1.00  0.00     0.000 C 
BRANCH  13  14
ATOM     14  C   UNL     1      42.776  53.575  15.851  1.00  0.00     0.000 C 
BRANCH  14  15
ATOM     15  C   UNL     1      44.091  53.312  15.102  1.00  0.00     0.000 C 
BRANCH  15  16
ATOM     16  C   UNL     1      44.758  54.629  14.680  1.00  0.00     0.006 C 
BRANCH  16  17
ATOM     17  C   UNL     1      46.159  54.791  15.286  1.00  0.00     0.053 C 
BRANCH  17  18
ATOM     18  C   UNL     1      46.182  55.836  16.360  1.00  0.00     0.041 C 
ATOM     19  O   UNL     1      46.873  55.661  17.398  1.00  0.00    -0.550 OA
ATOM     20  O   UNL     1      45.468  57.015  16.200  1.00  0.00    -0.550 OA
ENDBRANCH  17  18
ENDBRANCH  16  17
ENDBRANCH  15  16
ENDBRANCH  14  15
ENDBRANCH  13  14
ENDBRANCH  12  13
ENDBRANCH  11  12
ENDBRANCH   1  11
TORSDOF 15
ENDMDL
MODEL 2
REMARK VINA RESULT:    -5.170      1.226     10.260
REMARK INTER + INTRA:         -10.555
REMARK INTER:                  -9.838
REMARK INTRA:                  -0.717
REMARK UNBOUND:                -0.851
REMARK SMILES O=C([O-])CCCCCCCCCCCCCCC(=O)[O-]
REMARK SMILES IDX 10 1 9 2 8 3 7 4 6 5 5 6 4 7 2 8 1 9 3 10 11 11 12 12 13 13
REMARK SMILES IDX 14 14 15 15 16 16 17 17 18 18 19 19 20 20
REMARK H PARENT
REMARK Flexibility Score: inf
ROOT
ATOM      1  C   UNL     1      40.106  55.966  18.188  1.00  0.00     0.000 C 
ENDROOT
BRANCH   1   2
ATOM      2  C   UNL     1      41.166  55.909  17.073  1.00  0.00     0.000 C 
BRANCH   2   3
ATOM      3  C   UNL     1      42.569  55.564  17.598  1.00  0.00     0.000 C 
BRANCH   3   4
ATOM      4  C   UNL     1      42.968  54.101  17.328  1.00  0.00     0.000 C 
BRANCH   4   5
ATOM      5  C   UNL     1      42.821  53.639  15.866  1.00  0.00     0.000 C 
BRANCH   5   6
ATOM      6  C   UNL     1      44.170  53.457  15.155  1.00  0.00     0.006 C 
BRANCH   6   7
ATOM      7  C   UNL     1      44.770  54.811  14.762  1.00  0.00     0.053 C 
BRANCH   7   8
ATOM      8  C   UNL     1      46.056  55.046  15.487  1.00  0.00     0.041 C 
ATOM      9  O   UNL     1      47.144  54.652  14.992  1.00  0.00    -0.550 OA
ATOM     10  O   UNL     1      46.060  55.745  16.688  1.00  0.00    -0.550 OA
ENDBRANCH   7   8
ENDBRANCH   6   7
ENDBRANCH   5   6
ENDBRANCH   4   5
ENDBRANCH   3   4
ENDBRANCH   2   3
ENDBRANCH   1   2
BRANCH   1  11
ATOM     11  C   UNL     1      38.985  57.007  17.982  1.00  0.00     0.000 C 
BRANCH  11  12
ATOM     12  C   UNL     1      37.945  56.647  16.906  1.00  0.00     0.000 C 
BRANCH  12  13
ATOM     13  C   UNL     1      36.576  57.331  17.072  1.00  0.00     0.000 C 
BRANCH  13  14
ATOM     14  C   UNL     1      35.982  57.865  15.750  1.00  0.00     0.000 C 
BRANCH  14  15
ATOM     15  C   UNL     1      34.914  56.931  15.163  1.00  0.00     0.000 C 
BRANCH  15  16
ATOM     16  C   UNL     1      34.033  56.336  16.272  1.00  0.00     0.006 C 
BRANCH  16  17
ATOM     17  C   UNL     1      32.578  56.155  15.823  1.00  0.00     0.053 C 
BRANCH  17  18
ATOM     18  C   UNL     1      31.625  56.245  16.976  1.00  0.00     0.041 C 
ATOM     19  O   UNL     1      31.529  55.292  17.792  1.00  0.00    -0.550 OA
ATOM     20  O   UNL     1      30.869  57.394  17.166  1.00  0.00    -0.550 OA
ENDBRANCH  17  18
ENDBRANCH  16  17
ENDBRANCH  15  16
ENDBRANCH  14  15
ENDBRANCH  13  14
ENDBRANCH  12  13
ENDBRANCH  11  12
ENDBRANCH   1  11
TORSDOF 15
ENDMDL
MODEL 3
REMARK VINA RESULT:    -5.138      0.759      1.267
REMARK INTER + INTRA:         -10.494
REMARK INTER:                  -9.687
REMARK INTRA:                  -0.807
REMARK UNBOUND:                -0.851
REMARK SMILES O=C([O-])CCCCCCCCCCCCCCC(=O)[O-]
REMARK SMILES IDX 10 1 9 2 8 3 7 4 6 5 5 6 4 7 2 8 1 9 3 10 11 11 12 12 13 13
REMARK SMILES IDX 14 14 15 15 16 16 17 17 18 18 19 19 20 20
REMARK H PARENT
REMARK Flexibility Score: inf
ROOT
ATOM      1  C   UNL     1      40.123  56.054  18.296  1.00  0.00     0.000 C 
ENDROOT
BRANCH   1   2
ATOM      2  C   UNL     1      39.005  57.087  18.061  1.00  0.00     0.000 C 
BRANCH   2   3
ATOM      3  C   UNL     1      38.027  56.668  16.951  1.00  0.00     0.000 C 
BRANCH   3   4
ATOM      4  C   UNL     1      36.635  57.311  17.102  1.00  0.00     0.000 C 
BRANCH   4   5
ATOM      5  C   UNL     1      35.960  57.733  15.783  1.00  0.00     0.000 C 
BRANCH   5   6
ATOM      6  C   UNL     1      34.953  56.696  15.265  1.00  0.00     0.006 C 
BRANCH   6   7
ATOM      7  C   UNL     1      34.006  56.247  16.383  1.00  0.00     0.053 C 
BRANCH   7   8
ATOM      8  C   UNL     1      32.582  56.353  15.939  1.00  0.00     0.041 C 
ATOM      9  O   UNL     1      31.646  56.177  16.763  1.00  0.00    -0.550 OA
ATOM     10  O   UNL     1      32.286  56.695  14.624  1.00  0.00    -0.550 OA
ENDBRANCH   7   8
ENDBRANCH   6   7
ENDBRANCH   5   6
ENDBRANCH   4   5
ENDBRANCH   3   4
ENDBRANCH   2   3
ENDBRANCH   1   2
BRANCH   1  11
ATOM     11  C   UNL     1      41.081  55.836  17.105  1.00  0.00     0.000 C 
BRANCH  11  12
ATOM     12  C   UNL     1      42.540  55.527  17.486  1.00  0.00     0.000 C 
BRANCH  12  13
ATOM     13  C   UNL     1      42.976  54.068  17.251  1.00  0.00     0.000 C 
BRANCH  13  14
ATOM     14  C   UNL     1      42.749  53.577  15.805  1.00  0.00     0.000 C 
BRANCH  14  15
ATOM     15  C   UNL     1      44.065  53.335  15.051  1.00  0.00     0.000 C 
BRANCH  15  16
ATOM     16  C   UNL     1      44.788  54.660  14.766  1.00  0.00     0.006 C 
BRANCH  16  17
ATOM     17  C   UNL     1      46.171  54.721  15.428  1.00  0.00     0.053 C 
BRANCH  17  18
ATOM     18  C   UNL     1      46.291  55.892  16.355  1.00  0.00     0.041 C 
ATOM     19  O   UNL     1      45.500  56.865  16.250  1.00  0.00    -0.550 OA
ATOM     20  O   UNL     1      47.255  55.893  17.355  1.00  0.00    -0.550 OA
ENDBRANCH  17  18
ENDBRANCH  16  17
ENDBRANCH  15  16
ENDBRANCH  14  15
ENDBRANCH  13  14
ENDBRANCH  12  13
ENDBRANCH  11  12
ENDBRANCH   1  11
TORSDOF 15
ENDMDL
MODEL 4
REMARK VINA RESULT:    -5.098      0.968      9.597
REMARK INTER + INTRA:         -10.419
REMARK INTER:                  -9.368
REMARK INTRA:                  -1.052
REMARK UNBOUND:                -0.851
REMARK SMILES O=C([O-])CCCCCCCCCCCCCCC(=O)[O-]
REMARK SMILES IDX 10 1 9 2 8 3 7 4 6 5 5 6 4 7 2 8 1 9 3 10 11 11 12 12 13 13
REMARK SMILES IDX 14 14 15 15 16 16 17 17 18 18 19 19 20 20
REMARK H PARENT
REMARK Flexibility Score: inf
ROOT
ATOM      1  C   UNL     1      42.568  55.534  17.491  1.00  0.00     0.000 C 
ENDROOT
BRANCH   1   2
ATOM      2  C   UNL     1      43.016  54.114  17.099  1.00  0.00     0.000 C 
BRANCH   2   3
ATOM      3  C   UNL     1      42.467  53.669  15.733  1.00  0.00     0.000 C 
BRANCH   3   4
ATOM      4  C   UNL     1      43.476  53.867  14.587  1.00  0.00     0.000 C 
BRANCH   4   5
ATOM      5  C   UNL     1      44.850  53.203  14.799  1.00  0.00     0.000 C 
BRANCH   5   6
ATOM      6  C   UNL     1      46.010  54.210  14.800  1.00  0.00     0.006 C 
BRANCH   6   7
ATOM      7  C   UNL     1      45.486  55.650  14.774  1.00  0.00     0.053 C 
BRANCH   7   8
ATOM      8  C   UNL     1      45.865  56.369  16.030  1.00  0.00     0.041 C 
ATOM      9  O   UNL     1      46.293  55.726  17.024  1.00  0.00    -0.550 OA
ATOM     10  O   UNL     1      45.792  57.755  16.086  1.00  0.00    -0.550 OA
ENDBRANCH   7   8
ENDBRANCH   6   7
ENDBRANCH   5   6
ENDBRANCH   4   5
ENDBRANCH   3   4
ENDBRANCH   2   3
ENDBRANCH   1   2
BRANCH   1  11
ATOM     11  C   UNL     1      41.116  55.896  17.115  1.00  0.00     0.000 C 
BRANCH  11  12
ATOM     12  C   UNL     1      40.149  56.049  18.303  1.00  0.00     0.000 C 
BRANCH  12  13
ATOM     13  C   UNL     1      39.022  57.077  18.094  1.00  0.00     0.000 C 
BRANCH  13  14
ATOM     14  C   UNL     1      38.073  56.731  16.927  1.00  0.00     0.000 C 
BRANCH  14  15
ATOM     15  C   UNL     1      36.635  57.209  17.174  1.00  0.00     0.000 C 
BRANCH  15  16
ATOM     16  C   UNL     1      36.032  57.821  15.900  1.00  0.00     0.006 C 
BRANCH  16  17
ATOM     17  C   UNL     1      35.514  56.751  14.931  1.00  0.00     0.053 C 
BRANCH  17  18
ATOM     18  C   UNL     1      34.025  56.603  15.010  1.00  0.00     0.041 C 
ATOM     19  O   UNL     1      33.330  56.640  13.961  1.00  0.00    -0.550 OA
ATOM     20  O   UNL     1      33.410  56.392  16.237  1.00  0.00    -0.550 OA
ENDBRANCH  17  18
ENDBRANCH  16  17
ENDBRANCH  15  16
ENDBRANCH  14  15
ENDBRANCH  13  14
ENDBRANCH  12  13
ENDBRANCH  11  12
ENDBRANCH   1  11
TORSDOF 15
ENDMDL
MODEL 5
REMARK VINA RESULT:    -5.058      1.790      3.981
REMARK INTER + INTRA:         -10.345
REMARK INTER:                  -9.435
REMARK INTRA:                  -0.909
REMARK UNBOUND:                -0.851
REMARK SMILES O=C([O-])CCCCCCCCCCCCCCC(=O)[O-]
REMARK SMILES IDX 10 1 9 2 8 3 7 4 6 5 5 6 4 7 2 8 1 9 3 10 11 11 12 12 13 13
REMARK SMILES IDX 14 14 15 15 16 16 17 17 18 18 19 19 20 20
REMARK H PARENT
REMARK Flexibility Score: inf
ROOT
ATOM      1  C   UNL     1      36.069  58.215  15.803  1.00  0.00     0.000 C 
ENDROOT
BRANCH   1   2
ATOM      2  C   UNL     1      36.357  57.787  14.353  1.00  0.00     0.000 C 
BRANCH   2   3
ATOM      3  C   UNL     1      35.498  56.595  13.899  1.00  0.00     0.000 C 
BRANCH   3   4
ATOM      4  C   UNL     1      33.986  56.863  14.021  1.00  0.00     0.000 C 
BRANCH   4   5
ATOM      5  C   UNL     1      33.172  55.740  14.691  1.00  0.00     0.000 C 
BRANCH   5   6
ATOM      6  C   UNL     1      33.236  55.784  16.225  1.00  0.00     0.006 C 
BRANCH   6   7
ATOM      7  C   UNL     1      32.048  55.039  16.844  1.00  0.00     0.053 C 
BRANCH   7   8
ATOM      8  C   UNL     1      31.028  56.007  17.352  1.00  0.00     0.041 C 
ATOM      9  O   UNL     1      30.325  55.719  18.356  1.00  0.00    -0.550 OA
ATOM     10  O   UNL     1      30.886  57.250  16.746  1.00  0.00    -0.550 OA
ENDBRANCH   7   8
ENDBRANCH   6   7
ENDBRANCH   5   6
ENDBRANCH   4   5
ENDBRANCH   3   4
ENDBRANCH   2   3
ENDBRANCH   1   2
BRANCH   1  11
ATOM     11  C   UNL     1      36.481  57.197  16.887  1.00  0.00     0.000 C 
BRANCH  11  12
ATOM     12  C   UNL     1      37.943  56.719  16.816  1.00  0.00     0.000 C 
BRANCH  12  13
ATOM     13  C   UNL     1      38.819  57.133  18.013  1.00  0.00     0.000 C 
BRANCH  13  14
ATOM     14  C   UNL     1      39.950  56.132  18.332  1.00  0.00     0.000 C 
BRANCH  14  15
ATOM     15  C   UNL     1      40.930  55.956  17.162  1.00  0.00     0.000 C 
BRANCH  15  16
ATOM     16  C   UNL     1      42.107  55.053  17.561  1.00  0.00     0.006 C 
BRANCH  16  17
ATOM     17  C   UNL     1      43.458  55.637  17.131  1.00  0.00     0.053 C 
BRANCH  17  18
ATOM     18  C   UNL     1      44.139  54.772  16.114  1.00  0.00     0.041 C 
ATOM     19  O   UNL     1      45.315  55.033  15.748  1.00  0.00    -0.550 OA
ATOM     20  O   UNL     1      43.488  53.660  15.598  1.00  0.00    -0.550 OA
ENDBRANCH  17  18
ENDBRANCH  16  17
ENDBRANCH  15  16
ENDBRANCH  14  15
ENDBRANCH  13  14
ENDBRANCH  12  13
ENDBRANCH  11  12
ENDBRANCH   1  11
TORSDOF 15
ENDMDL
MODEL 6
REMARK VINA RESULT:    -5.044      1.216      1.810
REMARK INTER + INTRA:         -10.318
REMARK INTER:                  -9.576
REMARK INTRA:                  -0.742
REMARK UNBOUND:                -0.851
REMARK SMILES O=C([O-])CCCCCCCCCCCCCCC(=O)[O-]
REMARK SMILES IDX 10 1 9 2 8 3 7 4 6 5 5 6 4 7 2 8 1 9 3 10 11 11 12 12 13 13
REMARK SMILES IDX 14 14 15 15 16 16 17 17 18 18 19 19 20 20
REMARK H PARENT
REMARK Flexibility Score: inf
ROOT
ATOM      1  C   UNL     1      38.869  57.103  18.059  1.00  0.00     0.000 C 
ENDROOT
BRANCH   1   2
ATOM      2  C   UNL     1      37.965  56.695  16.882  1.00  0.00     0.000 C 
BRANCH   2   3
ATOM      3  C   UNL     1      36.549  57.285  16.982  1.00  0.00     0.000 C 
BRANCH   3   4
ATOM      4  C   UNL     1      35.949  57.644  15.610  1.00  0.00     0.000 C 
BRANCH   4   5
ATOM      5  C   UNL     1      34.637  56.919  15.256  1.00  0.00     0.000 C 
BRANCH   5   6
ATOM      6  C   UNL     1      33.881  56.408  16.491  1.00  0.00     0.006 C 
BRANCH   6   7
ATOM      7  C   UNL     1      32.532  55.799  16.094  1.00  0.00     0.053 C 
BRANCH   7   8
ATOM      8  C   UNL     1      31.449  56.278  17.007  1.00  0.00     0.041 C 
ATOM      9  O   UNL     1      30.776  57.301  16.712  1.00  0.00    -0.550 OA
ATOM     10  O   UNL     1      31.150  55.568  18.164  1.00  0.00    -0.550 OA
ENDBRANCH   7   8
ENDBRANCH   6   7
ENDBRANCH   5   6
ENDBRANCH   4   5
ENDBRANCH   3   4
ENDBRANCH   2   3
ENDBRANCH   1   2
BRANCH   1  11
ATOM     11  C   UNL     1      40.046  56.149  18.351  1.00  0.00     0.000 C 
BRANCH  11  12
ATOM     12  C   UNL     1      41.023  55.936  17.181  1.00  0.00     0.000 C 
BRANCH  12  13
ATOM     13  C   UNL     1      42.441  55.497  17.591  1.00  0.00     0.000 C 
BRANCH  13  14
ATOM     14  C   UNL     1      42.775  54.037  17.213  1.00  0.00     0.000 C 
BRANCH  14  15
ATOM     15  C   UNL     1      42.947  53.845  15.700  1.00  0.00     0.000 C 
BRANCH  15  16
ATOM     16  C   UNL     1      44.428  53.921  15.299  1.00  0.00     0.006 C 
BRANCH  16  17
ATOM     17  C   UNL     1      44.799  55.288  14.709  1.00  0.00     0.053 C 
BRANCH  17  18
ATOM     18  C   UNL     1      45.658  56.082  15.645  1.00  0.00     0.041 C 
ATOM     19  O   UNL     1      45.896  55.651  16.804  1.00  0.00    -0.550 OA
ATOM     20  O   UNL     1      46.221  57.280  15.227  1.00  0.00    -0.550 OA
ENDBRANCH  17  18
ENDBRANCH  16  17
ENDBRANCH  15  16
ENDBRANCH  14  15
ENDBRANCH  13  14
ENDBRANCH  12  13
ENDBRANCH  11  12
ENDBRANCH   1  11
TORSDOF 15
ENDMDL
MODEL 7
REMARK VINA RESULT:    -5.040      1.406     10.475
REMARK INTER + INTRA:         -10.311
REMARK INTER:                  -9.607
REMARK INTRA:                  -0.704
REMARK UNBOUND:                -0.851
REMARK SMILES O=C([O-])CCCCCCCCCCCCCCC(=O)[O-]
REMARK SMILES IDX 10 1 9 2 8 3 7 4 6 5 5 6 4 7 2 8 1 9 3 10 11 11 12 12 13 13
REMARK SMILES IDX 14 14 15 15 16 16 17 17 18 18 19 19 20 20
REMARK H PARENT
REMARK Flexibility Score: inf
ROOT
ATOM      1  C   UNL     1      38.725  57.194  18.023  1.00  0.00     0.000 C 
ENDROOT
BRANCH   1   2
ATOM      2  C   UNL     1      39.914  56.304  18.428  1.00  0.00     0.000 C 
BRANCH   2   3
ATOM      3  C   UNL     1      40.830  55.955  17.244  1.00  0.00     0.000 C 
BRANCH   3   4
ATOM      4  C   UNL     1      42.229  55.485  17.685  1.00  0.00     0.000 C 
BRANCH   4   5
ATOM      5  C   UNL     1      42.818  54.318  16.871  1.00  0.00     0.000 C 
BRANCH   5   6
ATOM      6  C   UNL     1      43.996  54.739  15.981  1.00  0.00     0.006 C 
BRANCH   6   7
ATOM      7  C   UNL     1      44.708  55.967  16.559  1.00  0.00     0.053 C 
BRANCH   7   8
ATOM      8  C   UNL     1      46.187  55.856  16.366  1.00  0.00     0.041 C 
ATOM      9  O   UNL     1      46.943  55.672  17.356  1.00  0.00    -0.550 OA
ATOM     10  O   UNL     1      46.727  55.908  15.087  1.00  0.00    -0.550 OA
ENDBRANCH   7   8
ENDBRANCH   6   7
ENDBRANCH   5   6
ENDBRANCH   4   5
ENDBRANCH   3   4
ENDBRANCH   2   3
ENDBRANCH   1   2
BRANCH   1  11
ATOM     11  C   UNL     1      37.878  56.670  16.844  1.00  0.00     0.000 C 
BRANCH  11  12
ATOM     12  C   UNL     1      36.410  57.134  16.833  1.00  0.00     0.000 C 
BRANCH  12  13
ATOM     13  C   UNL     1      36.057  58.142  15.723  1.00  0.00     0.000 C 
BRANCH  13  14
ATOM     14  C   UNL     1      35.517  57.485  14.435  1.00  0.00     0.000 C 
BRANCH  14  15
ATOM     15  C   UNL     1      34.626  56.268  14.722  1.00  0.00     0.000 C 
BRANCH  15  16
ATOM     16  C   UNL     1      33.174  56.698  14.983  1.00  0.00     0.006 C 
BRANCH  16  17
ATOM     17  C   UNL     1      32.748  56.451  16.436  1.00  0.00     0.053 C 
BRANCH  17  18
ATOM     18  C   UNL     1      31.259  56.339  16.567  1.00  0.00     0.041 C 
ATOM     19  O   UNL     1      30.525  56.455  15.551  1.00  0.00    -0.550 OA
ATOM     20  O   UNL     1      30.687  56.071  17.803  1.00  0.00    -0.550 OA
ENDBRANCH  17  18
ENDBRANCH  16  17
ENDBRANCH  15  16
ENDBRANCH  14  15
ENDBRANCH  13  14
ENDBRANCH  12  13
ENDBRANCH  11  12
ENDBRANCH   1  11
TORSDOF 15
ENDMDL
MODEL 8
REMARK VINA RESULT:    -4.960      1.665     10.130
REMARK INTER + INTRA:         -10.160
REMARK INTER:                  -9.439
REMARK INTRA:                  -0.721
REMARK UNBOUND:                -0.851
REMARK SMILES O=C([O-])CCCCCCCCCCCCCCC(=O)[O-]
REMARK SMILES IDX 10 1 9 2 8 3 7 4 6 5 5 6 4 7 2 8 1 9 3 10 11 11 12 12 13 13
REMARK SMILES IDX 14 14 15 15 16 16 17 17 18 18 19 19 20 20
REMARK H PARENT
REMARK Flexibility Score: inf
ROOT
ATOM      1  C   UNL     1      43.478  54.300  15.502  1.00  0.00     0.000 C 
ENDROOT
BRANCH   1   2
ATOM      2  C   UNL     1      44.078  53.017  14.899  1.00  0.00     0.000 C 
BRANCH   2   3
ATOM      3  C   UNL     1      45.356  53.281  14.084  1.00  0.00     0.000 C 
BRANCH   3   4
ATOM      4  C   UNL     1      46.481  52.275  14.390  1.00  0.00     0.000 C 
BRANCH   4   5
ATOM      5  C   UNL     1      47.904  52.865  14.406  1.00  0.00     0.000 C 
BRANCH   5   6
ATOM      6  C   UNL     1      48.270  53.516  15.747  1.00  0.00     0.006 C 
BRANCH   6   7
ATOM      7  C   UNL     1      48.233  55.045  15.642  1.00  0.00     0.053 C 
BRANCH   7   8
ATOM      8  C   UNL     1      47.579  55.638  16.849  1.00  0.00     0.041 C 
ATOM      9  O   UNL     1      48.262  55.914  17.870  1.00  0.00    -0.550 OA
ATOM     10  O   UNL     1      46.221  55.933  16.830  1.00  0.00    -0.550 OA
ENDBRANCH   7   8
ENDBRANCH   6   7
ENDBRANCH   5   6
ENDBRANCH   4   5
ENDBRANCH   3   4
ENDBRANCH   2   3
ENDBRANCH   1   2
BRANCH   1  11
ATOM     11  C   UNL     1      43.122  54.222  17.002  1.00  0.00     0.000 C 
BRANCH  11  12
ATOM     12  C   UNL     1      42.551  55.515  17.609  1.00  0.00     0.000 C 
BRANCH  12  13
ATOM     13  C   UNL     1      41.147  55.902  17.108  1.00  0.00     0.000 C 
BRANCH  13  14
ATOM     14  C   UNL     1      40.087  55.985  18.228  1.00  0.00     0.000 C 
BRANCH  14  15
ATOM     15  C   UNL     1      39.043  57.081  17.971  1.00  0.00     0.000 C 
BRANCH  15  16
ATOM     16  C   UNL     1      37.996  56.616  16.948  1.00  0.00     0.006 C 
BRANCH  16  17
ATOM     17  C   UNL     1      36.631  57.281  17.171  1.00  0.00     0.053 C 
BRANCH  17  18
ATOM     18  C   UNL     1      35.682  56.993  16.048  1.00  0.00     0.041 C 
ATOM     19  O   UNL     1      36.124  56.746  14.895  1.00  0.00    -0.550 OA
ATOM     20  O   UNL     1      34.314  56.962  16.282  1.00  0.00    -0.550 OA
ENDBRANCH  17  18
ENDBRANCH  16  17
ENDBRANCH  15  16
ENDBRANCH  14  15
ENDBRANCH  13  14
ENDBRANCH  12  13
ENDBRANCH  11  12
ENDBRANCH   1  11
TORSDOF 15
ENDMDL
MODEL 9
REMARK VINA RESULT:    -4.955      1.640      2.735
REMARK INTER + INTRA:         -10.151
REMARK INTER:                  -9.358
REMARK INTRA:                  -0.793
REMARK UNBOUND:                -0.851
REMARK SMILES O=C([O-])CCCCCCCCCCCCCCC(=O)[O-]
REMARK SMILES IDX 10 1 9 2 8 3 7 4 6 5 5 6 4 7 2 8 1 9 3 10 11 11 12 12 13 13
REMARK SMILES IDX 14 14 15 15 16 16 17 17 18 18 19 19 20 20
REMARK H PARENT
REMARK Flexibility Score: inf
ROOT
ATOM      1  C   UNL     1      38.025  56.744  16.904  1.00  0.00     0.000 C 
ENDROOT
BRANCH   1   2
ATOM      2  C   UNL     1      36.560  57.127  17.178  1.00  0.00     0.000 C 
BRANCH   2   3
ATOM      3  C   UNL     1      35.902  57.860  15.997  1.00  0.00     0.000 C 
BRANCH   3   4
ATOM      4  C   UNL     1      35.854  57.010  14.714  1.00  0.00     0.000 C 
BRANCH   4   5
ATOM      5  C   UNL     1      34.629  56.084  14.585  1.00  0.00     0.000 C 
BRANCH   5   6
ATOM      6  C   UNL     1      33.357  56.679  15.206  1.00  0.00     0.006 C 
BRANCH   6   7
ATOM      7  C   UNL     1      32.904  55.858  16.418  1.00  0.00     0.053 C 
BRANCH   7   8
ATOM      8  C   UNL     1      31.518  56.246  16.826  1.00  0.00     0.041 C 
ATOM      9  O   UNL     1      31.051  55.862  17.930  1.00  0.00    -0.550 OA
ATOM     10  O   UNL     1      30.758  57.074  16.008  1.00  0.00    -0.550 OA
ENDBRANCH   7   8
ENDBRANCH   6   7
ENDBRANCH   5   6
ENDBRANCH   4   5
ENDBRANCH   3   4
ENDBRANCH   2   3
ENDBRANCH   1   2
BRANCH   1  11
ATOM     11  C   UNL     1      39.025  57.109  18.022  1.00  0.00     0.000 C 
BRANCH  11  12
ATOM     12  C   UNL     1      40.157  56.091  18.247  1.00  0.00     0.000 C 
BRANCH  12  13
ATOM     13  C   UNL     1      41.015  55.789  17.004  1.00  0.00     0.000 C 
BRANCH  13  14
ATOM     14  C   UNL     1      42.517  55.612  17.313  1.00  0.00     0.000 C 
BRANCH  14  15
ATOM     15  C   UNL     1      42.958  54.141  17.273  1.00  0.00     0.000 C 
BRANCH  15  16
ATOM     16  C   UNL     1      42.740  53.539  15.876  1.00  0.00     0.006 C 
BRANCH  16  17
ATOM     17  C   UNL     1      43.647  54.184  14.819  1.00  0.00     0.053 C 
BRANCH  17  18
ATOM     18  C   UNL     1      45.079  53.781  14.996  1.00  0.00     0.041 C 
ATOM     19  O   UNL     1      45.462  52.635  14.643  1.00  0.00    -0.550 OA
ATOM     20  O   UNL     1      45.997  54.683  15.519  1.00  0.00    -0.550 OA
ENDBRANCH  17  18
ENDBRANCH  16  17
ENDBRANCH  15  16
ENDBRANCH  14  15
ENDBRANCH  13  14
ENDBRANCH  12  13
ENDBRANCH  11  12
ENDBRANCH   1  11
TORSDOF 15
ENDMDL
