MODEL 1
REMARK VINA RESULT:    -3.806      0.000      0.000
REMARK INTER + INTRA:          -9.147
REMARK INTER:                  -6.922
REMARK INTRA:                  -2.225
REMARK UNBOUND:                -2.225
REMARK SMILES CCCCCCCCCCCCCC[C@@H](C)C(=O)[O-]
REMARK SMILES IDX 9 1 10 2 11 3 12 4 13 5 14 6 15 7 16 8 17 9 18 10 19 11 8 12
REMARK SMILES IDX 7 13 6 14 5 15 4 16 3 17 2 18 1 19
REMARK H PARENT
REMARK Flexibility Score: inf
ROOT
ATOM      1  C   UNL     1      22.851  34.223  11.322  1.00  0.00     0.000 C 
ENDROOT
BRANCH   1   2
ATOM      2  C   UNL     1      22.986  35.094  12.585  1.00  0.00     0.000 C 
BRANCH   2   3
ATOM      3  C   UNL     1      22.426  34.414  13.846  1.00  0.00     0.000 C 
BRANCH   3   4
ATOM      4  C   UNL     1      21.473  35.320  14.647  1.00  0.00     0.000 C 
BRANCH   4   5
ATOM      5  C   UNL     1      22.102  36.042  15.854  1.00  0.00     0.001 C 
BRANCH   5   6
ATOM      6  C   UNL     1      22.342  37.542  15.602  1.00  0.00     0.009 C 
BRANCH   6   7
ATOM      7  C   UNL     1      23.842  37.908  15.572  1.00  0.00     0.032 C 
ATOM      8  C   UNL     1      24.742  36.723  15.950  1.00  0.00     0.014 C 
BRANCH   7   9
ATOM      9  C   UNL     1      24.222  38.413  14.207  1.00  0.00     0.044 C 
ATOM     10  O   UNL     1      25.079  37.801  13.515  1.00  0.00    -0.550 OA
ATOM     11  O   UNL     1      23.631  39.564  13.702  1.00  0.00    -0.550 OA
ENDBRANCH   7   9
ENDBRANCH   6   7
ENDBRANCH   5   6
ENDBRANCH   4   5
ENDBRANCH   3   4
ENDBRANCH   2   3
ENDBRANCH   1   2
BRANCH   1  12
ATOM     12  C   UNL     1      24.172  33.675  10.752  1.00  0.00     0.000 C 
BRANCH  12  13
ATOM     13  C   UNL     1      24.123  32.163  10.469  1.00  0.00    -0.000 C 
BRANCH  13  14
ATOM     14  C   UNL     1      25.368  31.427  10.991  1.00  0.00    -0.000 C 
BRANCH  14  15
ATOM     15  C   UNL     1      25.312  31.181  12.509  1.00  0.00    -0.000 C 
BRANCH  15  16
ATOM     16  C   UNL     1      26.404  31.948  13.273  1.00  0.00    -0.000 C 
BRANCH  16  17
ATOM     17  C   UNL     1      25.850  33.153  14.048  1.00  0.00    -0.000 C 
BRANCH  17  18
ATOM     18  C   UNL     1      26.565  34.446  13.635  1.00  0.00    -0.003 C 
ATOM     19  C   UNL     1      27.275  34.280  12.294  1.00  0.00     0.004 C 
ENDBRANCH  17  18
ENDBRANCH  16  17
ENDBRANCH  15  16
ENDBRANCH  14  15
ENDBRANCH  13  14
ENDBRANCH  12  13
ENDBRANCH   1  12
TORSDOF 14
ENDMDL
MODEL 2
REMARK VINA RESULT:    -3.790      1.029      1.714
REMARK INTER + INTRA:          -9.118
REMARK INTER:                  -6.828
REMARK INTRA:                  -2.290
REMARK UNBOUND:                -2.225
REMARK SMILES CCCCCCCCCCCCCC[C@@H](C)C(=O)[O-]
REMARK SMILES IDX 9 1 10 2 11 3 12 4 13 5 14 6 15 7 16 8 17 9 18 10 19 11 8 12
REMARK SMILES IDX 7 13 6 14 5 15 4 16 3 17 2 18 1 19
REMARK H PARENT
REMARK Flexibility Score: inf
ROOT
ATOM      1  C   UNL     1      22.652  34.262  11.530  1.00  0.00     0.000 C 
ENDROOT
BRANCH   1   2
ATOM      2  C   UNL     1      22.867  35.125  12.788  1.00  0.00     0.000 C 
BRANCH   2   3
ATOM      3  C   UNL     1      22.212  34.526  14.045  1.00  0.00     0.000 C 
BRANCH   3   4
ATOM      4  C   UNL     1      21.335  35.538  14.806  1.00  0.00     0.000 C 
BRANCH   4   5
ATOM      5  C   UNL     1      22.028  36.275  15.968  1.00  0.00     0.001 C 
BRANCH   5   6
ATOM      6  C   UNL     1      22.471  37.702  15.597  1.00  0.00     0.009 C 
BRANCH   6   7
ATOM      7  C   UNL     1      23.981  37.935  15.822  1.00  0.00     0.032 C 
ATOM      8  C   UNL     1      24.807  36.657  15.619  1.00  0.00     0.014 C 
BRANCH   7   9
ATOM      9  C   UNL     1      24.480  39.009  14.895  1.00  0.00     0.044 C 
ATOM     10  O   UNL     1      24.258  38.939  13.656  1.00  0.00    -0.550 OA
ATOM     11  O   UNL     1      25.196  40.087  15.401  1.00  0.00    -0.550 OA
ENDBRANCH   7   9
ENDBRANCH   6   7
ENDBRANCH   5   6
ENDBRANCH   4   5
ENDBRANCH   3   4
ENDBRANCH   2   3
ENDBRANCH   1   2
BRANCH   1  12
ATOM     12  C   UNL     1      23.935  33.845  10.789  1.00  0.00     0.000 C 
BRANCH  12  13
ATOM     13  C   UNL     1      24.396  32.418  11.139  1.00  0.00    -0.000 C 
BRANCH  13  14
ATOM     14  C   UNL     1      25.829  32.383  11.695  1.00  0.00    -0.000 C 
BRANCH  14  15
ATOM     15  C   UNL     1      26.370  33.787  12.017  1.00  0.00    -0.000 C 
BRANCH  15  16
ATOM     16  C   UNL     1      26.412  34.072  13.527  1.00  0.00    -0.000 C 
BRANCH  16  17
ATOM     17  C   UNL     1      26.348  32.792  14.374  1.00  0.00    -0.000 C 
BRANCH  17  18
ATOM     18  C   UNL     1      25.135  32.817  15.313  1.00  0.00    -0.003 C 
ATOM     19  C   UNL     1      24.157  31.693  14.980  1.00  0.00     0.004 C 
ENDBRANCH  17  18
ENDBRANCH  16  17
ENDBRANCH  15  16
ENDBRANCH  14  15
ENDBRANCH  13  14
ENDBRANCH  12  13
ENDBRANCH   1  12
TORSDOF 14
ENDMDL
MODEL 3
REMARK VINA RESULT:    -3.712      1.381      5.281
REMARK INTER + INTRA:          -8.976
REMARK INTER:                  -7.303
REMARK INTRA:                  -1.673
REMARK UNBOUND:                -2.225
REMARK SMILES CCCCCCCCCCCCCC[C@@H](C)C(=O)[O-]
REMARK SMILES IDX 9 1 10 2 11 3 12 4 13 5 14 6 15 7 16 8 17 9 18 10 19 11 8 12
REMARK SMILES IDX 7 13 6 14 5 15 4 16 3 17 2 18 1 19
REMARK H PARENT
REMARK Flexibility Score: inf
ROOT
ATOM      1  C   UNL     1      22.989  34.159  11.052  1.00  0.00     0.000 C 
ENDROOT
BRANCH   1   2
ATOM      2  C   UNL     1      24.405  33.611  10.796  1.00  0.00     0.000 C 
BRANCH   2   3
ATOM      3  C   UNL     1      24.406  32.144  10.333  1.00  0.00     0.000 C 
BRANCH   3   4
ATOM      4  C   UNL     1      25.388  31.262  11.128  1.00  0.00     0.000 C 
BRANCH   4   5
ATOM      5  C   UNL     1      25.202  31.274  12.657  1.00  0.00     0.001 C 
BRANCH   5   6
ATOM      6  C   UNL     1      26.381  31.927  13.402  1.00  0.00     0.009 C 
BRANCH   6   7
ATOM      7  C   UNL     1      25.952  33.154  14.236  1.00  0.00     0.032 C 
ATOM      8  C   UNL     1      26.547  33.137  15.651  1.00  0.00     0.014 C 
BRANCH   7   9
ATOM      9  C   UNL     1      26.359  34.421  13.535  1.00  0.00     0.044 C 
ATOM     10  O   UNL     1      25.891  35.533  13.900  1.00  0.00    -0.550 OA
ATOM     11  O   UNL     1      27.255  34.372  12.473  1.00  0.00    -0.550 OA
ENDBRANCH   7   9
ENDBRANCH   6   7
ENDBRANCH   5   6
ENDBRANCH   4   5
ENDBRANCH   3   4
ENDBRANCH   2   3
ENDBRANCH   1   2
BRANCH   1  12
ATOM     12  C   UNL     1      22.857  35.115  12.251  1.00  0.00     0.000 C 
BRANCH  12  13
ATOM     13  C   UNL     1      22.521  34.388  13.565  1.00  0.00    -0.000 C 
BRANCH  13  14
ATOM     14  C   UNL     1      21.811  35.302  14.578  1.00  0.00    -0.000 C 
BRANCH  14  15
ATOM     15  C   UNL     1      22.801  36.092  15.453  1.00  0.00    -0.000 C 
BRANCH  15  16
ATOM     16  C   UNL     1      22.768  37.602  15.166  1.00  0.00    -0.000 C 
BRANCH  16  17
ATOM     17  C   UNL     1      23.957  38.350  15.787  1.00  0.00    -0.000 C 
BRANCH  17  18
ATOM     18  C   UNL     1      24.667  39.216  14.738  1.00  0.00    -0.003 C 
ATOM     19  C   UNL     1      23.986  39.104  13.378  1.00  0.00     0.004 C 
ENDBRANCH  17  18
ENDBRANCH  16  17
ENDBRANCH  15  16
ENDBRANCH  14  15
ENDBRANCH  13  14
ENDBRANCH  12  13
ENDBRANCH   1  12
TORSDOF 14
ENDMDL
MODEL 4
REMARK VINA RESULT:    -3.691      1.283      2.955
REMARK INTER + INTRA:          -8.938
REMARK INTER:                  -6.693
REMARK INTRA:                  -2.244
REMARK UNBOUND:                -2.225
REMARK SMILES CCCCCCCCCCCCCC[C@@H](C)C(=O)[O-]
REMARK SMILES IDX 9 1 10 2 11 3 12 4 13 5 14 6 15 7 16 8 17 9 18 10 19 11 8 12
REMARK SMILES IDX 7 13 6 14 5 15 4 16 3 17 2 18 1 19
REMARK H PARENT
REMARK Flexibility Score: inf
ROOT
ATOM      1  C   UNL     1      24.023  33.340  15.257  1.00  0.00     0.000 C 
ENDROOT
BRANCH   1   2
ATOM      2  C   UNL     1      22.610  32.837  14.906  1.00  0.00     0.000 C 
BRANCH   2   3
ATOM      3  C   UNL     1      21.505  33.833  15.297  1.00  0.00     0.000 C 
BRANCH   3   4
ATOM      4  C   UNL     1      22.045  35.074  16.033  1.00  0.00     0.000 C 
BRANCH   4   5
ATOM      5  C   UNL     1      21.963  36.398  15.250  1.00  0.00     0.001 C 
BRANCH   5   6
ATOM      6  C   UNL     1      22.822  37.517  15.867  1.00  0.00     0.009 C 
BRANCH   6   7
ATOM      7  C   UNL     1      24.168  37.708  15.134  1.00  0.00     0.032 C 
ATOM      8  C   UNL     1      24.287  36.817  13.888  1.00  0.00     0.014 C 
BRANCH   7   9
ATOM      9  C   UNL     1      24.339  39.149  14.739  1.00  0.00     0.044 C 
ATOM     10  O   UNL     1      23.846  39.581  13.663  1.00  0.00    -0.550 OA
ATOM     11  O   UNL     1      25.050  40.015  15.562  1.00  0.00    -0.550 OA
ENDBRANCH   7   9
ENDBRANCH   6   7
ENDBRANCH   5   6
ENDBRANCH   4   5
ENDBRANCH   3   4
ENDBRANCH   2   3
ENDBRANCH   1   2
BRANCH   1  12
ATOM     12  C   UNL     1      25.097  32.246  15.400  1.00  0.00     0.000 C 
BRANCH  12  13
ATOM     13  C   UNL     1      26.377  32.552  14.602  1.00  0.00    -0.000 C 
BRANCH  13  14
ATOM     14  C   UNL     1      26.242  33.815  13.735  1.00  0.00    -0.000 C 
BRANCH  14  15
ATOM     15  C   UNL     1      26.461  33.527  12.239  1.00  0.00    -0.000 C 
BRANCH  15  16
ATOM     16  C   UNL     1      25.779  32.227  11.781  1.00  0.00    -0.000 C 
BRANCH  16  17
ATOM     17  C   UNL     1      24.266  32.392  11.574  1.00  0.00    -0.000 C 
BRANCH  17  18
ATOM     18  C   UNL     1      23.953  33.704  10.845  1.00  0.00    -0.003 C 
ATOM     19  C   UNL     1      22.828  34.467  11.539  1.00  0.00     0.004 C 
ENDBRANCH  17  18
ENDBRANCH  16  17
ENDBRANCH  15  16
ENDBRANCH  14  15
ENDBRANCH  13  14
ENDBRANCH  12  13
ENDBRANCH   1  12
TORSDOF 14
ENDMDL
MODEL 5
REMARK VINA RESULT:    -3.532      2.434      5.740
REMARK INTER + INTRA:          -8.648
REMARK INTER:                  -6.440
REMARK INTRA:                  -2.208
REMARK UNBOUND:                -2.225
REMARK SMILES CCCCCCCCCCCCCC[C@@H](C)C(=O)[O-]
REMARK SMILES IDX 9 1 10 2 11 3 12 4 13 5 14 6 15 7 16 8 17 9 18 10 19 11 8 12
REMARK SMILES IDX 7 13 6 14 5 15 4 16 3 17 2 18 1 19
REMARK H PARENT
REMARK Flexibility Score: inf
ROOT
ATOM      1  C   UNL     1      22.351  33.467  14.291  1.00  0.00     0.000 C 
ENDROOT
BRANCH   1   2
ATOM      2  C   UNL     1      22.789  32.852  15.634  1.00  0.00     0.000 C 
BRANCH   2   3
ATOM      3  C   UNL     1      23.964  31.871  15.490  1.00  0.00     0.000 C 
BRANCH   3   4
ATOM      4  C   UNL     1      25.322  32.500  15.857  1.00  0.00     0.000 C 
BRANCH   4   5
ATOM      5  C   UNL     1      26.323  32.641  14.695  1.00  0.00     0.001 C 
BRANCH   5   6
ATOM      6  C   UNL     1      25.748  32.177  13.344  1.00  0.00     0.009 C 
BRANCH   6   7
ATOM      7  C   UNL     1      25.661  33.320  12.309  1.00  0.00     0.032 C 
ATOM      8  C   UNL     1      27.026  33.971  12.040  1.00  0.00     0.014 C 
BRANCH   7   9
ATOM      9  C   UNL     1      25.087  32.804  11.019  1.00  0.00     0.044 C 
ATOM     10  O   UNL     1      24.155  33.425  10.440  1.00  0.00    -0.550 OA
ATOM     11  O   UNL     1      25.581  31.633  10.457  1.00  0.00    -0.550 OA
ENDBRANCH   7   9
ENDBRANCH   6   7
ENDBRANCH   5   6
ENDBRANCH   4   5
ENDBRANCH   3   4
ENDBRANCH   2   3
ENDBRANCH   1   2
BRANCH   1  12
ATOM     12  C   UNL     1      22.149  34.993  14.297  1.00  0.00     0.000 C 
BRANCH  12  13
ATOM     13  C   UNL     1      23.305  35.756  13.626  1.00  0.00    -0.000 C 
BRANCH  13  14
ATOM     14  C   UNL     1      24.525  35.907  14.551  1.00  0.00    -0.000 C 
BRANCH  14  15
ATOM     15  C   UNL     1      24.149  36.471  15.933  1.00  0.00    -0.000 C 
BRANCH  15  16
ATOM     16  C   UNL     1      23.414  37.818  15.841  1.00  0.00    -0.000 C 
BRANCH  16  17
ATOM     17  C   UNL     1      24.334  39.016  16.121  1.00  0.00    -0.000 C 
BRANCH  17  18
ATOM     18  C   UNL     1      24.905  39.585  14.817  1.00  0.00    -0.003 C 
ATOM     19  C   UNL     1      23.910  39.439  13.669  1.00  0.00     0.004 C 
ENDBRANCH  17  18
ENDBRANCH  16  17
ENDBRANCH  15  16
ENDBRANCH  14  15
ENDBRANCH  13  14
ENDBRANCH  12  13
ENDBRANCH   1  12
TORSDOF 14
ENDMDL
MODEL 6
REMARK VINA RESULT:    -3.497      1.783      5.557
REMARK INTER + INTRA:          -8.584
REMARK INTER:                  -6.795
REMARK INTRA:                  -1.789
REMARK UNBOUND:                -2.225
REMARK SMILES CCCCCCCCCCCCCC[C@@H](C)C(=O)[O-]
REMARK SMILES IDX 9 1 10 2 11 3 12 4 13 5 14 6 15 7 16 8 17 9 18 10 19 11 8 12
REMARK SMILES IDX 7 13 6 14 5 15 4 16 3 17 2 18 1 19
REMARK H PARENT
REMARK Flexibility Score: inf
ROOT
ATOM      1  C   UNL     1      22.882  35.085  12.438  1.00  0.00     0.000 C 
ENDROOT
BRANCH   1   2
ATOM      2  C   UNL     1      22.675  34.222  11.179  1.00  0.00     0.000 C 
BRANCH   2   3
ATOM      3  C   UNL     1      23.998  33.795  10.520  1.00  0.00     0.000 C 
BRANCH   3   4
ATOM      4  C   UNL     1      24.220  32.271  10.546  1.00  0.00     0.000 C 
BRANCH   4   5
ATOM      5  C   UNL     1      25.441  31.792  11.353  1.00  0.00     0.001 C 
BRANCH   5   6
ATOM      6  C   UNL     1      25.331  32.108  12.856  1.00  0.00     0.009 C 
BRANCH   6   7
ATOM      7  C   UNL     1      26.526  32.935  13.380  1.00  0.00     0.032 C 
ATOM      8  C   UNL     1      26.931  34.056  12.411  1.00  0.00     0.014 C 
BRANCH   7   9
ATOM      9  C   UNL     1      26.195  33.526  14.722  1.00  0.00     0.044 C 
ATOM     10  O   UNL     1      25.325  32.990  15.460  1.00  0.00    -0.550 OA
ATOM     11  O   UNL     1      26.846  34.675  15.156  1.00  0.00    -0.550 OA
ENDBRANCH   7   9
ENDBRANCH   6   7
ENDBRANCH   5   6
ENDBRANCH   4   5
ENDBRANCH   3   4
ENDBRANCH   2   3
ENDBRANCH   1   2
BRANCH   1  12
ATOM     12  C   UNL     1      22.569  34.388  13.775  1.00  0.00     0.000 C 
BRANCH  12  13
ATOM     13  C   UNL     1      21.673  35.233  14.698  1.00  0.00    -0.000 C 
BRANCH  13  14
ATOM     14  C   UNL     1      22.440  35.798  15.906  1.00  0.00    -0.000 C 
BRANCH  14  15
ATOM     15  C   UNL     1      22.339  37.331  16.002  1.00  0.00    -0.000 C 
BRANCH  15  16
ATOM     16  C   UNL     1      23.699  38.025  15.816  1.00  0.00    -0.000 C 
BRANCH  16  17
ATOM     17  C   UNL     1      24.549  37.377  14.712  1.00  0.00    -0.000 C 
BRANCH  17  18
ATOM     18  C   UNL     1      24.816  38.370  13.574  1.00  0.00    -0.003 C 
ATOM     19  C   UNL     1      23.762  39.473  13.545  1.00  0.00     0.004 C 
ENDBRANCH  17  18
ENDBRANCH  16  17
ENDBRANCH  15  16
ENDBRANCH  14  15
ENDBRANCH  13  14
ENDBRANCH  12  13
ENDBRANCH   1  12
TORSDOF 14
ENDMDL
MODEL 7
REMARK VINA RESULT:    -3.127      1.522      2.825
REMARK INTER + INTRA:          -7.913
REMARK INTER:                  -5.538
REMARK INTRA:                  -2.374
REMARK UNBOUND:                -2.225
REMARK SMILES CCCCCCCCCCCCCC[C@@H](C)C(=O)[O-]
REMARK SMILES IDX 9 1 10 2 11 3 12 4 13 5 14 6 15 7 16 8 17 9 18 10 19 11 8 12
REMARK SMILES IDX 7 13 6 14 5 15 4 16 3 17 2 18 1 19
REMARK H PARENT
REMARK Flexibility Score: inf
ROOT
ATOM      1  C   UNL     1      23.380  33.882  11.689  1.00  0.00     0.000 C 
ENDROOT
BRANCH   1   2
ATOM      2  C   UNL     1      23.795  34.577  13.001  1.00  0.00     0.000 C 
BRANCH   2   3
ATOM      3  C   UNL     1      25.320  34.675  13.171  1.00  0.00     0.000 C 
BRANCH   3   4
ATOM      4  C   UNL     1      25.767  34.618  14.644  1.00  0.00     0.000 C 
BRANCH   4   5
ATOM      5  C   UNL     1      24.740  35.138  15.669  1.00  0.00     0.001 C 
BRANCH   5   6
ATOM      6  C   UNL     1      24.795  36.665  15.854  1.00  0.00     0.009 C 
BRANCH   6   7
ATOM      7  C   UNL     1      23.752  37.408  14.990  1.00  0.00     0.032 C 
ATOM      8  C   UNL     1      22.417  37.603  15.723  1.00  0.00     0.014 C 
BRANCH   7   9
ATOM      9  C   UNL     1      24.293  38.746  14.566  1.00  0.00     0.044 C 
ATOM     10  O   UNL     1      24.327  39.065  13.347  1.00  0.00    -0.550 OA
ATOM     11  O   UNL     1      24.763  39.639  15.520  1.00  0.00    -0.550 OA
ENDBRANCH   7   9
ENDBRANCH   6   7
ENDBRANCH   5   6
ENDBRANCH   4   5
ENDBRANCH   3   4
ENDBRANCH   2   3
ENDBRANCH   1   2
BRANCH   1  12
ATOM     12  C   UNL     1      24.505  33.130  10.955  1.00  0.00     0.000 C 
BRANCH  12  13
ATOM     13  C   UNL     1      24.521  31.622  11.264  1.00  0.00    -0.000 C 
BRANCH  13  14
ATOM     14  C   UNL     1      25.775  31.195  12.046  1.00  0.00    -0.000 C 
BRANCH  14  15
ATOM     15  C   UNL     1      25.492  30.990  13.545  1.00  0.00    -0.000 C 
BRANCH  15  16
ATOM     16  C   UNL     1      23.989  30.875  13.852  1.00  0.00    -0.000 C 
BRANCH  16  17
ATOM     17  C   UNL     1      23.600  31.558  15.171  1.00  0.00    -0.000 C 
BRANCH  17  18
ATOM     18  C   UNL     1      22.080  31.746  15.263  1.00  0.00    -0.003 C 
ATOM     19  C   UNL     1      21.724  33.173  15.672  1.00  0.00     0.004 C 
ENDBRANCH  17  18
ENDBRANCH  16  17
ENDBRANCH  15  16
ENDBRANCH  14  15
ENDBRANCH  13  14
ENDBRANCH  12  13
ENDBRANCH   1  12
TORSDOF 14
ENDMDL
MODEL 8
REMARK VINA RESULT:    -3.116      1.287      3.264
REMARK INTER + INTRA:          -7.893
REMARK INTER:                  -5.482
REMARK INTRA:                  -2.411
REMARK UNBOUND:                -2.225
REMARK SMILES CCCCCCCCCCCCCC[C@@H](C)C(=O)[O-]
REMARK SMILES IDX 9 1 10 2 11 3 12 4 13 5 14 6 15 7 16 8 17 9 18 10 19 11 8 12
REMARK SMILES IDX 7 13 6 14 5 15 4 16 3 17 2 18 1 19
REMARK H PARENT
REMARK Flexibility Score: inf
ROOT
ATOM      1  C   UNL     1      26.092  33.639  12.515  1.00  0.00     0.000 C 
ENDROOT
BRANCH   1   2
ATOM      2  C   UNL     1      26.604  34.616  13.591  1.00  0.00     0.000 C 
BRANCH   2   3
ATOM      3  C   UNL     1      26.710  33.973  14.984  1.00  0.00     0.000 C 
BRANCH   3   4
ATOM      4  C   UNL     1      26.346  34.942  16.124  1.00  0.00     0.000 C 
BRANCH   4   5
ATOM      5  C   UNL     1      24.913  35.506  16.083  1.00  0.00     0.001 C 
BRANCH   5   6
ATOM      6  C   UNL     1      24.871  37.046  16.081  1.00  0.00     0.009 C 
BRANCH   6   7
ATOM      7  C   UNL     1      23.859  37.612  15.061  1.00  0.00     0.032 C 
ATOM      8  C   UNL     1      22.423  37.621  15.604  1.00  0.00     0.014 C 
BRANCH   7   9
ATOM      9  C   UNL     1      24.255  39.008  14.664  1.00  0.00     0.044 C 
ATOM     10  O   UNL     1      24.885  39.747  15.467  1.00  0.00    -0.550 OA
ATOM     11  O   UNL     1      23.922  39.493  13.405  1.00  0.00    -0.550 OA
ENDBRANCH   7   9
ENDBRANCH   6   7
ENDBRANCH   5   6
ENDBRANCH   4   5
ENDBRANCH   3   4
ENDBRANCH   2   3
ENDBRANCH   1   2
BRANCH   1  12
ATOM     12  C   UNL     1      26.294  32.146  12.830  1.00  0.00     0.000 C 
BRANCH  12  13
ATOM     13  C   UNL     1      24.990  31.332  12.748  1.00  0.00    -0.000 C 
BRANCH  13  14
ATOM     14  C   UNL     1      24.452  30.942  14.134  1.00  0.00    -0.000 C 
BRANCH  14  15
ATOM     15  C   UNL     1      23.481  31.990  14.705  1.00  0.00    -0.000 C 
BRANCH  15  16
ATOM     16  C   UNL     1      22.780  32.806  13.607  1.00  0.00    -0.000 C 
BRANCH  16  17
ATOM     17  C   UNL     1      22.717  34.306  13.931  1.00  0.00    -0.000 C 
BRANCH  17  18
ATOM     18  C   UNL     1      22.694  35.144  12.647  1.00  0.00    -0.003 C 
ATOM     19  C   UNL     1      22.830  34.261  11.410  1.00  0.00     0.004 C 
ENDBRANCH  17  18
ENDBRANCH  16  17
ENDBRANCH  15  16
ENDBRANCH  14  15
ENDBRANCH  13  14
ENDBRANCH  12  13
ENDBRANCH   1  12
TORSDOF 14
ENDMDL
MODEL 9
REMARK VINA RESULT:    -3.060      2.433      5.636
REMARK INTER + INTRA:          -7.789
REMARK INTER:                  -5.664
REMARK INTRA:                  -2.126
REMARK UNBOUND:                -2.225
REMARK SMILES CCCCCCCCCCCCCC[C@@H](C)C(=O)[O-]
REMARK SMILES IDX 9 1 10 2 11 3 12 4 13 5 14 6 15 7 16 8 17 9 18 10 19 11 8 12
REMARK SMILES IDX 7 13 6 14 5 15 4 16 3 17 2 18 1 19
REMARK H PARENT
REMARK Flexibility Score: inf
ROOT
ATOM      1  C   UNL     1      22.453  33.161  15.617  1.00  0.00     0.000 C 
ENDROOT
BRANCH   1   2
ATOM      2  C   UNL     1      22.243  31.655  15.369  1.00  0.00     0.000 C 
BRANCH   2   3
ATOM      3  C   UNL     1      23.368  31.022  14.534  1.00  0.00     0.000 C 
BRANCH   3   4
ATOM      4  C   UNL     1      24.724  31.731  14.715  1.00  0.00     0.000 C 
BRANCH   4   5
ATOM      5  C   UNL     1      25.899  31.128  13.921  1.00  0.00     0.001 C 
BRANCH   5   6
ATOM      6  C   UNL     1      25.872  31.502  12.428  1.00  0.00     0.009 C 
BRANCH   6   7
ATOM      7  C   UNL     1      25.475  32.976  12.191  1.00  0.00     0.032 C 
ATOM      8  C   UNL     1      26.696  33.892  12.024  1.00  0.00     0.014 C 
BRANCH   7   9
ATOM      9  C   UNL     1      24.596  33.083  10.975  1.00  0.00     0.044 C 
ATOM     10  O   UNL     1      23.737  34.001  10.885  1.00  0.00    -0.550 OA
ATOM     11  O   UNL     1      24.726  32.164   9.940  1.00  0.00    -0.550 OA
ENDBRANCH   7   9
ENDBRANCH   6   7
ENDBRANCH   5   6
ENDBRANCH   4   5
ENDBRANCH   3   4
ENDBRANCH   2   3
ENDBRANCH   1   2
BRANCH   1  12
ATOM     12  C   UNL     1      21.945  34.092  14.502  1.00  0.00     0.000 C 
BRANCH  12  13
ATOM     13  C   UNL     1      21.191  35.321  15.041  1.00  0.00    -0.000 C 
BRANCH  13  14
ATOM     14  C   UNL     1      22.085  36.229  15.902  1.00  0.00    -0.000 C 
BRANCH  14  15
ATOM     15  C   UNL     1      22.870  37.251  15.060  1.00  0.00    -0.000 C 
BRANCH  15  16
ATOM     16  C   UNL     1      24.384  37.193  15.322  1.00  0.00    -0.000 C 
BRANCH  16  17
ATOM     17  C   UNL     1      25.036  35.922  14.754  1.00  0.00    -0.000 C 
BRANCH  17  18
ATOM     18  C   UNL     1      25.558  35.024  15.882  1.00  0.00    -0.003 C 
ATOM     19  C   UNL     1      26.996  34.587  15.618  1.00  0.00     0.004 C 
ENDBRANCH  17  18
ENDBRANCH  16  17
ENDBRANCH  15  16
ENDBRANCH  14  15
ENDBRANCH  13  14
ENDBRANCH  12  13
ENDBRANCH   1  12
TORSDOF 14
ENDMDL
