MODEL 1
REMARK VINA RESULT:    12.850      0.000      0.000
REMARK INTER + INTRA:          28.164
REMARK INTER:                  27.875
REMARK INTRA:                   0.289
REMARK UNBOUND:                 0.289
REMARK SMILES CCCCCCCCCCCCCCCCCCCCCC(=O)[O-]
REMARK SMILES IDX 12 1 11 2 10 3 9 4 8 5 7 6 6 7 5 8 4 9 3 10 2 11 1 12 13 13
REMARK SMILES IDX 14 14 15 15 16 16 17 17 18 18 19 19 20 20 21 21 22 22 23 23
REMARK SMILES IDX 24 24
REMARK H PARENT
REMARK Flexibility Score: inf
ROOT
ATOM      1  C   UNL     1       4.586  42.754   9.762  1.00  0.00     0.000 C 
ENDROOT
BRANCH   1   2
ATOM      2  C   UNL     1       3.910  42.483  11.120  1.00  0.00     0.000 C 
BRANCH   2   3
ATOM      3  C   UNL     1       4.565  41.378  11.970  1.00  0.00     0.000 C 
BRANCH   3   4
ATOM      4  C   UNL     1       4.128  41.348  13.447  1.00  0.00    -0.000 C 
BRANCH   4   5
ATOM      5  C   UNL     1       3.626  39.968  13.897  1.00  0.00    -0.000 C 
BRANCH   5   6
ATOM      6  C   UNL     1       3.708  39.826  15.420  1.00  0.00    -0.000 C 
BRANCH   6   7
ATOM      7  C   UNL     1       5.149  39.547  15.873  1.00  0.00    -0.000 C 
BRANCH   7   8
ATOM      8  C   UNL     1       5.634  38.138  15.492  1.00  0.00    -0.000 C 
BRANCH   8   9
ATOM      9  C   UNL     1       7.166  38.035  15.332  1.00  0.00    -0.000 C 
BRANCH   9  10
ATOM     10  C   UNL     1       7.884  39.324  15.771  1.00  0.00    -0.000 C 
BRANCH  10  11
ATOM     11  C   UNL     1       9.262  39.485  15.114  1.00  0.00    -0.003 C 
ATOM     12  C   UNL     1       9.909  38.147  14.760  1.00  0.00     0.004 C 
ENDBRANCH  10  11
ENDBRANCH   9  10
ENDBRANCH   8   9
ENDBRANCH   7   8
ENDBRANCH   6   7
ENDBRANCH   5   6
ENDBRANCH   4   5
ENDBRANCH   3   4
ENDBRANCH   2   3
ENDBRANCH   1   2
BRANCH   1  13
ATOM     13  C   UNL     1       6.128  42.696   9.806  1.00  0.00     0.000 C 
BRANCH  13  14
ATOM     14  C   UNL     1       6.747  42.313   8.450  1.00  0.00     0.000 C 
BRANCH  14  15
ATOM     15  C   UNL     1       6.165  43.144   7.285  1.00  0.00     0.000 C 
BRANCH  15  16
ATOM     16  C   UNL     1       6.948  42.997   5.967  1.00  0.00     0.000 C 
BRANCH  16  17
ATOM     17  C   UNL     1       8.414  43.470   6.022  1.00  0.00     0.000 C 
BRANCH  17  18
ATOM     18  C   UNL     1       9.381  42.508   6.741  1.00  0.00     0.000 C 
BRANCH  18  19
ATOM     19  C   UNL     1       8.853  41.065   6.797  1.00  0.00     0.000 C 
BRANCH  19  20
ATOM     20  C   UNL     1       9.134  40.274   5.505  1.00  0.00     0.006 C 
BRANCH  20  21
ATOM     21  C   UNL     1       9.302  41.156   4.255  1.00  0.00     0.053 C 
BRANCH  21  22
ATOM     22  C   UNL     1      10.045  40.462   3.154  1.00  0.00     0.041 C 
ATOM     23  O   UNL     1      10.626  39.367   3.371  1.00  0.00    -0.550 OA
ATOM     24  O   UNL     1      10.073  41.014   1.879  1.00  0.00    -0.550 OA
ENDBRANCH  21  22
ENDBRANCH  20  21
ENDBRANCH  19  20
ENDBRANCH  18  19
ENDBRANCH  17  18
ENDBRANCH  16  17
ENDBRANCH  15  16
ENDBRANCH  14  15
ENDBRANCH  13  14
ENDBRANCH   1  13
TORSDOF 20
ENDMDL
MODEL 2
REMARK VINA RESULT:    13.081      0.760      1.047
REMARK INTER + INTRA:          28.665
REMARK INTER:                  29.598
REMARK INTRA:                  -0.933
REMARK UNBOUND:                 0.289
REMARK SMILES CCCCCCCCCCCCCCCCCCCCCC(=O)[O-]
REMARK SMILES IDX 12 1 11 2 10 3 9 4 8 5 7 6 6 7 5 8 4 9 3 10 2 11 1 12 13 13
REMARK SMILES IDX 14 14 15 15 16 16 17 17 18 18 19 19 20 20 21 21 22 22 23 23
REMARK SMILES IDX 24 24
REMARK H PARENT
REMARK Flexibility Score: inf
ROOT
ATOM      1  C   UNL     1       4.139  42.737  10.952  1.00  0.00     0.000 C 
ENDROOT
BRANCH   1   2
ATOM      2  C   UNL     1       4.307  41.261  11.360  1.00  0.00     0.000 C 
BRANCH   2   3
ATOM      3  C   UNL     1       4.832  41.030  12.790  1.00  0.00     0.000 C 
BRANCH   3   4
ATOM      4  C   UNL     1       3.777  41.178  13.903  1.00  0.00    -0.000 C 
BRANCH   4   5
ATOM      5  C   UNL     1       3.323  39.830  14.482  1.00  0.00    -0.000 C 
BRANCH   5   6
ATOM      6  C   UNL     1       4.108  39.489  15.753  1.00  0.00    -0.000 C 
BRANCH   6   7
ATOM      7  C   UNL     1       5.026  38.279  15.527  1.00  0.00    -0.000 C 
BRANCH   7   8
ATOM      8  C   UNL     1       6.460  38.513  16.032  1.00  0.00    -0.000 C 
BRANCH   8   9
ATOM      9  C   UNL     1       7.010  39.917  15.702  1.00  0.00    -0.000 C 
BRANCH   9  10
ATOM     10  C   UNL     1       8.226  39.858  14.759  1.00  0.00    -0.000 C 
BRANCH  10  11
ATOM     11  C   UNL     1       9.127  38.645  15.033  1.00  0.00    -0.003 C 
ATOM     12  C   UNL     1      10.168  38.915  16.120  1.00  0.00     0.004 C 
ENDBRANCH  10  11
ENDBRANCH   9  10
ENDBRANCH   8   9
ENDBRANCH   7   8
ENDBRANCH   6   7
ENDBRANCH   5   6
ENDBRANCH   4   5
ENDBRANCH   3   4
ENDBRANCH   2   3
ENDBRANCH   1   2
BRANCH   1  13
ATOM     13  C   UNL     1       4.507  43.027   9.480  1.00  0.00     0.000 C 
BRANCH  13  14
ATOM     14  C   UNL     1       6.027  43.110   9.255  1.00  0.00     0.000 C 
BRANCH  14  15
ATOM     15  C   UNL     1       6.473  42.351   7.986  1.00  0.00     0.000 C 
BRANCH  15  16
ATOM     16  C   UNL     1       6.447  43.211   6.707  1.00  0.00     0.000 C 
BRANCH  16  17
ATOM     17  C   UNL     1       7.817  43.414   6.030  1.00  0.00     0.000 C 
BRANCH  17  18
ATOM     18  C   UNL     1       8.937  42.483   6.534  1.00  0.00     0.000 C 
BRANCH  18  19
ATOM     19  C   UNL     1       8.585  40.994   6.385  1.00  0.00     0.000 C 
BRANCH  19  20
ATOM     20  C   UNL     1       9.463  40.272   5.345  1.00  0.00     0.006 C 
BRANCH  20  21
ATOM     21  C   UNL     1       8.887  40.291   3.918  1.00  0.00     0.053 C 
BRANCH  21  22
ATOM     22  C   UNL     1       9.942  40.487   2.872  1.00  0.00     0.041 C 
ATOM     23  O   UNL     1      11.069  39.942   2.997  1.00  0.00    -0.550 OA
ATOM     24  O   UNL     1       9.670  41.252   1.744  1.00  0.00    -0.550 OA
ENDBRANCH  21  22
ENDBRANCH  20  21
ENDBRANCH  19  20
ENDBRANCH  18  19
ENDBRANCH  17  18
ENDBRANCH  16  17
ENDBRANCH  15  16
ENDBRANCH  14  15
ENDBRANCH  13  14
ENDBRANCH   1  13
TORSDOF 20
ENDMDL
MODEL 3
REMARK VINA RESULT:    14.428      1.138      2.352
REMARK INTER + INTRA:          31.586
REMARK INTER:                  31.324
REMARK INTRA:                   0.262
REMARK UNBOUND:                 0.289
REMARK SMILES CCCCCCCCCCCCCCCCCCCCCC(=O)[O-]
REMARK SMILES IDX 12 1 11 2 10 3 9 4 8 5 7 6 6 7 5 8 4 9 3 10 2 11 1 12 13 13
REMARK SMILES IDX 14 14 15 15 16 16 17 17 18 18 19 19 20 20 21 21 22 22 23 23
REMARK SMILES IDX 24 24
REMARK H PARENT
REMARK Flexibility Score: inf
ROOT
ATOM      1  C   UNL     1       4.484  41.395  12.588  1.00  0.00     0.000 C 
ENDROOT
BRANCH   1   2
ATOM      2  C   UNL     1       3.515  41.063  13.739  1.00  0.00     0.000 C 
BRANCH   2   3
ATOM      3  C   UNL     1       4.186  40.661  15.067  1.00  0.00     0.000 C 
BRANCH   3   4
ATOM      4  C   UNL     1       3.670  39.347  15.685  1.00  0.00    -0.000 C 
BRANCH   4   5
ATOM      5  C   UNL     1       4.223  38.097  14.986  1.00  0.00    -0.000 C 
BRANCH   5   6
ATOM      6  C   UNL     1       5.749  38.031  15.109  1.00  0.00    -0.000 C 
BRANCH   6   7
ATOM      7  C   UNL     1       6.354  39.436  15.240  1.00  0.00    -0.000 C 
BRANCH   7   8
ATOM      8  C   UNL     1       7.720  39.437  15.948  1.00  0.00    -0.000 C 
BRANCH   8   9
ATOM      9  C   UNL     1       8.413  38.058  15.954  1.00  0.00    -0.000 C 
BRANCH   9  10
ATOM     10  C   UNL     1       9.469  37.934  14.840  1.00  0.00    -0.000 C 
BRANCH  10  11
ATOM     11  C   UNL     1      10.869  38.362  15.303  1.00  0.00    -0.003 C 
ATOM     12  C   UNL     1      11.170  39.829  14.999  1.00  0.00     0.004 C 
ENDBRANCH  10  11
ENDBRANCH   9  10
ENDBRANCH   8   9
ENDBRANCH   7   8
ENDBRANCH   6   7
ENDBRANCH   5   6
ENDBRANCH   4   5
ENDBRANCH   3   4
ENDBRANCH   2   3
ENDBRANCH   1   2
BRANCH   1  13
ATOM     13  C   UNL     1       3.856  42.252  11.467  1.00  0.00     0.000 C 
BRANCH  13  14
ATOM     14  C   UNL     1       4.692  42.244  10.176  1.00  0.00     0.000 C 
BRANCH  14  15
ATOM     15  C   UNL     1       4.251  43.345   9.186  1.00  0.00     0.000 C 
BRANCH  15  16
ATOM     16  C   UNL     1       5.372  43.812   8.238  1.00  0.00     0.000 C 
BRANCH  16  17
ATOM     17  C   UNL     1       6.293  42.692   7.715  1.00  0.00     0.000 C 
BRANCH  17  18
ATOM     18  C   UNL     1       7.707  42.672   8.330  1.00  0.00     0.000 C 
BRANCH  18  19
ATOM     19  C   UNL     1       8.491  41.398   7.976  1.00  0.00     0.000 C 
BRANCH  19  20
ATOM     20  C   UNL     1       9.407  41.580   6.749  1.00  0.00     0.006 C 
BRANCH  20  21
ATOM     21  C   UNL     1       8.653  41.641   5.409  1.00  0.00     0.053 C 
BRANCH  21  22
ATOM     22  C   UNL     1       9.269  40.767   4.360  1.00  0.00     0.041 C 
ATOM     23  O   UNL     1      10.040  39.828   4.687  1.00  0.00    -0.550 OA
ATOM     24  O   UNL     1       8.970  40.974   3.018  1.00  0.00    -0.550 OA
ENDBRANCH  21  22
ENDBRANCH  20  21
ENDBRANCH  19  20
ENDBRANCH  18  19
ENDBRANCH  17  18
ENDBRANCH  16  17
ENDBRANCH  15  16
ENDBRANCH  14  15
ENDBRANCH  13  14
ENDBRANCH   1  13
TORSDOF 20
ENDMDL
MODEL 4
REMARK VINA RESULT:    14.946      1.109      1.496
REMARK INTER + INTRA:          32.710
REMARK INTER:                  33.242
REMARK INTRA:                  -0.532
REMARK UNBOUND:                 0.289
REMARK SMILES CCCCCCCCCCCCCCCCCCCCCC(=O)[O-]
REMARK SMILES IDX 12 1 11 2 10 3 9 4 8 5 7 6 6 7 5 8 4 9 3 10 2 11 1 12 13 13
REMARK SMILES IDX 14 14 15 15 16 16 17 17 18 18 19 19 20 20 21 21 22 22 23 23
REMARK SMILES IDX 24 24
REMARK H PARENT
REMARK Flexibility Score: inf
ROOT
ATOM      1  C   UNL     1       4.815  43.416   9.218  1.00  0.00     0.000 C 
ENDROOT
BRANCH   1   2
ATOM      2  C   UNL     1       4.006  42.407  10.056  1.00  0.00     0.000 C 
BRANCH   2   3
ATOM      3  C   UNL     1       4.670  41.968  11.375  1.00  0.00     0.000 C 
BRANCH   3   4
ATOM      4  C   UNL     1       3.693  41.503  12.472  1.00  0.00    -0.000 C 
BRANCH   4   5
ATOM      5  C   UNL     1       4.406  40.946  13.713  1.00  0.00    -0.000 C 
BRANCH   5   6
ATOM      6  C   UNL     1       3.588  39.820  14.355  1.00  0.00    -0.000 C 
BRANCH   6   7
ATOM      7  C   UNL     1       4.149  39.445  15.734  1.00  0.00    -0.000 C 
BRANCH   7   8
ATOM      8  C   UNL     1       5.140  38.270  15.679  1.00  0.00    -0.000 C 
BRANCH   8   9
ATOM      9  C   UNL     1       6.569  38.645  16.125  1.00  0.00    -0.000 C 
BRANCH   9  10
ATOM     10  C   UNL     1       7.229  39.656  15.169  1.00  0.00    -0.000 C 
BRANCH  10  11
ATOM     11  C   UNL     1       8.586  39.169  14.640  1.00  0.00    -0.003 C 
ATOM     12  C   UNL     1       9.742  39.502  15.582  1.00  0.00     0.004 C 
ENDBRANCH  10  11
ENDBRANCH   9  10
ENDBRANCH   8   9
ENDBRANCH   7   8
ENDBRANCH   6   7
ENDBRANCH   5   6
ENDBRANCH   4   5
ENDBRANCH   3   4
ENDBRANCH   2   3
ENDBRANCH   1   2
BRANCH   1  13
ATOM     13  C   UNL     1       6.301  43.034   9.040  1.00  0.00     0.000 C 
BRANCH  13  14
ATOM     14  C   UNL     1       6.529  42.070   7.863  1.00  0.00     0.000 C 
BRANCH  14  15
ATOM     15  C   UNL     1       6.646  42.811   6.513  1.00  0.00     0.000 C 
BRANCH  15  16
ATOM     16  C   UNL     1       8.057  43.364   6.230  1.00  0.00     0.000 C 
BRANCH  16  17
ATOM     17  C   UNL     1       9.214  42.522   6.802  1.00  0.00     0.000 C 
BRANCH  17  18
ATOM     18  C   UNL     1       9.110  41.007   6.535  1.00  0.00     0.000 C 
BRANCH  18  19
ATOM     19  C   UNL     1       8.717  40.685   5.084  1.00  0.00     0.000 C 
BRANCH  19  20
ATOM     20  C   UNL     1       9.837  41.004   4.075  1.00  0.00     0.006 C 
BRANCH  20  21
ATOM     21  C   UNL     1       9.562  40.489   2.651  1.00  0.00     0.053 C 
BRANCH  21  22
ATOM     22  C   UNL     1       9.294  41.597   1.678  1.00  0.00     0.041 C 
ATOM     23  O   UNL     1       9.910  41.642   0.581  1.00  0.00    -0.550 OA
ATOM     24  O   UNL     1       8.343  42.567   1.972  1.00  0.00    -0.550 OA
ENDBRANCH  21  22
ENDBRANCH  20  21
ENDBRANCH  19  20
ENDBRANCH  18  19
ENDBRANCH  17  18
ENDBRANCH  16  17
ENDBRANCH  15  16
ENDBRANCH  14  15
ENDBRANCH  13  14
ENDBRANCH   1  13
TORSDOF 20
ENDMDL
MODEL 5
REMARK VINA RESULT:    14.989      1.484      3.657
REMARK INTER + INTRA:          32.804
REMARK INTER:                  32.006
REMARK INTRA:                   0.797
REMARK UNBOUND:                 0.289
REMARK SMILES CCCCCCCCCCCCCCCCCCCCCC(=O)[O-]
REMARK SMILES IDX 12 1 11 2 10 3 9 4 8 5 7 6 6 7 5 8 4 9 3 10 2 11 1 12 13 13
REMARK SMILES IDX 14 14 15 15 16 16 17 17 18 18 19 19 20 20 21 21 22 22 23 23
REMARK SMILES IDX 24 24
REMARK H PARENT
REMARK Flexibility Score: inf
ROOT
ATOM      1  C   UNL     1       7.352  41.826  12.000  1.00  0.00     0.000 C 
ENDROOT
BRANCH   1   2
ATOM      2  C   UNL     1       7.580  40.617  12.927  1.00  0.00     0.000 C 
BRANCH   2   3
ATOM      3  C   UNL     1       8.542  40.864  14.104  1.00  0.00     0.000 C 
BRANCH   3   4
ATOM      4  C   UNL     1       9.562  39.737  14.360  1.00  0.00    -0.000 C 
BRANCH   4   5
ATOM      5  C   UNL     1       9.492  39.177  15.788  1.00  0.00    -0.000 C 
BRANCH   5   6
ATOM      6  C   UNL     1       8.199  38.383  16.002  1.00  0.00    -0.000 C 
BRANCH   6   7
ATOM      7  C   UNL     1       7.028  39.019  15.239  1.00  0.00    -0.000 C 
BRANCH   7   8
ATOM      8  C   UNL     1       5.745  39.116  16.082  1.00  0.00    -0.000 C 
BRANCH   8   9
ATOM      9  C   UNL     1       4.835  37.875  15.967  1.00  0.00    -0.000 C 
BRANCH   9  10
ATOM     10  C   UNL     1       3.893  37.956  14.752  1.00  0.00    -0.000 C 
BRANCH  10  11
ATOM     11  C   UNL     1       2.524  38.556  15.104  1.00  0.00    -0.003 C 
ATOM     12  C   UNL     1       1.377  37.907  14.329  1.00  0.00     0.004 C 
ENDBRANCH  10  11
ENDBRANCH   9  10
ENDBRANCH   8   9
ENDBRANCH   7   8
ENDBRANCH   6   7
ENDBRANCH   5   6
ENDBRANCH   4   5
ENDBRANCH   3   4
ENDBRANCH   2   3
ENDBRANCH   1   2
BRANCH   1  13
ATOM     13  C   UNL     1       6.140  41.673  11.055  1.00  0.00     0.000 C 
BRANCH  13  14
ATOM     14  C   UNL     1       6.266  42.532   9.785  1.00  0.00     0.000 C 
BRANCH  14  15
ATOM     15  C   UNL     1       7.392  42.035   8.851  1.00  0.00     0.000 C 
BRANCH  15  16
ATOM     16  C   UNL     1       7.628  42.942   7.628  1.00  0.00     0.000 C 
BRANCH  16  17
ATOM     17  C   UNL     1       9.105  43.121   7.224  1.00  0.00     0.000 C 
BRANCH  17  18
ATOM     18  C   UNL     1       9.572  42.231   6.054  1.00  0.00     0.000 C 
BRANCH  18  19
ATOM     19  C   UNL     1       8.705  40.974   5.880  1.00  0.00     0.000 C 
BRANCH  19  20
ATOM     20  C   UNL     1       8.796  40.375   4.464  1.00  0.00     0.006 C 
BRANCH  20  21
ATOM     21  C   UNL     1      10.199  40.462   3.836  1.00  0.00     0.053 C 
BRANCH  21  22
ATOM     22  C   UNL     1      10.177  40.286   2.348  1.00  0.00     0.041 C 
ATOM     23  O   UNL     1      10.815  39.344   1.810  1.00  0.00    -0.550 OA
ATOM     24  O   UNL     1       9.431  41.151   1.556  1.00  0.00    -0.550 OA
ENDBRANCH  21  22
ENDBRANCH  20  21
ENDBRANCH  19  20
ENDBRANCH  18  19
ENDBRANCH  17  18
ENDBRANCH  16  17
ENDBRANCH  15  16
ENDBRANCH  14  15
ENDBRANCH  13  14
ENDBRANCH   1  13
TORSDOF 20
ENDMDL
MODEL 6
REMARK VINA RESULT:    15.486      4.087      9.640
REMARK INTER + INTRA:          33.881
REMARK INTER:                  33.698
REMARK INTRA:                   0.183
REMARK UNBOUND:                 0.289
REMARK SMILES CCCCCCCCCCCCCCCCCCCCCC(=O)[O-]
REMARK SMILES IDX 12 1 11 2 10 3 9 4 8 5 7 6 6 7 5 8 4 9 3 10 2 11 1 12 13 13
REMARK SMILES IDX 14 14 15 15 16 16 17 17 18 18 19 19 20 20 21 21 22 22 23 23
REMARK SMILES IDX 24 24
REMARK H PARENT
REMARK Flexibility Score: inf
ROOT
ATOM      1  C   UNL     1       3.490  43.013  10.001  1.00  0.00     0.000 C 
ENDROOT
BRANCH   1   2
ATOM      2  C   UNL     1       4.300  43.693   8.881  1.00  0.00     0.000 C 
BRANCH   2   3
ATOM      3  C   UNL     1       5.171  42.746   8.034  1.00  0.00     0.000 C 
BRANCH   3   4
ATOM      4  C   UNL     1       6.617  42.567   8.536  1.00  0.00    -0.000 C 
BRANCH   4   5
ATOM      5  C   UNL     1       7.625  42.347   7.398  1.00  0.00    -0.000 C 
BRANCH   5   6
ATOM      6  C   UNL     1       8.868  41.607   7.904  1.00  0.00    -0.000 C 
BRANCH   6   7
ATOM      7  C   UNL     1      10.151  42.368   7.538  1.00  0.00    -0.000 C 
BRANCH   7   8
ATOM      8  C   UNL     1      10.350  42.510   6.019  1.00  0.00    -0.000 C 
BRANCH   8   9
ATOM      9  C   UNL     1       9.128  42.058   5.191  1.00  0.00    -0.000 C 
BRANCH   9  10
ATOM     10  C   UNL     1       9.301  40.634   4.632  1.00  0.00    -0.000 C 
BRANCH  10  11
ATOM     11  C   UNL     1       9.350  40.604   3.097  1.00  0.00    -0.003 C 
ATOM     12  C   UNL     1      10.679  40.073   2.559  1.00  0.00     0.004 C 
ENDBRANCH  10  11
ENDBRANCH   9  10
ENDBRANCH   8   9
ENDBRANCH   7   8
ENDBRANCH   6   7
ENDBRANCH   5   6
ENDBRANCH   4   5
ENDBRANCH   3   4
ENDBRANCH   2   3
ENDBRANCH   1   2
BRANCH   1  13
ATOM     13  C   UNL     1       4.359  42.301  11.061  1.00  0.00     0.000 C 
BRANCH  13  14
ATOM     14  C   UNL     1       3.533  41.413  12.007  1.00  0.00     0.000 C 
BRANCH  14  15
ATOM     15  C   UNL     1       4.315  41.030  13.283  1.00  0.00     0.000 C 
BRANCH  15  16
ATOM     16  C   UNL     1       3.451  40.340  14.356  1.00  0.00     0.000 C 
BRANCH  16  17
ATOM     17  C   UNL     1       4.241  39.642  15.480  1.00  0.00     0.000 C 
BRANCH  17  18
ATOM     18  C   UNL     1       5.254  38.583  15.002  1.00  0.00     0.000 C 
BRANCH  18  19
ATOM     19  C   UNL     1       6.333  38.274  16.052  1.00  0.00     0.000 C 
BRANCH  19  20
ATOM     20  C   UNL     1       7.765  38.429  15.504  1.00  0.00     0.006 C 
BRANCH  20  21
ATOM     21  C   UNL     1       7.995  39.727  14.710  1.00  0.00     0.053 C 
BRANCH  21  22
ATOM     22  C   UNL     1       7.967  40.947  15.578  1.00  0.00     0.041 C 
ATOM     23  O   UNL     1       6.875  41.516  15.842  1.00  0.00    -0.550 OA
ATOM     24  O   UNL     1       9.147  41.443  16.120  1.00  0.00    -0.550 OA
ENDBRANCH  21  22
ENDBRANCH  20  21
ENDBRANCH  19  20
ENDBRANCH  18  19
ENDBRANCH  17  18
ENDBRANCH  16  17
ENDBRANCH  15  16
ENDBRANCH  14  15
ENDBRANCH  13  14
ENDBRANCH   1  13
TORSDOF 20
ENDMDL
MODEL 7
REMARK VINA RESULT:    15.585      3.443      9.617
REMARK INTER + INTRA:          34.096
REMARK INTER:                  35.110
REMARK INTRA:                  -1.013
REMARK UNBOUND:                 0.289
REMARK SMILES CCCCCCCCCCCCCCCCCCCCCC(=O)[O-]
REMARK SMILES IDX 12 1 11 2 10 3 9 4 8 5 7 6 6 7 5 8 4 9 3 10 2 11 1 12 13 13
REMARK SMILES IDX 14 14 15 15 16 16 17 17 18 18 19 19 20 20 21 21 22 22 23 23
REMARK SMILES IDX 24 24
REMARK H PARENT
REMARK Flexibility Score: inf
ROOT
ATOM      1  C   UNL     1       4.254  42.808  11.251  1.00  0.00     0.000 C 
ENDROOT
BRANCH   1   2
ATOM      2  C   UNL     1       4.187  42.903   9.715  1.00  0.00     0.000 C 
BRANCH   2   3
ATOM      3  C   UNL     1       5.355  43.657   9.052  1.00  0.00     0.000 C 
BRANCH   3   4
ATOM      4  C   UNL     1       6.364  42.767   8.301  1.00  0.00    -0.000 C 
BRANCH   4   5
ATOM      5  C   UNL     1       6.457  43.095   6.804  1.00  0.00    -0.000 C 
BRANCH   5   6
ATOM      6  C   UNL     1       7.774  42.581   6.212  1.00  0.00    -0.000 C 
BRANCH   6   7
ATOM      7  C   UNL     1       8.603  41.840   7.271  1.00  0.00    -0.000 C 
BRANCH   7   8
ATOM      8  C   UNL     1       9.199  40.520   6.750  1.00  0.00    -0.000 C 
BRANCH   8   9
ATOM      9  C   UNL     1       8.687  40.122   5.349  1.00  0.00    -0.000 C 
BRANCH   9  10
ATOM     10  C   UNL     1       9.839  39.826   4.372  1.00  0.00    -0.000 C 
BRANCH  10  11
ATOM     11  C   UNL     1       9.900  40.828   3.210  1.00  0.00    -0.003 C 
ATOM     12  C   UNL     1       8.727  41.807   3.212  1.00  0.00     0.004 C 
ENDBRANCH  10  11
ENDBRANCH   9  10
ENDBRANCH   8   9
ENDBRANCH   7   8
ENDBRANCH   6   7
ENDBRANCH   5   6
ENDBRANCH   4   5
ENDBRANCH   3   4
ENDBRANCH   2   3
ENDBRANCH   1   2
BRANCH   1  13
ATOM     13  C   UNL     1       3.366  41.696  11.850  1.00  0.00     0.000 C 
BRANCH  13  14
ATOM     14  C   UNL     1       4.114  40.829  12.878  1.00  0.00     0.000 C 
BRANCH  14  15
ATOM     15  C   UNL     1       3.161  40.198  13.917  1.00  0.00     0.000 C 
BRANCH  15  16
ATOM     16  C   UNL     1       3.802  39.996  15.303  1.00  0.00     0.000 C 
BRANCH  16  17
ATOM     17  C   UNL     1       3.827  38.538  15.804  1.00  0.00     0.000 C 
BRANCH  17  18
ATOM     18  C   UNL     1       5.235  37.946  16.014  1.00  0.00     0.000 C 
BRANCH  18  19
ATOM     19  C   UNL     1       6.326  39.025  16.103  1.00  0.00     0.000 C 
BRANCH  19  20
ATOM     20  C   UNL     1       7.606  38.646  15.333  1.00  0.00     0.006 C 
BRANCH  20  21
ATOM     21  C   UNL     1       8.905  38.880  16.125  1.00  0.00     0.053 C 
BRANCH  21  22
ATOM     22  C   UNL     1      10.129  38.798  15.265  1.00  0.00     0.041 C 
ATOM     23  O   UNL     1      11.229  38.435  15.757  1.00  0.00    -0.550 OA
ATOM     24  O   UNL     1      10.049  39.097  13.910  1.00  0.00    -0.550 OA
ENDBRANCH  21  22
ENDBRANCH  20  21
ENDBRANCH  19  20
ENDBRANCH  18  19
ENDBRANCH  17  18
ENDBRANCH  16  17
ENDBRANCH  15  16
ENDBRANCH  14  15
ENDBRANCH  13  14
ENDBRANCH   1  13
TORSDOF 20
ENDMDL
MODEL 8
REMARK VINA RESULT:    15.771      1.526      3.239
REMARK INTER + INTRA:          34.500
REMARK INTER:                  33.578
REMARK INTRA:                   0.923
REMARK UNBOUND:                 0.289
REMARK SMILES CCCCCCCCCCCCCCCCCCCCCC(=O)[O-]
REMARK SMILES IDX 12 1 11 2 10 3 9 4 8 5 7 6 6 7 5 8 4 9 3 10 2 11 1 12 13 13
REMARK SMILES IDX 14 14 15 15 16 16 17 17 18 18 19 19 20 20 21 21 22 22 23 23
REMARK SMILES IDX 24 24
REMARK H PARENT
REMARK Flexibility Score: inf
ROOT
ATOM      1  C   UNL     1       5.288  42.495  11.010  1.00  0.00     0.000 C 
ENDROOT
BRANCH   1   2
ATOM      2  C   UNL     1       6.412  41.450  10.880  1.00  0.00     0.000 C 
BRANCH   2   3
ATOM      3  C   UNL     1       7.494  41.510  11.975  1.00  0.00     0.000 C 
BRANCH   3   4
ATOM      4  C   UNL     1       7.187  40.683  13.239  1.00  0.00    -0.000 C 
BRANCH   4   5
ATOM      5  C   UNL     1       8.189  40.932  14.376  1.00  0.00    -0.000 C 
BRANCH   5   6
ATOM      6  C   UNL     1       7.895  40.021  15.573  1.00  0.00    -0.000 C 
BRANCH   6   7
ATOM      7  C   UNL     1       7.305  38.679  15.114  1.00  0.00    -0.000 C 
BRANCH   7   8
ATOM      8  C   UNL     1       6.232  38.137  16.074  1.00  0.00    -0.000 C 
BRANCH   8   9
ATOM      9  C   UNL     1       4.873  38.859  15.953  1.00  0.00    -0.000 C 
BRANCH   9  10
ATOM     10  C   UNL     1       3.688  37.876  15.994  1.00  0.00    -0.000 C 
BRANCH  10  11
ATOM     11  C   UNL     1       2.393  38.489  15.440  1.00  0.00    -0.003 C 
ATOM     12  C   UNL     1       1.137  37.875  16.058  1.00  0.00     0.004 C 
ENDBRANCH  10  11
ENDBRANCH   9  10
ENDBRANCH   8   9
ENDBRANCH   7   8
ENDBRANCH   6   7
ENDBRANCH   5   6
ENDBRANCH   4   5
ENDBRANCH   3   4
ENDBRANCH   2   3
ENDBRANCH   1   2
BRANCH   1  13
ATOM     13  C   UNL     1       4.436  42.663   9.732  1.00  0.00     0.000 C 
BRANCH  13  14
ATOM     14  C   UNL     1       5.170  43.447   8.629  1.00  0.00     0.000 C 
BRANCH  14  15
ATOM     15  C   UNL     1       6.543  42.829   8.287  1.00  0.00     0.000 C 
BRANCH  15  16
ATOM     16  C   UNL     1       7.019  43.133   6.853  1.00  0.00     0.000 C 
BRANCH  16  17
ATOM     17  C   UNL     1       8.075  42.157   6.296  1.00  0.00     0.000 C 
BRANCH  17  18
ATOM     18  C   UNL     1       8.692  41.202   7.337  1.00  0.00     0.000 C 
BRANCH  18  19
ATOM     19  C   UNL     1       9.063  39.834   6.744  1.00  0.00     0.000 C 
BRANCH  19  20
ATOM     20  C   UNL     1       8.796  39.745   5.229  1.00  0.00     0.006 C 
BRANCH  20  21
ATOM     21  C   UNL     1       9.136  41.032   4.457  1.00  0.00     0.053 C 
BRANCH  21  22
ATOM     22  C   UNL     1       9.922  40.766   3.209  1.00  0.00     0.041 C 
ATOM     23  O   UNL     1       9.367  40.836   2.082  1.00  0.00    -0.550 OA
ATOM     24  O   UNL     1      11.277  40.466   3.291  1.00  0.00    -0.550 OA
ENDBRANCH  21  22
ENDBRANCH  20  21
ENDBRANCH  19  20
ENDBRANCH  18  19
ENDBRANCH  17  18
ENDBRANCH  16  17
ENDBRANCH  15  16
ENDBRANCH  14  15
ENDBRANCH  13  14
ENDBRANCH   1  13
TORSDOF 20
ENDMDL
