MODEL 1
REMARK VINA RESULT:    -4.033      0.000      0.000
REMARK INTER + INTRA:          -5.136
REMARK INTER:                  -4.858
REMARK INTRA:                  -0.278
REMARK UNBOUND:                -0.278
REMARK SMILES O=c1c(O)c(-c2ccc(O)c(O)c2)oc2cc(O)cc(O)c12
REMARK SMILES IDX 5 1 3 2 2 3 1 4 22 5 20 6 19 7 17 8 16 9 15 10 14 11 6 12
REMARK SMILES IDX 7 13 8 14 9 15 13 16 11 17 10 18 12 20 4 22 21 24 18 26
REMARK H PARENT 10 19 12 21 4 23 21 25 18 27
REMARK Flexibility Score: inf
ROOT
ATOM      1  C   UNL     1      23.252  47.512  87.991  1.00  0.00     0.180 A 
ATOM      2  C   UNL     1      21.995  46.884  88.086  1.00  0.00     0.208 A 
ATOM      3  C   UNL     1      20.856  47.675  88.302  1.00  0.00     0.238 A 
ATOM      4  O   UNL     1      19.723  47.125  88.378  1.00  0.00    -0.285 OA
ATOM      5  C   UNL     1      20.993  49.072  88.439  1.00  0.00     0.111 A 
ATOM      6  C   UNL     1      19.896  49.939  88.662  1.00  0.00     0.134 A 
ATOM      7  C   UNL     1      20.117  51.318  88.797  1.00  0.00     0.093 A 
ATOM      8  C   UNL     1      21.408  51.845  88.715  1.00  0.00     0.123 A 
ATOM      9  C   UNL     1      22.495  50.993  88.494  1.00  0.00     0.094 A 
ATOM     10  C   UNL     1      22.295  49.616  88.355  1.00  0.00     0.146 A 
ATOM     11  O   UNL     1      23.344  48.830  88.141  1.00  0.00    -0.452 OA
ENDROOT
BRANCH   1  12
ATOM     12  C   UNL     1      24.496  46.748  87.746  1.00  0.00     0.025 A 
ATOM     13  C   UNL     1      25.101  46.057  88.805  1.00  0.00     0.016 A 
ATOM     14  C   UNL     1      26.285  45.347  88.601  1.00  0.00     0.051 A 
ATOM     15  C   UNL     1      26.896  45.325  87.342  1.00  0.00     0.157 A 
ATOM     16  C   UNL     1      25.119  46.746  86.486  1.00  0.00     0.062 A 
ATOM     17  C   UNL     1      26.309  46.040  86.272  1.00  0.00     0.158 A 
BRANCH  15  18
ATOM     18  O   UNL     1      28.075  44.589  87.201  1.00  0.00    -0.504 OA
ATOM     19  H   UNL     1      28.896  44.925  86.719  1.00  0.00     0.293 HD
ENDBRANCH  15  18
BRANCH  17  20
ATOM     20  O   UNL     1      26.870  46.081  84.994  1.00  0.00    -0.504 OA
ATOM     21  H   UNL     1      27.690  46.620  84.754  1.00  0.00     0.293 HD
ENDBRANCH  17  20
ENDBRANCH   1  12
BRANCH   2  22
ATOM     22  O   UNL     1      21.892  45.493  87.996  1.00  0.00    -0.502 OA
ATOM     23  H   UNL     1      22.468  44.947  87.366  1.00  0.00     0.293 HD
ENDBRANCH   2  22
BRANCH   6  24
ATOM     24  O   UNL     1      18.595  49.444  88.751  1.00  0.00    -0.507 OA
ATOM     25  H   UNL     1      17.978  49.419  87.947  1.00  0.00     0.293 HD
ENDBRANCH   6  24
BRANCH   8  26
ATOM     26  O   UNL     1      21.599  53.218  88.853  1.00  0.00    -0.508 OA
ATOM     27  H   UNL     1      22.525  53.617  88.956  1.00  0.00     0.293 HD
ENDBRANCH   8  26
TORSDOF 6
ENDMDL
MODEL 2
REMARK VINA RESULT:    -3.963      0.616      1.434
REMARK INTER + INTRA:          -5.052
REMARK INTER:                  -4.755
REMARK INTRA:                  -0.297
REMARK UNBOUND:                -0.278
REMARK SMILES O=c1c(O)c(-c2ccc(O)c(O)c2)oc2cc(O)cc(O)c12
REMARK SMILES IDX 5 1 3 2 2 3 1 4 22 5 20 6 19 7 17 8 16 9 15 10 14 11 6 12
REMARK SMILES IDX 7 13 8 14 9 15 13 16 11 17 10 18 12 20 4 22 21 24 18 26
REMARK H PARENT 10 19 12 21 4 23 21 25 18 27
REMARK Flexibility Score: inf
ROOT
ATOM      1  C   UNL     1      23.414  47.556  87.738  1.00  0.00     0.180 A 
ATOM      2  C   UNL     1      22.168  46.914  87.872  1.00  0.00     0.208 A 
ATOM      3  C   UNL     1      21.033  47.689  88.160  1.00  0.00     0.238 A 
ATOM      4  O   UNL     1      19.909  47.126  88.271  1.00  0.00    -0.285 OA
ATOM      5  C   UNL     1      21.164  49.083  88.327  1.00  0.00     0.111 A 
ATOM      6  C   UNL     1      20.072  49.933  88.621  1.00  0.00     0.134 A 
ATOM      7  C   UNL     1      20.286  51.310  88.782  1.00  0.00     0.093 A 
ATOM      8  C   UNL     1      21.568  51.851  88.657  1.00  0.00     0.123 A 
ATOM      9  C   UNL     1      22.651  51.016  88.366  1.00  0.00     0.094 A 
ATOM     10  C   UNL     1      22.457  49.641  88.199  1.00  0.00     0.146 A 
ATOM     11  O   UNL     1      23.502  48.870  87.918  1.00  0.00    -0.452 OA
ENDROOT
BRANCH   1  12
ATOM     12  C   UNL     1      24.653  46.811  87.418  1.00  0.00     0.025 A 
ATOM     13  C   UNL     1      25.097  46.750  86.090  1.00  0.00     0.016 A 
ATOM     14  C   UNL     1      26.251  46.036  85.763  1.00  0.00     0.051 A 
ATOM     15  C   UNL     1      26.975  45.358  86.750  1.00  0.00     0.157 A 
ATOM     16  C   UNL     1      25.364  46.112  88.408  1.00  0.00     0.062 A 
ATOM     17  C   UNL     1      26.521  45.390  88.089  1.00  0.00     0.158 A 
BRANCH  15  18
ATOM     18  O   UNL     1      28.125  44.669  86.358  1.00  0.00    -0.504 OA
ATOM     19  H   UNL     1      28.732  44.176  86.996  1.00  0.00     0.293 HD
ENDBRANCH  15  18
BRANCH  17  20
ATOM     20  O   UNL     1      27.178  44.722  89.124  1.00  0.00    -0.504 OA
ATOM     21  H   UNL     1      27.366  45.129  90.030  1.00  0.00     0.293 HD
ENDBRANCH  17  20
ENDBRANCH   1  12
BRANCH   2  22
ATOM     22  O   UNL     1      22.073  45.525  87.751  1.00  0.00    -0.502 OA
ATOM     23  H   UNL     1      22.526  44.892  88.399  1.00  0.00     0.293 HD
ENDBRANCH   2  22
BRANCH   6  24
ATOM     24  O   UNL     1      18.780  49.424  88.754  1.00  0.00    -0.507 OA
ATOM     25  H   UNL     1      18.197  49.233  87.948  1.00  0.00     0.293 HD
ENDBRANCH   6  24
BRANCH   8  26
ATOM     26  O   UNL     1      21.754  53.222  88.822  1.00  0.00    -0.508 OA
ATOM     27  H   UNL     1      22.178  53.602  89.660  1.00  0.00     0.293 HD
ENDBRANCH   8  26
TORSDOF 6
ENDMDL
MODEL 3
REMARK VINA RESULT:    -3.755      1.407      3.087
REMARK INTER + INTRA:          -4.802
REMARK INTER:                  -4.545
REMARK INTRA:                  -0.257
REMARK UNBOUND:                -0.278
REMARK SMILES O=c1c(O)c(-c2ccc(O)c(O)c2)oc2cc(O)cc(O)c12
REMARK SMILES IDX 5 1 3 2 2 3 1 4 22 5 20 6 19 7 17 8 16 9 15 10 14 11 6 12
REMARK SMILES IDX 7 13 8 14 9 15 13 16 11 17 10 18 12 20 4 22 21 24 18 26
REMARK H PARENT 10 19 12 21 4 23 21 25 18 27
REMARK Flexibility Score: inf
ROOT
ATOM      1  C   UNL     1      24.457  48.541  87.508  1.00  0.00     0.180 A 
ATOM      2  C   UNL     1      24.890  49.879  87.583  1.00  0.00     0.208 A 
ATOM      3  C   UNL     1      23.957  50.876  87.905  1.00  0.00     0.238 A 
ATOM      4  O   UNL     1      24.335  52.077  87.985  1.00  0.00    -0.285 OA
ATOM      5  C   UNL     1      22.609  50.525  88.127  1.00  0.00     0.111 A 
ATOM      6  C   UNL     1      21.607  51.470  88.453  1.00  0.00     0.134 A 
ATOM      7  C   UNL     1      20.285  51.042  88.650  1.00  0.00     0.093 A 
ATOM      8  C   UNL     1      19.948  49.693  88.527  1.00  0.00     0.123 A 
ATOM      9  C   UNL     1      20.934  48.754  88.206  1.00  0.00     0.094 A 
ATOM     10  C   UNL     1      22.257  49.161  88.008  1.00  0.00     0.146 A 
ATOM     11  O   UNL     1      23.176  48.249  87.709  1.00  0.00    -0.452 OA
ENDROOT
BRANCH   1  12
ATOM     12  C   UNL     1      25.385  47.430  87.192  1.00  0.00     0.025 A 
ATOM     13  C   UNL     1      26.306  47.005  88.159  1.00  0.00     0.016 A 
ATOM     14  C   UNL     1      27.203  45.973  87.877  1.00  0.00     0.051 A 
ATOM     15  C   UNL     1      27.208  45.357  86.620  1.00  0.00     0.157 A 
ATOM     16  C   UNL     1      25.402  46.829  85.923  1.00  0.00     0.062 A 
ATOM     17  C   UNL     1      26.300  45.796  85.627  1.00  0.00     0.158 A 
BRANCH  15  18
ATOM     18  O   UNL     1      28.125  44.326  86.403  1.00  0.00    -0.504 OA
ATOM     19  H   UNL     1      28.819  44.037  87.076  1.00  0.00     0.293 HD
ENDBRANCH  15  18
BRANCH  17  20
ATOM     20  O   UNL     1      26.260  45.244  84.345  1.00  0.00    -0.504 OA
ATOM     21  H   UNL     1      26.317  44.253  84.155  1.00  0.00     0.293 HD
ENDBRANCH  17  20
ENDBRANCH   1  12
BRANCH   2  22
ATOM     22  O   UNL     1      26.221  50.206  87.309  1.00  0.00    -0.502 OA
ATOM     23  H   UNL     1      26.649  51.061  87.645  1.00  0.00     0.293 HD
ENDBRANCH   2  22
BRANCH   6  24
ATOM     24  O   UNL     1      21.912  52.826  88.581  1.00  0.00    -0.507 OA
ATOM     25  H   UNL     1      22.850  53.143  88.797  1.00  0.00     0.293 HD
ENDBRANCH   6  24
BRANCH   8  26
ATOM     26  O   UNL     1      18.628  49.294  88.727  1.00  0.00    -0.508 OA
ATOM     27  H   UNL     1      18.237  49.204  89.658  1.00  0.00     0.293 HD
ENDBRANCH   8  26
TORSDOF 6
ENDMDL
MODEL 4
REMARK VINA RESULT:    -3.429      3.358      5.474
REMARK INTER + INTRA:          -4.408
REMARK INTER:                  -4.154
REMARK INTRA:                  -0.254
REMARK UNBOUND:                -0.278
REMARK SMILES O=c1c(O)c(-c2ccc(O)c(O)c2)oc2cc(O)cc(O)c12
REMARK SMILES IDX 5 1 3 2 2 3 1 4 22 5 20 6 19 7 17 8 16 9 15 10 14 11 6 12
REMARK SMILES IDX 7 13 8 14 9 15 13 16 11 17 10 18 12 20 4 22 21 24 18 26
REMARK H PARENT 10 19 12 21 4 23 21 25 18 27
REMARK Flexibility Score: inf
ROOT
ATOM      1  C   UNL     1      24.510  50.034  87.542  1.00  0.00     0.180 A 
ATOM      2  C   UNL     1      25.689  50.083  86.774  1.00  0.00     0.208 A 
ATOM      3  C   UNL     1      26.358  51.310  86.637  1.00  0.00     0.238 A 
ATOM      4  O   UNL     1      27.421  51.365  85.960  1.00  0.00    -0.285 OA
ATOM      5  C   UNL     1      25.829  52.465  87.250  1.00  0.00     0.111 A 
ATOM      6  C   UNL     1      26.440  53.738  87.157  1.00  0.00     0.134 A 
ATOM      7  C   UNL     1      25.847  54.842  87.789  1.00  0.00     0.093 A 
ATOM      8  C   UNL     1      24.658  54.697  88.508  1.00  0.00     0.123 A 
ATOM      9  C   UNL     1      24.050  53.441  88.603  1.00  0.00     0.094 A 
ATOM     10  C   UNL     1      24.628  52.329  87.983  1.00  0.00     0.146 A 
ATOM     11  O   UNL     1      24.033  51.146  88.093  1.00  0.00    -0.452 OA
ENDROOT
BRANCH   1  12
ATOM     12  C   UNL     1      23.758  48.775  87.749  1.00  0.00     0.025 A 
ATOM     13  C   UNL     1      24.279  47.793  88.604  1.00  0.00     0.016 A 
ATOM     14  C   UNL     1      23.597  46.591  88.798  1.00  0.00     0.051 A 
ATOM     15  C   UNL     1      22.393  46.338  88.132  1.00  0.00     0.157 A 
ATOM     16  C   UNL     1      22.561  48.515  87.062  1.00  0.00     0.062 A 
ATOM     17  C   UNL     1      21.871  47.311  87.247  1.00  0.00     0.158 A 
BRANCH  15  18
ATOM     18  O   UNL     1      21.756  45.119  88.376  1.00  0.00    -0.504 OA
ATOM     19  H   UNL     1      20.906  45.023  88.912  1.00  0.00     0.293 HD
ENDBRANCH  15  18
BRANCH  17  20
ATOM     20  O   UNL     1      20.686  47.122  86.533  1.00  0.00    -0.504 OA
ATOM     21  H   UNL     1      20.166  47.869  86.094  1.00  0.00     0.293 HD
ENDBRANCH  17  20
ENDBRANCH   1  12
BRANCH   2  22
ATOM     22  O   UNL     1      26.165  48.935  86.136  1.00  0.00    -0.502 OA
ATOM     23  H   UNL     1      25.819  48.009  86.358  1.00  0.00     0.293 HD
ENDBRANCH   2  22
BRANCH   6  24
ATOM     24  O   UNL     1      27.627  53.917  86.445  1.00  0.00    -0.507 OA
ATOM     25  H   UNL     1      28.505  54.107  86.913  1.00  0.00     0.293 HD
ENDBRANCH   6  24
BRANCH   8  26
ATOM     26  O   UNL     1      24.089  55.809  89.125  1.00  0.00    -0.508 OA
ATOM     27  H   UNL     1      23.106  55.836  89.367  1.00  0.00     0.293 HD
ENDBRANCH   8  26
TORSDOF 6
ENDMDL
MODEL 5
REMARK VINA RESULT:    -3.415      2.094      6.887
REMARK INTER + INTRA:          -4.392
REMARK INTER:                  -4.483
REMARK INTRA:                   0.090
REMARK UNBOUND:                -0.278
REMARK SMILES O=c1c(O)c(-c2ccc(O)c(O)c2)oc2cc(O)cc(O)c12
REMARK SMILES IDX 5 1 3 2 2 3 1 4 22 5 20 6 19 7 17 8 16 9 15 10 14 11 6 12
REMARK SMILES IDX 7 13 8 14 9 15 13 16 11 17 10 18 12 20 4 22 21 24 18 26
REMARK H PARENT 10 19 12 21 4 23 21 25 18 27
REMARK Flexibility Score: inf
ROOT
ATOM      1  C   UNL     1      23.057  49.554  87.758  1.00  0.00     0.180 A 
ATOM      2  C   UNL     1      23.243  48.251  88.260  1.00  0.00     0.208 A 
ATOM      3  C   UNL     1      24.411  47.552  87.917  1.00  0.00     0.238 A 
ATOM      4  O   UNL     1      24.594  46.389  88.370  1.00  0.00    -0.285 OA
ATOM      5  C   UNL     1      25.360  48.156  87.066  1.00  0.00     0.111 A 
ATOM      6  C   UNL     1      26.560  47.518  86.670  1.00  0.00     0.134 A 
ATOM      7  C   UNL     1      27.450  48.183  85.813  1.00  0.00     0.093 A 
ATOM      8  C   UNL     1      27.164  49.467  85.344  1.00  0.00     0.123 A 
ATOM      9  C   UNL     1      25.980  50.102  85.733  1.00  0.00     0.094 A 
ATOM     10  C   UNL     1      25.081  49.457  86.588  1.00  0.00     0.146 A 
ATOM     11  O   UNL     1      23.966  50.085  86.946  1.00  0.00    -0.452 OA
ENDROOT
BRANCH   1  12
ATOM     12  C   UNL     1      21.861  50.361  88.090  1.00  0.00     0.025 A 
ATOM     13  C   UNL     1      22.019  51.697  88.485  1.00  0.00     0.016 A 
ATOM     14  C   UNL     1      20.907  52.471  88.821  1.00  0.00     0.051 A 
ATOM     15  C   UNL     1      19.619  51.924  88.785  1.00  0.00     0.157 A 
ATOM     16  C   UNL     1      20.572  49.803  88.074  1.00  0.00     0.062 A 
ATOM     17  C   UNL     1      19.450  50.569  88.413  1.00  0.00     0.158 A 
BRANCH  15  18
ATOM     18  O   UNL     1      18.548  52.753  89.125  1.00  0.00    -0.504 OA
ATOM     19  H   UNL     1      17.833  52.506  89.794  1.00  0.00     0.293 HD
ENDBRANCH  15  18
BRANCH  17  20
ATOM     20  O   UNL     1      18.200  49.948  88.373  1.00  0.00    -0.504 OA
ATOM     21  H   UNL     1      17.334  50.435  88.191  1.00  0.00     0.293 HD
ENDBRANCH  17  20
ENDBRANCH   1  12
BRANCH   2  22
ATOM     22  O   UNL     1      22.265  47.657  89.061  1.00  0.00    -0.502 OA
ATOM     23  H   UNL     1      21.904  46.728  88.878  1.00  0.00     0.293 HD
ENDBRANCH   2  22
BRANCH   6  24
ATOM     24  O   UNL     1      26.875  46.236  87.120  1.00  0.00    -0.507 OA
ATOM     25  H   UNL     1      26.522  45.407  86.655  1.00  0.00     0.293 HD
ENDBRANCH   6  24
BRANCH   8  26
ATOM     26  O   UNL     1      28.064  50.104  84.493  1.00  0.00    -0.508 OA
ATOM     27  H   UNL     1      28.058  49.937  83.494  1.00  0.00     0.293 HD
ENDBRANCH   8  26
TORSDOF 6
ENDMDL
MODEL 6
REMARK VINA RESULT:    -3.302      2.021      7.153
REMARK INTER + INTRA:          -4.255
REMARK INTER:                  -4.313
REMARK INTRA:                   0.058
REMARK UNBOUND:                -0.278
REMARK SMILES O=c1c(O)c(-c2ccc(O)c(O)c2)oc2cc(O)cc(O)c12
REMARK SMILES IDX 5 1 3 2 2 3 1 4 22 5 20 6 19 7 17 8 16 9 15 10 14 11 6 12
REMARK SMILES IDX 7 13 8 14 9 15 13 16 11 17 10 18 12 20 4 22 21 24 18 26
REMARK H PARENT 10 19 12 21 4 23 21 25 18 27
REMARK Flexibility Score: inf
ROOT
ATOM      1  C   UNL     1      23.132  49.273  87.514  1.00  0.00     0.180 A 
ATOM      2  C   UNL     1      24.005  50.372  87.630  1.00  0.00     0.208 A 
ATOM      3  C   UNL     1      25.332  50.233  87.195  1.00  0.00     0.238 A 
ATOM      4  O   UNL     1      26.120  51.214  87.284  1.00  0.00    -0.285 OA
ATOM      5  C   UNL     1      25.769  48.998  86.672  1.00  0.00     0.111 A 
ATOM      6  C   UNL     1      27.090  48.776  86.215  1.00  0.00     0.134 A 
ATOM      7  C   UNL     1      27.449  47.514  85.716  1.00  0.00     0.093 A 
ATOM      8  C   UNL     1      26.517  46.476  85.665  1.00  0.00     0.123 A 
ATOM      9  C   UNL     1      25.210  46.691  86.115  1.00  0.00     0.094 A 
ATOM     10  C   UNL     1      24.832  47.941  86.613  1.00  0.00     0.146 A 
ATOM     11  O   UNL     1      23.583  48.120  87.029  1.00  0.00    -0.452 OA
ENDROOT
BRANCH   1  12
ATOM     12  C   UNL     1      21.714  49.347  87.933  1.00  0.00     0.025 A 
ATOM     13  C   UNL     1      21.138  48.264  88.613  1.00  0.00     0.016 A 
ATOM     14  C   UNL     1      19.798  48.304  89.000  1.00  0.00     0.051 A 
ATOM     15  C   UNL     1      19.002  49.416  88.703  1.00  0.00     0.157 A 
ATOM     16  C   UNL     1      20.912  50.455  87.613  1.00  0.00     0.062 A 
ATOM     17  C   UNL     1      19.565  50.503  87.994  1.00  0.00     0.158 A 
BRANCH  15  18
ATOM     18  O   UNL     1      17.671  49.397  89.125  1.00  0.00    -0.504 OA
ATOM     19  H   UNL     1      17.327  48.825  89.882  1.00  0.00     0.293 HD
ENDBRANCH  15  18
BRANCH  17  20
ATOM     20  O   UNL     1      18.829  51.638  87.644  1.00  0.00    -0.504 OA
ATOM     21  H   UNL     1      19.243  52.506  87.336  1.00  0.00     0.293 HD
ENDBRANCH  17  20
ENDBRANCH   1  12
BRANCH   2  22
ATOM     22  O   UNL     1      23.560  51.568  88.198  1.00  0.00    -0.502 OA
ATOM     23  H   UNL     1      23.515  52.434  87.673  1.00  0.00     0.293 HD
ENDBRANCH   2  22
BRANCH   6  24
ATOM     24  O   UNL     1      28.045  49.792  86.253  1.00  0.00    -0.507 OA
ATOM     25  H   UNL     1      27.947  50.592  86.867  1.00  0.00     0.293 HD
ENDBRANCH   6  24
BRANCH   8  26
ATOM     26  O   UNL     1      26.901  45.233  85.165  1.00  0.00    -0.508 OA
ATOM     27  H   UNL     1      26.827  45.013  84.179  1.00  0.00     0.293 HD
ENDBRANCH   8  26
TORSDOF 6
ENDMDL
MODEL 7
REMARK VINA RESULT:    -3.210      1.236      2.940
REMARK INTER + INTRA:          -4.145
REMARK INTER:                  -3.826
REMARK INTRA:                  -0.319
REMARK UNBOUND:                -0.278
REMARK SMILES O=c1c(O)c(-c2ccc(O)c(O)c2)oc2cc(O)cc(O)c12
REMARK SMILES IDX 5 1 3 2 2 3 1 4 22 5 20 6 19 7 17 8 16 9 15 10 14 11 6 12
REMARK SMILES IDX 7 13 8 14 9 15 13 16 11 17 10 18 12 20 4 22 21 24 18 26
REMARK H PARENT 10 19 12 21 4 23 21 25 18 27
REMARK Flexibility Score: inf
ROOT
ATOM      1  C   UNL     1      23.413  47.904  88.012  1.00  0.00     0.180 A 
ATOM      2  C   UNL     1      23.452  49.309  88.110  1.00  0.00     0.208 A 
ATOM      3  C   UNL     1      22.271  49.999  88.425  1.00  0.00     0.238 A 
ATOM      4  O   UNL     1      22.296  51.257  88.526  1.00  0.00    -0.285 OA
ATOM      5  C   UNL     1      21.072  49.281  88.617  1.00  0.00     0.111 A 
ATOM      6  C   UNL     1      19.841  49.902  88.934  1.00  0.00     0.134 A 
ATOM      7  C   UNL     1      18.689  49.118  89.100  1.00  0.00     0.093 A 
ATOM      8  C   UNL     1      18.745  47.730  88.955  1.00  0.00     0.123 A 
ATOM      9  C   UNL     1      19.960  47.111  88.643  1.00  0.00     0.094 A 
ATOM     10  C   UNL     1      21.119  47.875  88.475  1.00  0.00     0.146 A 
ATOM     11  O   UNL     1      22.261  47.262  88.184  1.00  0.00    -0.452 OA
ENDROOT
BRANCH   1  12
ATOM     12  C   UNL     1      24.619  47.104  87.702  1.00  0.00     0.025 A 
ATOM     13  C   UNL     1      25.490  46.740  88.737  1.00  0.00     0.016 A 
ATOM     14  C   UNL     1      26.643  46.002  88.465  1.00  0.00     0.051 A 
ATOM     15  C   UNL     1      26.957  45.627  87.154  1.00  0.00     0.157 A 
ATOM     16  C   UNL     1      24.942  46.747  86.382  1.00  0.00     0.062 A 
ATOM     17  C   UNL     1      26.099  46.010  86.097  1.00  0.00     0.158 A 
BRANCH  15  18
ATOM     18  O   UNL     1      28.122  44.883  86.949  1.00  0.00    -0.504 OA
ATOM     19  H   UNL     1      28.274  43.958  87.325  1.00  0.00     0.293 HD
ENDBRANCH  15  18
BRANCH  17  20
ATOM     20  O   UNL     1      26.356  45.690  84.763  1.00  0.00    -0.504 OA
ATOM     21  H   UNL     1      27.011  46.190  84.178  1.00  0.00     0.293 HD
ENDBRANCH  17  20
ENDBRANCH   1  12
BRANCH   2  22
ATOM     22  O   UNL     1      24.641  50.000  87.866  1.00  0.00    -0.502 OA
ATOM     23  H   UNL     1      25.401  50.023  88.536  1.00  0.00     0.293 HD
ENDBRANCH   2  22
BRANCH   6  24
ATOM     24  O   UNL     1      19.751  51.286  89.084  1.00  0.00    -0.507 OA
ATOM     25  H   UNL     1      19.221  51.859  88.437  1.00  0.00     0.293 HD
ENDBRANCH   6  24
BRANCH   8  26
ATOM     26  O   UNL     1      17.587  46.974  89.125  1.00  0.00    -0.508 OA
ATOM     27  H   UNL     1      17.083  46.967  90.004  1.00  0.00     0.293 HD
ENDBRANCH   8  26
TORSDOF 6
ENDMDL
MODEL 8
REMARK VINA RESULT:    -3.198      2.865      3.200
REMARK INTER + INTRA:          -4.131
REMARK INTER:                  -3.799
REMARK INTRA:                  -0.332
REMARK UNBOUND:                -0.278
REMARK SMILES O=c1c(O)c(-c2ccc(O)c(O)c2)oc2cc(O)cc(O)c12
REMARK SMILES IDX 5 1 3 2 2 3 1 4 22 5 20 6 19 7 17 8 16 9 15 10 14 11 6 12
REMARK SMILES IDX 7 13 8 14 9 15 13 16 11 17 10 18 12 20 4 22 21 24 18 26
REMARK H PARENT 10 19 12 21 4 23 21 25 18 27
REMARK Flexibility Score: inf
ROOT
ATOM      1  C   UNL     1      22.552  49.701  88.289  1.00  0.00     0.180 A 
ATOM      2  C   UNL     1      21.976  48.422  88.421  1.00  0.00     0.208 A 
ATOM      3  C   UNL     1      20.595  48.320  88.651  1.00  0.00     0.238 A 
ATOM      4  O   UNL     1      20.067  47.179  88.759  1.00  0.00    -0.285 OA
ATOM      5  C   UNL     1      19.819  49.491  88.766  1.00  0.00     0.111 A 
ATOM      6  C   UNL     1      18.423  49.474  89.000  1.00  0.00     0.134 A 
ATOM      7  C   UNL     1      17.722  50.685  89.112  1.00  0.00     0.093 A 
ATOM      8  C   UNL     1      18.387  51.907  88.994  1.00  0.00     0.123 A 
ATOM      9  C   UNL     1      19.767  51.929  88.760  1.00  0.00     0.094 A 
ATOM     10  C   UNL     1      20.482  50.734  88.645  1.00  0.00     0.146 A 
ATOM     11  O   UNL     1      21.790  50.783  88.419  1.00  0.00    -0.452 OA
ENDROOT
BRANCH   1  12
ATOM     12  C   UNL     1      23.996  49.891  88.027  1.00  0.00     0.025 A 
ATOM     13  C   UNL     1      24.870  50.103  89.102  1.00  0.00     0.016 A 
ATOM     14  C   UNL     1      26.233  50.303  88.877  1.00  0.00     0.051 A 
ATOM     15  C   UNL     1      26.747  50.312  87.576  1.00  0.00     0.157 A 
ATOM     16  C   UNL     1      24.506  49.921  86.718  1.00  0.00     0.062 A 
ATOM     17  C   UNL     1      25.871  50.125  86.481  1.00  0.00     0.158 A 
BRANCH  15  18
ATOM     18  O   UNL     1      28.121  50.511  87.418  1.00  0.00    -0.504 OA
ATOM     19  H   UNL     1      28.759  50.677  88.183  1.00  0.00     0.293 HD
ENDBRANCH  15  18
BRANCH  17  20
ATOM     20  O   UNL     1      26.306  50.142  85.154  1.00  0.00    -0.504 OA
ATOM     21  H   UNL     1      27.030  50.754  84.805  1.00  0.00     0.293 HD
ENDBRANCH  17  20
ENDBRANCH   1  12
BRANCH   2  22
ATOM     22  O   UNL     1      22.776  47.279  88.353  1.00  0.00    -0.502 OA
ATOM     23  H   UNL     1      23.301  46.936  89.149  1.00  0.00     0.293 HD
ENDBRANCH   2  22
BRANCH   6  24
ATOM     24  O   UNL     1      17.730  48.270  89.125  1.00  0.00    -0.507 OA
ATOM     25  H   UNL     1      18.173  47.435  89.488  1.00  0.00     0.293 HD
ENDBRANCH   6  24
BRANCH   8  26
ATOM     26  O   UNL     1      17.668  53.094  89.108  1.00  0.00    -0.508 OA
ATOM     27  H   UNL     1      18.101  53.995  88.943  1.00  0.00     0.293 HD
ENDBRANCH   8  26
TORSDOF 6
ENDMDL
MODEL 9
REMARK VINA RESULT:    -3.091      2.720      7.205
REMARK INTER + INTRA:          -4.002
REMARK INTER:                  -3.907
REMARK INTRA:                  -0.094
REMARK UNBOUND:                -0.278
REMARK SMILES O=c1c(O)c(-c2ccc(O)c(O)c2)oc2cc(O)cc(O)c12
REMARK SMILES IDX 5 1 3 2 2 3 1 4 22 5 20 6 19 7 17 8 16 9 15 10 14 11 6 12
REMARK SMILES IDX 7 13 8 14 9 15 13 16 11 17 10 18 12 20 4 22 21 24 18 26
REMARK H PARENT 10 19 12 21 4 23 21 25 18 27
REMARK Flexibility Score: inf
ROOT
ATOM      1  C   UNL     1      22.962  50.728  87.934  1.00  0.00     0.180 A 
ATOM      2  C   UNL     1      23.504  51.961  88.345  1.00  0.00     0.208 A 
ATOM      3  C   UNL     1      24.837  52.259  88.020  1.00  0.00     0.238 A 
ATOM      4  O   UNL     1      25.329  53.365  88.373  1.00  0.00    -0.285 OA
ATOM      5  C   UNL     1      25.609  51.315  87.312  1.00  0.00     0.111 A 
ATOM      6  C   UNL     1      26.959  51.537  86.949  1.00  0.00     0.134 A 
ATOM      7  C   UNL     1      27.663  50.543  86.251  1.00  0.00     0.093 A 
ATOM      8  C   UNL     1      27.046  49.337  85.912  1.00  0.00     0.123 A 
ATOM      9  C   UNL     1      25.712  49.114  86.267  1.00  0.00     0.094 A 
ATOM     10  C   UNL     1      24.993  50.092  86.960  1.00  0.00     0.146 A 
ATOM     11  O   UNL     1      23.725  49.856  87.281  1.00  0.00    -0.452 OA
ENDROOT
BRANCH   1  12
ATOM     12  C   UNL     1      21.560  50.349  88.222  1.00  0.00     0.025 A 
ATOM     13  C   UNL     1      21.292  49.131  88.861  1.00  0.00     0.016 A 
ATOM     14  C   UNL     1      19.977  48.745  89.125  1.00  0.00     0.051 A 
ATOM     15  C   UNL     1      18.904  49.558  88.743  1.00  0.00     0.157 A 
ATOM     16  C   UNL     1      20.485  51.158  87.817  1.00  0.00     0.062 A 
ATOM     17  C   UNL     1      19.161  50.778  88.074  1.00  0.00     0.158 A 
BRANCH  15  18
ATOM     18  O   UNL     1      17.613  49.119  89.042  1.00  0.00    -0.504 OA
ATOM     19  H   UNL     1      17.287  48.176  88.886  1.00  0.00     0.293 HD
ENDBRANCH  15  18
BRANCH  17  20
ATOM     20  O   UNL     1      18.144  51.632  87.645  1.00  0.00    -0.504 OA
ATOM     21  H   UNL     1      18.109  52.053  86.727  1.00  0.00     0.293 HD
ENDBRANCH  17  20
ENDBRANCH   1  12
BRANCH   2  22
ATOM     22  O   UNL     1      22.732  52.858  89.089  1.00  0.00    -0.502 OA
ATOM     23  H   UNL     1      23.030  53.210  89.991  1.00  0.00     0.293 HD
ENDBRANCH   2  22
BRANCH   6  24
ATOM     24  O   UNL     1      27.605  52.730  87.275  1.00  0.00    -0.507 OA
ATOM     25  H   UNL     1      28.222  52.800  88.075  1.00  0.00     0.293 HD
ENDBRANCH   6  24
BRANCH   8  26
ATOM     26  O   UNL     1      27.768  48.368  85.219  1.00  0.00    -0.508 OA
ATOM     27  H   UNL     1      28.130  47.544  85.684  1.00  0.00     0.293 HD
ENDBRANCH   8  26
TORSDOF 6
ENDMDL
