MODEL 1
REMARK VINA RESULT:    -3.734      0.000      0.000
REMARK INTER + INTRA:          -6.420
REMARK INTER:                  -5.699
REMARK INTRA:                  -0.721
REMARK UNBOUND:                -0.721
REMARK SMILES CCCCCCCCCCC(=O)[O-]
REMARK SMILES IDX 7 1 8 2 9 3 10 4 11 5 12 6 13 7 6 8 5 9 4 10 3 11 2 12 1 13
REMARK H PARENT
REMARK Flexibility Score: inf
ROOT
ATOM      1  C   UNL     1     -15.752  44.091  -7.297  1.00  0.00     0.000 C 
ENDROOT
BRANCH   1   2
ATOM      2  C   UNL     1     -17.004  43.570  -6.572  1.00  0.00     0.000 C 
BRANCH   2   3
ATOM      3  C   UNL     1     -16.733  43.209  -5.100  1.00  0.00     0.006 C 
BRANCH   3   4
ATOM      4  C   UNL     1     -17.737  42.217  -4.492  1.00  0.00     0.053 C 
BRANCH   4   5
ATOM      5  C   UNL     1     -18.785  42.908  -3.674  1.00  0.00     0.041 C 
ATOM      6  O   UNL     1     -19.060  44.118  -3.888  1.00  0.00    -0.550 OA
ATOM      7  O   UNL     1     -19.435  42.224  -2.654  1.00  0.00    -0.550 OA
ENDBRANCH   4   5
ENDBRANCH   3   4
ENDBRANCH   2   3
ENDBRANCH   1   2
BRANCH   1   8
ATOM      8  C   UNL     1     -16.077  44.708  -8.667  1.00  0.00     0.000 C 
BRANCH   8   9
ATOM      9  C   UNL     1     -17.438  45.418  -8.692  1.00  0.00    -0.000 C 
BRANCH   9  10
ATOM     10  C   UNL     1     -18.029  45.424 -10.110  1.00  0.00    -0.000 C 
BRANCH  10  11
ATOM     11  C   UNL     1     -19.371  44.677 -10.204  1.00  0.00    -0.000 C 
BRANCH  11  12
ATOM     12  C   UNL     1     -19.453  43.384  -9.371  1.00  0.00    -0.003 C 
ATOM     13  C   UNL     1     -18.707  42.213 -10.009  1.00  0.00     0.004 C 
ENDBRANCH  11  12
ENDBRANCH  10  11
ENDBRANCH   9  10
ENDBRANCH   8   9
ENDBRANCH   1   8
TORSDOF 9
ENDMDL
MODEL 2
REMARK VINA RESULT:    -3.714      0.941      1.414
REMARK INTER + INTRA:          -6.389
REMARK INTER:                  -5.701
REMARK INTRA:                  -0.688
REMARK UNBOUND:                -0.721
REMARK SMILES CCCCCCCCCCC(=O)[O-]
REMARK SMILES IDX 7 1 8 2 9 3 10 4 11 5 12 6 13 7 6 8 5 9 4 10 3 11 2 12 1 13
REMARK H PARENT
REMARK Flexibility Score: inf
ROOT
ATOM      1  C   UNL     1     -15.651  44.071  -7.273  1.00  0.00     0.000 C 
ENDROOT
BRANCH   1   2
ATOM      2  C   UNL     1     -16.084  43.701  -5.844  1.00  0.00     0.000 C 
BRANCH   2   3
ATOM      3  C   UNL     1     -17.523  43.156  -5.780  1.00  0.00     0.006 C 
BRANCH   3   4
ATOM      4  C   UNL     1     -17.807  42.250  -4.572  1.00  0.00     0.053 C 
BRANCH   4   5
ATOM      5  C   UNL     1     -18.717  42.906  -3.579  1.00  0.00     0.041 C 
ATOM      6  O   UNL     1     -18.677  44.153  -3.409  1.00  0.00    -0.550 OA
ATOM      7  O   UNL     1     -19.587  42.135  -2.816  1.00  0.00    -0.550 OA
ENDBRANCH   4   5
ENDBRANCH   3   4
ENDBRANCH   2   3
ENDBRANCH   1   2
BRANCH   1   8
ATOM      8  C   UNL     1     -16.847  44.336  -8.202  1.00  0.00     0.000 C 
BRANCH   8   9
ATOM      9  C   UNL     1     -16.507  44.119  -9.684  1.00  0.00    -0.000 C 
BRANCH   9  10
ATOM     10  C   UNL     1     -17.522  43.177 -10.348  1.00  0.00    -0.000 C 
BRANCH  10  11
ATOM     11  C   UNL     1     -18.726  42.859  -9.445  1.00  0.00    -0.000 C 
BRANCH  11  12
ATOM     12  C   UNL     1     -20.061  43.477  -9.901  1.00  0.00    -0.003 C 
ATOM     13  C   UNL     1     -19.878  44.720 -10.770  1.00  0.00     0.004 C 
ENDBRANCH  11  12
ENDBRANCH  10  11
ENDBRANCH   9  10
ENDBRANCH   8   9
ENDBRANCH   1   8
TORSDOF 9
ENDMDL
MODEL 3
REMARK VINA RESULT:    -3.514      1.247      2.540
REMARK INTER + INTRA:          -6.084
REMARK INTER:                  -5.148
REMARK INTRA:                  -0.936
REMARK UNBOUND:                -0.721
REMARK SMILES CCCCCCCCCCC(=O)[O-]
REMARK SMILES IDX 7 1 8 2 9 3 10 4 11 5 12 6 13 7 6 8 5 9 4 10 3 11 2 12 1 13
REMARK H PARENT
REMARK Flexibility Score: inf
ROOT
ATOM      1  C   UNL     1     -18.654  44.550  -7.362  1.00  0.00     0.000 C 
ENDROOT
BRANCH   1   2
ATOM      2  C   UNL     1     -17.763  43.348  -7.007  1.00  0.00     0.000 C 
BRANCH   2   3
ATOM      3  C   UNL     1     -17.270  43.383  -5.549  1.00  0.00     0.006 C 
BRANCH   3   4
ATOM      4  C   UNL     1     -17.909  42.326  -4.635  1.00  0.00     0.053 C 
BRANCH   4   5
ATOM      5  C   UNL     1     -18.802  42.941  -3.601  1.00  0.00     0.041 C 
ATOM      6  O   UNL     1     -19.338  42.221  -2.718  1.00  0.00    -0.550 OA
ATOM      7  O   UNL     1     -19.069  44.304  -3.634  1.00  0.00    -0.550 OA
ENDBRANCH   4   5
ENDBRANCH   3   4
ENDBRANCH   2   3
ENDBRANCH   1   2
BRANCH   1   8
ATOM      8  C   UNL     1     -19.386  44.367  -8.702  1.00  0.00     0.000 C 
BRANCH   8   9
ATOM      9  C   UNL     1     -19.273  42.937  -9.251  1.00  0.00    -0.000 C 
BRANCH   9  10
ATOM     10  C   UNL     1     -18.755  42.943 -10.697  1.00  0.00    -0.000 C 
BRANCH  10  11
ATOM     11  C   UNL     1     -17.228  42.774 -10.789  1.00  0.00    -0.000 C 
BRANCH  11  12
ATOM     12  C   UNL     1     -16.440  44.084 -10.974  1.00  0.00    -0.003 C 
ATOM     13  C   UNL     1     -15.597  44.452  -9.755  1.00  0.00     0.004 C 
ENDBRANCH  11  12
ENDBRANCH  10  11
ENDBRANCH   9  10
ENDBRANCH   8   9
ENDBRANCH   1   8
TORSDOF 9
ENDMDL
MODEL 4
REMARK VINA RESULT:    -3.508      3.217      5.610
REMARK INTER + INTRA:          -6.076
REMARK INTER:                  -5.489
REMARK INTRA:                  -0.587
REMARK UNBOUND:                -0.721
REMARK SMILES CCCCCCCCCCC(=O)[O-]
REMARK SMILES IDX 7 1 8 2 9 3 10 4 11 5 12 6 13 7 6 8 5 9 4 10 3 11 2 12 1 13
REMARK H PARENT
REMARK Flexibility Score: inf
ROOT
ATOM      1  C   UNL     1     -16.801  44.153  -8.055  1.00  0.00     0.000 C 
ENDROOT
BRANCH   1   2
ATOM      2  C   UNL     1     -16.248  44.125  -9.490  1.00  0.00     0.000 C 
BRANCH   2   3
ATOM      3  C   UNL     1     -17.194  43.418 -10.479  1.00  0.00     0.006 C 
BRANCH   3   4
ATOM      4  C   UNL     1     -18.597  43.131  -9.922  1.00  0.00     0.053 C 
BRANCH   4   5
ATOM      5  C   UNL     1     -19.652  43.949 -10.602  1.00  0.00     0.041 C 
ATOM      6  O   UNL     1     -19.532  45.201 -10.677  1.00  0.00    -0.550 OA
ATOM      7  O   UNL     1     -20.783  43.334 -11.124  1.00  0.00    -0.550 OA
ENDBRANCH   4   5
ENDBRANCH   3   4
ENDBRANCH   2   3
ENDBRANCH   1   2
BRANCH   1   8
ATOM      8  C   UNL     1     -15.690  44.108  -6.993  1.00  0.00     0.000 C 
BRANCH   8   9
ATOM      9  C   UNL     1     -16.117  43.370  -5.716  1.00  0.00    -0.000 C 
BRANCH   9  10
ATOM     10  C   UNL     1     -17.633  43.122  -5.707  1.00  0.00    -0.000 C 
BRANCH  10  11
ATOM     11  C   UNL     1     -18.047  41.970  -4.774  1.00  0.00    -0.000 C 
BRANCH  11  12
ATOM     12  C   UNL     1     -18.647  42.411  -3.426  1.00  0.00    -0.003 C 
ATOM     13  C   UNL     1     -18.894  43.916  -3.346  1.00  0.00     0.004 C 
ENDBRANCH  11  12
ENDBRANCH  10  11
ENDBRANCH   9  10
ENDBRANCH   8   9
ENDBRANCH   1   8
TORSDOF 9
ENDMDL
MODEL 5
REMARK VINA RESULT:    -3.411      3.394      6.111
REMARK INTER + INTRA:          -5.926
REMARK INTER:                  -5.222
REMARK INTRA:                  -0.704
REMARK UNBOUND:                -0.721
REMARK SMILES CCCCCCCCCCC(=O)[O-]
REMARK SMILES IDX 7 1 8 2 9 3 10 4 11 5 12 6 13 7 6 8 5 9 4 10 3 11 2 12 1 13
REMARK H PARENT
REMARK Flexibility Score: inf
ROOT
ATOM      1  C   UNL     1     -18.606  43.259  -8.579  1.00  0.00     0.000 C 
ENDROOT
BRANCH   1   2
ATOM      2  C   UNL     1     -19.585  44.087  -9.430  1.00  0.00     0.000 C 
BRANCH   2   3
ATOM      3  C   UNL     1     -18.947  44.612 -10.730  1.00  0.00     0.006 C 
BRANCH   3   4
ATOM      4  C   UNL     1     -18.295  45.997 -10.605  1.00  0.00     0.053 C 
BRANCH   4   5
ATOM      5  C   UNL     1     -16.800  45.925 -10.666  1.00  0.00     0.041 C 
ATOM      6  O   UNL     1     -16.218  44.809 -10.622  1.00  0.00    -0.550 OA
ATOM      7  O   UNL     1     -16.049  47.091 -10.737  1.00  0.00    -0.550 OA
ENDBRANCH   4   5
ENDBRANCH   3   4
ENDBRANCH   2   3
ENDBRANCH   1   2
BRANCH   1   8
ATOM      8  C   UNL     1     -18.106  44.025  -7.344  1.00  0.00     0.000 C 
BRANCH   8   9
ATOM      9  C   UNL     1     -16.584  43.930  -7.162  1.00  0.00    -0.000 C 
BRANCH   9  10
ATOM     10  C   UNL     1     -16.228  43.468  -5.741  1.00  0.00    -0.000 C 
BRANCH  10  11
ATOM     11  C   UNL     1     -17.324  42.599  -5.100  1.00  0.00    -0.000 C 
BRANCH  11  12
ATOM     12  C   UNL     1     -17.748  43.030  -3.684  1.00  0.00    -0.003 C 
ATOM     13  C   UNL     1     -19.136  42.524  -3.295  1.00  0.00     0.004 C 
ENDBRANCH  11  12
ENDBRANCH  10  11
ENDBRANCH   9  10
ENDBRANCH   8   9
ENDBRANCH   1   8
TORSDOF 9
ENDMDL
MODEL 6
REMARK VINA RESULT:    -3.335      3.057      5.471
REMARK INTER + INTRA:          -5.810
REMARK INTER:                  -4.926
REMARK INTRA:                  -0.884
REMARK UNBOUND:                -0.721
REMARK SMILES CCCCCCCCCCC(=O)[O-]
REMARK SMILES IDX 7 1 8 2 9 3 10 4 11 5 12 6 13 7 6 8 5 9 4 10 3 11 2 12 1 13
REMARK H PARENT
REMARK Flexibility Score: inf
ROOT
ATOM      1  C   UNL     1     -18.856  42.928  -9.100  1.00  0.00     0.000 C 
ENDROOT
BRANCH   1   2
ATOM      2  C   UNL     1     -18.292  42.936 -10.531  1.00  0.00     0.000 C 
BRANCH   2   3
ATOM      3  C   UNL     1     -17.482  44.208 -10.844  1.00  0.00     0.006 C 
BRANCH   3   4
ATOM      4  C   UNL     1     -15.978  44.094 -10.549  1.00  0.00     0.053 C 
BRANCH   4   5
ATOM      5  C   UNL     1     -15.577  44.899  -9.351  1.00  0.00     0.041 C 
ATOM      6  O   UNL     1     -16.083  46.034  -9.152  1.00  0.00    -0.550 OA
ATOM      7  O   UNL     1     -14.619  44.409  -8.472  1.00  0.00    -0.550 OA
ENDBRANCH   4   5
ENDBRANCH   3   4
ENDBRANCH   2   3
ENDBRANCH   1   2
BRANCH   1   8
ATOM      8  C   UNL     1     -19.233  44.334  -8.606  1.00  0.00     0.000 C 
BRANCH   8   9
ATOM      9  C   UNL     1     -18.900  44.552  -7.123  1.00  0.00    -0.000 C 
BRANCH   9  10
ATOM     10  C   UNL     1     -17.670  43.730  -6.709  1.00  0.00    -0.000 C 
BRANCH  10  11
ATOM     11  C   UNL     1     -17.863  42.988  -5.375  1.00  0.00    -0.000 C 
BRANCH  11  12
ATOM     12  C   UNL     1     -18.795  43.692  -4.371  1.00  0.00    -0.003 C 
ATOM     13  C   UNL     1     -19.225  42.787  -3.219  1.00  0.00     0.004 C 
ENDBRANCH  11  12
ENDBRANCH  10  11
ENDBRANCH   9  10
ENDBRANCH   8   9
ENDBRANCH   1   8
TORSDOF 9
ENDMDL
MODEL 7
REMARK VINA RESULT:    -3.314      1.488      2.921
REMARK INTER + INTRA:          -5.779
REMARK INTER:                  -4.700
REMARK INTRA:                  -1.079
REMARK UNBOUND:                -0.721
REMARK SMILES CCCCCCCCCCC(=O)[O-]
REMARK SMILES IDX 7 1 8 2 9 3 10 4 11 5 12 6 13 7 6 8 5 9 4 10 3 11 2 12 1 13
REMARK H PARENT
REMARK Flexibility Score: inf
ROOT
ATOM      1  C   UNL     1     -19.080  44.432  -8.624  1.00  0.00     0.000 C 
ENDROOT
BRANCH   1   2
ATOM      2  C   UNL     1     -18.946  44.494  -7.093  1.00  0.00     0.000 C 
BRANCH   2   3
ATOM      3  C   UNL     1     -17.714  43.731  -6.572  1.00  0.00     0.006 C 
BRANCH   3   4
ATOM      4  C   UNL     1     -18.008  42.756  -5.421  1.00  0.00     0.053 C 
BRANCH   4   5
ATOM      5  C   UNL     1     -17.743  43.371  -4.081  1.00  0.00     0.041 C 
ATOM      6  O   UNL     1     -16.592  43.312  -3.573  1.00  0.00    -0.550 OA
ATOM      7  O   UNL     1     -18.775  43.980  -3.378  1.00  0.00    -0.550 OA
ENDBRANCH   4   5
ENDBRANCH   3   4
ENDBRANCH   2   3
ENDBRANCH   1   2
BRANCH   1   8
ATOM      8  C   UNL     1     -18.965  43.000  -9.170  1.00  0.00     0.000 C 
BRANCH   8   9
ATOM      9  C   UNL     1     -17.841  42.847 -10.205  1.00  0.00    -0.000 C 
BRANCH   9  10
ATOM     10  C   UNL     1     -17.601  44.167 -10.954  1.00  0.00    -0.000 C 
BRANCH  10  11
ATOM     11  C   UNL     1     -16.137  44.637 -10.889  1.00  0.00    -0.000 C 
BRANCH  11  12
ATOM     12  C   UNL     1     -15.514  44.623  -9.482  1.00  0.00    -0.003 C 
ATOM     13  C   UNL     1     -15.637  45.963  -8.759  1.00  0.00     0.004 C 
ENDBRANCH  11  12
ENDBRANCH  10  11
ENDBRANCH   9  10
ENDBRANCH   8   9
ENDBRANCH   1   8
TORSDOF 9
ENDMDL
MODEL 8
REMARK VINA RESULT:    -3.284      3.596      6.049
REMARK INTER + INTRA:          -5.732
REMARK INTER:                  -5.263
REMARK INTRA:                  -0.469
REMARK UNBOUND:                -0.721
REMARK SMILES CCCCCCCCCCC(=O)[O-]
REMARK SMILES IDX 7 1 8 2 9 3 10 4 11 5 12 6 13 7 6 8 5 9 4 10 3 11 2 12 1 13
REMARK H PARENT
REMARK Flexibility Score: inf
ROOT
ATOM      1  C   UNL     1     -15.681  44.144  -7.622  1.00  0.00     0.000 C 
ENDROOT
BRANCH   1   2
ATOM      2  C   UNL     1     -15.167  45.177  -8.639  1.00  0.00     0.000 C 
BRANCH   2   3
ATOM      3  C   UNL     1     -14.370  46.317  -7.979  1.00  0.00     0.006 C 
BRANCH   3   4
ATOM      4  C   UNL     1     -14.844  47.728  -8.358  1.00  0.00     0.053 C 
BRANCH   4   5
ATOM      5  C   UNL     1     -14.660  48.705  -7.238  1.00  0.00     0.041 C 
ATOM      6  O   UNL     1     -14.348  48.298  -6.088  1.00  0.00    -0.550 OA
ATOM      7  O   UNL     1     -14.866  50.061  -7.455  1.00  0.00    -0.550 OA
ENDBRANCH   4   5
ENDBRANCH   3   4
ENDBRANCH   2   3
ENDBRANCH   1   2
BRANCH   1   8
ATOM      8  C   UNL     1     -17.216  44.114  -7.537  1.00  0.00     0.000 C 
BRANCH   8   9
ATOM      9  C   UNL     1     -17.727  43.430  -6.260  1.00  0.00    -0.000 C 
BRANCH   9  10
ATOM     10  C   UNL     1     -16.590  43.249  -5.242  1.00  0.00    -0.000 C 
BRANCH  10  11
ATOM     11  C   UNL     1     -17.096  43.121  -3.794  1.00  0.00    -0.000 C 
BRANCH  11  12
ATOM     12  C   UNL     1     -18.561  43.545  -3.579  1.00  0.00    -0.003 C 
ATOM     13  C   UNL     1     -19.448  42.403  -3.088  1.00  0.00     0.004 C 
ENDBRANCH  11  12
ENDBRANCH  10  11
ENDBRANCH   9  10
ENDBRANCH   8   9
ENDBRANCH   1   8
TORSDOF 9
ENDMDL
MODEL 9
REMARK VINA RESULT:    -2.979      1.394      3.150
REMARK INTER + INTRA:          -5.268
REMARK INTER:                  -4.220
REMARK INTRA:                  -1.048
REMARK UNBOUND:                -0.721
REMARK SMILES CCCCCCCCCCC(=O)[O-]
REMARK SMILES IDX 7 1 8 2 9 3 10 4 11 5 12 6 13 7 6 8 5 9 4 10 3 11 2 12 1 13
REMARK H PARENT
REMARK Flexibility Score: inf
ROOT
ATOM      1  C   UNL     1     -18.961  44.113  -8.540  1.00  0.00     0.000 C 
ENDROOT
BRANCH   1   2
ATOM      2  C   UNL     1     -18.420  44.389  -7.127  1.00  0.00     0.000 C 
BRANCH   2   3
ATOM      3  C   UNL     1     -17.857  43.126  -6.448  1.00  0.00     0.006 C 
BRANCH   3   4
ATOM      4  C   UNL     1     -17.337  43.350  -5.020  1.00  0.00     0.053 C 
BRANCH   4   5
ATOM      5  C   UNL     1     -18.407  43.140  -3.992  1.00  0.00     0.041 C 
ATOM      6  O   UNL     1     -18.793  44.100  -3.275  1.00  0.00    -0.550 OA
ATOM      7  O   UNL     1     -18.955  41.877  -3.805  1.00  0.00    -0.550 OA
ENDBRANCH   4   5
ENDBRANCH   3   4
ENDBRANCH   2   3
ENDBRANCH   1   2
BRANCH   1   8
ATOM      8  C   UNL     1     -18.046  44.670  -9.642  1.00  0.00     0.000 C 
BRANCH   8   9
ATOM      9  C   UNL     1     -16.868  43.738  -9.964  1.00  0.00    -0.000 C 
BRANCH   9  10
ATOM     10  C   UNL     1     -15.536  44.503  -9.926  1.00  0.00    -0.000 C 
BRANCH  10  11
ATOM     11  C   UNL     1     -14.841  44.429  -8.555  1.00  0.00    -0.000 C 
BRANCH  11  12
ATOM     12  C   UNL     1     -15.015  45.679  -7.672  1.00  0.00    -0.003 C 
ATOM     13  C   UNL     1     -14.973  46.983  -8.467  1.00  0.00     0.004 C 
ENDBRANCH  11  12
ENDBRANCH  10  11
ENDBRANCH   9  10
ENDBRANCH   8   9
ENDBRANCH   1   8
TORSDOF 9
ENDMDL
