MODEL 1
REMARK VINA RESULT:    -5.924      0.000      0.000
REMARK INTER + INTRA:         -16.461
REMARK INTER:                 -12.849
REMARK INTRA:                  -3.612
REMARK UNBOUND:                -3.612
REMARK SMILES CCCCCCCCCCCCCCCCCCCCCC(=O)[O-]
REMARK SMILES IDX 12 1 11 2 10 3 9 4 8 5 7 6 6 7 5 8 4 9 3 10 2 11 1 12 13 13
REMARK SMILES IDX 14 14 15 15 16 16 17 17 18 18 19 19 20 20 21 21 22 22 23 23
REMARK SMILES IDX 24 24
REMARK H PARENT
REMARK Flexibility Score: inf
ROOT
ATOM      1  C   UNL     1      17.030  -0.920  12.906  1.00  0.00     0.000 C 
ENDROOT
BRANCH   1   2
ATOM      2  C   UNL     1      15.563  -0.723  12.493  1.00  0.00     0.000 C 
BRANCH   2   3
ATOM      3  C   UNL     1      14.672  -1.909  12.906  1.00  0.00     0.000 C 
BRANCH   3   4
ATOM      4  C   UNL     1      13.169  -1.598  12.784  1.00  0.00    -0.000 C 
BRANCH   4   5
ATOM      5  C   UNL     1      12.333  -1.950  14.029  1.00  0.00    -0.000 C 
BRANCH   5   6
ATOM      6  C   UNL     1      12.566  -3.393  14.513  1.00  0.00    -0.000 C 
BRANCH   6   7
ATOM      7  C   UNL     1      12.992  -3.463  15.988  1.00  0.00    -0.000 C 
BRANCH   7   8
ATOM      8  C   UNL     1      14.269  -4.285  16.263  1.00  0.00    -0.000 C 
BRANCH   8   9
ATOM      9  C   UNL     1      15.513  -3.420  16.564  1.00  0.00    -0.000 C 
BRANCH   9  10
ATOM     10  C   UNL     1      16.781  -4.274  16.747  1.00  0.00    -0.000 C 
BRANCH  10  11
ATOM     11  C   UNL     1      17.998  -3.443  17.175  1.00  0.00    -0.003 C 
ATOM     12  C   UNL     1      18.051  -3.204  18.684  1.00  0.00     0.004 C 
ENDBRANCH  10  11
ENDBRANCH   9  10
ENDBRANCH   8   9
ENDBRANCH   7   8
ENDBRANCH   6   7
ENDBRANCH   5   6
ENDBRANCH   4   5
ENDBRANCH   3   4
ENDBRANCH   2   3
ENDBRANCH   1   2
BRANCH   1  13
ATOM     13  C   UNL     1      17.261  -2.257  13.632  1.00  0.00     0.000 C 
BRANCH  13  14
ATOM     14  C   UNL     1      18.660  -2.842  13.360  1.00  0.00     0.000 C 
BRANCH  14  15
ATOM     15  C   UNL     1      18.736  -4.376  13.437  1.00  0.00     0.000 C 
BRANCH  15  16
ATOM     16  C   UNL     1      17.885  -5.072  12.357  1.00  0.00     0.000 C 
BRANCH  16  17
ATOM     17  C   UNL     1      16.816  -6.006  12.964  1.00  0.00     0.000 C 
BRANCH  17  18
ATOM     18  C   UNL     1      15.421  -5.363  13.077  1.00  0.00     0.000 C 
BRANCH  18  19
ATOM     19  C   UNL     1      14.283  -6.340  12.750  1.00  0.00     0.000 C 
BRANCH  19  20
ATOM     20  C   UNL     1      13.247  -5.695  11.818  1.00  0.00     0.006 C 
BRANCH  20  21
ATOM     21  C   UNL     1      13.896  -4.729  10.814  1.00  0.00     0.053 C 
BRANCH  21  22
ATOM     22  C   UNL     1      14.455  -5.450   9.623  1.00  0.00     0.041 C 
ATOM     23  O   UNL     1      13.681  -5.943   8.757  1.00  0.00    -0.550 OA
ATOM     24  O   UNL     1      15.827  -5.612   9.490  1.00  0.00    -0.550 OA
ENDBRANCH  21  22
ENDBRANCH  20  21
ENDBRANCH  19  20
ENDBRANCH  18  19
ENDBRANCH  17  18
ENDBRANCH  16  17
ENDBRANCH  15  16
ENDBRANCH  14  15
ENDBRANCH  13  14
ENDBRANCH   1  13
TORSDOF 20
ENDMDL
MODEL 2
REMARK VINA RESULT:    -5.814      1.392      2.047
REMARK INTER + INTRA:         -16.224
REMARK INTER:                 -12.442
REMARK INTRA:                  -3.782
REMARK UNBOUND:                -3.612
REMARK SMILES CCCCCCCCCCCCCCCCCCCCCC(=O)[O-]
REMARK SMILES IDX 12 1 11 2 10 3 9 4 8 5 7 6 6 7 5 8 4 9 3 10 2 11 1 12 13 13
REMARK SMILES IDX 14 14 15 15 16 16 17 17 18 18 19 19 20 20 21 21 22 22 23 23
REMARK SMILES IDX 24 24
REMARK H PARENT
REMARK Flexibility Score: inf
ROOT
ATOM      1  C   UNL     1      16.165  -1.925  12.997  1.00  0.00     0.000 C 
ENDROOT
BRANCH   1   2
ATOM      2  C   UNL     1      15.432  -0.870  12.154  1.00  0.00     0.000 C 
BRANCH   2   3
ATOM      3  C   UNL     1      13.902  -1.030  12.214  1.00  0.00     0.000 C 
BRANCH   3   4
ATOM      4  C   UNL     1      13.459  -2.218  13.090  1.00  0.00    -0.000 C 
BRANCH   4   5
ATOM      5  C   UNL     1      12.257  -1.931  14.008  1.00  0.00    -0.000 C 
BRANCH   5   6
ATOM      6  C   UNL     1      11.963  -3.086  14.982  1.00  0.00    -0.000 C 
BRANCH   6   7
ATOM      7  C   UNL     1      13.210  -3.931  15.295  1.00  0.00    -0.000 C 
BRANCH   7   8
ATOM      8  C   UNL     1      13.988  -3.507  16.558  1.00  0.00    -0.000 C 
BRANCH   8   9
ATOM      9  C   UNL     1      15.518  -3.687  16.436  1.00  0.00    -0.000 C 
BRANCH   9  10
ATOM     10  C   UNL     1      15.897  -4.686  15.328  1.00  0.00    -0.000 C 
BRANCH  10  11
ATOM     11  C   UNL     1      16.262  -6.071  15.880  1.00  0.00    -0.003 C 
ATOM     12  C   UNL     1      15.454  -7.198  15.238  1.00  0.00     0.004 C 
ENDBRANCH  10  11
ENDBRANCH   9  10
ENDBRANCH   8   9
ENDBRANCH   7   8
ENDBRANCH   6   7
ENDBRANCH   5   6
ENDBRANCH   4   5
ENDBRANCH   3   4
ENDBRANCH   2   3
ENDBRANCH   1   2
BRANCH   1  13
ATOM     13  C   UNL     1      17.254  -1.308  13.893  1.00  0.00     0.000 C 
BRANCH  13  14
ATOM     14  C   UNL     1      18.458  -2.247  14.090  1.00  0.00     0.000 C 
BRANCH  14  15
ATOM     15  C   UNL     1      18.750  -3.170  12.895  1.00  0.00     0.000 C 
BRANCH  15  16
ATOM     16  C   UNL     1      18.909  -4.647  13.306  1.00  0.00     0.000 C 
BRANCH  16  17
ATOM     17  C   UNL     1      18.633  -5.615  12.136  1.00  0.00     0.000 C 
BRANCH  17  18
ATOM     18  C   UNL     1      17.214  -6.215  12.149  1.00  0.00     0.000 C 
BRANCH  18  19
ATOM     19  C   UNL     1      16.301  -5.617  11.069  1.00  0.00     0.000 C 
BRANCH  19  20
ATOM     20  C   UNL     1      15.058  -4.964  11.691  1.00  0.00     0.006 C 
BRANCH  20  21
ATOM     21  C   UNL     1      13.786  -5.792  11.444  1.00  0.00     0.053 C 
BRANCH  21  22
ATOM     22  C   UNL     1      13.030  -5.311  10.241  1.00  0.00     0.041 C 
ATOM     23  O   UNL     1      12.308  -4.279  10.313  1.00  0.00    -0.550 OA
ATOM     24  O   UNL     1      13.090  -6.027   9.052  1.00  0.00    -0.550 OA
ENDBRANCH  21  22
ENDBRANCH  20  21
ENDBRANCH  19  20
ENDBRANCH  18  19
ENDBRANCH  17  18
ENDBRANCH  16  17
ENDBRANCH  15  16
ENDBRANCH  14  15
ENDBRANCH  13  14
ENDBRANCH   1  13
TORSDOF 20
ENDMDL
MODEL 3
REMARK VINA RESULT:    -5.797      2.846      6.464
REMARK INTER + INTRA:         -16.188
REMARK INTER:                 -12.885
REMARK INTRA:                  -3.303
REMARK UNBOUND:                -3.612
REMARK SMILES CCCCCCCCCCCCCCCCCCCCCC(=O)[O-]
REMARK SMILES IDX 12 1 11 2 10 3 9 4 8 5 7 6 6 7 5 8 4 9 3 10 2 11 1 12 13 13
REMARK SMILES IDX 14 14 15 15 16 16 17 17 18 18 19 19 20 20 21 21 22 22 23 23
REMARK SMILES IDX 24 24
REMARK H PARENT
REMARK Flexibility Score: inf
ROOT
ATOM      1  C   UNL     1      16.072  -1.798  13.201  1.00  0.00     0.000 C 
ENDROOT
BRANCH   1   2
ATOM      2  C   UNL     1      17.372  -0.983  13.269  1.00  0.00     0.000 C 
BRANCH   2   3
ATOM      3  C   UNL     1      18.622  -1.877  13.370  1.00  0.00     0.000 C 
BRANCH   3   4
ATOM      4  C   UNL     1      18.283  -3.379  13.362  1.00  0.00    -0.000 C 
BRANCH   4   5
ATOM      5  C   UNL     1      19.218  -4.248  12.500  1.00  0.00    -0.000 C 
BRANCH   5   6
ATOM      6  C   UNL     1      18.693  -5.683  12.315  1.00  0.00    -0.000 C 
BRANCH   6   7
ATOM      7  C   UNL     1      17.275  -5.725  11.723  1.00  0.00    -0.000 C 
BRANCH   7   8
ATOM      8  C   UNL     1      16.207  -6.377  12.626  1.00  0.00    -0.000 C 
BRANCH   8   9
ATOM      9  C   UNL     1      14.763  -5.931  12.304  1.00  0.00    -0.000 C 
BRANCH   9  10
ATOM     10  C   UNL     1      14.719  -4.877  11.183  1.00  0.00    -0.000 C 
BRANCH  10  11
ATOM     11  C   UNL     1      13.489  -5.029  10.277  1.00  0.00    -0.003 C 
ATOM     12  C   UNL     1      13.741  -5.952   9.085  1.00  0.00     0.004 C 
ENDBRANCH  10  11
ENDBRANCH   9  10
ENDBRANCH   8   9
ENDBRANCH   7   8
ENDBRANCH   6   7
ENDBRANCH   5   6
ENDBRANCH   4   5
ENDBRANCH   3   4
ENDBRANCH   2   3
ENDBRANCH   1   2
BRANCH   1  13
ATOM     13  C   UNL     1      14.966  -1.075  12.410  1.00  0.00     0.000 C 
BRANCH  13  14
ATOM     14  C   UNL     1      13.667  -1.897  12.327  1.00  0.00     0.000 C 
BRANCH  14  15
ATOM     15  C   UNL     1      12.789  -1.832  13.589  1.00  0.00     0.000 C 
BRANCH  15  16
ATOM     16  C   UNL     1      12.193  -3.200  13.973  1.00  0.00     0.000 C 
BRANCH  16  17
ATOM     17  C   UNL     1      12.255  -3.462  15.492  1.00  0.00     0.000 C 
BRANCH  17  18
ATOM     18  C   UNL     1      13.671  -3.335  16.086  1.00  0.00     0.000 C 
BRANCH  18  19
ATOM     19  C   UNL     1      14.615  -4.457  15.630  1.00  0.00     0.000 C 
BRANCH  19  20
ATOM     20  C   UNL     1      16.050  -4.206  16.112  1.00  0.00     0.006 C 
BRANCH  20  21
ATOM     21  C   UNL     1      16.144  -2.980  17.035  1.00  0.00     0.053 C 
BRANCH  21  22
ATOM     22  C   UNL     1      17.443  -2.938  17.783  1.00  0.00     0.041 C 
ATOM     23  O   UNL     1      17.452  -2.797  19.036  1.00  0.00    -0.550 OA
ATOM     24  O   UNL     1      18.645  -3.013  17.091  1.00  0.00    -0.550 OA
ENDBRANCH  21  22
ENDBRANCH  20  21
ENDBRANCH  19  20
ENDBRANCH  18  19
ENDBRANCH  17  18
ENDBRANCH  16  17
ENDBRANCH  15  16
ENDBRANCH  14  15
ENDBRANCH  13  14
ENDBRANCH   1  13
TORSDOF 20
ENDMDL
MODEL 4
REMARK VINA RESULT:    -5.793      2.208      5.348
REMARK INTER + INTRA:         -16.178
REMARK INTER:                 -12.553
REMARK INTRA:                  -3.625
REMARK UNBOUND:                -3.612
REMARK SMILES CCCCCCCCCCCCCCCCCCCCCC(=O)[O-]
REMARK SMILES IDX 12 1 11 2 10 3 9 4 8 5 7 6 6 7 5 8 4 9 3 10 2 11 1 12 13 13
REMARK SMILES IDX 14 14 15 15 16 16 17 17 18 18 19 19 20 20 21 21 22 22 23 23
REMARK SMILES IDX 24 24
REMARK H PARENT
REMARK Flexibility Score: inf
ROOT
ATOM      1  C   UNL     1      13.091  -2.937  14.779  1.00  0.00     0.000 C 
ENDROOT
BRANCH   1   2
ATOM      2  C   UNL     1      12.328  -3.690  13.679  1.00  0.00     0.000 C 
BRANCH   2   3
ATOM      3  C   UNL     1      13.185  -3.916  12.419  1.00  0.00     0.000 C 
BRANCH   3   4
ATOM      4  C   UNL     1      12.788  -5.188  11.648  1.00  0.00    -0.000 C 
BRANCH   4   5
ATOM      5  C   UNL     1      13.756  -5.587  10.518  1.00  0.00    -0.000 C 
BRANCH   5   6
ATOM      6  C   UNL     1      15.052  -4.757  10.524  1.00  0.00    -0.000 C 
BRANCH   6   7
ATOM      7  C   UNL     1      16.316  -5.627  10.424  1.00  0.00    -0.000 C 
BRANCH   7   8
ATOM      8  C   UNL     1      17.097  -5.801  11.743  1.00  0.00    -0.000 C 
BRANCH   8   9
ATOM      9  C   UNL     1      16.450  -6.805  12.722  1.00  0.00    -0.000 C 
BRANCH   9  10
ATOM     10  C   UNL     1      15.786  -6.100  13.919  1.00  0.00    -0.000 C 
BRANCH  10  11
ATOM     11  C   UNL     1      14.644  -6.922  14.531  1.00  0.00    -0.003 C 
ATOM     12  C   UNL     1      14.749  -7.041  16.052  1.00  0.00     0.004 C 
ENDBRANCH  10  11
ENDBRANCH   9  10
ENDBRANCH   8   9
ENDBRANCH   7   8
ENDBRANCH   6   7
ENDBRANCH   5   6
ENDBRANCH   4   5
ENDBRANCH   3   4
ENDBRANCH   2   3
ENDBRANCH   1   2
BRANCH   1  13
ATOM     13  C   UNL     1      13.220  -3.761  16.073  1.00  0.00     0.000 C 
BRANCH  13  14
ATOM     14  C   UNL     1      14.310  -3.214  17.014  1.00  0.00     0.000 C 
BRANCH  14  15
ATOM     15  C   UNL     1      15.748  -3.398  16.500  1.00  0.00     0.000 C 
BRANCH  15  16
ATOM     16  C   UNL     1      16.811  -3.023  17.551  1.00  0.00     0.000 C 
BRANCH  16  17
ATOM     17  C   UNL     1      18.222  -3.512  17.160  1.00  0.00     0.000 C 
BRANCH  17  18
ATOM     18  C   UNL     1      18.245  -4.393  15.897  1.00  0.00     0.000 C 
BRANCH  18  19
ATOM     19  C   UNL     1      19.334  -3.978  14.897  1.00  0.00     0.000 C 
BRANCH  19  20
ATOM     20  C   UNL     1      18.989  -2.643  14.222  1.00  0.00     0.006 C 
BRANCH  20  21
ATOM     21  C   UNL     1      17.609  -2.678  13.544  1.00  0.00     0.053 C 
BRANCH  21  22
ATOM     22  C   UNL     1      17.108  -1.302  13.221  1.00  0.00     0.041 C 
ATOM     23  O   UNL     1      15.909  -1.127  12.870  1.00  0.00    -0.550 OA
ATOM     24  O   UNL     1      17.975  -0.218  13.267  1.00  0.00    -0.550 OA
ENDBRANCH  21  22
ENDBRANCH  20  21
ENDBRANCH  19  20
ENDBRANCH  18  19
ENDBRANCH  17  18
ENDBRANCH  16  17
ENDBRANCH  15  16
ENDBRANCH  14  15
ENDBRANCH  13  14
ENDBRANCH   1  13
TORSDOF 20
ENDMDL
MODEL 5
REMARK VINA RESULT:    -5.770      2.199      5.809
REMARK INTER + INTRA:         -16.129
REMARK INTER:                 -12.172
REMARK INTRA:                  -3.956
REMARK UNBOUND:                -3.612
REMARK SMILES CCCCCCCCCCCCCCCCCCCCCC(=O)[O-]
REMARK SMILES IDX 12 1 11 2 10 3 9 4 8 5 7 6 6 7 5 8 4 9 3 10 2 11 1 12 13 13
REMARK SMILES IDX 14 14 15 15 16 16 17 17 18 18 19 19 20 20 21 21 22 22 23 23
REMARK SMILES IDX 24 24
REMARK H PARENT
REMARK Flexibility Score: inf
ROOT
ATOM      1  C   UNL     1      15.326  -6.555  13.372  1.00  0.00     0.000 C 
ENDROOT
BRANCH   1   2
ATOM      2  C   UNL     1      16.719  -6.778  12.765  1.00  0.00     0.000 C 
BRANCH   2   3
ATOM      3  C   UNL     1      16.930  -5.977  11.467  1.00  0.00     0.000 C 
BRANCH   3   4
ATOM      4  C   UNL     1      15.727  -5.081  11.116  1.00  0.00    -0.000 C 
BRANCH   4   5
ATOM      5  C   UNL     1      15.070  -5.383   9.757  1.00  0.00    -0.000 C 
BRANCH   5   6
ATOM      6  C   UNL     1      13.558  -5.648   9.873  1.00  0.00    -0.000 C 
BRANCH   6   7
ATOM      7  C   UNL     1      12.814  -4.528  10.619  1.00  0.00    -0.000 C 
BRANCH   7   8
ATOM      8  C   UNL     1      12.302  -4.904  12.025  1.00  0.00    -0.000 C 
BRANCH   8   9
ATOM      9  C   UNL     1      11.917  -3.686  12.894  1.00  0.00    -0.000 C 
BRANCH   9  10
ATOM     10  C   UNL     1      12.426  -2.363  12.294  1.00  0.00    -0.000 C 
BRANCH  10  11
ATOM     11  C   UNL     1      13.448  -1.658  13.197  1.00  0.00    -0.003 C 
ATOM     12  C   UNL     1      14.894  -1.965  12.808  1.00  0.00     0.004 C 
ENDBRANCH  10  11
ENDBRANCH   9  10
ENDBRANCH   8   9
ENDBRANCH   7   8
ENDBRANCH   6   7
ENDBRANCH   5   6
ENDBRANCH   4   5
ENDBRANCH   3   4
ENDBRANCH   2   3
ENDBRANCH   1   2
BRANCH   1  13
ATOM     13  C   UNL     1      15.201  -7.146  14.788  1.00  0.00     0.000 C 
BRANCH  13  14
ATOM     14  C   UNL     1      14.843  -6.081  15.841  1.00  0.00     0.000 C 
BRANCH  14  15
ATOM     15  C   UNL     1      14.457  -4.711  15.259  1.00  0.00     0.000 C 
BRANCH  15  16
ATOM     16  C   UNL     1      13.926  -3.735  16.327  1.00  0.00     0.000 C 
BRANCH  16  17
ATOM     17  C   UNL     1      15.052  -3.170  17.218  1.00  0.00     0.000 C 
BRANCH  17  18
ATOM     18  C   UNL     1      16.334  -2.809  16.444  1.00  0.00     0.000 C 
BRANCH  18  19
ATOM     19  C   UNL     1      17.566  -3.585  16.930  1.00  0.00     0.000 C 
BRANCH  19  20
ATOM     20  C   UNL     1      18.261  -4.309  15.767  1.00  0.00     0.006 C 
BRANCH  20  21
ATOM     21  C   UNL     1      17.826  -3.757  14.400  1.00  0.00     0.053 C 
BRANCH  21  22
ATOM     22  C   UNL     1      18.917  -2.964  13.743  1.00  0.00     0.041 C 
ATOM     23  O   UNL     1      19.318  -3.269  12.587  1.00  0.00    -0.550 OA
ATOM     24  O   UNL     1      19.519  -1.914  14.424  1.00  0.00    -0.550 OA
ENDBRANCH  21  22
ENDBRANCH  20  21
ENDBRANCH  19  20
ENDBRANCH  18  19
ENDBRANCH  17  18
ENDBRANCH  16  17
ENDBRANCH  15  16
ENDBRANCH  14  15
ENDBRANCH  13  14
ENDBRANCH   1  13
TORSDOF 20
ENDMDL
MODEL 6
REMARK VINA RESULT:    -5.707      2.166      4.847
REMARK INTER + INTRA:         -15.991
REMARK INTER:                 -12.291
REMARK INTRA:                  -3.700
REMARK UNBOUND:                -3.612
REMARK SMILES CCCCCCCCCCCCCCCCCCCCCC(=O)[O-]
REMARK SMILES IDX 12 1 11 2 10 3 9 4 8 5 7 6 6 7 5 8 4 9 3 10 2 11 1 12 13 13
REMARK SMILES IDX 14 14 15 15 16 16 17 17 18 18 19 19 20 20 21 21 22 22 23 23
REMARK SMILES IDX 24 24
REMARK H PARENT
REMARK Flexibility Score: inf
ROOT
ATOM      1  C   UNL     1      17.998  -5.320  12.160  1.00  0.00     0.000 C 
ENDROOT
BRANCH   1   2
ATOM      2  C   UNL     1      17.663  -4.480  13.401  1.00  0.00     0.000 C 
BRANCH   2   3
ATOM      3  C   UNL     1      18.774  -4.536  14.466  1.00  0.00     0.000 C 
BRANCH   3   4
ATOM      4  C   UNL     1      18.224  -4.516  15.904  1.00  0.00    -0.000 C 
BRANCH   4   5
ATOM      5  C   UNL     1      17.800  -3.126  16.415  1.00  0.00    -0.000 C 
BRANCH   5   6
ATOM      6  C   UNL     1      17.186  -3.173  17.826  1.00  0.00    -0.000 C 
BRANCH   6   7
ATOM      7  C   UNL     1      15.716  -2.722  17.849  1.00  0.00    -0.000 C 
BRANCH   7   8
ATOM      8  C   UNL     1      14.909  -3.056  16.577  1.00  0.00    -0.000 C 
BRANCH   8   9
ATOM      9  C   UNL     1      14.322  -4.485  16.569  1.00  0.00    -0.000 C 
BRANCH   9  10
ATOM     10  C   UNL     1      14.726  -5.270  15.308  1.00  0.00    -0.000 C 
BRANCH  10  11
ATOM     11  C   UNL     1      14.577  -6.788  15.483  1.00  0.00    -0.003 C 
ATOM     12  C   UNL     1      15.468  -7.584  14.530  1.00  0.00     0.004 C 
ENDBRANCH  10  11
ENDBRANCH   9  10
ENDBRANCH   8   9
ENDBRANCH   7   8
ENDBRANCH   6   7
ENDBRANCH   5   6
ENDBRANCH   4   5
ENDBRANCH   3   4
ENDBRANCH   2   3
ENDBRANCH   1   2
BRANCH   1  13
ATOM     13  C   UNL     1      16.756  -6.006  11.563  1.00  0.00     0.000 C 
BRANCH  13  14
ATOM     14  C   UNL     1      15.583  -5.028  11.358  1.00  0.00     0.000 C 
BRANCH  14  15
ATOM     15  C   UNL     1      14.256  -5.697  10.961  1.00  0.00     0.000 C 
BRANCH  15  16
ATOM     16  C   UNL     1      13.207  -5.660  12.090  1.00  0.00     0.000 C 
BRANCH  16  17
ATOM     17  C   UNL     1      12.258  -4.449  11.970  1.00  0.00     0.000 C 
BRANCH  17  18
ATOM     18  C   UNL     1      11.636  -4.012  13.310  1.00  0.00     0.000 C 
BRANCH  18  19
ATOM     19  C   UNL     1      12.308  -2.765  13.903  1.00  0.00     0.000 C 
BRANCH  19  20
ATOM     20  C   UNL     1      13.119  -2.011  12.839  1.00  0.00     0.006 C 
BRANCH  20  21
ATOM     21  C   UNL     1      14.627  -2.042  13.133  1.00  0.00     0.053 C 
BRANCH  21  22
ATOM     22  C   UNL     1      15.346  -0.890  12.497  1.00  0.00     0.041 C 
ATOM     23  O   UNL     1      16.531  -0.615  12.832  1.00  0.00    -0.550 OA
ATOM     24  O   UNL     1      14.694  -0.095  11.564  1.00  0.00    -0.550 OA
ENDBRANCH  21  22
ENDBRANCH  20  21
ENDBRANCH  19  20
ENDBRANCH  18  19
ENDBRANCH  17  18
ENDBRANCH  16  17
ENDBRANCH  15  16
ENDBRANCH  14  15
ENDBRANCH  13  14
ENDBRANCH   1  13
TORSDOF 20
ENDMDL
MODEL 7
REMARK VINA RESULT:    -5.675      1.740      4.395
REMARK INTER + INTRA:         -15.922
REMARK INTER:                 -12.045
REMARK INTRA:                  -3.876
REMARK UNBOUND:                -3.612
REMARK SMILES CCCCCCCCCCCCCCCCCCCCCC(=O)[O-]
REMARK SMILES IDX 12 1 11 2 10 3 9 4 8 5 7 6 6 7 5 8 4 9 3 10 2 11 1 12 13 13
REMARK SMILES IDX 14 14 15 15 16 16 17 17 18 18 19 19 20 20 21 21 22 22 23 23
REMARK SMILES IDX 24 24
REMARK H PARENT
REMARK Flexibility Score: inf
ROOT
ATOM      1  C   UNL     1      14.327  -2.114  12.221  1.00  0.00     0.000 C 
ENDROOT
BRANCH   1   2
ATOM      2  C   UNL     1      15.518  -2.195  13.187  1.00  0.00     0.000 C 
BRANCH   2   3
ATOM      3  C   UNL     1      16.379  -0.920  13.168  1.00  0.00     0.000 C 
BRANCH   3   4
ATOM      4  C   UNL     1      17.890  -1.219  13.172  1.00  0.00    -0.000 C 
BRANCH   4   5
ATOM      5  C   UNL     1      18.255  -2.701  13.379  1.00  0.00    -0.000 C 
BRANCH   5   6
ATOM      6  C   UNL     1      19.029  -2.945  14.688  1.00  0.00    -0.000 C 
BRANCH   6   7
ATOM      7  C   UNL     1      18.786  -4.348  15.268  1.00  0.00    -0.000 C 
BRANCH   7   8
ATOM      8  C   UNL     1      17.601  -4.455  16.250  1.00  0.00    -0.000 C 
BRANCH   8   9
ATOM      9  C   UNL     1      17.241  -3.120  16.939  1.00  0.00    -0.000 C 
BRANCH   9  10
ATOM     10  C   UNL     1      15.727  -2.986  17.186  1.00  0.00    -0.000 C 
BRANCH  10  11
ATOM     11  C   UNL     1      14.902  -3.975  16.351  1.00  0.00    -0.003 C 
ATOM     12  C   UNL     1      13.401  -3.692  16.410  1.00  0.00     0.004 C 
ENDBRANCH  10  11
ENDBRANCH   9  10
ENDBRANCH   8   9
ENDBRANCH   7   8
ENDBRANCH   6   7
ENDBRANCH   5   6
ENDBRANCH   4   5
ENDBRANCH   3   4
ENDBRANCH   2   3
ENDBRANCH   1   2
BRANCH   1  13
ATOM     13  C   UNL     1      13.027  -2.655  12.843  1.00  0.00     0.000 C 
BRANCH  13  14
ATOM     14  C   UNL     1      12.558  -3.965  12.181  1.00  0.00     0.000 C 
BRANCH  14  15
ATOM     15  C   UNL     1      12.801  -4.036  10.664  1.00  0.00     0.000 C 
BRANCH  15  16
ATOM     16  C   UNL     1      13.120  -5.463  10.177  1.00  0.00     0.000 C 
BRANCH  16  17
ATOM     17  C   UNL     1      14.535  -5.575   9.572  1.00  0.00     0.000 C 
BRANCH  17  18
ATOM     18  C   UNL     1      15.634  -4.935  10.442  1.00  0.00     0.000 C 
BRANCH  18  19
ATOM     19  C   UNL     1      16.739  -5.926  10.836  1.00  0.00     0.000 C 
BRANCH  19  20
ATOM     20  C   UNL     1      16.994  -5.900  12.350  1.00  0.00     0.006 C 
BRANCH  20  21
ATOM     21  C   UNL     1      15.695  -5.722  13.152  1.00  0.00     0.053 C 
BRANCH  21  22
ATOM     22  C   UNL     1      14.987  -7.026  13.371  1.00  0.00     0.041 C 
ATOM     23  O   UNL     1      15.638  -8.055  13.704  1.00  0.00    -0.550 OA
ATOM     24  O   UNL     1      13.617  -7.115  13.167  1.00  0.00    -0.550 OA
ENDBRANCH  21  22
ENDBRANCH  20  21
ENDBRANCH  19  20
ENDBRANCH  18  19
ENDBRANCH  17  18
ENDBRANCH  16  17
ENDBRANCH  15  16
ENDBRANCH  14  15
ENDBRANCH  13  14
ENDBRANCH   1  13
TORSDOF 20
ENDMDL
MODEL 8
REMARK VINA RESULT:    -5.651      1.372      4.689
REMARK INTER + INTRA:         -15.869
REMARK INTER:                 -12.197
REMARK INTRA:                  -3.672
REMARK UNBOUND:                -3.612
REMARK SMILES CCCCCCCCCCCCCCCCCCCCCC(=O)[O-]
REMARK SMILES IDX 12 1 11 2 10 3 9 4 8 5 7 6 6 7 5 8 4 9 3 10 2 11 1 12 13 13
REMARK SMILES IDX 14 14 15 15 16 16 17 17 18 18 19 19 20 20 21 21 22 22 23 23
REMARK SMILES IDX 24 24
REMARK H PARENT
REMARK Flexibility Score: inf
ROOT
ATOM      1  C   UNL     1      15.269  -3.281  16.372  1.00  0.00     0.000 C 
ENDROOT
BRANCH   1   2
ATOM      2  C   UNL     1      15.457  -2.628  17.749  1.00  0.00     0.000 C 
BRANCH   2   3
ATOM      3  C   UNL     1      16.924  -2.657  18.218  1.00  0.00     0.000 C 
BRANCH   3   4
ATOM      4  C   UNL     1      17.802  -3.599  17.373  1.00  0.00    -0.000 C 
BRANCH   4   5
ATOM      5  C   UNL     1      19.164  -3.013  16.957  1.00  0.00    -0.000 C 
BRANCH   5   6
ATOM      6  C   UNL     1      19.813  -3.785  15.794  1.00  0.00    -0.000 C 
BRANCH   6   7
ATOM      7  C   UNL     1      18.797  -4.613  14.990  1.00  0.00    -0.000 C 
BRANCH   7   8
ATOM      8  C   UNL     1      18.646  -4.206  13.509  1.00  0.00    -0.000 C 
BRANCH   8   9
ATOM      9  C   UNL     1      17.563  -3.131  13.266  1.00  0.00    -0.000 C 
BRANCH   9  10
ATOM     10  C   UNL     1      18.152  -1.709  13.257  1.00  0.00    -0.000 C 
BRANCH  10  11
ATOM     11  C   UNL     1      17.069  -0.621  13.241  1.00  0.00    -0.003 C 
ATOM     12  C   UNL     1      15.695  -1.158  12.841  1.00  0.00     0.004 C 
ENDBRANCH  10  11
ENDBRANCH   9  10
ENDBRANCH   8   9
ENDBRANCH   7   8
ENDBRANCH   6   7
ENDBRANCH   5   6
ENDBRANCH   4   5
ENDBRANCH   3   4
ENDBRANCH   2   3
ENDBRANCH   1   2
BRANCH   1  13
ATOM     13  C   UNL     1      13.942  -4.054  16.265  1.00  0.00     0.000 C 
BRANCH  13  14
ATOM     14  C   UNL     1      14.149  -5.580  16.238  1.00  0.00     0.000 C 
BRANCH  14  15
ATOM     15  C   UNL     1      15.577  -6.024  15.882  1.00  0.00     0.000 C 
BRANCH  15  16
ATOM     16  C   UNL     1      15.607  -7.280  14.988  1.00  0.00     0.000 C 
BRANCH  16  17
ATOM     17  C   UNL     1      15.399  -6.943  13.496  1.00  0.00     0.000 C 
BRANCH  17  18
ATOM     18  C   UNL     1      13.944  -7.113  13.019  1.00  0.00     0.000 C 
BRANCH  18  19
ATOM     19  C   UNL     1      13.306  -5.794  12.561  1.00  0.00     0.000 C 
BRANCH  19  20
ATOM     20  C   UNL     1      14.353  -4.676  12.460  1.00  0.00     0.006 C 
BRANCH  20  21
ATOM     21  C   UNL     1      14.510  -4.160  11.020  1.00  0.00     0.053 C 
BRANCH  21  22
ATOM     22  C   UNL     1      14.977  -5.237  10.086  1.00  0.00     0.041 C 
ATOM     23  O   UNL     1      16.164  -5.660  10.145  1.00  0.00    -0.550 OA
ATOM     24  O   UNL     1      14.113  -5.743   9.124  1.00  0.00    -0.550 OA
ENDBRANCH  21  22
ENDBRANCH  20  21
ENDBRANCH  19  20
ENDBRANCH  18  19
ENDBRANCH  17  18
ENDBRANCH  16  17
ENDBRANCH  15  16
ENDBRANCH  14  15
ENDBRANCH  13  14
ENDBRANCH   1  13
TORSDOF 20
ENDMDL
MODEL 9
REMARK VINA RESULT:    -5.649      2.255      6.196
REMARK INTER + INTRA:         -15.865
REMARK INTER:                 -12.513
REMARK INTRA:                  -3.352
REMARK UNBOUND:                -3.612
REMARK SMILES CCCCCCCCCCCCCCCCCCCCCC(=O)[O-]
REMARK SMILES IDX 12 1 11 2 10 3 9 4 8 5 7 6 6 7 5 8 4 9 3 10 2 11 1 12 13 13
REMARK SMILES IDX 14 14 15 15 16 16 17 17 18 18 19 19 20 20 21 21 22 22 23 23
REMARK SMILES IDX 24 24
REMARK H PARENT
REMARK Flexibility Score: inf
ROOT
ATOM      1  C   UNL     1      15.655  -6.425  15.850  1.00  0.00     0.000 C 
ENDROOT
BRANCH   1   2
ATOM      2  C   UNL     1      15.022  -7.546  15.011  1.00  0.00     0.000 C 
BRANCH   2   3
ATOM      3  C   UNL     1      14.962  -7.196  13.513  1.00  0.00     0.000 C 
BRANCH   3   4
ATOM      4  C   UNL     1      16.325  -6.752  12.949  1.00  0.00    -0.000 C 
BRANCH   4   5
ATOM      5  C   UNL     1      16.291  -5.451  12.125  1.00  0.00    -0.000 C 
BRANCH   5   6
ATOM      6  C   UNL     1      16.330  -5.707  10.607  1.00  0.00    -0.000 C 
BRANCH   6   7
ATOM      7  C   UNL     1      15.155  -5.050   9.864  1.00  0.00    -0.000 C 
BRANCH   7   8
ATOM      8  C   UNL     1      13.782  -5.717  10.088  1.00  0.00    -0.000 C 
BRANCH   8   9
ATOM      9  C   UNL     1      12.698  -4.750  10.614  1.00  0.00    -0.000 C 
BRANCH   9  10
ATOM     10  C   UNL     1      12.552  -4.821  12.145  1.00  0.00    -0.000 C 
BRANCH  10  11
ATOM     11  C   UNL     1      13.294  -3.684  12.862  1.00  0.00    -0.003 C 
ATOM     12  C   UNL     1      13.260  -2.369  12.084  1.00  0.00     0.004 C 
ENDBRANCH  10  11
ENDBRANCH   9  10
ENDBRANCH   8   9
ENDBRANCH   7   8
ENDBRANCH   6   7
ENDBRANCH   5   6
ENDBRANCH   4   5
ENDBRANCH   3   4
ENDBRANCH   2   3
ENDBRANCH   1   2
BRANCH   1  13
ATOM     13  C   UNL     1      14.695  -5.240  16.066  1.00  0.00     0.000 C 
BRANCH  13  14
ATOM     14  C   UNL     1      15.410  -3.879  15.975  1.00  0.00     0.000 C 
BRANCH  14  15
ATOM     15  C   UNL     1      15.250  -2.990  17.221  1.00  0.00     0.000 C 
BRANCH  15  16
ATOM     16  C   UNL     1      16.591  -2.704  17.926  1.00  0.00     0.000 C 
BRANCH  16  17
ATOM     17  C   UNL     1      17.703  -3.681  17.492  1.00  0.00     0.000 C 
BRANCH  17  18
ATOM     18  C   UNL     1      18.825  -3.018  16.670  1.00  0.00     0.000 C 
BRANCH  18  19
ATOM     19  C   UNL     1      19.375  -3.929  15.563  1.00  0.00     0.000 C 
BRANCH  19  20
ATOM     20  C   UNL     1      18.689  -3.644  14.219  1.00  0.00     0.006 C 
BRANCH  20  21
ATOM     21  C   UNL     1      19.034  -2.247  13.679  1.00  0.00     0.053 C 
BRANCH  21  22
ATOM     22  C   UNL     1      17.804  -1.439  13.387  1.00  0.00     0.041 C 
ATOM     23  O   UNL     1      16.686  -2.009  13.249  1.00  0.00    -0.550 OA
ATOM     24  O   UNL     1      17.898  -0.063  13.228  1.00  0.00    -0.550 OA
ENDBRANCH  21  22
ENDBRANCH  20  21
ENDBRANCH  19  20
ENDBRANCH  18  19
ENDBRANCH  17  18
ENDBRANCH  16  17
ENDBRANCH  15  16
ENDBRANCH  14  15
ENDBRANCH  13  14
ENDBRANCH   1  13
TORSDOF 20
ENDMDL
