MODEL 1
REMARK VINA RESULT:    -3.487      0.000      0.000
REMARK INTER + INTRA:          -4.146
REMARK INTER:                  -4.099
REMARK INTRA:                  -0.047
REMARK UNBOUND:                -0.047
REMARK SMILES O=C([O-])CCC(=O)[O-]
REMARK SMILES IDX 4 1 2 2 1 3 3 4 5 5 6 6 7 7 8 8
REMARK H PARENT
REMARK Flexibility Score: inf
ROOT
ATOM      1  C   UNL     1      55.240  -2.606  13.911  1.00  0.00     0.059 C 
ENDROOT
BRANCH   1   2
ATOM      2  C   UNL     1      56.704  -2.851  14.108  1.00  0.00     0.042 C 
ATOM      3  O   UNL     1      57.267  -3.823  13.537  1.00  0.00    -0.550 OA
ATOM      4  O   UNL     1      57.455  -1.984  14.892  1.00  0.00    -0.550 OA
ENDBRANCH   1   2
BRANCH   1   5
ATOM      5  C   UNL     1      54.514  -3.873  13.447  1.00  0.00     0.059 C 
BRANCH   5   6
ATOM      6  C   UNL     1      53.357  -3.549  12.551  1.00  0.00     0.042 C 
ATOM      7  O   UNL     1      53.551  -3.289  11.334  1.00  0.00    -0.550 OA
ATOM      8  O   UNL     1      52.062  -3.573  13.052  1.00  0.00    -0.550 OA
ENDBRANCH   5   6
ENDBRANCH   1   5
TORSDOF 3
ENDMDL
MODEL 2
REMARK VINA RESULT:    -3.461      0.614      4.189
REMARK INTER + INTRA:          -4.115
REMARK INTER:                  -4.073
REMARK INTRA:                  -0.042
REMARK UNBOUND:                -0.047
REMARK SMILES O=C([O-])CCC(=O)[O-]
REMARK SMILES IDX 4 1 2 2 1 3 3 4 5 5 6 6 7 7 8 8
REMARK H PARENT
REMARK Flexibility Score: inf
ROOT
ATOM      1  C   UNL     1      54.534  -3.702  13.381  1.00  0.00     0.059 C 
ENDROOT
BRANCH   1   2
ATOM      2  C   UNL     1      53.228  -3.211  12.836  1.00  0.00     0.042 C 
ATOM      3  O   UNL     1      52.178  -3.886  13.000  1.00  0.00    -0.550 OA
ATOM      4  O   UNL     1      53.164  -1.987  12.183  1.00  0.00    -0.550 OA
ENDBRANCH   1   2
BRANCH   1   5
ATOM      5  C   UNL     1      55.304  -2.585  14.093  1.00  0.00     0.059 C 
BRANCH   5   6
ATOM      6  C   UNL     1      56.776  -2.865  14.126  1.00  0.00     0.042 C 
ATOM      7  O   UNL     1      57.246  -3.865  13.522  1.00  0.00    -0.550 OA
ATOM      8  O   UNL     1      57.633  -1.997  14.791  1.00  0.00    -0.550 OA
ENDBRANCH   5   6
ENDBRANCH   1   5
TORSDOF 3
ENDMDL
MODEL 3
REMARK VINA RESULT:    -3.420      2.269      4.747
REMARK INTER + INTRA:          -4.066
REMARK INTER:                  -4.026
REMARK INTRA:                  -0.040
REMARK UNBOUND:                -0.047
REMARK SMILES O=C([O-])CCC(=O)[O-]
REMARK SMILES IDX 4 1 2 2 1 3 3 4 5 5 6 6 7 7 8 8
REMARK H PARENT
REMARK Flexibility Score: inf
ROOT
ATOM      1  C   UNL     1      56.131  -2.048  14.613  1.00  0.00     0.059 C 
ENDROOT
BRANCH   1   2
ATOM      2  C   UNL     1      56.240  -3.381  13.938  1.00  0.00     0.042 C 
ATOM      3  O   UNL     1      57.346  -3.771  13.479  1.00  0.00    -0.550 OA
ATOM      4  O   UNL     1      55.129  -4.209  13.852  1.00  0.00    -0.550 OA
ENDBRANCH   1   2
BRANCH   1   5
ATOM      5  C   UNL     1      57.510  -1.488  14.981  1.00  0.00     0.059 C 
BRANCH   5   6
ATOM      6  C   UNL     1      57.514  -0.894  16.355  1.00  0.00     0.042 C 
ATOM      7  O   UNL     1      56.919   0.193  16.579  1.00  0.00    -0.550 OA
ATOM      8  O   UNL     1      58.143  -1.561  17.400  1.00  0.00    -0.550 OA
ENDBRANCH   5   6
ENDBRANCH   1   5
TORSDOF 3
ENDMDL
MODEL 4
REMARK VINA RESULT:    -3.413      0.214      1.616
REMARK INTER + INTRA:          -4.058
REMARK INTER:                  -4.022
REMARK INTRA:                  -0.036
REMARK UNBOUND:                -0.047
REMARK SMILES O=C([O-])CCC(=O)[O-]
REMARK SMILES IDX 4 1 2 2 1 3 3 4 5 5 6 6 7 7 8 8
REMARK H PARENT
REMARK Flexibility Score: inf
ROOT
ATOM      1  C   UNL     1      55.198  -2.506  13.809  1.00  0.00     0.059 C 
ENDROOT
BRANCH   1   2
ATOM      2  C   UNL     1      56.629  -2.773  14.161  1.00  0.00     0.042 C 
ATOM      3  O   UNL     1      57.204  -2.085  15.045  1.00  0.00    -0.550 OA
ATOM      4  O   UNL     1      57.317  -3.809  13.541  1.00  0.00    -0.550 OA
ENDBRANCH   1   2
BRANCH   1   5
ATOM      5  C   UNL     1      54.453  -3.799  13.460  1.00  0.00     0.059 C 
BRANCH   5   6
ATOM      6  C   UNL     1      53.231  -3.526  12.639  1.00  0.00     0.042 C 
ATOM      7  O   UNL     1      52.086  -3.777  13.101  1.00  0.00    -0.550 OA
ATOM      8  O   UNL     1      53.354  -2.957  11.377  1.00  0.00    -0.550 OA
ENDBRANCH   5   6
ENDBRANCH   1   5
TORSDOF 3
ENDMDL
MODEL 5
REMARK VINA RESULT:    -3.369      1.126      4.447
REMARK INTER + INTRA:          -4.006
REMARK INTER:                  -3.973
REMARK INTRA:                  -0.033
REMARK UNBOUND:                -0.047
REMARK SMILES O=C([O-])CCC(=O)[O-]
REMARK SMILES IDX 4 1 2 2 1 3 3 4 5 5 6 6 7 7 8 8
REMARK H PARENT
REMARK Flexibility Score: inf
ROOT
ATOM      1  C   UNL     1      53.360  -2.976  13.026  1.00  0.00     0.059 C 
ENDROOT
BRANCH   1   2
ATOM      2  C   UNL     1      52.259  -3.753  12.373  1.00  0.00     0.042 C 
ATOM      3  O   UNL     1      51.061  -3.565  12.714  1.00  0.00    -0.550 OA
ATOM      4  O   UNL     1      52.552  -4.657  11.360  1.00  0.00    -0.550 OA
ENDBRANCH   1   2
BRANCH   1   5
ATOM      5  C   UNL     1      54.530  -3.881  13.423  1.00  0.00     0.059 C 
BRANCH   5   6
ATOM      6  C   UNL     1      55.742  -3.084  13.798  1.00  0.00     0.042 C 
ATOM      7  O   UNL     1      55.615  -1.946  14.322  1.00  0.00    -0.550 OA
ATOM      8  O   UNL     1      57.011  -3.615  13.605  1.00  0.00    -0.550 OA
ENDBRANCH   5   6
ENDBRANCH   1   5
TORSDOF 3
ENDMDL
MODEL 6
REMARK VINA RESULT:    -3.308      8.571     11.065
REMARK INTER + INTRA:          -3.935
REMARK INTER:                  -3.905
REMARK INTRA:                  -0.030
REMARK UNBOUND:                -0.047
REMARK SMILES O=C([O-])CCC(=O)[O-]
REMARK SMILES IDX 4 1 2 2 1 3 3 4 5 5 6 6 7 7 8 8
REMARK H PARENT
REMARK Flexibility Score: inf
ROOT
ATOM      1  C   UNL     1      61.180  -4.057  21.395  1.00  0.00     0.059 C 
ENDROOT
BRANCH   1   2
ATOM      2  C   UNL     1      60.036  -3.614  20.536  1.00  0.00     0.042 C 
ATOM      3  O   UNL     1      59.549  -2.461  20.674  1.00  0.00    -0.550 OA
ATOM      4  O   UNL     1      59.533  -4.461  19.556  1.00  0.00    -0.550 OA
ENDBRANCH   1   2
BRANCH   1   5
ATOM      5  C   UNL     1      62.455  -4.266  20.572  1.00  0.00     0.059 C 
BRANCH   5   6
ATOM      6  C   UNL     1      63.685  -3.983  21.379  1.00  0.00     0.042 C 
ATOM      7  O   UNL     1      64.733  -3.570  20.815  1.00  0.00    -0.550 OA
ATOM      8  O   UNL     1      63.662  -4.137  22.759  1.00  0.00    -0.550 OA
ENDBRANCH   5   6
ENDBRANCH   1   5
TORSDOF 3
ENDMDL
MODEL 7
REMARK VINA RESULT:    -3.269      3.566      4.537
REMARK INTER + INTRA:          -3.889
REMARK INTER:                  -3.746
REMARK INTRA:                  -0.144
REMARK UNBOUND:                -0.047
REMARK SMILES O=C([O-])CCC(=O)[O-]
REMARK SMILES IDX 4 1 2 2 1 3 3 4 5 5 6 6 7 7 8 8
REMARK H PARENT
REMARK Flexibility Score: inf
ROOT
ATOM      1  C   UNL     1      52.112  -3.966   9.808  1.00  0.00     0.059 C 
ENDROOT
BRANCH   1   2
ATOM      2  C   UNL     1      53.252  -3.059   9.459  1.00  0.00     0.042 C 
ATOM      3  O   UNL     1      53.057  -1.823   9.313  1.00  0.00    -0.550 OA
ATOM      4  O   UNL     1      54.536  -3.572   9.333  1.00  0.00    -0.550 OA
ENDBRANCH   1   2
BRANCH   1   5
ATOM      5  C   UNL     1      52.306  -4.609  11.185  1.00  0.00     0.059 C 
BRANCH   5   6
ATOM      6  C   UNL     1      51.979  -3.653  12.291  1.00  0.00     0.042 C 
ATOM      7  O   UNL     1      50.913  -2.982  12.256  1.00  0.00    -0.550 OA
ATOM      8  O   UNL     1      52.831  -3.532  13.381  1.00  0.00    -0.550 OA
ENDBRANCH   5   6
ENDBRANCH   1   5
TORSDOF 3
ENDMDL
MODEL 8
REMARK VINA RESULT:    -3.262      8.547     10.311
REMARK INTER + INTRA:          -3.881
REMARK INTER:                  -3.853
REMARK INTRA:                  -0.028
REMARK UNBOUND:                -0.047
REMARK SMILES O=C([O-])CCC(=O)[O-]
REMARK SMILES IDX 4 1 2 2 1 3 3 4 5 5 6 6 7 7 8 8
REMARK H PARENT
REMARK Flexibility Score: inf
ROOT
ATOM      1  C   UNL     1      62.350  -4.251  20.670  1.00  0.00     0.059 C 
ENDROOT
BRANCH   1   2
ATOM      2  C   UNL     1      63.591  -3.968  21.461  1.00  0.00     0.042 C 
ATOM      3  O   UNL     1      64.603  -3.476  20.898  1.00  0.00    -0.550 OA
ATOM      4  O   UNL     1      63.614  -4.212  22.828  1.00  0.00    -0.550 OA
ENDBRANCH   1   2
BRANCH   1   5
ATOM      5  C   UNL     1      61.086  -3.877  21.451  1.00  0.00     0.059 C 
BRANCH   5   6
ATOM      6  C   UNL     1      59.959  -3.512  20.535  1.00  0.00     0.042 C 
ATOM      7  O   UNL     1      59.425  -2.374  20.608  1.00  0.00    -0.550 OA
ATOM      8  O   UNL     1      59.526  -4.414  19.571  1.00  0.00    -0.550 OA
ENDBRANCH   5   6
ENDBRANCH   1   5
TORSDOF 3
ENDMDL
MODEL 9
REMARK VINA RESULT:    -3.251      3.688      4.981
REMARK INTER + INTRA:          -3.868
REMARK INTER:                  -3.750
REMARK INTRA:                  -0.117
REMARK UNBOUND:                -0.047
REMARK SMILES O=C([O-])CCC(=O)[O-]
REMARK SMILES IDX 4 1 2 2 1 3 3 4 5 5 6 6 7 7 8 8
REMARK H PARENT
REMARK Flexibility Score: inf
ROOT
ATOM      1  C   UNL     1      51.934  -3.489  10.474  1.00  0.00     0.059 C 
ENDROOT
BRANCH   1   2
ATOM      2  C   UNL     1      51.978  -3.876  11.920  1.00  0.00     0.042 C 
ATOM      3  O   UNL     1      50.956  -3.741  12.644  1.00  0.00    -0.550 OA
ATOM      4  O   UNL     1      53.135  -4.423  12.460  1.00  0.00    -0.550 OA
ENDBRANCH   1   2
BRANCH   1   5
ATOM      5  C   UNL     1      52.413  -4.631   9.571  1.00  0.00     0.059 C 
BRANCH   5   6
ATOM      6  C   UNL     1      53.602  -4.226   8.754  1.00  0.00     0.042 C 
ATOM      7  O   UNL     1      54.560  -3.608   9.291  1.00  0.00    -0.550 OA
ATOM      8  O   UNL     1      53.671  -4.567   7.409  1.00  0.00    -0.550 OA
ENDBRANCH   5   6
ENDBRANCH   1   5
TORSDOF 3
ENDMDL
