MODEL 1
REMARK VINA RESULT:    -4.610      0.000      0.000
REMARK INTER + INTRA:          -4.610
REMARK INTER:                  -4.610
REMARK INTRA:                   0.000
REMARK UNBOUND:                 0.000
REMARK SMILES c1ccc2ccccc2c1
REMARK SMILES IDX 2 1 1 2 10 3 9 4 8 5 7 6 6 7 5 8 4 9 3 10
REMARK H PARENT
REMARK Flexibility Score: inf
ROOT
ATOM      1  C   UNL     1      10.960  15.135  19.496  1.00  0.00     0.001 A 
ATOM      2  C   UNL     1      10.497  13.816  19.534  1.00  0.00     0.001 A 
ATOM      3  C   UNL     1      10.162  13.222  20.755  1.00  0.00     0.009 A 
ATOM      4  C   UNL     1      10.289  13.949  21.949  1.00  0.00    -0.018 A 
ATOM      5  C   UNL     1       9.957  13.365  23.182  1.00  0.00     0.009 A 
ATOM      6  C   UNL     1      10.088  14.099  24.363  1.00  0.00     0.001 A 
ATOM      7  C   UNL     1      10.550  15.418  24.325  1.00  0.00     0.001 A 
ATOM      8  C   UNL     1      10.885  16.012  23.105  1.00  0.00     0.009 A 
ATOM      9  C   UNL     1      10.758  15.285  21.910  1.00  0.00    -0.018 A 
ATOM     10  C   UNL     1      11.091  15.869  20.677  1.00  0.00     0.009 A 
ENDROOT
TORSDOF 0
ENDMDL
MODEL 2
REMARK VINA RESULT:    -4.601      0.032      3.436
REMARK INTER + INTRA:          -4.601
REMARK INTER:                  -4.601
REMARK INTRA:                   0.000
REMARK UNBOUND:                 0.000
REMARK SMILES c1ccc2ccccc2c1
REMARK SMILES IDX 2 1 1 2 10 3 9 4 8 5 7 6 6 7 5 8 4 9 3 10
REMARK H PARENT
REMARK Flexibility Score: inf
ROOT
ATOM      1  C   UNL     1      10.516  15.437  24.306  1.00  0.00     0.001 A 
ATOM      2  C   UNL     1      10.072  14.112  24.344  1.00  0.00     0.001 A 
ATOM      3  C   UNL     1       9.957  13.374  23.163  1.00  0.00     0.009 A 
ATOM      4  C   UNL     1      10.286  13.962  21.931  1.00  0.00    -0.018 A 
ATOM      5  C   UNL     1      10.175  13.233  20.736  1.00  0.00     0.009 A 
ATOM      6  C   UNL     1      10.505  13.829  19.517  1.00  0.00     0.001 A 
ATOM      7  C   UNL     1      10.949  15.155  19.479  1.00  0.00     0.001 A 
ATOM      8  C   UNL     1      11.065  15.893  20.661  1.00  0.00     0.009 A 
ATOM      9  C   UNL     1      10.735  15.305  21.893  1.00  0.00    -0.018 A 
ATOM     10  C   UNL     1      10.847  16.034  23.087  1.00  0.00     0.009 A 
ENDROOT
TORSDOF 0
ENDMDL
MODEL 3
REMARK VINA RESULT:    -4.593      0.050      4.018
REMARK INTER + INTRA:          -4.593
REMARK INTER:                  -4.593
REMARK INTRA:                   0.000
REMARK UNBOUND:                 0.000
REMARK SMILES c1ccc2ccccc2c1
REMARK SMILES IDX 2 1 1 2 10 3 9 4 8 5 7 6 6 7 5 8 4 9 3 10
REMARK H PARENT
REMARK Flexibility Score: inf
ROOT
ATOM      1  C   UNL     1      10.061  14.071  24.362  1.00  0.00     0.001 A 
ATOM      2  C   UNL     1      10.500  15.398  24.324  1.00  0.00     0.001 A 
ATOM      3  C   UNL     1      10.820  16.000  23.104  1.00  0.00     0.009 A 
ATOM      4  C   UNL     1      10.703  15.272  21.908  1.00  0.00    -0.018 A 
ATOM      5  C   UNL     1      11.022  15.863  20.675  1.00  0.00     0.009 A 
ATOM      6  C   UNL     1      10.901  15.129  19.494  1.00  0.00     0.001 A 
ATOM      7  C   UNL     1      10.463  13.801  19.531  1.00  0.00     0.001 A 
ATOM      8  C   UNL     1      10.143  13.200  20.752  1.00  0.00     0.009 A 
ATOM      9  C   UNL     1      10.260  13.927  21.947  1.00  0.00    -0.018 A 
ATOM     10  C   UNL     1       9.941  13.336  23.180  1.00  0.00     0.009 A 
ENDROOT
TORSDOF 0
ENDMDL
MODEL 4
REMARK VINA RESULT:    -4.591      0.033      2.082
REMARK INTER + INTRA:          -4.591
REMARK INTER:                  -4.591
REMARK INTRA:                   0.000
REMARK UNBOUND:                 0.000
REMARK SMILES c1ccc2ccccc2c1
REMARK SMILES IDX 2 1 1 2 10 3 9 4 8 5 7 6 6 7 5 8 4 9 3 10
REMARK H PARENT
REMARK Flexibility Score: inf
ROOT
ATOM      1  C   UNL     1      10.465  13.803  19.529  1.00  0.00     0.001 A 
ATOM      2  C   UNL     1      10.931  15.120  19.473  1.00  0.00     0.001 A 
ATOM      3  C   UNL     1      11.078  15.866  20.646  1.00  0.00     0.009 A 
ATOM      4  C   UNL     1      10.758  15.294  21.888  1.00  0.00    -0.018 A 
ATOM      5  C   UNL     1      10.900  16.031  23.075  1.00  0.00     0.009 A 
ATOM      6  C   UNL     1      10.578  15.450  24.303  1.00  0.00     0.001 A 
ATOM      7  C   UNL     1      10.112  14.133  24.359  1.00  0.00     0.001 A 
ATOM      8  C   UNL     1       9.965  13.388  23.186  1.00  0.00     0.009 A 
ATOM      9  C   UNL     1      10.285  13.960  21.944  1.00  0.00    -0.018 A 
ATOM     10  C   UNL     1      10.143  13.223  20.758  1.00  0.00     0.009 A 
ENDROOT
TORSDOF 0
ENDMDL
MODEL 5
REMARK VINA RESULT:    -4.543      0.878      2.345
REMARK INTER + INTRA:          -4.543
REMARK INTER:                  -4.543
REMARK INTRA:                   0.000
REMARK UNBOUND:                 0.000
REMARK SMILES c1ccc2ccccc2c1
REMARK SMILES IDX 2 1 1 2 10 3 9 4 8 5 7 6 6 7 5 8 4 9 3 10
REMARK H PARENT
REMARK Flexibility Score: inf
ROOT
ATOM      1  C   UNL     1      10.215  13.146  20.364  1.00  0.00     0.001 A 
ATOM      2  C   UNL     1      10.475  14.183  19.463  1.00  0.00     0.001 A 
ATOM      3  C   UNL     1      10.766  15.467  19.932  1.00  0.00     0.009 A 
ATOM      4  C   UNL     1      10.800  15.721  21.312  1.00  0.00    -0.018 A 
ATOM      5  C   UNL     1      11.091  17.006  21.797  1.00  0.00     0.009 A 
ATOM      6  C   UNL     1      11.120  17.246  23.173  1.00  0.00     0.001 A 
ATOM      7  C   UNL     1      10.861  16.209  24.074  1.00  0.00     0.001 A 
ATOM      8  C   UNL     1      10.569  14.925  23.605  1.00  0.00     0.009 A 
ATOM      9  C   UNL     1      10.536  14.671  22.225  1.00  0.00    -0.018 A 
ATOM     10  C   UNL     1      10.245  13.386  21.740  1.00  0.00     0.009 A 
ENDROOT
TORSDOF 0
ENDMDL
MODEL 6
REMARK VINA RESULT:    -4.005      5.824      7.758
REMARK INTER + INTRA:          -4.005
REMARK INTER:                  -4.005
REMARK INTRA:                   0.000
REMARK UNBOUND:                 0.000
REMARK SMILES c1ccc2ccccc2c1
REMARK SMILES IDX 2 1 1 2 10 3 9 4 8 5 7 6 6 7 5 8 4 9 3 10
REMARK H PARENT
REMARK Flexibility Score: inf
ROOT
ATOM      1  C   UNL     1       9.465  10.130  24.374  1.00  0.00     0.001 A 
ATOM      2  C   UNL     1       9.295  11.202  25.256  1.00  0.00     0.001 A 
ATOM      3  C   UNL     1       8.974  10.966  26.596  1.00  0.00     0.009 A 
ATOM      4  C   UNL     1       8.820   9.651  27.062  1.00  0.00    -0.018 A 
ATOM      5  C   UNL     1       8.496   9.400  28.405  1.00  0.00     0.009 A 
ATOM      6  C   UNL     1       8.346   8.086  28.856  1.00  0.00     0.001 A 
ATOM      7  C   UNL     1       8.516   7.015  27.974  1.00  0.00     0.001 A 
ATOM      8  C   UNL     1       8.837   7.250  26.634  1.00  0.00     0.009 A 
ATOM      9  C   UNL     1       8.991   8.566  26.168  1.00  0.00    -0.018 A 
ATOM     10  C   UNL     1       9.314   8.817  24.825  1.00  0.00     0.009 A 
ENDROOT
TORSDOF 0
ENDMDL
MODEL 7
REMARK VINA RESULT:    -3.878     15.742     16.342
REMARK INTER + INTRA:          -3.878
REMARK INTER:                  -3.878
REMARK INTRA:                   0.000
REMARK UNBOUND:                 0.000
REMARK SMILES c1ccc2ccccc2c1
REMARK SMILES IDX 2 1 1 2 10 3 9 4 8 5 7 6 6 7 5 8 4 9 3 10
REMARK H PARENT
REMARK Flexibility Score: inf
ROOT
ATOM      1  C   UNL     1      23.654   6.483  26.113  1.00  0.00     0.001 A 
ATOM      2  C   UNL     1      23.638   5.372  26.961  1.00  0.00     0.001 A 
ATOM      3  C   UNL     1      23.601   5.544  28.347  1.00  0.00     0.009 A 
ATOM      4  C   UNL     1      23.581   6.837  28.895  1.00  0.00    -0.018 A 
ATOM      5  C   UNL     1      23.546   7.025  30.286  1.00  0.00     0.009 A 
ATOM      6  C   UNL     1      23.526   8.316  30.818  1.00  0.00     0.001 A 
ATOM      7  C   UNL     1      23.543   9.428  29.970  1.00  0.00     0.001 A 
ATOM      8  C   UNL     1      23.579   9.255  28.584  1.00  0.00     0.009 A 
ATOM      9  C   UNL     1      23.599   7.963  28.036  1.00  0.00    -0.018 A 
ATOM     10  C   UNL     1      23.635   7.775  26.645  1.00  0.00     0.009 A 
ENDROOT
TORSDOF 0
ENDMDL
MODEL 8
REMARK VINA RESULT:    -3.858     15.724     16.431
REMARK INTER + INTRA:          -3.858
REMARK INTER:                  -3.858
REMARK INTRA:                   0.000
REMARK UNBOUND:                 0.000
REMARK SMILES c1ccc2ccccc2c1
REMARK SMILES IDX 2 1 1 2 10 3 9 4 8 5 7 6 6 7 5 8 4 9 3 10
REMARK H PARENT
REMARK Flexibility Score: inf
ROOT
ATOM      1  C   UNL     1      23.620   5.373  27.002  1.00  0.00     0.001 A 
ATOM      2  C   UNL     1      23.612   6.481  26.149  1.00  0.00     0.001 A 
ATOM      3  C   UNL     1      23.583   7.776  26.675  1.00  0.00     0.009 A 
ATOM      4  C   UNL     1      23.560   7.969  28.066  1.00  0.00    -0.018 A 
ATOM      5  C   UNL     1      23.530   9.264  28.609  1.00  0.00     0.009 A 
ATOM      6  C   UNL     1      23.507   9.443  29.994  1.00  0.00     0.001 A 
ATOM      7  C   UNL     1      23.515   8.335  30.847  1.00  0.00     0.001 A 
ATOM      8  C   UNL     1      23.544   7.041  30.321  1.00  0.00     0.009 A 
ATOM      9  C   UNL     1      23.567   6.847  28.930  1.00  0.00    -0.018 A 
ATOM     10  C   UNL     1      23.597   5.552  28.387  1.00  0.00     0.009 A 
ENDROOT
TORSDOF 0
ENDMDL
MODEL 9
REMARK VINA RESULT:    -3.851     15.753     16.756
REMARK INTER + INTRA:          -3.851
REMARK INTER:                  -3.851
REMARK INTRA:                   0.000
REMARK UNBOUND:                 0.000
REMARK SMILES c1ccc2ccccc2c1
REMARK SMILES IDX 2 1 1 2 10 3 9 4 8 5 7 6 6 7 5 8 4 9 3 10
REMARK H PARENT
REMARK Flexibility Score: inf
ROOT
ATOM      1  C   UNL     1      23.592   8.144  30.861  1.00  0.00     0.001 A 
ATOM      2  C   UNL     1      23.586   9.307  30.084  1.00  0.00     0.001 A 
ATOM      3  C   UNL     1      23.586   9.222  28.689  1.00  0.00     0.009 A 
ATOM      4  C   UNL     1      23.593   7.966  28.061  1.00  0.00    -0.018 A 
ATOM      5  C   UNL     1      23.594   7.866  26.660  1.00  0.00     0.009 A 
ATOM      6  C   UNL     1      23.601   6.611  26.047  1.00  0.00     0.001 A 
ATOM      7  C   UNL     1      23.608   5.448  26.824  1.00  0.00     0.001 A 
ATOM      8  C   UNL     1      23.607   5.533  28.219  1.00  0.00     0.009 A 
ATOM      9  C   UNL     1      23.600   6.788  28.848  1.00  0.00    -0.018 A 
ATOM     10  C   UNL     1      23.599   6.889  30.248  1.00  0.00     0.009 A 
ENDROOT
TORSDOF 0
ENDMDL
