MODEL 1
REMARK VINA RESULT:    -5.444      0.000      0.000
REMARK INTER + INTRA:          -6.538
REMARK INTER:                  -6.398
REMARK INTRA:                  -0.140
REMARK UNBOUND:                -0.140
REMARK SMILES O=C([O-])C=Cc1ccc(O)c(O)c1
REMARK SMILES IDX 6 1 13 2 7 3 11 4 8 5 9 6 5 7 4 8 2 9 1 10 3 11 12 12 10 14
REMARK H PARENT 12 13 10 15
REMARK Flexibility Score: inf
ROOT
ATOM      1  C   UNL     1      28.774 -30.759  21.638  1.00  0.00    -0.022 A 
ATOM      2  C   UNL     1      28.164 -31.638  20.729  1.00  0.00     0.058 A 
ATOM      3  C   UNL     1      28.909 -31.158  22.980  1.00  0.00     0.012 A 
ATOM      4  C   UNL     1      27.671 -32.882  21.144  1.00  0.00     0.157 A 
ATOM      5  C   UNL     1      28.421 -32.396  23.401  1.00  0.00     0.051 A 
ATOM      6  C   UNL     1      27.798 -33.264  22.499  1.00  0.00     0.157 A 
ENDROOT
BRANCH   1   7
ATOM      7  C   UNL     1      29.284 -29.459  21.136  1.00  0.00     0.010 C 
ATOM      8  C   UNL     1      29.599 -28.426  21.928  1.00  0.00     0.025 C 
BRANCH   8   9
ATOM      9  C   UNL     1      30.091 -27.150  21.385  1.00  0.00     0.064 C 
ATOM     10  O   UNL     1      30.807 -27.149  20.351  1.00  0.00    -0.545 OA
ATOM     11  O   UNL     1      29.775 -25.941  21.997  1.00  0.00    -0.545 OA
ENDBRANCH   8   9
ENDBRANCH   1   7
BRANCH   4  12
ATOM     12  O   UNL     1      27.069 -33.698  20.184  1.00  0.00    -0.504 OA
ATOM     13  H   UNL     1      26.102 -33.987  20.214  1.00  0.00     0.293 HD
ENDBRANCH   4  12
BRANCH   6  14
ATOM     14  O   UNL     1      27.330 -34.487  22.987  1.00  0.00    -0.504 OA
ATOM     15  H   UNL     1      27.760 -35.377  22.783  1.00  0.00     0.293 HD
ENDBRANCH   6  14
TORSDOF 4
ENDMDL
MODEL 2
REMARK VINA RESULT:    -5.373      7.768      8.288
REMARK INTER + INTRA:          -6.455
REMARK INTER:                  -6.328
REMARK INTRA:                  -0.127
REMARK UNBOUND:                -0.140
REMARK SMILES O=C([O-])C=Cc1ccc(O)c(O)c1
REMARK SMILES IDX 6 1 13 2 7 3 11 4 8 5 9 6 5 7 4 8 2 9 1 10 3 11 12 12 10 14
REMARK H PARENT 12 13 10 15
REMARK Flexibility Score: inf
ROOT
ATOM      1  C   UNL     1      24.935 -23.398  24.102  1.00  0.00    -0.022 A 
ATOM      2  C   UNL     1      24.695 -24.058  22.886  1.00  0.00     0.058 A 
ATOM      3  C   UNL     1      24.347 -23.905  25.275  1.00  0.00     0.012 A 
ATOM      4  C   UNL     1      23.867 -25.185  22.824  1.00  0.00     0.157 A 
ATOM      5  C   UNL     1      23.520 -25.029  25.222  1.00  0.00     0.051 A 
ATOM      6  C   UNL     1      23.268 -25.675  24.008  1.00  0.00     0.157 A 
ENDROOT
BRANCH   1   7
ATOM      7  C   UNL     1      25.830 -22.214  24.104  1.00  0.00     0.010 C 
ATOM      8  C   UNL     1      27.142 -22.272  23.846  1.00  0.00     0.025 C 
BRANCH   8   9
ATOM      9  C   UNL     1      27.994 -21.072  23.871  1.00  0.00     0.064 C 
ATOM     10  O   UNL     1      29.222 -21.186  24.123  1.00  0.00    -0.545 OA
ATOM     11  O   UNL     1      27.464 -19.811  23.618  1.00  0.00    -0.545 OA
ENDBRANCH   8   9
ENDBRANCH   1   7
BRANCH   4  12
ATOM     12  O   UNL     1      23.669 -25.781  21.577  1.00  0.00    -0.504 OA
ATOM     13  H   UNL     1      24.031 -26.688  21.320  1.00  0.00     0.293 HD
ENDBRANCH   4  12
BRANCH   6  14
ATOM     14  O   UNL     1      22.430 -26.792  24.025  1.00  0.00    -0.504 OA
ATOM     15  H   UNL     1      21.835 -27.040  24.802  1.00  0.00     0.293 HD
ENDBRANCH   6  14
TORSDOF 4
ENDMDL
MODEL 3
REMARK VINA RESULT:    -5.221      7.883      9.562
REMARK INTER + INTRA:          -6.277
REMARK INTER:                  -6.146
REMARK INTRA:                  -0.131
REMARK UNBOUND:                -0.140
REMARK SMILES O=C([O-])C=Cc1ccc(O)c(O)c1
REMARK SMILES IDX 6 1 13 2 7 3 11 4 8 5 9 6 5 7 4 8 2 9 1 10 3 11 12 12 10 14
REMARK H PARENT 12 13 10 15
REMARK Flexibility Score: inf
ROOT
ATOM      1  C   UNL     1      23.674 -25.259  26.028  1.00  0.00    -0.022 A 
ATOM      2  C   UNL     1      23.564 -25.946  24.808  1.00  0.00     0.058 A 
ATOM      3  C   UNL     1      23.635 -23.853  26.020  1.00  0.00     0.012 A 
ATOM      4  C   UNL     1      23.443 -25.255  23.596  1.00  0.00     0.157 A 
ATOM      5  C   UNL     1      23.514 -23.157  24.816  1.00  0.00     0.051 A 
ATOM      6  C   UNL     1      23.421 -23.841  23.600  1.00  0.00     0.157 A 
ENDROOT
BRANCH   1   7
ATOM      7  C   UNL     1      23.790 -26.048  27.279  1.00  0.00     0.010 C 
ATOM      8  C   UNL     1      24.665 -27.047  27.452  1.00  0.00     0.025 C 
BRANCH   8   9
ATOM      9  C   UNL     1      24.737 -27.811  28.708  1.00  0.00     0.064 C 
ATOM     10  O   UNL     1      23.980 -27.505  29.665  1.00  0.00    -0.545 OA
ATOM     11  O   UNL     1      25.629 -28.869  28.854  1.00  0.00    -0.545 OA
ENDBRANCH   8   9
ENDBRANCH   1   7
BRANCH   4  12
ATOM     12  O   UNL     1      23.348 -26.007  22.423  1.00  0.00    -0.504 OA
ATOM     13  H   UNL     1      22.493 -26.136  21.903  1.00  0.00     0.293 HD
ENDBRANCH   4  12
BRANCH   6  14
ATOM     14  O   UNL     1      23.305 -23.083  22.432  1.00  0.00    -0.504 OA
ATOM     15  H   UNL     1      23.156 -22.085  22.419  1.00  0.00     0.293 HD
ENDBRANCH   6  14
TORSDOF 4
ENDMDL
MODEL 4
REMARK VINA RESULT:    -5.204      7.852      9.702
REMARK INTER + INTRA:          -6.257
REMARK INTER:                  -6.124
REMARK INTRA:                  -0.132
REMARK UNBOUND:                -0.140
REMARK SMILES O=C([O-])C=Cc1ccc(O)c(O)c1
REMARK SMILES IDX 6 1 13 2 7 3 11 4 8 5 9 6 5 7 4 8 2 9 1 10 3 11 12 12 10 14
REMARK H PARENT 12 13 10 15
REMARK Flexibility Score: inf
ROOT
ATOM      1  C   UNL     1      23.608 -25.431  26.010  1.00  0.00    -0.022 A 
ATOM      2  C   UNL     1      24.763 -24.868  25.444  1.00  0.00     0.058 A 
ATOM      3  C   UNL     1      22.375 -25.247  25.358  1.00  0.00     0.012 A 
ATOM      4  C   UNL     1      24.699 -24.112  24.267  1.00  0.00     0.157 A 
ATOM      5  C   UNL     1      22.303 -24.495  24.183  1.00  0.00     0.051 A 
ATOM      6  C   UNL     1      23.451 -23.920  23.629  1.00  0.00     0.157 A 
ENDROOT
BRANCH   1   7
ATOM      7  C   UNL     1      23.742 -26.229  27.254  1.00  0.00     0.010 C 
ATOM      8  C   UNL     1      24.725 -27.112  27.470  1.00  0.00     0.025 C 
BRANCH   8   9
ATOM      9  C   UNL     1      24.812 -27.891  28.715  1.00  0.00     0.064 C 
ATOM     10  O   UNL     1      24.051 -27.612  29.677  1.00  0.00    -0.545 OA
ATOM     11  O   UNL     1      25.723 -28.935  28.846  1.00  0.00    -0.545 OA
ENDBRANCH   8   9
ENDBRANCH   1   7
BRANCH   4  12
ATOM     12  O   UNL     1      25.889 -23.576  23.769  1.00  0.00    -0.504 OA
ATOM     13  H   UNL     1      25.935 -22.780  23.151  1.00  0.00     0.293 HD
ENDBRANCH   4  12
BRANCH   6  14
ATOM     14  O   UNL     1      23.308 -23.179  22.455  1.00  0.00    -0.504 OA
ATOM     15  H   UNL     1      22.417 -22.938  22.044  1.00  0.00     0.293 HD
ENDBRANCH   6  14
TORSDOF 4
ENDMDL
MODEL 5
REMARK VINA RESULT:    -5.203      8.950     10.339
REMARK INTER + INTRA:          -6.255
REMARK INTER:                  -6.127
REMARK INTRA:                  -0.128
REMARK UNBOUND:                -0.140
REMARK SMILES O=C([O-])C=Cc1ccc(O)c(O)c1
REMARK SMILES IDX 6 1 13 2 7 3 11 4 8 5 9 6 5 7 4 8 2 9 1 10 3 11 12 12 10 14
REMARK H PARENT 12 13 10 15
REMARK Flexibility Score: inf
ROOT
ATOM      1  C   UNL     1      23.539 -23.344  25.042  1.00  0.00    -0.022 A 
ATOM      2  C   UNL     1      22.953 -24.619  25.066  1.00  0.00     0.058 A 
ATOM      3  C   UNL     1      24.159 -22.905  23.858  1.00  0.00     0.012 A 
ATOM      4  C   UNL     1      23.001 -25.460  23.947  1.00  0.00     0.157 A 
ATOM      5  C   UNL     1      24.210 -23.737  22.737  1.00  0.00     0.051 A 
ATOM      6  C   UNL     1      23.642 -25.014  22.768  1.00  0.00     0.157 A 
ENDROOT
BRANCH   1   7
ATOM      7  C   UNL     1      23.447 -22.496  26.256  1.00  0.00     0.010 C 
ATOM      8  C   UNL     1      22.477 -21.596  26.466  1.00  0.00     0.025 C 
BRANCH   8   9
ATOM      9  C   UNL     1      22.432 -20.768  27.681  1.00  0.00     0.064 C 
ATOM     10  O   UNL     1      23.103 -21.107  28.690  1.00  0.00    -0.545 OA
ATOM     11  O   UNL     1      21.660 -19.612  27.733  1.00  0.00    -0.545 OA
ENDBRANCH   8   9
ENDBRANCH   1   7
BRANCH   4  12
ATOM     12  O   UNL     1      22.404 -26.718  24.050  1.00  0.00    -0.504 OA
ATOM     13  H   UNL     1      22.637 -27.504  23.461  1.00  0.00     0.293 HD
ENDBRANCH   4  12
BRANCH   6  14
ATOM     14  O   UNL     1      23.731 -25.795  21.614  1.00  0.00    -0.504 OA
ATOM     15  H   UNL     1      24.310 -25.566  20.819  1.00  0.00     0.293 HD
ENDBRANCH   6  14
TORSDOF 4
ENDMDL
MODEL 6
REMARK VINA RESULT:    -5.158      7.892      8.656
REMARK INTER + INTRA:          -6.202
REMARK INTER:                  -6.067
REMARK INTRA:                  -0.135
REMARK UNBOUND:                -0.140
REMARK SMILES O=C([O-])C=Cc1ccc(O)c(O)c1
REMARK SMILES IDX 6 1 13 2 7 3 11 4 8 5 9 6 5 7 4 8 2 9 1 10 3 11 12 12 10 14
REMARK H PARENT 12 13 10 15
REMARK Flexibility Score: inf
ROOT
ATOM      1  C   UNL     1      24.493 -23.721  24.530  1.00  0.00    -0.022 A 
ATOM      2  C   UNL     1      24.045 -24.880  23.875  1.00  0.00     0.058 A 
ATOM      3  C   UNL     1      23.897 -23.361  25.753  1.00  0.00     0.012 A 
ATOM      4  C   UNL     1      23.007 -25.657  24.405  1.00  0.00     0.157 A 
ATOM      5  C   UNL     1      22.862 -24.131  26.288  1.00  0.00     0.051 A 
ATOM      6  C   UNL     1      22.405 -25.275  25.626  1.00  0.00     0.157 A 
ENDROOT
BRANCH   1   7
ATOM      7  C   UNL     1      25.602 -22.945  23.923  1.00  0.00     0.010 C 
ATOM      8  C   UNL     1      26.610 -22.413  24.625  1.00  0.00     0.025 C 
BRANCH   8   9
ATOM      9  C   UNL     1      27.684 -21.639  23.982  1.00  0.00     0.064 C 
ATOM     10  O   UNL     1      28.797 -22.183  23.764  1.00  0.00    -0.545 OA
ATOM     11  O   UNL     1      27.488 -20.313  23.609  1.00  0.00    -0.545 OA
ENDBRANCH   8   9
ENDBRANCH   1   7
BRANCH   4  12
ATOM     12  O   UNL     1      22.611 -26.789  23.691  1.00  0.00    -0.504 OA
ATOM     13  H   UNL     1      21.878 -27.417  23.989  1.00  0.00     0.293 HD
ENDBRANCH   4  12
BRANCH   6  14
ATOM     14  O   UNL     1      21.366 -25.998  26.215  1.00  0.00    -0.504 OA
ATOM     15  H   UNL     1      20.771 -25.638  26.947  1.00  0.00     0.293 HD
ENDBRANCH   6  14
TORSDOF 4
ENDMDL
MODEL 7
REMARK VINA RESULT:    -5.124      8.294      9.419
REMARK INTER + INTRA:          -6.163
REMARK INTER:                  -6.031
REMARK INTRA:                  -0.132
REMARK UNBOUND:                -0.140
REMARK SMILES O=C([O-])C=Cc1ccc(O)c(O)c1
REMARK SMILES IDX 6 1 13 2 7 3 11 4 8 5 9 6 5 7 4 8 2 9 1 10 3 11 12 12 10 14
REMARK H PARENT 12 13 10 15
REMARK Flexibility Score: inf
ROOT
ATOM      1  C   UNL     1      24.129 -23.925  24.148  1.00  0.00    -0.022 A 
ATOM      2  C   UNL     1      23.178 -23.005  24.617  1.00  0.00     0.058 A 
ATOM      3  C   UNL     1      23.751 -25.271  23.991  1.00  0.00     0.012 A 
ATOM      4  C   UNL     1      21.880 -23.412  24.950  1.00  0.00     0.157 A 
ATOM      5  C   UNL     1      22.458 -25.684  24.320  1.00  0.00     0.051 A 
ATOM      6  C   UNL     1      21.516 -24.771  24.803  1.00  0.00     0.157 A 
ENDROOT
BRANCH   1   7
ATOM      7  C   UNL     1      25.486 -23.431  23.804  1.00  0.00     0.010 C 
ATOM      8  C   UNL     1      26.041 -22.339  24.344  1.00  0.00     0.025 C 
BRANCH   8   9
ATOM      9  C   UNL     1      27.386 -21.880  23.963  1.00  0.00     0.064 C 
ATOM     10  O   UNL     1      27.640 -20.648  23.945  1.00  0.00    -0.545 OA
ATOM     11  O   UNL     1      28.385 -22.787  23.624  1.00  0.00    -0.545 OA
ENDBRANCH   8   9
ENDBRANCH   1   7
BRANCH   4  12
ATOM     12  O   UNL     1      20.992 -22.441  25.418  1.00  0.00    -0.504 OA
ATOM     13  H   UNL     1      20.867 -22.213  26.394  1.00  0.00     0.293 HD
ENDBRANCH   4  12
BRANCH   6  14
ATOM     14  O   UNL     1      20.243 -25.251  25.115  1.00  0.00    -0.504 OA
ATOM     15  H   UNL     1      19.487 -24.670  25.449  1.00  0.00     0.293 HD
ENDBRANCH   6  14
TORSDOF 4
ENDMDL
MODEL 8
REMARK VINA RESULT:    -5.103      9.279     10.015
REMARK INTER + INTRA:          -6.138
REMARK INTER:                  -6.006
REMARK INTRA:                  -0.132
REMARK UNBOUND:                -0.140
REMARK SMILES O=C([O-])C=Cc1ccc(O)c(O)c1
REMARK SMILES IDX 6 1 13 2 7 3 11 4 8 5 9 6 5 7 4 8 2 9 1 10 3 11 12 12 10 14
REMARK H PARENT 12 13 10 15
REMARK Flexibility Score: inf
ROOT
ATOM      1  C   UNL     1      23.647 -26.178  28.071  1.00  0.00    -0.022 A 
ATOM      2  C   UNL     1      24.232 -27.453  28.002  1.00  0.00     0.058 A 
ATOM      3  C   UNL     1      23.720 -25.464  29.282  1.00  0.00     0.012 A 
ATOM      4  C   UNL     1      24.856 -28.025  29.116  1.00  0.00     0.157 A 
ATOM      5  C   UNL     1      24.342 -26.028  30.397  1.00  0.00     0.051 A 
ATOM      6  C   UNL     1      24.909 -27.304  30.332  1.00  0.00     0.157 A 
ENDROOT
BRANCH   1   7
ATOM      7  C   UNL     1      23.008 -25.622  26.853  1.00  0.00     0.010 C 
ATOM      8  C   UNL     1      21.862 -24.929  26.864  1.00  0.00     0.025 C 
BRANCH   8   9
ATOM      9  C   UNL     1      21.257 -24.405  25.628  1.00  0.00     0.064 C 
ATOM     10  O   UNL     1      20.670 -25.191  24.842  1.00  0.00    -0.545 OA
ATOM     11  O   UNL     1      21.323 -23.050  25.316  1.00  0.00    -0.545 OA
ENDBRANCH   8   9
ENDBRANCH   1   7
BRANCH   4  12
ATOM     12  O   UNL     1      25.407 -29.301  28.973  1.00  0.00    -0.504 OA
ATOM     13  H   UNL     1      26.294 -29.486  28.528  1.00  0.00     0.293 HD
ENDBRANCH   4  12
BRANCH   6  14
ATOM     14  O   UNL     1      25.513 -27.810  31.485  1.00  0.00    -0.504 OA
ATOM     15  H   UNL     1      25.964 -28.712  31.538  1.00  0.00     0.293 HD
ENDBRANCH   6  14
TORSDOF 4
ENDMDL
