MODEL 1
REMARK VINA RESULT:    -3.438      0.000      0.000
REMARK INTER + INTRA:          -4.128
REMARK INTER:                  -4.040
REMARK INTRA:                  -0.088
REMARK UNBOUND:                -0.088
REMARK SMILES COc1cc2ccc(=O)oc2c(OC)c1OC
REMARK SMILES IDX 3 1 15 2 12 3 11 4 5 5 4 6 6 7 7 8 8 9 9 10 10 11 2 12 1 13
REMARK SMILES IDX 16 14 17 15 13 16 14 17
REMARK H PARENT
REMARK Flexibility Score: inf
ROOT
ATOM      1  C   UNL     1      34.871 -32.074   9.184  1.00  0.00     0.165 A 
ATOM      2  C   UNL     1      36.271 -31.952   9.171  1.00  0.00     0.207 A 
ATOM      3  C   UNL     1      36.905 -30.904   9.895  1.00  0.00     0.208 A 
ATOM      4  C   UNL     1      36.102 -29.989  10.625  1.00  0.00     0.184 A 
ATOM      5  C   UNL     1      34.696 -30.129  10.624  1.00  0.00     0.025 A 
ATOM      6  C   UNL     1      34.090 -31.162   9.910  1.00  0.00     0.062 A 
ATOM      7  C   UNL     1      33.926 -29.213  11.352  1.00  0.00     0.020 A 
ATOM      8  C   UNL     1      34.557 -28.192  12.055  1.00  0.00     0.094 A 
ATOM      9  C   UNL     1      35.949 -28.110  12.016  1.00  0.00     0.336 A 
ATOM     10  O   UNL     1      36.543 -27.195  12.643  1.00  0.00    -0.246 OA
ATOM     11  O   UNL     1      36.655 -28.993  11.316  1.00  0.00    -0.419 OA
ENDROOT
BRANCH   1  12
ATOM     12  O   UNL     1      34.291 -33.125   8.455  1.00  0.00    -0.493 OA
ATOM     13  C   UNL     1      34.011 -33.086   7.059  1.00  0.00     0.278 C 
ENDBRANCH   1  12
BRANCH   2  14
ATOM     14  O   UNL     1      36.969 -32.915   8.414  1.00  0.00    -0.490 OA
ATOM     15  C   UNL     1      37.498 -32.755   7.103  1.00  0.00     0.278 C 
ENDBRANCH   2  14
BRANCH   3  16
ATOM     16  O   UNL     1      38.309 -30.813   9.859  1.00  0.00    -0.490 OA
ATOM     17  C   UNL     1      39.238 -31.574  10.623  1.00  0.00     0.278 C 
ENDBRANCH   3  16
TORSDOF 3
ENDMDL
MODEL 2
REMARK VINA RESULT:    -2.798     21.779     23.402
REMARK INTER + INTRA:          -3.376
REMARK INTER:                  -3.145
REMARK INTRA:                  -0.231
REMARK UNBOUND:                -0.088
REMARK SMILES COc1cc2ccc(=O)oc2c(OC)c1OC
REMARK SMILES IDX 3 1 15 2 12 3 11 4 5 5 4 6 6 7 7 8 8 9 9 10 10 11 2 12 1 13
REMARK SMILES IDX 16 14 17 15 13 16 14 17
REMARK H PARENT
REMARK Flexibility Score: inf
ROOT
ATOM      1  C   UNL     1      19.901 -15.313  -0.072  1.00  0.00     0.165 A 
ATOM      2  C   UNL     1      19.901 -15.248   1.332  1.00  0.00     0.207 A 
ATOM      3  C   UNL     1      19.898 -16.444   2.104  1.00  0.00     0.208 A 
ATOM      4  C   UNL     1      19.893 -17.695   1.434  1.00  0.00     0.184 A 
ATOM      5  C   UNL     1      19.892 -17.738   0.022  1.00  0.00     0.025 A 
ATOM      6  C   UNL     1      19.896 -16.557  -0.720  1.00  0.00     0.062 A 
ATOM      7  C   UNL     1      19.886 -18.984  -0.615  1.00  0.00     0.020 A 
ATOM      8  C   UNL     1      19.882 -20.146   0.149  1.00  0.00     0.094 A 
ATOM      9  C   UNL     1      19.884 -20.036   1.540  1.00  0.00     0.336 A 
ATOM     10  O   UNL     1      19.880 -21.071   2.254  1.00  0.00    -0.246 OA
ATOM     11  O   UNL     1      19.888 -18.838   2.118  1.00  0.00    -0.419 OA
ENDROOT
BRANCH   1  12
ATOM     12  O   UNL     1      19.905 -14.106  -0.790  1.00  0.00    -0.493 OA
ATOM     13  C   UNL     1      20.938 -13.695  -1.680  1.00  0.00     0.278 C 
ENDBRANCH   1  12
BRANCH   2  14
ATOM     14  O   UNL     1      19.907 -13.954   1.893  1.00  0.00    -0.490 OA
ATOM     15  C   UNL     1      21.047 -13.166   2.216  1.00  0.00     0.278 C 
ENDBRANCH   2  14
BRANCH   3  16
ATOM     16  O   UNL     1      19.898 -16.340   3.508  1.00  0.00    -0.490 OA
ATOM     17  C   UNL     1      21.019 -16.093   4.350  1.00  0.00     0.278 C 
ENDBRANCH   3  16
TORSDOF 3
ENDMDL
MODEL 3
REMARK VINA RESULT:    -2.695     21.642     23.483
REMARK INTER + INTRA:          -3.256
REMARK INTER:                  -3.058
REMARK INTRA:                  -0.197
REMARK UNBOUND:                -0.088
REMARK SMILES COc1cc2ccc(=O)oc2c(OC)c1OC
REMARK SMILES IDX 3 1 15 2 12 3 11 4 5 5 4 6 6 7 7 8 8 9 9 10 10 11 2 12 1 13
REMARK SMILES IDX 16 14 17 15 13 16 14 17
REMARK H PARENT
REMARK Flexibility Score: inf
ROOT
ATOM      1  C   UNL     1      20.303 -15.973   4.092  1.00  0.00     0.165 A 
ATOM      2  C   UNL     1      20.289 -14.783   3.345  1.00  0.00     0.207 A 
ATOM      3  C   UNL     1      20.210 -14.831   1.925  1.00  0.00     0.208 A 
ATOM      4  C   UNL     1      20.148 -16.095   1.282  1.00  0.00     0.184 A 
ATOM      5  C   UNL     1      20.163 -17.279   2.052  1.00  0.00     0.025 A 
ATOM      6  C   UNL     1      20.240 -17.215   3.442  1.00  0.00     0.062 A 
ATOM      7  C   UNL     1      20.101 -18.513   1.394  1.00  0.00     0.020 A 
ATOM      8  C   UNL     1      20.025 -18.548   0.005  1.00  0.00     0.094 A 
ATOM      9  C   UNL     1      20.013 -17.342  -0.697  1.00  0.00     0.336 A 
ATOM     10  O   UNL     1      19.945 -17.346  -1.954  1.00  0.00    -0.246 OA
ATOM     11  O   UNL     1      20.074 -16.185  -0.046  1.00  0.00    -0.419 OA
ENDROOT
BRANCH   1  12
ATOM     12  O   UNL     1      20.381 -15.875   5.491  1.00  0.00    -0.493 OA
ATOM     13  C   UNL     1      21.587 -15.949   6.244  1.00  0.00     0.278 C 
ENDBRANCH   1  12
BRANCH   2  14
ATOM     14  O   UNL     1      20.355 -13.585   4.085  1.00  0.00    -0.490 OA
ATOM     15  C   UNL     1      21.529 -12.875   4.463  1.00  0.00     0.278 C 
ENDBRANCH   2  14
BRANCH   3  16
ATOM     16  O   UNL     1      20.198 -13.619   1.209  1.00  0.00    -0.490 OA
ATOM     17  C   UNL     1      21.327 -12.875   0.762  1.00  0.00     0.278 C 
ENDBRANCH   3  16
TORSDOF 3
ENDMDL
MODEL 4
REMARK VINA RESULT:    -2.684     21.422     23.137
REMARK INTER + INTRA:          -3.242
REMARK INTER:                  -3.160
REMARK INTRA:                  -0.081
REMARK UNBOUND:                -0.088
REMARK SMILES COc1cc2ccc(=O)oc2c(OC)c1OC
REMARK SMILES IDX 3 1 15 2 12 3 11 4 5 5 4 6 6 7 7 8 8 9 9 10 10 11 2 12 1 13
REMARK SMILES IDX 16 14 17 15 13 16 14 17
REMARK H PARENT
REMARK Flexibility Score: inf
ROOT
ATOM      1  C   UNL     1      19.924 -16.442   2.923  1.00  0.00     0.165 A 
ATOM      2  C   UNL     1      19.909 -15.799   1.674  1.00  0.00     0.207 A 
ATOM      3  C   UNL     1      19.895 -16.565   0.474  1.00  0.00     0.208 A 
ATOM      4  C   UNL     1      19.898 -17.981   0.563  1.00  0.00     0.184 A 
ATOM      5  C   UNL     1      19.914 -18.608   1.829  1.00  0.00     0.025 A 
ATOM      6  C   UNL     1      19.927 -17.843   2.995  1.00  0.00     0.062 A 
ATOM      7  C   UNL     1      19.917 -20.007   1.890  1.00  0.00     0.020 A 
ATOM      8  C   UNL     1      19.903 -20.745   0.711  1.00  0.00     0.094 A 
ATOM      9  C   UNL     1      19.887 -20.066  -0.507  1.00  0.00     0.336 A 
ATOM     10  O   UNL     1      19.876 -20.711  -1.587  1.00  0.00    -0.246 OA
ATOM     11  O   UNL     1      19.886 -18.736  -0.535  1.00  0.00    -0.419 OA
ENDROOT
BRANCH   1  12
ATOM     12  O   UNL     1      19.937 -15.643   4.078  1.00  0.00    -0.493 OA
ATOM     13  C   UNL     1      20.685 -15.931   5.255  1.00  0.00     0.278 C 
ENDBRANCH   1  12
BRANCH   2  14
ATOM     14  O   UNL     1      19.908 -14.389   1.702  1.00  0.00    -0.490 OA
ATOM     15  C   UNL     1      21.006 -13.537   2.006  1.00  0.00     0.278 C 
ENDBRANCH   2  14
BRANCH   3  16
ATOM     16  O   UNL     1      19.880 -15.886  -0.759  1.00  0.00    -0.490 OA
ATOM     17  C   UNL     1      20.981 -15.675  -1.636  1.00  0.00     0.278 C 
ENDBRANCH   3  16
TORSDOF 3
ENDMDL
MODEL 5
REMARK VINA RESULT:    -2.596     21.705     23.038
REMARK INTER + INTRA:          -3.139
REMARK INTER:                  -3.086
REMARK INTRA:                  -0.053
REMARK UNBOUND:                -0.088
REMARK SMILES COc1cc2ccc(=O)oc2c(OC)c1OC
REMARK SMILES IDX 3 1 15 2 12 3 11 4 5 5 4 6 6 7 7 8 8 9 9 10 10 11 2 12 1 13
REMARK SMILES IDX 16 14 17 15 13 16 14 17
REMARK H PARENT
REMARK Flexibility Score: inf
ROOT
ATOM      1  C   UNL     1      20.050 -18.126   1.176  1.00  0.00     0.165 A 
ATOM      2  C   UNL     1      20.018 -16.992   0.347  1.00  0.00     0.207 A 
ATOM      3  C   UNL     1      19.977 -15.689   0.919  1.00  0.00     0.208 A 
ATOM      4  C   UNL     1      19.967 -15.558   2.332  1.00  0.00     0.184 A 
ATOM      5  C   UNL     1      19.999 -16.711   3.147  1.00  0.00     0.025 A 
ATOM      6  C   UNL     1      20.040 -17.980   2.571  1.00  0.00     0.062 A 
ATOM      7  C   UNL     1      19.989 -16.555   4.538  1.00  0.00     0.020 A 
ATOM      8  C   UNL     1      19.948 -15.277   5.085  1.00  0.00     0.094 A 
ATOM      9  C   UNL     1      19.918 -14.178   4.225  1.00  0.00     0.336 A 
ATOM     10  O   UNL     1      19.880 -13.012   4.695  1.00  0.00    -0.246 OA
ATOM     11  O   UNL     1      19.928 -14.357   2.908  1.00  0.00    -0.419 OA
ENDROOT
BRANCH   1  12
ATOM     12  O   UNL     1      20.090 -19.390   0.566  1.00  0.00    -0.493 OA
ATOM     13  C   UNL     1      20.311 -20.617   1.255  1.00  0.00     0.278 C 
ENDBRANCH   1  12
BRANCH   2  14
ATOM     14  O   UNL     1      20.031 -17.238  -1.041  1.00  0.00    -0.490 OA
ATOM     15  C   UNL     1      21.154 -17.171  -1.912  1.00  0.00     0.278 C 
ENDBRANCH   2  14
BRANCH   3  16
ATOM     16  O   UNL     1      19.945 -14.576   0.057  1.00  0.00    -0.490 OA
ATOM     17  C   UNL     1      20.851 -13.479   0.039  1.00  0.00     0.278 C 
ENDBRANCH   3  16
TORSDOF 3
ENDMDL
MODEL 6
REMARK VINA RESULT:    -2.360     21.807     23.324
REMARK INTER + INTRA:          -2.861
REMARK INTER:                  -2.776
REMARK INTRA:                  -0.085
REMARK UNBOUND:                -0.088
REMARK SMILES COc1cc2ccc(=O)oc2c(OC)c1OC
REMARK SMILES IDX 3 1 15 2 12 3 11 4 5 5 4 6 6 7 7 8 8 9 9 10 10 11 2 12 1 13
REMARK SMILES IDX 16 14 17 15 13 16 14 17
REMARK H PARENT
REMARK Flexibility Score: inf
ROOT
ATOM      1  C   UNL     1      20.739 -13.749   0.957  1.00  0.00     0.165 A 
ATOM      2  C   UNL     1      20.316 -15.088   0.995  1.00  0.00     0.207 A 
ATOM      3  C   UNL     1      20.326 -15.807   2.223  1.00  0.00     0.208 A 
ATOM      4  C   UNL     1      20.770 -15.151   3.400  1.00  0.00     0.184 A 
ATOM      5  C   UNL     1      21.192 -13.804   3.340  1.00  0.00     0.025 A 
ATOM      6  C   UNL     1      21.175 -13.114   2.129  1.00  0.00     0.062 A 
ATOM      7  C   UNL     1      21.627 -13.179   4.515  1.00  0.00     0.020 A 
ATOM      8  C   UNL     1      21.633 -13.892   5.710  1.00  0.00     0.094 A 
ATOM      9  C   UNL     1      21.203 -15.220   5.702  1.00  0.00     0.336 A 
ATOM     10  O   UNL     1      21.200 -15.886   6.769  1.00  0.00    -0.246 OA
ATOM     11  O   UNL     1      20.797 -15.788   4.571  1.00  0.00    -0.419 OA
ENDROOT
BRANCH   1  12
ATOM     12  O   UNL     1      20.710 -13.081  -0.278  1.00  0.00    -0.493 OA
ATOM     13  C   UNL     1      21.837 -12.898  -1.129  1.00  0.00     0.278 C 
ENDBRANCH   1  12
BRANCH   2  14
ATOM     14  O   UNL     1      19.894 -15.641  -0.232  1.00  0.00    -0.490 OA
ATOM     15  C   UNL     1      20.674 -16.416  -1.135  1.00  0.00     0.278 C 
ENDBRANCH   2  14
BRANCH   3  16
ATOM     16  O   UNL     1      19.895 -17.148   2.223  1.00  0.00    -0.490 OA
ATOM     17  C   UNL     1      20.598 -18.275   1.713  1.00  0.00     0.278 C 
ENDBRANCH   3  16
TORSDOF 3
ENDMDL
MODEL 7
REMARK VINA RESULT:    -2.242      1.666      3.753
REMARK INTER + INTRA:          -2.723
REMARK INTER:                  -2.805
REMARK INTRA:                   0.082
REMARK UNBOUND:                -0.088
REMARK SMILES COc1cc2ccc(=O)oc2c(OC)c1OC
REMARK SMILES IDX 3 1 15 2 12 3 11 4 5 5 4 6 6 7 7 8 8 9 9 10 10 11 2 12 1 13
REMARK SMILES IDX 16 14 17 15 13 16 14 17
REMARK H PARENT
REMARK Flexibility Score: inf
ROOT
ATOM      1  C   UNL     1      35.950 -32.028   9.666  1.00  0.00     0.165 A 
ATOM      2  C   UNL     1      35.347 -30.808  10.018  1.00  0.00     0.207 A 
ATOM      3  C   UNL     1      36.102 -29.805  10.688  1.00  0.00     0.208 A 
ATOM      4  C   UNL     1      37.465 -30.057  10.993  1.00  0.00     0.184 A 
ATOM      5  C   UNL     1      38.051 -31.290  10.630  1.00  0.00     0.025 A 
ATOM      6  C   UNL     1      37.298 -32.263   9.974  1.00  0.00     0.062 A 
ATOM      7  C   UNL     1      39.397 -31.516  10.943  1.00  0.00     0.020 A 
ATOM      8  C   UNL     1      40.124 -30.528  11.598  1.00  0.00     0.094 A 
ATOM      9  C   UNL     1      39.487 -29.331  11.928  1.00  0.00     0.336 A 
ATOM     10  O   UNL     1      40.122 -28.422  12.521  1.00  0.00    -0.246 OA
ATOM     11  O   UNL     1      38.207 -29.145  11.620  1.00  0.00    -0.419 OA
ENDROOT
BRANCH   1  12
ATOM     12  O   UNL     1      35.165 -32.987   9.006  1.00  0.00    -0.493 OA
ATOM     13  C   UNL     1      35.025 -33.088   7.592  1.00  0.00     0.278 C 
ENDBRANCH   1  12
BRANCH   2  14
ATOM     14  O   UNL     1      33.989 -30.664   9.667  1.00  0.00    -0.490 OA
ATOM     15  C   UNL     1      32.899 -30.415  10.547  1.00  0.00     0.278 C 
ENDBRANCH   2  14
BRANCH   3  16
ATOM     16  O   UNL     1      35.465 -28.595  11.025  1.00  0.00    -0.490 OA
ATOM     17  C   UNL     1      34.845 -28.268  12.264  1.00  0.00     0.278 C 
ENDBRANCH   3  16
TORSDOF 3
ENDMDL
MODEL 8
REMARK VINA RESULT:    -2.194     21.268     22.509
REMARK INTER + INTRA:          -2.667
REMARK INTER:                  -2.471
REMARK INTRA:                  -0.195
REMARK UNBOUND:                -0.088
REMARK SMILES COc1cc2ccc(=O)oc2c(OC)c1OC
REMARK SMILES IDX 3 1 15 2 12 3 11 4 5 5 4 6 6 7 7 8 8 9 9 10 10 11 2 12 1 13
REMARK SMILES IDX 16 14 17 15 13 16 14 17
REMARK H PARENT
REMARK Flexibility Score: inf
ROOT
ATOM      1  C   UNL     1      19.893 -19.728   1.264  1.00  0.00     0.165 A 
ATOM      2  C   UNL     1      19.892 -19.167  -0.024  1.00  0.00     0.207 A 
ATOM      3  C   UNL     1      19.910 -17.754  -0.189  1.00  0.00     0.208 A 
ATOM      4  C   UNL     1      19.926 -16.927   0.965  1.00  0.00     0.184 A 
ATOM      5  C   UNL     1      19.926 -17.512   2.251  1.00  0.00     0.025 A 
ATOM      6  C   UNL     1      19.909 -18.899   2.395  1.00  0.00     0.062 A 
ATOM      7  C   UNL     1      19.942 -16.675   3.373  1.00  0.00     0.020 A 
ATOM      8  C   UNL     1      19.958 -15.295   3.200  1.00  0.00     0.094 A 
ATOM      9  C   UNL     1      19.958 -14.780   1.903  1.00  0.00     0.336 A 
ATOM     10  O   UNL     1      19.972 -13.536   1.720  1.00  0.00    -0.246 OA
ATOM     11  O   UNL     1      19.942 -15.599   0.856  1.00  0.00    -0.419 OA
ENDROOT
BRANCH   1  12
ATOM     12  O   UNL     1      19.876 -21.128   1.375  1.00  0.00    -0.493 OA
ATOM     13  C   UNL     1      20.994 -21.926   1.749  1.00  0.00     0.278 C 
ENDBRANCH   1  12
BRANCH   2  14
ATOM     14  O   UNL     1      19.875 -20.080  -1.098  1.00  0.00    -0.490 OA
ATOM     15  C   UNL     1      20.967 -20.433  -1.940  1.00  0.00     0.278 C 
ENDBRANCH   2  14
BRANCH   3  16
ATOM     16  O   UNL     1      19.909 -17.227  -1.494  1.00  0.00    -0.490 OA
ATOM     17  C   UNL     1      20.953 -16.492  -2.124  1.00  0.00     0.278 C 
ENDBRANCH   3  16
TORSDOF 3
ENDMDL
MODEL 9
REMARK VINA RESULT:    -2.189     21.776     23.586
REMARK INTER + INTRA:          -2.661
REMARK INTER:                  -3.062
REMARK INTRA:                   0.401
REMARK UNBOUND:                -0.088
REMARK SMILES COc1cc2ccc(=O)oc2c(OC)c1OC
REMARK SMILES IDX 3 1 15 2 12 3 11 4 5 5 4 6 6 7 7 8 8 9 9 10 10 11 2 12 1 13
REMARK SMILES IDX 16 14 17 15 13 16 14 17
REMARK H PARENT
REMARK Flexibility Score: inf
ROOT
ATOM      1  C   UNL     1      21.276 -13.796   4.743  1.00  0.00     0.165 A 
ATOM      2  C   UNL     1      20.899 -15.149   4.711  1.00  0.00     0.207 A 
ATOM      3  C   UNL     1      20.530 -15.760   3.480  1.00  0.00     0.208 A 
ATOM      4  C   UNL     1      20.549 -14.981   2.293  1.00  0.00     0.184 A 
ATOM      5  C   UNL     1      20.930 -13.622   2.348  1.00  0.00     0.025 A 
ATOM      6  C   UNL     1      21.290 -13.039   3.563  1.00  0.00     0.062 A 
ATOM      7  C   UNL     1      20.940 -12.875   1.164  1.00  0.00     0.020 A 
ATOM      8  C   UNL     1      20.577 -13.482  -0.034  1.00  0.00     0.094 A 
ATOM      9  C   UNL     1      20.210 -14.828  -0.021  1.00  0.00     0.336 A 
ATOM     10  O   UNL     1      19.877 -15.400  -1.090  1.00  0.00    -0.246 OA
ATOM     11  O   UNL     1      20.209 -15.513   1.119  1.00  0.00    -0.419 OA
ENDROOT
BRANCH   1  12
ATOM     12  O   UNL     1      21.633 -13.238   5.982  1.00  0.00    -0.493 OA
ATOM     13  C   UNL     1      22.971 -13.046   6.431  1.00  0.00     0.278 C 
ENDBRANCH   1  12
BRANCH   2  14
ATOM     14  O   UNL     1      20.917 -15.827   5.947  1.00  0.00    -0.490 OA
ATOM     15  C   UNL     1      19.883 -15.855   6.924  1.00  0.00     0.278 C 
ENDBRANCH   2  14
BRANCH   3  16
ATOM     16  O   UNL     1      20.158 -17.117   3.485  1.00  0.00    -0.490 OA
ATOM     17  C   UNL     1      20.099 -17.996   2.367  1.00  0.00     0.278 C 
ENDBRANCH   3  16
TORSDOF 3
ENDMDL
