MODEL 1
REMARK VINA RESULT:    -5.070      0.000      0.000
REMARK INTER + INTRA:          -6.735
REMARK INTER:                  -7.145
REMARK INTRA:                   0.410
REMARK UNBOUND:                 0.410
REMARK SMILES CC1=CCC(=C(C)C)C(=O)CC(C)=CCC1
REMARK SMILES IDX 12 1 14 2 13 3 15 4 16 5 2 6 1 7 3 8 11 10 9 11 10 12 5 13
REMARK SMILES IDX 6 14 7 15 8 16 4 17
REMARK H PARENT
REMARK Flexibility Score: 60.00
ROOT
ATOM      1  C   UNL     1      -7.652  34.048  23.150  1.00  0.00    -0.070 C 
ATOM      2  C   UNL     1      -7.694  34.884  24.215  1.00  0.00    -0.027 C 
ATOM      3  C   UNL     1      -7.821  34.660  21.781  1.00  0.00     0.039 C 
ENDROOT
BRANCH   2   4
ATOM      4  C   UNL     1      -7.445  34.508  25.656  1.00  0.00     0.032 C 
BRANCH   4   5
ATOM      5  C   UNL     1      -8.612  33.711  26.270  1.00  0.00     0.034 C 
BRANCH   5   6
ATOM      6  C   UNL     1      -8.158  32.385  26.848  1.00  0.00    -0.077 C 
ATOM      7  C   UNL     1      -7.107  32.397  27.928  1.00  0.00     0.039 C 
ATOM      8  C   UNL     1      -8.624  31.186  26.431  1.00  0.00    -0.023 CG0
ATOM      9  G   UNL     1      -9.647  30.967  25.342  1.00  0.00     0.000 G0
ENDBRANCH   5   6
ENDBRANCH   4   5
ENDBRANCH   2   4
BRANCH   1  10
ATOM     10  C   UNL     1      -7.380  32.557  23.256  1.00  0.00     0.111 C 
BRANCH  10  11
ATOM     11  C   UNL     1      -8.648  31.751  23.113  1.00  0.00     0.163 C 
ATOM     12  O   UNL     1      -9.464  32.084  22.213  1.00  0.00    -0.294 OA
BRANCH  11  13
ATOM     13  C   UNL     1      -8.974  30.619  24.035  1.00  0.00    -0.002 C 
ATOM     14  C   UNL     1      -8.617  29.331  23.748  1.00  0.00    -0.069 C 
ATOM     15  C   UNL     1      -7.807  28.990  22.517  1.00  0.00     0.039 C 
ATOM     16  C   UNL     1      -8.984  28.187  24.668  1.00  0.00     0.039 C 
BRANCH  13  17
ATOM     17  C   UNL     1      -9.656  30.972  25.345  1.00  0.00     0.066 CG0
ATOM     18  G   UNL     1      -8.618  31.191  26.420  1.00  0.00     0.000 G0
ENDBRANCH  13  17
ENDBRANCH  11  13
ENDBRANCH  10  11
ENDBRANCH   1  10
TORSDOF 0
ENDMDL
MODEL 2
REMARK VINA RESULT:    -4.997      1.883      3.768
REMARK INTER + INTRA:          -6.632
REMARK INTER:                  -7.321
REMARK INTRA:                   0.689
REMARK UNBOUND:                 0.410
REMARK SMILES CC1=CCC(=C(C)C)C(=O)CC(C)=CCC1
REMARK SMILES IDX 12 1 14 2 13 3 15 4 16 5 2 6 1 7 3 8 11 10 9 11 10 12 5 13
REMARK SMILES IDX 6 14 7 15 8 16 4 17
REMARK H PARENT
REMARK Flexibility Score: 60.00
ROOT
ATOM      1  C   UNL     1      -7.807  34.562  25.481  1.00  0.00    -0.070 C 
ATOM      2  C   UNL     1      -7.579  35.223  24.321  1.00  0.00    -0.027 C 
ATOM      3  C   UNL     1      -8.391  35.352  26.627  1.00  0.00     0.039 C 
ENDROOT
BRANCH   2   4
ATOM      4  C   UNL     1      -7.103  34.614  23.024  1.00  0.00     0.032 C 
BRANCH   4   5
ATOM      5  C   UNL     1      -8.214  34.550  21.958  1.00  0.00     0.034 C 
BRANCH   5   6
ATOM      6  C   UNL     1      -8.243  33.214  21.241  1.00  0.00    -0.077 C 
ATOM      7  C   UNL     1      -7.507  33.089  19.931  1.00  0.00     0.039 C 
ATOM      8  C   UNL     1      -8.914  32.133  21.697  1.00  0.00    -0.023 CG0
ATOM      9  G   UNL     1      -9.734  32.072  22.963  1.00  0.00     0.000 G0
ENDBRANCH   5   6
ENDBRANCH   4   5
ENDBRANCH   2   4
BRANCH   1  10
ATOM     10  C   UNL     1      -7.569  33.072  25.665  1.00  0.00     0.111 C 
BRANCH  10  11
ATOM     11  C   UNL     1      -8.808  32.270  25.348  1.00  0.00     0.163 C 
ATOM     12  O   UNL     1      -9.740  32.259  26.197  1.00  0.00    -0.294 OA
BRANCH  11  13
ATOM     13  C   UNL     1      -8.929  31.460  24.097  1.00  0.00    -0.002 C 
ATOM     14  C   UNL     1      -8.386  30.209  23.994  1.00  0.00    -0.069 C 
ATOM     15  C   UNL     1      -7.697  29.546  25.167  1.00  0.00     0.039 C 
ATOM     16  C   UNL     1      -8.480  29.412  22.712  1.00  0.00     0.039 C 
BRANCH  13  17
ATOM     17  C   UNL     1      -9.747  32.057  22.966  1.00  0.00     0.066 CG0
ATOM     18  G   UNL     1      -8.907  32.139  21.714  1.00  0.00     0.000 G0
ENDBRANCH  13  17
ENDBRANCH  11  13
ENDBRANCH  10  11
ENDBRANCH   1  10
TORSDOF 0
ENDMDL
MODEL 3
REMARK VINA RESULT:    -4.945      1.723      2.759
REMARK INTER + INTRA:          -6.559
REMARK INTER:                  -7.078
REMARK INTRA:                   0.519
REMARK UNBOUND:                 0.410
REMARK SMILES CC1=CCC(=C(C)C)C(=O)CC(C)=CCC1
REMARK SMILES IDX 12 1 14 2 13 3 15 4 16 5 2 6 1 7 3 8 11 10 9 11 10 12 5 13
REMARK SMILES IDX 6 14 7 15 8 16 4 17
REMARK H PARENT
REMARK Flexibility Score: 60.00
ROOT
ATOM      1  C   UNL     1      -8.130  34.108  25.432  1.00  0.00    -0.070 C 
ATOM      2  C   UNL     1      -7.861  33.564  26.643  1.00  0.00    -0.027 C 
ATOM      3  C   UNL     1      -7.486  35.434  25.109  1.00  0.00     0.039 C 
ENDROOT
BRANCH   2   4
ATOM      4  C   UNL     1      -8.309  32.208  27.132  1.00  0.00     0.032 C 
BRANCH   4   5
ATOM      5  C   UNL     1      -7.261  31.109  26.869  1.00  0.00     0.034 C 
BRANCH   5   6
ATOM      6  C   UNL     1      -7.848  29.924  26.127  1.00  0.00    -0.077 C 
ATOM      7  C   UNL     1      -8.580  28.873  26.922  1.00  0.00     0.039 C 
ATOM      8  C   UNL     1      -7.730  29.741  24.792  1.00  0.00    -0.023 CG0
ATOM      9  G   UNL     1      -7.007  30.659  23.837  1.00  0.00     0.000 G0
ENDBRANCH   5   6
ENDBRANCH   4   5
ENDBRANCH   2   4
BRANCH   1  10
ATOM     10  C   UNL     1      -8.982  33.431  24.371  1.00  0.00     0.111 C 
BRANCH  10  11
ATOM     11  C   UNL     1      -8.137  32.892  23.243  1.00  0.00     0.163 C 
ATOM     12  O   UNL     1      -7.564  33.719  22.484  1.00  0.00    -0.294 OA
BRANCH  11  13
ATOM     13  C   UNL     1      -8.012  31.425  22.978  1.00  0.00    -0.002 C 
ATOM     14  C   UNL     1      -8.721  30.810  21.984  1.00  0.00    -0.069 C 
ATOM     15  C   UNL     1      -9.615  31.593  21.049  1.00  0.00     0.039 C 
ATOM     16  C   UNL     1      -8.617  29.319  21.747  1.00  0.00     0.039 C 
BRANCH  13  17
ATOM     17  C   UNL     1      -7.004  30.657  23.815  1.00  0.00     0.066 CG0
ATOM     18  G   UNL     1      -7.726  29.739  24.772  1.00  0.00     0.000 G0
ENDBRANCH  13  17
ENDBRANCH  11  13
ENDBRANCH  10  11
ENDBRANCH   1  10
TORSDOF 0
ENDMDL
MODEL 4
REMARK VINA RESULT:    -4.793      1.609      2.412
REMARK INTER + INTRA:          -6.344
REMARK INTER:                  -7.096
REMARK INTRA:                   0.752
REMARK UNBOUND:                 0.410
REMARK SMILES CC1=CCC(=C(C)C)C(=O)CC(C)=CCC1
REMARK SMILES IDX 12 1 14 2 13 3 15 4 16 5 2 6 1 7 3 8 11 10 9 11 10 12 5 13
REMARK SMILES IDX 6 14 7 15 8 16 4 17
REMARK H PARENT
REMARK Flexibility Score: 60.00
ROOT
ATOM      1  C   UNL     1      -8.345  32.953  21.212  1.00  0.00    -0.070 C 
ATOM      2  C   UNL     1      -7.875  34.171  21.573  1.00  0.00    -0.027 C 
ATOM      3  C   UNL     1      -7.791  32.342  19.948  1.00  0.00     0.039 C 
ENDROOT
BRANCH   2   4
ATOM      4  C   UNL     1      -8.207  34.917  22.843  1.00  0.00     0.032 C 
BRANCH   4   5
ATOM      5  C   UNL     1      -7.138  34.729  23.936  1.00  0.00     0.034 C 
BRANCH   5   6
ATOM      6  C   UNL     1      -7.687  34.018  25.158  1.00  0.00    -0.077 C 
ATOM      7  C   UNL     1      -8.258  34.852  26.276  1.00  0.00     0.039 C 
ATOM      8  C   UNL     1      -7.672  32.675  25.314  1.00  0.00    -0.023 CG0
ATOM      9  G   UNL     1      -7.114  31.678  24.327  1.00  0.00     0.000 G0
ENDBRANCH   5   6
ENDBRANCH   4   5
ENDBRANCH   2   4
BRANCH   1  10
ATOM     10  C   UNL     1      -9.338  32.152  22.037  1.00  0.00     0.111 C 
BRANCH  10  11
ATOM     11  C   UNL     1      -8.739  30.854  22.520  1.00  0.00     0.163 C 
ATOM     12  O   UNL     1      -8.737  29.872  21.729  1.00  0.00    -0.294 OA
BRANCH  11  13
ATOM     13  C   UNL     1      -8.207  30.695  23.908  1.00  0.00    -0.002 C 
ATOM     14  C   UNL     1      -8.638  29.694  24.734  1.00  0.00    -0.069 C 
ATOM     15  C   UNL     1      -9.623  28.647  24.261  1.00  0.00     0.039 C 
ATOM     16  C   UNL     1      -8.122  29.563  26.150  1.00  0.00     0.039 C 
BRANCH  13  17
ATOM     17  C   UNL     1      -7.109  31.651  24.340  1.00  0.00     0.066 CG0
ATOM     18  G   UNL     1      -7.665  32.666  25.310  1.00  0.00     0.000 G0
ENDBRANCH  13  17
ENDBRANCH  11  13
ENDBRANCH  10  11
ENDBRANCH   1  10
TORSDOF 0
ENDMDL
MODEL 5
REMARK VINA RESULT:    -4.560      1.687      3.620
REMARK INTER + INTRA:          -6.016
REMARK INTER:                  -6.987
REMARK INTRA:                   0.971
REMARK UNBOUND:                 0.410
REMARK SMILES CC1=CCC(=C(C)C)C(=O)CC(C)=CCC1
REMARK SMILES IDX 12 1 14 2 13 3 15 4 16 5 2 6 1 7 3 8 11 10 9 11 10 12 5 13
REMARK SMILES IDX 6 14 7 15 8 16 4 17
REMARK H PARENT
REMARK Flexibility Score: 60.00
ROOT
ATOM      1  C   UNL     1      -7.617  30.066  24.119  1.00  0.00    -0.070 C 
ATOM      2  C   UNL     1      -7.384  30.303  25.432  1.00  0.00    -0.027 C 
ATOM      3  C   UNL     1      -6.423  29.764  23.246  1.00  0.00     0.039 C 
ENDROOT
BRANCH   2   4
ATOM      4  C   UNL     1      -8.429  30.520  26.500  1.00  0.00     0.032 C 
BRANCH   4   5
ATOM      5  C   UNL     1      -9.332  31.733  26.206  1.00  0.00     0.034 C 
BRANCH   5   6
ATOM      6  C   UNL     1      -8.535  32.951  25.783  1.00  0.00    -0.077 C 
ATOM      7  C   UNL     1      -7.542  33.532  26.757  1.00  0.00     0.039 C 
ATOM      8  C   UNL     1      -8.682  33.565  24.587  1.00  0.00    -0.023 CG0
ATOM      9  G   UNL     1      -9.644  33.157  23.498  1.00  0.00     0.000 G0
ENDBRANCH   5   6
ENDBRANCH   4   5
ENDBRANCH   2   4
BRANCH   1  10
ATOM     10  C   UNL     1      -9.005  30.023  23.501  1.00  0.00     0.111 C 
BRANCH  10  11
ATOM     11  C   UNL     1      -9.105  30.930  22.299  1.00  0.00     0.163 C 
ATOM     12  O   UNL     1      -9.331  30.404  21.176  1.00  0.00    -0.294 OA
BRANCH  11  13
ATOM     13  C   UNL     1      -8.892  32.407  22.402  1.00  0.00    -0.002 C 
ATOM     14  C   UNL     1      -8.115  33.087  21.505  1.00  0.00    -0.069 C 
ATOM     15  C   UNL     1      -7.487  32.393  20.317  1.00  0.00     0.039 C 
ATOM     16  C   UNL     1      -7.875  34.574  21.639  1.00  0.00     0.039 C 
BRANCH  13  17
ATOM     17  C   UNL     1      -9.640  33.136  23.505  1.00  0.00     0.066 CG0
ATOM     18  G   UNL     1      -8.671  33.575  24.576  1.00  0.00     0.000 G0
ENDBRANCH  13  17
ENDBRANCH  11  13
ENDBRANCH  10  11
ENDBRANCH   1  10
TORSDOF 0
ENDMDL
MODEL 6
REMARK VINA RESULT:    -4.505      1.806      3.987
REMARK INTER + INTRA:          -5.938
REMARK INTER:                  -6.922
REMARK INTRA:                   0.983
REMARK UNBOUND:                 0.410
REMARK SMILES CC1=CCC(=C(C)C)C(=O)CC(C)=CCC1
REMARK SMILES IDX 12 1 14 2 13 3 15 4 16 5 2 6 1 7 3 8 11 10 9 11 10 12 5 13
REMARK SMILES IDX 6 14 7 15 8 16 4 17
REMARK H PARENT
REMARK Flexibility Score: 60.00
ROOT
ATOM      1  C   UNL     1      -7.688  30.134  22.565  1.00  0.00    -0.070 C 
ATOM      2  C   UNL     1      -7.631  31.114  21.633  1.00  0.00    -0.027 C 
ATOM      3  C   UNL     1      -6.418  29.814  23.315  1.00  0.00     0.039 C 
ENDROOT
BRANCH   2   4
ATOM      4  C   UNL     1      -8.794  31.668  20.845  1.00  0.00     0.032 C 
BRANCH   4   5
ATOM      5  C   UNL     1      -9.652  32.648  21.667  1.00  0.00     0.034 C 
BRANCH   5   6
ATOM      6  C   UNL     1      -8.861  33.309  22.779  1.00  0.00    -0.077 C 
ATOM      7  C   UNL     1      -7.848  34.362  22.408  1.00  0.00     0.039 C 
ATOM      8  C   UNL     1      -8.992  32.989  24.086  1.00  0.00    -0.023 CG0
ATOM      9  G   UNL     1      -9.922  31.941  24.649  1.00  0.00     0.000 G0
ENDBRANCH   5   6
ENDBRANCH   4   5
ENDBRANCH   2   4
BRANCH   1  10
ATOM     10  C   UNL     1      -8.963  29.395  22.937  1.00  0.00     0.111 C 
BRANCH  10  11
ATOM     11  C   UNL     1      -9.230  29.462  24.421  1.00  0.00     0.163 C 
ATOM     12  O   UNL     1      -9.582  28.404  25.008  1.00  0.00    -0.294 OA
BRANCH  11  13
ATOM     13  C   UNL     1      -9.138  30.745  25.185  1.00  0.00    -0.002 C 
ATOM     14  C   UNL     1      -8.324  30.876  26.276  1.00  0.00    -0.069 C 
ATOM     15  C   UNL     1      -7.416  29.752  26.726  1.00  0.00     0.039 C 
ATOM     16  C   UNL     1      -8.265  32.165  27.066  1.00  0.00     0.039 C 
BRANCH  13  17
ATOM     17  C   UNL     1      -9.933  31.923  24.653  1.00  0.00     0.066 CG0
ATOM     18  G   UNL     1      -8.994  32.961  24.088  1.00  0.00     0.000 G0
ENDBRANCH  13  17
ENDBRANCH  11  13
ENDBRANCH  10  11
ENDBRANCH   1  10
TORSDOF 0
ENDMDL
MODEL 7
REMARK VINA RESULT:    -4.482      1.418      3.680
REMARK INTER + INTRA:          -5.906
REMARK INTER:                  -6.264
REMARK INTRA:                   0.358
REMARK UNBOUND:                 0.410
REMARK SMILES CC1=CCC(=C(C)C)C(=O)CC(C)=CCC1
REMARK SMILES IDX 12 1 14 2 13 3 15 4 16 5 2 6 1 7 3 8 11 10 9 11 10 12 5 13
REMARK SMILES IDX 6 14 7 15 8 16 4 17
REMARK H PARENT
REMARK Flexibility Score: 60.00
ROOT
ATOM      1  C   UNL     1      -7.692  33.529  22.447  1.00  0.00    -0.070 C 
ATOM      2  C   UNL     1      -7.907  32.778  21.341  1.00  0.00    -0.027 C 
ATOM      3  C   UNL     1      -7.906  35.018  22.327  1.00  0.00     0.039 C 
ENDROOT
BRANCH   2   4
ATOM      4  C   UNL     1      -7.856  31.271  21.260  1.00  0.00     0.032 C 
BRANCH   4   5
ATOM      5  C   UNL     1      -9.076  30.602  21.923  1.00  0.00     0.034 C 
BRANCH   5   6
ATOM      6  C   UNL     1      -8.671  29.536  22.922  1.00  0.00    -0.077 C 
ATOM      7  C   UNL     1      -7.902  28.339  22.422  1.00  0.00     0.039 C 
ATOM      8  C   UNL     1      -8.982  29.584  24.237  1.00  0.00    -0.023 CG0
ATOM      9  G   UNL     1      -9.772  30.676  24.918  1.00  0.00     0.000 G0
ENDBRANCH   5   6
ENDBRANCH   4   5
ENDBRANCH   2   4
BRANCH   1  10
ATOM     10  C   UNL     1      -7.314  32.951  23.801  1.00  0.00     0.111 C 
BRANCH  10  11
ATOM     11  C   UNL     1      -8.499  32.907  24.734  1.00  0.00     0.163 C 
ATOM     12  O   UNL     1      -9.208  33.943  24.843  1.00  0.00    -0.294 OA
BRANCH  11  13
ATOM     13  C   UNL     1      -8.813  31.698  25.558  1.00  0.00    -0.002 C 
ATOM     14  C   UNL     1      -8.329  31.548  26.828  1.00  0.00    -0.069 C 
ATOM     15  C   UNL     1      -7.511  32.630  27.497  1.00  0.00     0.039 C 
ATOM     16  C   UNL     1      -8.621  30.305  27.641  1.00  0.00     0.039 C 
BRANCH  13  17
ATOM     17  C   UNL     1      -9.756  30.675  24.950  1.00  0.00     0.066 CG0
ATOM     18  G   UNL     1      -8.963  29.604  24.242  1.00  0.00     0.000 G0
ENDBRANCH  13  17
ENDBRANCH  11  13
ENDBRANCH  10  11
ENDBRANCH   1  10
TORSDOF 0
ENDMDL
MODEL 8
REMARK VINA RESULT:    -4.260      1.585      2.911
REMARK INTER + INTRA:          -5.593
REMARK INTER:                  -6.217
REMARK INTRA:                   0.624
REMARK UNBOUND:                 0.410
REMARK SMILES CC1=CCC(=C(C)C)C(=O)CC(C)=CCC1
REMARK SMILES IDX 12 1 14 2 13 3 15 4 16 5 2 6 1 7 3 8 11 10 9 11 10 12 5 13
REMARK SMILES IDX 6 14 7 15 8 16 4 17
REMARK H PARENT
REMARK Flexibility Score: 60.00
ROOT
ATOM      1  C   UNL     1      -8.581  31.976  21.500  1.00  0.00    -0.070 C 
ATOM      2  C   UNL     1      -8.616  33.314  21.292  1.00  0.00    -0.027 C 
ATOM      3  C   UNL     1      -9.380  31.106  20.561  1.00  0.00     0.039 C 
ENDROOT
BRANCH   2   4
ATOM      4  C   UNL     1      -7.817  34.355  22.037  1.00  0.00     0.032 C 
BRANCH   4   5
ATOM      5  C   UNL     1      -8.574  34.925  23.252  1.00  0.00     0.034 C 
BRANCH   5   6
ATOM      6  C   UNL     1      -7.910  34.556  24.565  1.00  0.00    -0.077 C 
ATOM      7  C   UNL     1      -6.752  35.394  25.042  1.00  0.00     0.039 C 
ATOM      8  C   UNL     1      -8.281  33.499  25.321  1.00  0.00    -0.023 CG0
ATOM      9  G   UNL     1      -9.389  32.526  24.995  1.00  0.00     0.000 G0
ENDBRANCH   5   6
ENDBRANCH   4   5
ENDBRANCH   2   4
BRANCH   1  10
ATOM     10  C   UNL     1      -7.738  31.310  22.576  1.00  0.00     0.111 C 
BRANCH  10  11
ATOM     11  C   UNL     1      -8.595  30.561  23.567  1.00  0.00     0.163 C 
ATOM     12  O   UNL     1      -9.105  29.468  23.201  1.00  0.00    -0.294 OA
BRANCH  11  13
ATOM     13  C   UNL     1      -8.888  31.103  24.929  1.00  0.00    -0.002 C 
ATOM     14  C   UNL     1      -8.635  30.380  26.062  1.00  0.00    -0.069 C 
ATOM     15  C   UNL     1      -7.975  29.020  26.001  1.00  0.00     0.039 C 
ATOM     16  C   UNL     1      -8.969  30.921  27.434  1.00  0.00     0.039 C 
BRANCH  13  17
ATOM     17  C   UNL     1      -9.411  32.527  25.007  1.00  0.00     0.066 CG0
ATOM     18  G   UNL     1      -8.275  33.474  25.308  1.00  0.00     0.000 G0
ENDBRANCH  13  17
ENDBRANCH  11  13
ENDBRANCH  10  11
ENDBRANCH   1  10
TORSDOF 0
ENDMDL
MODEL 9
REMARK VINA RESULT:    -4.194      1.711      3.383
REMARK INTER + INTRA:          -5.501
REMARK INTER:                  -6.622
REMARK INTRA:                   1.121
REMARK UNBOUND:                 0.410
REMARK SMILES CC1=CCC(=C(C)C)C(=O)CC(C)=CCC1
REMARK SMILES IDX 12 1 14 2 13 3 15 4 16 5 2 6 1 7 3 8 11 10 9 11 10 12 5 13
REMARK SMILES IDX 6 14 7 15 8 16 4 17
REMARK H PARENT
REMARK Flexibility Score: 60.00
ROOT
ATOM      1  C   UNL     1      -8.075  32.646  26.662  1.00  0.00    -0.070 C 
ATOM      2  C   UNL     1      -7.511  33.872  26.556  1.00  0.00    -0.027 C 
ATOM      3  C   UNL     1      -7.231  31.541  27.249  1.00  0.00     0.039 C 
ENDROOT
BRANCH   2   4
ATOM      4  C   UNL     1      -8.199  35.136  26.101  1.00  0.00     0.032 C 
BRANCH   4   5
ATOM      5  C   UNL     1      -8.759  35.023  24.670  1.00  0.00     0.034 C 
BRANCH   5   6
ATOM      6  C   UNL     1      -7.782  34.350  23.726  1.00  0.00    -0.077 C 
ATOM      7  C   UNL     1      -6.456  35.019  23.468  1.00  0.00     0.039 C 
ATOM      8  C   UNL     1      -8.043  33.191  23.078  1.00  0.00    -0.023 CG0
ATOM      9  G   UNL     1      -9.321  32.393  23.177  1.00  0.00     0.000 G0
ENDBRANCH   5   6
ENDBRANCH   4   5
ENDBRANCH   2   4
BRANCH   1  10
ATOM     10  C   UNL     1      -9.517  32.344  26.287  1.00  0.00     0.111 C 
BRANCH  10  11
ATOM     11  C   UNL     1      -9.615  31.131  25.394  1.00  0.00     0.163 C 
ATOM     12  O   UNL     1     -10.125  30.082  25.873  1.00  0.00    -0.294 OA
BRANCH  11  13
ATOM     13  C   UNL     1      -9.082  31.131  23.997  1.00  0.00    -0.002 C 
ATOM     14  C   UNL     1      -8.466  30.033  23.461  1.00  0.00    -0.069 C 
ATOM     15  C   UNL     1      -8.357  28.734  24.229  1.00  0.00     0.039 C 
ATOM     16  C   UNL     1      -7.896  30.054  22.060  1.00  0.00     0.039 C 
BRANCH  13  17
ATOM     17  C   UNL     1      -9.320  32.380  23.168  1.00  0.00     0.066 CG0
ATOM     18  G   UNL     1      -8.045  33.185  23.076  1.00  0.00     0.000 G0
ENDBRANCH  13  17
ENDBRANCH  11  13
ENDBRANCH  10  11
ENDBRANCH   1  10
TORSDOF 0
ENDMDL
