MODEL 1
REMARK VINA RESULT:    -4.370      0.000      0.000
REMARK INTER + INTRA:          -5.877
REMARK INTER:                  -5.647
REMARK INTRA:                  -0.230
REMARK UNBOUND:                -0.230
REMARK SMILES C=CC(=O)CCCCC
REMARK SMILES IDX 6 1 7 2 8 3 9 4 5 5 3 6 4 7 2 8 1 9
REMARK H PARENT
REMARK Flexibility Score: inf
ROOT
ATOM      1  C   UNL     1     -12.436 -16.353  29.976  1.00  0.00     0.008 C 
ENDROOT
BRANCH   1   2
ATOM      2  C   UNL     1     -13.172 -16.195  31.315  1.00  0.00     0.000 C 
BRANCH   2   3
ATOM      3  C   UNL     1     -14.375 -15.245  31.220  1.00  0.00    -0.003 C 
ATOM      4  C   UNL     1     -14.948 -14.877  32.588  1.00  0.00     0.004 C 
ENDBRANCH   2   3
ENDBRANCH   1   2
BRANCH   1   5
ATOM      5  C   UNL     1     -13.184 -15.629  28.851  1.00  0.00     0.080 C 
BRANCH   5   6
ATOM      6  C   UNL     1     -13.105 -16.414  27.576  1.00  0.00     0.155 C 
ATOM      7  O   UNL     1     -14.071 -16.376  26.766  1.00  0.00    -0.295 OA
BRANCH   6   8
ATOM      8  C   UNL     1     -11.926 -17.257  27.299  1.00  0.00     0.039 C 
ATOM      9  C   UNL     1     -11.398 -17.371  26.082  1.00  0.00     0.012 C 
ENDBRANCH   6   8
ENDBRANCH   5   6
ENDBRANCH   1   5
TORSDOF 5
ENDMDL
MODEL 2
REMARK VINA RESULT:    -4.366      2.055      2.802
REMARK INTER + INTRA:          -5.872
REMARK INTER:                  -5.441
REMARK INTRA:                  -0.431
REMARK UNBOUND:                -0.230
REMARK SMILES C=CC(=O)CCCCC
REMARK SMILES IDX 6 1 7 2 8 3 9 4 5 5 3 6 4 7 2 8 1 9
REMARK H PARENT
REMARK Flexibility Score: inf
ROOT
ATOM      1  C   UNL     1     -13.394 -16.730  32.456  1.00  0.00     0.008 C 
ENDROOT
BRANCH   1   2
ATOM      2  C   UNL     1     -14.703 -16.877  33.246  1.00  0.00     0.000 C 
BRANCH   2   3
ATOM      3  C   UNL     1     -15.614 -15.647  33.115  1.00  0.00    -0.003 C 
ATOM      4  C   UNL     1     -15.121 -14.655  32.062  1.00  0.00     0.004 C 
ENDBRANCH   2   3
ENDBRANCH   1   2
BRANCH   1   5
ATOM      5  C   UNL     1     -13.206 -17.900  31.484  1.00  0.00     0.080 C 
BRANCH   5   6
ATOM      6  C   UNL     1     -13.247 -17.419  30.065  1.00  0.00     0.155 C 
ATOM      7  O   UNL     1     -13.660 -18.194  29.160  1.00  0.00    -0.295 OA
BRANCH   6   8
ATOM      8  C   UNL     1     -12.763 -16.065  29.730  1.00  0.00     0.039 C 
ATOM      9  C   UNL     1     -13.285 -15.344  28.739  1.00  0.00     0.012 C 
ENDBRANCH   6   8
ENDBRANCH   5   6
ENDBRANCH   1   5
TORSDOF 5
ENDMDL
MODEL 3
REMARK VINA RESULT:    -4.337      3.155      4.086
REMARK INTER + INTRA:          -5.834
REMARK INTER:                  -5.311
REMARK INTRA:                  -0.524
REMARK UNBOUND:                -0.230
REMARK SMILES C=CC(=O)CCCCC
REMARK SMILES IDX 6 1 7 2 8 3 9 4 5 5 3 6 4 7 2 8 1 9
REMARK H PARENT
REMARK Flexibility Score: inf
ROOT
ATOM      1  C   UNL     1     -12.746 -17.118  31.384  1.00  0.00     0.008 C 
ENDROOT
BRANCH   1   2
ATOM      2  C   UNL     1     -13.650 -16.074  30.712  1.00  0.00     0.000 C 
BRANCH   2   3
ATOM      3  C   UNL     1     -13.167 -15.693  29.304  1.00  0.00    -0.003 C 
ATOM      4  C   UNL     1     -11.692 -16.021  29.075  1.00  0.00     0.004 C 
ENDBRANCH   2   3
ENDBRANCH   1   2
BRANCH   1   5
ATOM      5  C   UNL     1     -13.557 -18.340  31.827  1.00  0.00     0.080 C 
BRANCH   5   6
ATOM      6  C   UNL     1     -13.047 -19.582  31.158  1.00  0.00     0.155 C 
ATOM      7  O   UNL     1     -12.700 -20.567  31.865  1.00  0.00    -0.295 OA
BRANCH   6   8
ATOM      8  C   UNL     1     -12.910 -19.627  29.690  1.00  0.00     0.039 C 
ATOM      9  C   UNL     1     -13.947 -19.839  28.881  1.00  0.00     0.012 C 
ENDBRANCH   6   8
ENDBRANCH   5   6
ENDBRANCH   1   5
TORSDOF 5
ENDMDL
MODEL 4
REMARK VINA RESULT:    -4.306      1.810      4.696
REMARK INTER + INTRA:          -5.795
REMARK INTER:                  -5.510
REMARK INTRA:                  -0.286
REMARK UNBOUND:                -0.230
REMARK SMILES C=CC(=O)CCCCC
REMARK SMILES IDX 6 1 7 2 8 3 9 4 5 5 3 6 4 7 2 8 1 9
REMARK H PARENT
REMARK Flexibility Score: inf
ROOT
ATOM      1  C   UNL     1     -13.264 -15.459  28.700  1.00  0.00     0.008 C 
ENDROOT
BRANCH   1   2
ATOM      2  C   UNL     1     -13.363 -16.457  27.537  1.00  0.00     0.000 C 
BRANCH   2   3
ATOM      3  C   UNL     1     -12.150 -17.397  27.459  1.00  0.00    -0.003 C 
ATOM      4  C   UNL     1     -11.451 -17.348  26.102  1.00  0.00     0.004 C 
ENDBRANCH   2   3
ENDBRANCH   1   2
BRANCH   1   5
ATOM      5  C   UNL     1     -12.646 -16.120  29.938  1.00  0.00     0.080 C 
BRANCH   5   6
ATOM      6  C   UNL     1     -13.630 -16.143  31.069  1.00  0.00     0.155 C 
ATOM      7  O   UNL     1     -14.413 -15.167  31.228  1.00  0.00    -0.295 OA
BRANCH   6   8
ATOM      8  C   UNL     1     -13.645 -17.278  32.012  1.00  0.00     0.039 C 
ATOM      9  C   UNL     1     -13.296 -18.512  31.650  1.00  0.00     0.012 C 
ENDBRANCH   6   8
ENDBRANCH   5   6
ENDBRANCH   1   5
TORSDOF 5
ENDMDL
MODEL 5
REMARK VINA RESULT:    -4.279      2.778      4.025
REMARK INTER + INTRA:          -5.760
REMARK INTER:                  -5.279
REMARK INTRA:                  -0.481
REMARK UNBOUND:                -0.230
REMARK SMILES C=CC(=O)CCCCC
REMARK SMILES IDX 6 1 7 2 8 3 9 4 5 5 3 6 4 7 2 8 1 9
REMARK H PARENT
REMARK Flexibility Score: inf
ROOT
ATOM      1  C   UNL     1     -13.569 -18.378  31.913  1.00  0.00     0.008 C 
ENDROOT
BRANCH   1   2
ATOM      2  C   UNL     1     -13.120 -19.736  31.354  1.00  0.00     0.000 C 
BRANCH   2   3
ATOM      3  C   UNL     1     -12.772 -19.674  29.859  1.00  0.00    -0.003 C 
ATOM      4  C   UNL     1     -13.969 -19.982  28.960  1.00  0.00     0.004 C 
ENDBRANCH   2   3
ENDBRANCH   1   2
BRANCH   1   5
ATOM      5  C   UNL     1     -12.649 -17.253  31.425  1.00  0.00     0.080 C 
BRANCH   5   6
ATOM      6  C   UNL     1     -13.449 -16.159  30.784  1.00  0.00     0.155 C 
ATOM      7  O   UNL     1     -14.372 -15.603  31.439  1.00  0.00    -0.295 OA
BRANCH   6   8
ATOM      8  C   UNL     1     -13.184 -15.773  29.385  1.00  0.00     0.039 C 
ATOM      9  C   UNL     1     -12.052 -16.088  28.758  1.00  0.00     0.012 C 
ENDBRANCH   6   8
ENDBRANCH   5   6
ENDBRANCH   1   5
TORSDOF 5
ENDMDL
MODEL 6
REMARK VINA RESULT:    -4.262      2.730      4.263
REMARK INTER + INTRA:          -5.739
REMARK INTER:                  -5.183
REMARK INTRA:                  -0.555
REMARK UNBOUND:                -0.230
REMARK SMILES C=CC(=O)CCCCC
REMARK SMILES IDX 6 1 7 2 8 3 9 4 5 5 3 6 4 7 2 8 1 9
REMARK H PARENT
REMARK Flexibility Score: inf
ROOT
ATOM      1  C   UNL     1     -12.389 -16.635  29.601  1.00  0.00     0.008 C 
ENDROOT
BRANCH   1   2
ATOM      2  C   UNL     1     -13.165 -15.824  28.553  1.00  0.00     0.000 C 
BRANCH   2   3
ATOM      3  C   UNL     1     -13.305 -16.568  27.216  1.00  0.00    -0.003 C 
ATOM      4  C   UNL     1     -11.987 -17.172  26.734  1.00  0.00     0.004 C 
ENDBRANCH   2   3
ENDBRANCH   1   2
BRANCH   1   5
ATOM      5  C   UNL     1     -13.319 -17.118  30.719  1.00  0.00     0.080 C 
BRANCH   5   6
ATOM      6  C   UNL     1     -13.307 -18.616  30.804  1.00  0.00     0.155 C 
ATOM      7  O   UNL     1     -13.499 -19.174  31.918  1.00  0.00    -0.295 OA
BRANCH   6   8
ATOM      8  C   UNL     1     -13.026 -19.421  29.600  1.00  0.00     0.039 C 
ATOM      9  C   UNL     1     -13.989 -19.994  28.881  1.00  0.00     0.012 C 
ENDBRANCH   6   8
ENDBRANCH   5   6
ENDBRANCH   1   5
TORSDOF 5
ENDMDL
MODEL 7
REMARK VINA RESULT:    -4.203      1.544      2.145
REMARK INTER + INTRA:          -5.662
REMARK INTER:                  -5.312
REMARK INTRA:                  -0.350
REMARK UNBOUND:                -0.230
REMARK SMILES C=CC(=O)CCCCC
REMARK SMILES IDX 6 1 7 2 8 3 9 4 5 5 3 6 4 7 2 8 1 9
REMARK H PARENT
REMARK Flexibility Score: inf
ROOT
ATOM      1  C   UNL     1     -13.616 -16.013  30.403  1.00  0.00     0.008 C 
ENDROOT
BRANCH   1   2
ATOM      2  C   UNL     1     -12.719 -16.855  31.323  1.00  0.00     0.000 C 
BRANCH   2   3
ATOM      3  C   UNL     1     -13.495 -17.964  32.050  1.00  0.00    -0.003 C 
ATOM      4  C   UNL     1     -13.225 -19.352  31.472  1.00  0.00     0.004 C 
ENDBRANCH   2   3
ENDBRANCH   1   2
BRANCH   1   5
ATOM      5  C   UNL     1     -12.973 -15.838  29.023  1.00  0.00     0.080 C 
BRANCH   5   6
ATOM      6  C   UNL     1     -12.971 -17.137  28.273  1.00  0.00     0.155 C 
ATOM      7  O   UNL     1     -13.997 -17.869  28.301  1.00  0.00    -0.295 OA
BRANCH   6   8
ATOM      8  C   UNL     1     -11.759 -17.571  27.551  1.00  0.00     0.039 C 
ATOM      9  C   UNL     1     -11.540 -17.266  26.274  1.00  0.00     0.012 C 
ENDBRANCH   6   8
ENDBRANCH   5   6
ENDBRANCH   1   5
TORSDOF 5
ENDMDL
MODEL 8
REMARK VINA RESULT:    -4.201      2.500      3.482
REMARK INTER + INTRA:          -5.659
REMARK INTER:                  -5.146
REMARK INTRA:                  -0.513
REMARK UNBOUND:                -0.230
REMARK SMILES C=CC(=O)CCCCC
REMARK SMILES IDX 6 1 7 2 8 3 9 4 5 5 3 6 4 7 2 8 1 9
REMARK H PARENT
REMARK Flexibility Score: inf
ROOT
ATOM      1  C   UNL     1     -11.520 -17.596  28.986  1.00  0.00     0.008 C 
ENDROOT
BRANCH   1   2
ATOM      2  C   UNL     1     -11.722 -16.101  29.272  1.00  0.00     0.000 C 
BRANCH   2   3
ATOM      3  C   UNL     1     -13.203 -15.721  29.416  1.00  0.00    -0.003 C 
ATOM      4  C   UNL     1     -13.693 -15.788  30.862  1.00  0.00     0.004 C 
ENDBRANCH   2   3
ENDBRANCH   1   2
BRANCH   1   5
ATOM      5  C   UNL     1     -12.753 -18.193  28.299  1.00  0.00     0.080 C 
BRANCH   5   6
ATOM      6  C   UNL     1     -13.265 -19.375  29.068  1.00  0.00     0.155 C 
ATOM      7  O   UNL     1     -14.191 -20.077  28.579  1.00  0.00    -0.295 OA
BRANCH   6   8
ATOM      8  C   UNL     1     -12.718 -19.679  30.405  1.00  0.00     0.039 C 
ATOM      9  C   UNL     1     -13.405 -19.464  31.525  1.00  0.00     0.012 C 
ENDBRANCH   6   8
ENDBRANCH   5   6
ENDBRANCH   1   5
TORSDOF 5
ENDMDL
MODEL 9
REMARK VINA RESULT:    -4.176      2.553      3.280
REMARK INTER + INTRA:          -5.627
REMARK INTER:                  -5.264
REMARK INTRA:                  -0.363
REMARK UNBOUND:                -0.230
REMARK SMILES C=CC(=O)CCCCC
REMARK SMILES IDX 6 1 7 2 8 3 9 4 5 5 3 6 4 7 2 8 1 9
REMARK H PARENT
REMARK Flexibility Score: inf
ROOT
ATOM      1  C   UNL     1     -13.216 -16.425  31.119  1.00  0.00     0.008 C 
ENDROOT
BRANCH   1   2
ATOM      2  C   UNL     1     -13.317 -16.570  32.644  1.00  0.00     0.000 C 
BRANCH   2   3
ATOM      3  C   UNL     1     -14.761 -16.446  33.155  1.00  0.00    -0.003 C 
ATOM      4  C   UNL     1     -15.409 -15.115  32.778  1.00  0.00     0.004 C 
ENDBRANCH   2   3
ENDBRANCH   1   2
BRANCH   1   5
ATOM      5  C   UNL     1     -12.361 -17.545  30.517  1.00  0.00     0.080 C 
BRANCH   5   6
ATOM      6  C   UNL     1     -13.232 -18.598  29.898  1.00  0.00     0.155 C 
ATOM      7  O   UNL     1     -13.777 -18.372  28.784  1.00  0.00    -0.295 OA
BRANCH   6   8
ATOM      8  C   UNL     1     -13.480 -19.865  30.613  1.00  0.00     0.039 C 
ATOM      9  C   UNL     1     -12.805 -20.213  31.706  1.00  0.00     0.012 C 
ENDBRANCH   6   8
ENDBRANCH   5   6
ENDBRANCH   1   5
TORSDOF 5
ENDMDL
