MODEL 1
REMARK VINA RESULT:    -4.059      0.000      0.000
REMARK INTER + INTRA:          -5.247
REMARK INTER:                  -5.009
REMARK INTRA:                  -0.238
REMARK UNBOUND:                -0.238
REMARK SMILES C=CC[C@H](C)C(=O)CC
REMARK SMILES IDX 4 1 5 2 6 3 7 4 8 5 9 6 3 7 2 8 1 9
REMARK H PARENT
REMARK Flexibility Score: inf
ROOT
ATOM      1  C   UNL     1     -13.780   0.716  28.878  1.00  0.00     0.057 C 
ATOM      2  C   UNL     1     -14.368   2.007  28.297  1.00  0.00     0.016 C 
ENDROOT
BRANCH   1   3
ATOM      3  C   UNL     1     -13.116   1.007  30.209  1.00  0.00     0.135 C 
ATOM      4  O   UNL     1     -12.784   2.152  30.485  1.00  0.00    -0.299 OA
BRANCH   3   5
ATOM      5  C   UNL     1     -12.877  -0.087  31.216  1.00  0.00     0.072 C 
ATOM      6  C   UNL     1     -11.962   0.392  32.338  1.00  0.00     0.012 C 
ENDBRANCH   3   5
ENDBRANCH   1   3
BRANCH   1   7
ATOM      7  C   UNL     1     -12.789   0.080  27.885  1.00  0.00     0.038 C 
BRANCH   7   8
ATOM      8  C   UNL     1     -11.982   1.129  27.167  1.00  0.00    -0.034 C 
ATOM      9  C   UNL     1     -10.706   0.928  26.826  1.00  0.00     0.004 C 
ENDBRANCH   7   8
ENDBRANCH   1   7
TORSDOF 4
ENDMDL
MODEL 2
REMARK VINA RESULT:    -3.941      1.646      4.163
REMARK INTER + INTRA:          -5.101
REMARK INTER:                  -4.913
REMARK INTRA:                  -0.187
REMARK UNBOUND:                -0.238
REMARK SMILES C=CC[C@H](C)C(=O)CC
REMARK SMILES IDX 4 1 5 2 6 3 7 4 8 5 9 6 3 7 2 8 1 9
REMARK H PARENT
REMARK Flexibility Score: inf
ROOT
ATOM      1  C   UNL     1     -13.677   0.933  28.572  1.00  0.00     0.057 C 
ATOM      2  C   UNL     1     -12.626   0.076  27.856  1.00  0.00     0.016 C 
ENDROOT
BRANCH   1   3
ATOM      3  C   UNL     1     -14.023   2.138  27.721  1.00  0.00     0.135 C 
ATOM      4  O   UNL     1     -13.519   2.264  26.613  1.00  0.00    -0.299 OA
BRANCH   3   5
ATOM      5  C   UNL     1     -14.999   3.178  28.204  1.00  0.00     0.072 C 
ATOM      6  C   UNL     1     -16.355   3.012  27.527  1.00  0.00     0.012 C 
ENDBRANCH   3   5
ENDBRANCH   1   3
BRANCH   1   7
ATOM      7  C   UNL     1     -13.171   1.356  29.964  1.00  0.00     0.038 C 
BRANCH   7   8
ATOM      8  C   UNL     1     -13.118   0.183  30.908  1.00  0.00    -0.034 C 
ATOM      9  C   UNL     1     -12.269   0.144  31.938  1.00  0.00     0.004 C 
ENDBRANCH   7   8
ENDBRANCH   1   7
TORSDOF 4
ENDMDL
MODEL 3
REMARK VINA RESULT:    -3.912      1.000      2.635
REMARK INTER + INTRA:          -5.065
REMARK INTER:                  -4.905
REMARK INTRA:                  -0.160
REMARK UNBOUND:                -0.238
REMARK SMILES C=CC[C@H](C)C(=O)CC
REMARK SMILES IDX 4 1 5 2 6 3 7 4 8 5 9 6 3 7 2 8 1 9
REMARK H PARENT
REMARK Flexibility Score: inf
ROOT
ATOM      1  C   UNL     1     -12.991   1.428  28.734  1.00  0.00     0.057 C 
ATOM      2  C   UNL     1     -12.299   0.240  28.055  1.00  0.00     0.016 C 
ENDROOT
BRANCH   1   3
ATOM      3  C   UNL     1     -12.658   1.440  30.213  1.00  0.00     0.135 C 
ATOM      4  O   UNL     1     -12.310   2.483  30.748  1.00  0.00    -0.299 OA
BRANCH   3   5
ATOM      5  C   UNL     1     -12.770   0.190  31.046  1.00  0.00     0.072 C 
ATOM      6  C   UNL     1     -11.975   0.323  32.341  1.00  0.00     0.012 C 
ENDBRANCH   3   5
ENDBRANCH   1   3
BRANCH   1   7
ATOM      7  C   UNL     1     -14.512   1.370  28.502  1.00  0.00     0.038 C 
BRANCH   7   8
ATOM      8  C   UNL     1     -15.013   2.624  27.833  1.00  0.00    -0.034 C 
ATOM      9  C   UNL     1     -16.317   2.883  27.704  1.00  0.00     0.004 C 
ENDBRANCH   7   8
ENDBRANCH   1   7
TORSDOF 4
ENDMDL
MODEL 4
REMARK VINA RESULT:    -3.881      9.126     10.876
REMARK INTER + INTRA:          -5.028
REMARK INTER:                  -4.607
REMARK INTRA:                  -0.420
REMARK UNBOUND:                -0.238
REMARK SMILES C=CC[C@H](C)C(=O)CC
REMARK SMILES IDX 4 1 5 2 6 3 7 4 8 5 9 6 3 7 2 8 1 9
REMARK H PARENT
REMARK Flexibility Score: inf
ROOT
ATOM      1  C   UNL     1      -2.124  -0.383  26.909  1.00  0.00     0.057 C 
ATOM      2  C   UNL     1      -2.714  -0.163  25.512  1.00  0.00     0.016 C 
ENDROOT
BRANCH   1   3
ATOM      3  C   UNL     1      -3.203  -0.197  27.957  1.00  0.00     0.135 C 
ATOM      4  O   UNL     1      -3.420  -1.086  28.769  1.00  0.00    -0.299 OA
BRANCH   3   5
ATOM      5  C   UNL     1      -4.000   1.078  28.036  1.00  0.00     0.072 C 
ATOM      6  C   UNL     1      -3.799   1.767  29.381  1.00  0.00     0.012 C 
ENDBRANCH   3   5
ENDBRANCH   1   3
BRANCH   1   7
ATOM      7  C   UNL     1      -0.937   0.569  27.149  1.00  0.00     0.038 C 
BRANCH   7   8
ATOM      8  C   UNL     1      -0.357   0.385  28.527  1.00  0.00    -0.034 C 
ATOM      9  C   UNL     1       0.113   1.413  29.238  1.00  0.00     0.004 C 
ENDBRANCH   7   8
ENDBRANCH   1   7
TORSDOF 4
ENDMDL
MODEL 5
REMARK VINA RESULT:    -3.820      9.872     11.913
REMARK INTER + INTRA:          -4.952
REMARK INTER:                  -4.523
REMARK INTRA:                  -0.429
REMARK UNBOUND:                -0.238
REMARK SMILES C=CC[C@H](C)C(=O)CC
REMARK SMILES IDX 4 1 5 2 6 3 7 4 8 5 9 6 3 7 2 8 1 9
REMARK H PARENT
REMARK Flexibility Score: inf
ROOT
ATOM      1  C   UNL     1      -0.306   0.849  28.834  1.00  0.00     0.057 C 
ATOM      2  C   UNL     1      -0.239   2.262  29.422  1.00  0.00     0.016 C 
ENDROOT
BRANCH   1   3
ATOM      3  C   UNL     1      -0.929   0.895  27.453  1.00  0.00     0.135 C 
ATOM      4  O   UNL     1      -1.283   1.967  26.983  1.00  0.00    -0.299 OA
BRANCH   3   5
ATOM      5  C   UNL     1      -1.101  -0.357  26.634  1.00  0.00     0.072 C 
ATOM      6  C   UNL     1      -2.386  -0.303  25.815  1.00  0.00     0.012 C 
ENDBRANCH   3   5
ENDBRANCH   1   3
BRANCH   1   7
ATOM      7  C   UNL     1      -1.089  -0.090  29.772  1.00  0.00     0.038 C 
BRANCH   7   8
ATOM      8  C   UNL     1      -2.522   0.350  29.916  1.00  0.00    -0.034 C 
ATOM      9  C   UNL     1      -3.542  -0.481  29.686  1.00  0.00     0.004 C 
ENDBRANCH   7   8
ENDBRANCH   1   7
TORSDOF 4
ENDMDL
MODEL 6
REMARK VINA RESULT:    -3.801      9.430     11.079
REMARK INTER + INTRA:          -4.928
REMARK INTER:                  -4.445
REMARK INTRA:                  -0.483
REMARK UNBOUND:                -0.238
REMARK SMILES C=CC[C@H](C)C(=O)CC
REMARK SMILES IDX 4 1 5 2 6 3 7 4 8 5 9 6 3 7 2 8 1 9
REMARK H PARENT
REMARK Flexibility Score: inf
ROOT
ATOM      1  C   UNL     1      -1.572   1.063  28.341  1.00  0.00     0.057 C 
ATOM      2  C   UNL     1      -0.986   2.479  28.330  1.00  0.00     0.016 C 
ENDROOT
BRANCH   1   3
ATOM      3  C   UNL     1      -1.795   0.610  29.770  1.00  0.00     0.135 C 
ATOM      4  O   UNL     1      -1.294   1.239  30.692  1.00  0.00    -0.299 OA
BRANCH   3   5
ATOM      5  C   UNL     1      -2.646  -0.593  30.082  1.00  0.00     0.072 C 
ATOM      6  C   UNL     1      -3.954  -0.556  29.298  1.00  0.00     0.012 C 
ENDBRANCH   3   5
ENDBRANCH   1   3
BRANCH   1   7
ATOM      7  C   UNL     1      -0.647   0.092  27.583  1.00  0.00     0.038 C 
BRANCH   7   8
ATOM      8  C   UNL     1      -1.403  -0.672  26.526  1.00  0.00    -0.034 C 
ATOM      9  C   UNL     1      -2.411  -0.123  25.844  1.00  0.00     0.004 C 
ENDBRANCH   7   8
ENDBRANCH   1   7
TORSDOF 4
ENDMDL
MODEL 7
REMARK VINA RESULT:    -3.717      1.602      2.749
REMARK INTER + INTRA:          -4.825
REMARK INTER:                  -4.348
REMARK INTRA:                  -0.477
REMARK UNBOUND:                -0.238
REMARK SMILES C=CC[C@H](C)C(=O)CC
REMARK SMILES IDX 4 1 5 2 6 3 7 4 8 5 9 6 3 7 2 8 1 9
REMARK H PARENT
REMARK Flexibility Score: inf
ROOT
ATOM      1  C   UNL     1     -12.574   0.668  30.296  1.00  0.00     0.057 C 
ATOM      2  C   UNL     1     -12.871  -0.344  31.409  1.00  0.00     0.016 C 
ENDROOT
BRANCH   1   3
ATOM      3  C   UNL     1     -12.293   2.029  30.900  1.00  0.00     0.135 C 
ATOM      4  O   UNL     1     -12.020   2.121  32.089  1.00  0.00    -0.299 OA
BRANCH   3   5
ATOM      5  C   UNL     1     -12.320   3.276  30.056  1.00  0.00     0.072 C 
ATOM      6  C   UNL     1     -11.049   3.399  29.222  1.00  0.00     0.012 C 
ENDBRANCH   3   5
ENDBRANCH   1   3
BRANCH   1   7
ATOM      7  C   UNL     1     -13.744   0.729  29.296  1.00  0.00     0.038 C 
BRANCH   7   8
ATOM      8  C   UNL     1     -13.302   0.337  27.910  1.00  0.00    -0.034 C 
ATOM      9  C   UNL     1     -12.017   0.132  27.611  1.00  0.00     0.004 C 
ENDBRANCH   7   8
ENDBRANCH   1   7
TORSDOF 4
ENDMDL
MODEL 8
REMARK VINA RESULT:    -3.655      2.051      3.348
REMARK INTER + INTRA:          -4.749
REMARK INTER:                  -4.608
REMARK INTRA:                  -0.140
REMARK UNBOUND:                -0.238
REMARK SMILES C=CC[C@H](C)C(=O)CC
REMARK SMILES IDX 4 1 5 2 6 3 7 4 8 5 9 6 3 7 2 8 1 9
REMARK H PARENT
REMARK Flexibility Score: inf
ROOT
ATOM      1  C   UNL     1     -13.977   2.708  28.945  1.00  0.00     0.057 C 
ATOM      2  C   UNL     1     -12.780   3.665  28.918  1.00  0.00     0.016 C 
ENDROOT
BRANCH   1   3
ATOM      3  C   UNL     1     -13.510   1.311  29.302  1.00  0.00     0.135 C 
ATOM      4  O   UNL     1     -13.803   0.370  28.578  1.00  0.00    -0.299 OA
BRANCH   3   5
ATOM      5  C   UNL     1     -12.667   1.060  30.525  1.00  0.00     0.072 C 
ATOM      6  C   UNL     1     -13.100  -0.219  31.234  1.00  0.00     0.012 C 
ENDBRANCH   3   5
ENDBRANCH   1   3
BRANCH   1   7
ATOM      7  C   UNL     1     -14.712   2.725  27.591  1.00  0.00     0.038 C 
BRANCH   7   8
ATOM      8  C   UNL     1     -16.152   3.135  27.754  1.00  0.00    -0.034 C 
ATOM      9  C   UNL     1     -16.908   3.488  26.712  1.00  0.00     0.004 C 
ENDBRANCH   7   8
ENDBRANCH   1   7
TORSDOF 4
ENDMDL
MODEL 9
REMARK VINA RESULT:    -3.646      9.294     11.071
REMARK INTER + INTRA:          -4.738
REMARK INTER:                  -4.474
REMARK INTRA:                  -0.264
REMARK UNBOUND:                -0.238
REMARK SMILES C=CC[C@H](C)C(=O)CC
REMARK SMILES IDX 4 1 5 2 6 3 7 4 8 5 9 6 3 7 2 8 1 9
REMARK H PARENT
REMARK Flexibility Score: inf
ROOT
ATOM      1  C   UNL     1      -2.652   0.276  27.756  1.00  0.00     0.057 C 
ATOM      2  C   UNL     1      -3.205   0.297  26.326  1.00  0.00     0.016 C 
ENDROOT
BRANCH   1   3
ATOM      3  C   UNL     1      -1.147   0.098  27.722  1.00  0.00     0.135 C 
ATOM      4  O   UNL     1      -0.614  -0.381  26.731  1.00  0.00    -0.299 OA
BRANCH   3   5
ATOM      5  C   UNL     1      -0.286   0.525  28.882  1.00  0.00     0.072 C 
ATOM      6  C   UNL     1      -0.259   2.044  29.014  1.00  0.00     0.012 C 
ENDBRANCH   3   5
ENDBRANCH   1   3
BRANCH   1   7
ATOM      7  C   UNL     1      -3.330  -0.834  28.581  1.00  0.00     0.038 C 
BRANCH   7   8
ATOM      8  C   UNL     1      -3.887  -0.295  29.872  1.00  0.00    -0.034 C 
ATOM      9  C   UNL     1      -5.069  -0.692  30.351  1.00  0.00     0.004 C 
ENDBRANCH   7   8
ENDBRANCH   1   7
TORSDOF 4
ENDMDL
