MODEL 1
REMARK VINA RESULT:    -3.296      0.000      0.000
REMARK INTER + INTRA:          -3.720
REMARK INTER:                  -3.681
REMARK INTRA:                  -0.039
REMARK UNBOUND:                -0.039
REMARK SMILES CCCC(=O)[O-]
REMARK SMILES IDX 3 1 4 2 5 3 6 4 2 5 1 6
REMARK H PARENT
REMARK Flexibility Score: inf
ROOT
ATOM      1  C   UNL     1      -4.382 -23.966  11.004  1.00  0.00     0.052 C 
ENDROOT
BRANCH   1   2
ATOM      2  C   UNL     1      -3.302 -23.987  12.039  1.00  0.00     0.041 C 
ATOM      3  O   UNL     1      -3.338 -23.185  13.008  1.00  0.00    -0.550 OA
ATOM      4  O   UNL     1      -2.282 -24.927  11.960  1.00  0.00    -0.550 OA
ENDBRANCH   1   2
BRANCH   1   5
ATOM      5  C   UNL     1      -4.168 -25.088   9.984  1.00  0.00     0.003 C 
ATOM      6  C   UNL     1      -5.130 -26.246  10.230  1.00  0.00     0.004 C 
ENDBRANCH   1   5
TORSDOF 2
ENDMDL
MODEL 2
REMARK VINA RESULT:    -3.225      1.839      2.823
REMARK INTER + INTRA:          -3.641
REMARK INTER:                  -3.618
REMARK INTRA:                  -0.023
REMARK UNBOUND:                -0.039
REMARK SMILES CCCC(=O)[O-]
REMARK SMILES IDX 3 1 4 2 5 3 6 4 2 5 1 6
REMARK H PARENT
REMARK Flexibility Score: inf
ROOT
ATOM      1  C   UNL     1      -3.744 -26.161  10.356  1.00  0.00     0.052 C 
ENDROOT
BRANCH   1   2
ATOM      2  C   UNL     1      -2.255 -26.302  10.369  1.00  0.00     0.041 C 
ATOM      3  O   UNL     1      -1.613 -26.148  11.441  1.00  0.00    -0.550 OA
ATOM      4  O   UNL     1      -1.580 -26.652   9.207  1.00  0.00    -0.550 OA
ENDBRANCH   1   2
BRANCH   1   5
ATOM      5  C   UNL     1      -4.144 -24.714  10.061  1.00  0.00     0.003 C 
ATOM      6  C   UNL     1      -4.253 -23.899  11.347  1.00  0.00     0.004 C 
ENDBRANCH   1   5
TORSDOF 2
ENDMDL
MODEL 3
REMARK VINA RESULT:    -3.108      2.668      3.006
REMARK INTER + INTRA:          -3.510
REMARK INTER:                  -3.501
REMARK INTRA:                  -0.009
REMARK UNBOUND:                -0.039
REMARK SMILES CCCC(=O)[O-]
REMARK SMILES IDX 3 1 4 2 5 3 6 4 2 5 1 6
REMARK H PARENT
REMARK Flexibility Score: inf
ROOT
ATOM      1  C   UNL     1      -2.749 -25.555  10.847  1.00  0.00     0.052 C 
ENDROOT
BRANCH   1   2
ATOM      2  C   UNL     1      -4.173 -25.174  10.595  1.00  0.00     0.041 C 
ATOM      3  O   UNL     1      -4.604 -24.050  10.964  1.00  0.00    -0.550 OA
ATOM      4  O   UNL     1      -5.013 -26.041   9.906  1.00  0.00    -0.550 OA
ENDBRANCH   1   2
BRANCH   1   5
ATOM      5  C   UNL     1      -2.289 -26.609   9.837  1.00  0.00     0.003 C 
ATOM      6  C   UNL     1      -0.768 -26.638   9.725  1.00  0.00     0.004 C 
ENDBRANCH   1   5
TORSDOF 2
ENDMDL
MODEL 4
REMARK VINA RESULT:    -3.023     11.388     12.009
REMARK INTER + INTRA:          -3.416
REMARK INTER:                  -3.396
REMARK INTRA:                  -0.019
REMARK UNBOUND:                -0.039
REMARK SMILES CCCC(=O)[O-]
REMARK SMILES IDX 3 1 4 2 5 3 6 4 2 5 1 6
REMARK H PARENT
REMARK Flexibility Score: inf
ROOT
ATOM      1  C   UNL     1      -1.591 -25.649  -0.039  1.00  0.00     0.052 C 
ENDROOT
BRANCH   1   2
ATOM      2  C   UNL     1      -2.521 -24.997  -1.013  1.00  0.00     0.041 C 
ATOM      3  O   UNL     1      -2.374 -23.783  -1.314  1.00  0.00    -0.550 OA
ATOM      4  O   UNL     1      -3.519 -25.743  -1.627  1.00  0.00    -0.550 OA
ENDBRANCH   1   2
BRANCH   1   5
ATOM      5  C   UNL     1      -2.358 -26.123   1.198  1.00  0.00     0.003 C 
ATOM      6  C   UNL     1      -1.895 -27.510   1.634  1.00  0.00     0.004 C 
ENDBRANCH   1   5
TORSDOF 2
ENDMDL
MODEL 5
REMARK VINA RESULT:    -3.021     11.460     12.112
REMARK INTER + INTRA:          -3.413
REMARK INTER:                  -3.384
REMARK INTRA:                  -0.029
REMARK UNBOUND:                -0.039
REMARK SMILES CCCC(=O)[O-]
REMARK SMILES IDX 3 1 4 2 5 3 6 4 2 5 1 6
REMARK H PARENT
REMARK Flexibility Score: inf
ROOT
ATOM      1  C   UNL     1      -1.567 -25.370  -0.121  1.00  0.00     0.052 C 
ENDROOT
BRANCH   1   2
ATOM      2  C   UNL     1      -2.473 -24.770  -1.149  1.00  0.00     0.041 C 
ATOM      3  O   UNL     1      -3.542 -25.352  -1.469  1.00  0.00    -0.550 OA
ATOM      4  O   UNL     1      -2.161 -23.541  -1.718  1.00  0.00    -0.550 OA
ENDBRANCH   1   2
BRANCH   1   5
ATOM      5  C   UNL     1      -2.363 -25.782   1.120  1.00  0.00     0.003 C 
ATOM      6  C   UNL     1      -1.972 -27.182   1.585  1.00  0.00     0.004 C 
ENDBRANCH   1   5
TORSDOF 2
ENDMDL
MODEL 6
REMARK VINA RESULT:    -2.961      2.135      3.222
REMARK INTER + INTRA:          -3.347
REMARK INTER:                  -3.338
REMARK INTRA:                  -0.008
REMARK UNBOUND:                -0.039
REMARK SMILES CCCC(=O)[O-]
REMARK SMILES IDX 3 1 4 2 5 3 6 4 2 5 1 6
REMARK H PARENT
REMARK Flexibility Score: inf
ROOT
ATOM      1  C   UNL     1      -4.329 -24.450  10.903  1.00  0.00     0.052 C 
ENDROOT
BRANCH   1   2
ATOM      2  C   UNL     1      -4.219 -25.799  10.265  1.00  0.00     0.041 C 
ATOM      3  O   UNL     1      -5.255 -26.418   9.908  1.00  0.00    -0.550 OA
ATOM      4  O   UNL     1      -2.967 -26.352  10.021  1.00  0.00    -0.550 OA
ENDBRANCH   1   2
BRANCH   1   5
ATOM      5  C   UNL     1      -3.132 -24.192  11.821  1.00  0.00     0.003 C 
ATOM      6  C   UNL     1      -3.449 -23.109  12.847  1.00  0.00     0.004 C 
ENDBRANCH   1   5
TORSDOF 2
ENDMDL
MODEL 7
REMARK VINA RESULT:    -2.905      9.572     10.391
REMARK INTER + INTRA:          -3.284
REMARK INTER:                  -3.271
REMARK INTRA:                  -0.012
REMARK UNBOUND:                -0.039
REMARK SMILES CCCC(=O)[O-]
REMARK SMILES IDX 3 1 4 2 5 3 6 4 2 5 1 6
REMARK H PARENT
REMARK Flexibility Score: inf
ROOT
ATOM      1  C   UNL     1      -1.702 -27.933   1.667  1.00  0.00     0.052 C 
ENDROOT
BRANCH   1   2
ATOM      2  C   UNL     1      -2.003 -26.528   2.084  1.00  0.00     0.041 C 
ATOM      3  O   UNL     1      -1.712 -26.134   3.243  1.00  0.00    -0.550 OA
ATOM      4  O   UNL     1      -2.561 -25.638   1.174  1.00  0.00    -0.550 OA
ENDBRANCH   1   2
BRANCH   1   5
ATOM      5  C   UNL     1      -0.191 -28.138   1.528  1.00  0.00     0.003 C 
ATOM      6  C   UNL     1       0.196 -29.585   1.818  1.00  0.00     0.004 C 
ENDBRANCH   1   5
TORSDOF 2
ENDMDL
MODEL 8
REMARK VINA RESULT:    -2.879      9.711     10.600
REMARK INTER + INTRA:          -3.255
REMARK INTER:                  -3.217
REMARK INTRA:                  -0.038
REMARK UNBOUND:                -0.039
REMARK SMILES CCCC(=O)[O-]
REMARK SMILES IDX 3 1 4 2 5 3 6 4 2 5 1 6
REMARK H PARENT
REMARK Flexibility Score: inf
ROOT
ATOM      1  C   UNL     1      -2.376 -26.307   1.682  1.00  0.00     0.052 C 
ENDROOT
BRANCH   1   2
ATOM      2  C   UNL     1      -2.304 -25.363   0.523  1.00  0.00     0.041 C 
ATOM      3  O   UNL     1      -2.632 -25.748  -0.629  1.00  0.00    -0.550 OA
ATOM      4  O   UNL     1      -1.920 -24.043   0.725  1.00  0.00    -0.550 OA
ENDBRANCH   1   2
BRANCH   1   5
ATOM      5  C   UNL     1      -1.076 -26.266   2.489  1.00  0.00     0.003 C 
ATOM      6  C   UNL     1      -1.317 -25.723   3.894  1.00  0.00     0.004 C 
ENDBRANCH   1   5
TORSDOF 2
ENDMDL
MODEL 9
REMARK VINA RESULT:    -2.873      9.061      9.733
REMARK INTER + INTRA:          -3.247
REMARK INTER:                  -3.208
REMARK INTRA:                  -0.039
REMARK UNBOUND:                -0.039
REMARK SMILES CCCC(=O)[O-]
REMARK SMILES IDX 3 1 4 2 5 3 6 4 2 5 1 6
REMARK H PARENT
REMARK Flexibility Score: inf
ROOT
ATOM      1  C   UNL     1      -0.906 -25.706   2.473  1.00  0.00     0.052 C 
ENDROOT
BRANCH   1   2
ATOM      2  C   UNL     1      -1.946 -26.369   1.627  1.00  0.00     0.041 C 
ATOM      3  O   UNL     1      -2.729 -25.677   0.925  1.00  0.00    -0.550 OA
ATOM      4  O   UNL     1      -2.018 -27.756   1.574  1.00  0.00    -0.550 OA
ENDBRANCH   1   2
BRANCH   1   5
ATOM      5  C   UNL     1      -1.335 -25.699   3.942  1.00  0.00     0.003 C 
ATOM      6  C   UNL     1      -0.569 -26.747   4.744  1.00  0.00     0.004 C 
ENDBRANCH   1   5
TORSDOF 2
ENDMDL
