MODEL 1
REMARK VINA RESULT:    -3.348      0.000      0.000
REMARK INTER + INTRA:          -4.932
REMARK INTER:                  -4.522
REMARK INTRA:                  -0.409
REMARK UNBOUND:                -0.409
REMARK SMILES CCCCCCC=CC(=O)[O-]
REMARK SMILES IDX 5 1 6 2 7 3 8 4 9 5 10 6 11 7 4 8 3 9 2 10 1 11
REMARK H PARENT
REMARK Flexibility Score: inf
ROOT
ATOM      1  C   UNL     1      64.680  33.348  59.669  1.00  0.00     0.004 C 
ENDROOT
BRANCH   1   2
ATOM      2  C   UNL     1      64.296  31.867  59.809  1.00  0.00     0.027 C 
BRANCH   2   3
ATOM      3  C   UNL     1      65.103  31.164  60.868  1.00  0.00    -0.025 C 
ATOM      4  C   UNL     1      64.864  29.938  61.362  1.00  0.00     0.020 C 
BRANCH   4   5
ATOM      5  C   UNL     1      63.737  29.051  61.006  1.00  0.00     0.064 C 
ATOM      6  O   UNL     1      63.878  28.240  60.052  1.00  0.00    -0.545 OA
ATOM      7  O   UNL     1      62.538  29.056  61.707  1.00  0.00    -0.545 OA
ENDBRANCH   4   5
ENDBRANCH   2   3
ENDBRANCH   1   2
BRANCH   1   8
ATOM      8  C   UNL     1      63.472  34.278  59.858  1.00  0.00     0.000 C 
BRANCH   8   9
ATOM      9  C   UNL     1      63.781  35.381  60.878  1.00  0.00    -0.000 C 
BRANCH   9  10
ATOM     10  C   UNL     1      64.978  34.998  61.755  1.00  0.00    -0.003 C 
ATOM     11  C   UNL     1      65.095  35.923  62.963  1.00  0.00     0.004 C 
ENDBRANCH   9  10
ENDBRANCH   8   9
ENDBRANCH   1   8
TORSDOF 6
ENDMDL
MODEL 2
REMARK VINA RESULT:    -3.243     13.083     14.725
REMARK INTER + INTRA:          -4.790
REMARK INTER:                  -4.228
REMARK INTRA:                  -0.562
REMARK UNBOUND:                -0.409
REMARK SMILES CCCCCCC=CC(=O)[O-]
REMARK SMILES IDX 5 1 6 2 7 3 8 4 9 5 10 6 11 7 4 8 3 9 2 10 1 11
REMARK H PARENT
REMARK Flexibility Score: inf
ROOT
ATOM      1  C   UNL     1      56.523  27.140  51.601  1.00  0.00     0.004 C 
ENDROOT
BRANCH   1   2
ATOM      2  C   UNL     1      57.796  26.281  51.570  1.00  0.00     0.027 C 
BRANCH   2   3
ATOM      3  C   UNL     1      57.879  25.425  50.334  1.00  0.00    -0.025 C 
ATOM      4  C   UNL     1      58.979  25.203  49.596  1.00  0.00     0.020 C 
BRANCH   4   5
ATOM      5  C   UNL     1      60.318  25.790  49.814  1.00  0.00     0.064 C 
ATOM      6  O   UNL     1      60.581  26.912  49.307  1.00  0.00    -0.545 OA
ATOM      7  O   UNL     1      61.287  25.161  50.586  1.00  0.00    -0.545 OA
ENDBRANCH   4   5
ENDBRANCH   2   3
ENDBRANCH   1   2
BRANCH   1   8
ATOM      8  C   UNL     1      55.306  26.388  51.040  1.00  0.00     0.000 C 
BRANCH   8   9
ATOM      9  C   UNL     1      54.534  27.258  50.040  1.00  0.00    -0.000 C 
BRANCH   9  10
ATOM     10  C   UNL     1      54.168  26.458  48.785  1.00  0.00    -0.003 C 
ATOM     11  C   UNL     1      54.197  24.958  49.060  1.00  0.00     0.004 C 
ENDBRANCH   9  10
ENDBRANCH   8   9
ENDBRANCH   1   8
TORSDOF 6
ENDMDL
MODEL 3
REMARK VINA RESULT:    -3.213      2.041      2.488
REMARK INTER + INTRA:          -4.749
REMARK INTER:                  -4.373
REMARK INTRA:                  -0.376
REMARK UNBOUND:                -0.409
REMARK SMILES CCCCCCC=CC(=O)[O-]
REMARK SMILES IDX 5 1 6 2 7 3 8 4 9 5 10 6 11 7 4 8 3 9 2 10 1 11
REMARK H PARENT
REMARK Flexibility Score: inf
ROOT
ATOM      1  C   UNL     1      64.377  32.383  59.840  1.00  0.00     0.004 C 
ENDROOT
BRANCH   1   2
ATOM      2  C   UNL     1      65.161  31.619  60.919  1.00  0.00     0.027 C 
BRANCH   2   3
ATOM      3  C   UNL     1      64.649  30.216  61.113  1.00  0.00    -0.025 C 
ATOM      4  C   UNL     1      65.354  29.086  60.948  1.00  0.00     0.020 C 
BRANCH   4   5
ATOM      5  C   UNL     1      66.757  28.982  60.496  1.00  0.00     0.064 C 
ATOM      6  O   UNL     1      67.017  29.142  59.274  1.00  0.00    -0.545 OA
ATOM      7  O   UNL     1      67.805  28.745  61.377  1.00  0.00    -0.545 OA
ENDBRANCH   4   5
ENDBRANCH   2   3
ENDBRANCH   1   2
BRANCH   1   8
ATOM      8  C   UNL     1      64.665  33.892  59.878  1.00  0.00     0.000 C 
BRANCH   8   9
ATOM      9  C   UNL     1      65.057  34.342  61.291  1.00  0.00    -0.000 C 
BRANCH   9  10
ATOM     10  C   UNL     1      64.265  35.585  61.711  1.00  0.00    -0.003 C 
ATOM     11  C   UNL     1      62.984  35.724  60.894  1.00  0.00     0.004 C 
ENDBRANCH   9  10
ENDBRANCH   8   9
ENDBRANCH   1   8
TORSDOF 6
ENDMDL
MODEL 4
REMARK VINA RESULT:    -3.155      1.255      1.939
REMARK INTER + INTRA:          -4.671
REMARK INTER:                  -4.177
REMARK INTRA:                  -0.493
REMARK UNBOUND:                -0.409
REMARK SMILES CCCCCCC=CC(=O)[O-]
REMARK SMILES IDX 5 1 6 2 7 3 8 4 9 5 10 6 11 7 4 8 3 9 2 10 1 11
REMARK H PARENT
REMARK Flexibility Score: inf
ROOT
ATOM      1  C   UNL     1      65.096  32.326  60.663  1.00  0.00     0.004 C 
ENDROOT
BRANCH   1   2
ATOM      2  C   UNL     1      65.426  30.830  60.540  1.00  0.00     0.027 C 
BRANCH   2   3
ATOM      3  C   UNL     1      64.594  29.983  61.466  1.00  0.00    -0.025 C 
ATOM      4  C   UNL     1      63.454  29.349  61.150  1.00  0.00     0.020 C 
BRANCH   4   5
ATOM      5  C   UNL     1      62.755  29.391  59.848  1.00  0.00     0.064 C 
ATOM      6  O   UNL     1      61.842  30.240  59.675  1.00  0.00    -0.545 OA
ATOM      7  O   UNL     1      63.092  28.548  58.797  1.00  0.00    -0.545 OA
ENDBRANCH   4   5
ENDBRANCH   2   3
ENDBRANCH   1   2
BRANCH   1   8
ATOM      8  C   UNL     1      64.313  32.847  59.448  1.00  0.00     0.000 C 
BRANCH   8   9
ATOM      9  C   UNL     1      63.550  34.131  59.795  1.00  0.00    -0.000 C 
BRANCH   9  10
ATOM     10  C   UNL     1      64.279  34.925  60.885  1.00  0.00    -0.003 C 
ATOM     11  C   UNL     1      63.372  35.996  61.486  1.00  0.00     0.004 C 
ENDBRANCH   9  10
ENDBRANCH   8   9
ENDBRANCH   1   8
TORSDOF 6
ENDMDL
MODEL 5
REMARK VINA RESULT:    -3.114     13.629     14.629
REMARK INTER + INTRA:          -4.615
REMARK INTER:                  -4.165
REMARK INTRA:                  -0.450
REMARK UNBOUND:                -0.409
REMARK SMILES CCCCCCC=CC(=O)[O-]
REMARK SMILES IDX 5 1 6 2 7 3 8 4 9 5 10 6 11 7 4 8 3 9 2 10 1 11
REMARK H PARENT
REMARK Flexibility Score: inf
ROOT
ATOM      1  C   UNL     1      57.647  25.683  51.130  1.00  0.00     0.004 C 
ENDROOT
BRANCH   1   2
ATOM      2  C   UNL     1      58.328  25.337  49.796  1.00  0.00     0.027 C 
BRANCH   2   3
ATOM      3  C   UNL     1      59.778  25.746  49.771  1.00  0.00    -0.025 C 
ATOM      4  C   UNL     1      60.831  24.940  49.980  1.00  0.00     0.020 C 
BRANCH   4   5
ATOM      5  C   UNL     1      60.786  23.504  50.325  1.00  0.00     0.064 C 
ATOM      6  O   UNL     1      60.984  22.653  49.418  1.00  0.00    -0.545 OA
ATOM      7  O   UNL     1      60.562  23.058  51.622  1.00  0.00    -0.545 OA
ENDBRANCH   4   5
ENDBRANCH   2   3
ENDBRANCH   1   2
BRANCH   1   8
ATOM      8  C   UNL     1      56.120  25.531  51.054  1.00  0.00     0.000 C 
BRANCH   8   9
ATOM      9  C   UNL     1      55.446  26.882  50.785  1.00  0.00    -0.000 C 
BRANCH   9  10
ATOM     10  C   UNL     1      54.489  26.790  49.591  1.00  0.00    -0.003 C 
ATOM     11  C   UNL     1      54.596  25.433  48.902  1.00  0.00     0.004 C 
ENDBRANCH   9  10
ENDBRANCH   8   9
ENDBRANCH   1   8
TORSDOF 6
ENDMDL
MODEL 6
REMARK VINA RESULT:    -3.039      2.359      3.505
REMARK INTER + INTRA:          -4.514
REMARK INTER:                  -3.917
REMARK INTRA:                  -0.598
REMARK UNBOUND:                -0.409
REMARK SMILES CCCCCCC=CC(=O)[O-]
REMARK SMILES IDX 5 1 6 2 7 3 8 4 9 5 10 6 11 7 4 8 3 9 2 10 1 11
REMARK H PARENT
REMARK Flexibility Score: inf
ROOT
ATOM      1  C   UNL     1      63.308  30.094  60.152  1.00  0.00     0.004 C 
ENDROOT
BRANCH   1   2
ATOM      2  C   UNL     1      64.067  29.428  61.310  1.00  0.00     0.027 C 
BRANCH   2   3
ATOM      3  C   UNL     1      64.533  28.039  60.965  1.00  0.00    -0.025 C 
ATOM      4  C   UNL     1      65.798  27.669  60.706  1.00  0.00     0.020 C 
BRANCH   4   5
ATOM      5  C   UNL     1      66.981  28.554  60.658  1.00  0.00     0.064 C 
ATOM      6  O   UNL     1      67.798  28.530  61.615  1.00  0.00    -0.545 OA
ATOM      7  O   UNL     1      67.240  29.390  59.579  1.00  0.00    -0.545 OA
ENDBRANCH   4   5
ENDBRANCH   2   3
ENDBRANCH   1   2
BRANCH   1   8
ATOM      8  C   UNL     1      64.054  31.320  59.603  1.00  0.00     0.000 C 
BRANCH   8   9
ATOM      9  C   UNL     1      65.073  31.846  60.622  1.00  0.00    -0.000 C 
BRANCH   9  10
ATOM     10  C   UNL     1      64.973  33.369  60.763  1.00  0.00    -0.003 C 
ATOM     11  C   UNL     1      63.891  33.937  59.849  1.00  0.00     0.004 C 
ENDBRANCH   9  10
ENDBRANCH   8   9
ENDBRANCH   1   8
TORSDOF 6
ENDMDL
MODEL 7
REMARK VINA RESULT:    -3.037      3.325      5.876
REMARK INTER + INTRA:          -4.512
REMARK INTER:                  -4.235
REMARK INTRA:                  -0.277
REMARK UNBOUND:                -0.409
REMARK SMILES CCCCCCC=CC(=O)[O-]
REMARK SMILES IDX 5 1 6 2 7 3 8 4 9 5 10 6 11 7 4 8 3 9 2 10 1 11
REMARK H PARENT
REMARK Flexibility Score: inf
ROOT
ATOM      1  C   UNL     1      65.173  31.629  60.651  1.00  0.00     0.004 C 
ENDROOT
BRANCH   1   2
ATOM      2  C   UNL     1      65.148  32.840  59.706  1.00  0.00     0.027 C 
BRANCH   2   3
ATOM      3  C   UNL     1      63.995  33.765  59.992  1.00  0.00    -0.025 C 
ATOM      4  C   UNL     1      64.048  34.897  60.712  1.00  0.00     0.020 C 
BRANCH   4   5
ATOM      5  C   UNL     1      65.231  35.441  61.411  1.00  0.00     0.064 C 
ATOM      6  O   UNL     1      65.309  35.318  62.661  1.00  0.00    -0.545 OA
ATOM      7  O   UNL     1      66.276  36.057  60.733  1.00  0.00    -0.545 OA
ENDBRANCH   4   5
ENDBRANCH   2   3
ENDBRANCH   1   2
BRANCH   1   8
ATOM      8  C   UNL     1      64.067  30.616  60.321  1.00  0.00     0.000 C 
BRANCH   8   9
ATOM      9  C   UNL     1      64.046  29.471  61.342  1.00  0.00    -0.000 C 
BRANCH   9  10
ATOM     10  C   UNL     1      62.653  28.836  61.426  1.00  0.00    -0.003 C 
ATOM     11  C   UNL     1      62.746  27.342  61.719  1.00  0.00     0.004 C 
ENDBRANCH   9  10
ENDBRANCH   8   9
ENDBRANCH   1   8
TORSDOF 6
ENDMDL
MODEL 8
REMARK VINA RESULT:    -2.954      3.137      5.494
REMARK INTER + INTRA:          -4.400
REMARK INTER:                  -3.848
REMARK INTRA:                  -0.552
REMARK UNBOUND:                -0.409
REMARK SMILES CCCCCCC=CC(=O)[O-]
REMARK SMILES IDX 5 1 6 2 7 3 8 4 9 5 10 6 11 7 4 8 3 9 2 10 1 11
REMARK H PARENT
REMARK Flexibility Score: inf
ROOT
ATOM      1  C   UNL     1      64.806  30.456  61.338  1.00  0.00     0.004 C 
ENDROOT
BRANCH   1   2
ATOM      2  C   UNL     1      65.198  31.737  60.584  1.00  0.00     0.027 C 
BRANCH   2   3
ATOM      3  C   UNL     1      64.131  32.183  59.620  1.00  0.00    -0.025 C 
ATOM      4  C   UNL     1      63.751  33.450  59.390  1.00  0.00     0.020 C 
BRANCH   4   5
ATOM      5  C   UNL     1      64.262  34.659  60.069  1.00  0.00     0.064 C 
ATOM      6  O   UNL     1      65.218  35.291  59.546  1.00  0.00    -0.545 OA
ATOM      7  O   UNL     1      63.706  35.141  61.247  1.00  0.00    -0.545 OA
ENDBRANCH   4   5
ENDBRANCH   2   3
ENDBRANCH   1   2
BRANCH   1   8
ATOM      8  C   UNL     1      63.768  29.627  60.566  1.00  0.00     0.000 C 
BRANCH   8   9
ATOM      9  C   UNL     1      62.713  29.045  61.514  1.00  0.00    -0.000 C 
BRANCH   9  10
ATOM     10  C   UNL     1      61.329  29.033  60.855  1.00  0.00    -0.003 C 
ATOM     11  C   UNL     1      61.308  29.904  59.602  1.00  0.00     0.004 C 
ENDBRANCH   9  10
ENDBRANCH   8   9
ENDBRANCH   1   8
TORSDOF 6
ENDMDL
MODEL 9
REMARK VINA RESULT:    -2.891      6.196      7.330
REMARK INTER + INTRA:          -4.314
REMARK INTER:                  -3.706
REMARK INTRA:                  -0.608
REMARK UNBOUND:                -0.409
REMARK SMILES CCCCCCC=CC(=O)[O-]
REMARK SMILES IDX 5 1 6 2 7 3 8 4 9 5 10 6 11 7 4 8 3 9 2 10 1 11
REMARK H PARENT
REMARK Flexibility Score: inf
ROOT
ATOM      1  C   UNL     1      71.692  29.801  59.168  1.00  0.00     0.004 C 
ENDROOT
BRANCH   1   2
ATOM      2  C   UNL     1      70.395  29.062  59.531  1.00  0.00     0.027 C 
BRANCH   2   3
ATOM      3  C   UNL     1      70.166  29.005  61.018  1.00  0.00    -0.025 C 
ATOM      4  C   UNL     1      69.008  28.708  61.630  1.00  0.00     0.020 C 
BRANCH   4   5
ATOM      5  C   UNL     1      67.713  28.427  60.974  1.00  0.00     0.064 C 
ATOM      6  O   UNL     1      66.882  29.364  60.842  1.00  0.00    -0.545 OA
ATOM      7  O   UNL     1      67.392  27.173  60.471  1.00  0.00    -0.545 OA
ENDBRANCH   4   5
ENDBRANCH   2   3
ENDBRANCH   1   2
BRANCH   1   8
ATOM      8  C   UNL     1      71.645  31.283  59.572  1.00  0.00     0.000 C 
BRANCH   8   9
ATOM      9  C   UNL     1      72.845  31.652  60.452  1.00  0.00    -0.000 C 
BRANCH   9  10
ATOM     10  C   UNL     1      73.704  30.419  60.755  1.00  0.00    -0.003 C 
ATOM     11  C   UNL     1      73.739  30.126  62.252  1.00  0.00     0.004 C 
ENDBRANCH   9  10
ENDBRANCH   8   9
ENDBRANCH   1   8
TORSDOF 6
ENDMDL
