MODEL 1
REMARK VINA RESULT:    -2.105      0.000      0.000
REMARK INTER + INTRA:          -2.748
REMARK INTER:                  -2.536
REMARK INTRA:                  -0.212
REMARK UNBOUND:                -0.212
REMARK SMILES O=c1c(O)c(-c2ccc(O)c(O)c2)oc2cc(O)cc(O)c12
REMARK SMILES IDX 5 1 3 2 2 3 1 4 22 5 20 6 19 7 17 8 16 9 15 10 14 11 6 12
REMARK SMILES IDX 7 13 8 14 9 15 13 16 11 17 10 18 12 20 4 22 21 24 18 26
REMARK H PARENT 10 19 12 21 4 23 21 25 18 27
REMARK Flexibility Score: inf
ROOT
ATOM      1  C   UNL     1      49.449  -8.056  17.730  1.00  0.00     0.180 A 
ATOM      2  C   UNL     1      48.612  -7.923  18.852  1.00  0.00     0.208 A 
ATOM      3  C   UNL     1      47.221  -7.981  18.675  1.00  0.00     0.238 A 
ATOM      4  O   UNL     1      46.478  -7.787  19.672  1.00  0.00    -0.285 OA
ATOM      5  C   UNL     1      46.683  -8.228  17.388  1.00  0.00     0.111 A 
ATOM      6  C   UNL     1      45.290  -8.352  17.100  1.00  0.00     0.134 A 
ATOM      7  C   UNL     1      44.869  -8.490  15.772  1.00  0.00     0.093 A 
ATOM      8  C   UNL     1      45.795  -8.574  14.728  1.00  0.00     0.123 A 
ATOM      9  C   UNL     1      47.158  -8.509  15.005  1.00  0.00     0.094 A 
ATOM     10  C   UNL     1      47.607  -8.332  16.316  1.00  0.00     0.146 A 
ATOM     11  O   UNL     1      48.915  -8.254  16.531  1.00  0.00    -0.452 OA
ENDROOT
BRANCH   1  12
ATOM     12  C   UNL     1      50.924  -7.991  17.835  1.00  0.00     0.025 A 
ATOM     13  C   UNL     1      51.689  -9.125  17.521  1.00  0.00     0.016 A 
ATOM     14  C   UNL     1      53.084  -9.081  17.591  1.00  0.00     0.051 A 
ATOM     15  C   UNL     1      53.734  -7.897  17.962  1.00  0.00     0.157 A 
ATOM     16  C   UNL     1      51.583  -6.798  18.186  1.00  0.00     0.062 A 
ATOM     17  C   UNL     1      52.982  -6.752  18.255  1.00  0.00     0.158 A 
BRANCH  15  18
ATOM     18  O   UNL     1      55.125  -7.849  18.036  1.00  0.00    -0.504 OA
ATOM     19  H   UNL     1      55.627  -8.236  18.826  1.00  0.00     0.293 HD
ENDBRANCH  15  18
BRANCH  17  20
ATOM     20  O   UNL     1      53.633  -5.571  18.610  1.00  0.00    -0.504 OA
ATOM     21  H   UNL     1      53.214  -4.908  19.251  1.00  0.00     0.293 HD
ENDBRANCH  17  20
ENDBRANCH   1  12
BRANCH   2  22
ATOM     22  O   UNL     1      49.165  -7.756  20.125  1.00  0.00    -0.502 OA
ATOM     23  H   UNL     1      50.096  -8.077  20.360  1.00  0.00     0.293 HD
ENDBRANCH   2  22
BRANCH   6  24
ATOM     24  O   UNL     1      44.287  -8.371  18.074  1.00  0.00    -0.507 OA
ATOM     25  H   UNL     1      43.329  -8.640  17.911  1.00  0.00     0.293 HD
ENDBRANCH   6  24
BRANCH   8  26
ATOM     26  O   UNL     1      45.368  -8.728  13.411  1.00  0.00    -0.508 OA
ATOM     27  H   UNL     1      44.766  -8.045  12.965  1.00  0.00     0.293 HD
ENDBRANCH   8  26
TORSDOF 6
ENDMDL
MODEL 2
REMARK VINA RESULT:    -1.259      1.637      2.982
REMARK INTER + INTRA:          -1.729
REMARK INTER:                  -1.440
REMARK INTRA:                  -0.289
REMARK UNBOUND:                -0.212
REMARK SMILES O=c1c(O)c(-c2ccc(O)c(O)c2)oc2cc(O)cc(O)c12
REMARK SMILES IDX 5 1 3 2 2 3 1 4 22 5 20 6 19 7 17 8 16 9 15 10 14 11 6 12
REMARK SMILES IDX 7 13 8 14 9 15 13 16 11 17 10 18 12 20 4 22 21 24 18 26
REMARK H PARENT 10 19 12 21 4 23 21 25 18 27
REMARK Flexibility Score: inf
ROOT
ATOM      1  C   UNL     1      48.720  -8.008  18.075  1.00  0.00     0.180 A 
ATOM      2  C   UNL     1      48.451  -7.820  16.709  1.00  0.00     0.208 A 
ATOM      3  C   UNL     1      47.127  -7.927  16.254  1.00  0.00     0.238 A 
ATOM      4  O   UNL     1      46.904  -7.832  15.019  1.00  0.00    -0.285 OA
ATOM      5  C   UNL     1      46.081  -8.164  17.179  1.00  0.00     0.111 A 
ATOM      6  C   UNL     1      44.697  -8.246  16.836  1.00  0.00     0.134 A 
ATOM      7  C   UNL     1      43.761  -8.591  17.819  1.00  0.00     0.093 A 
ATOM      8  C   UNL     1      44.151  -8.793  19.146  1.00  0.00     0.123 A 
ATOM      9  C   UNL     1      45.492  -8.660  19.500  1.00  0.00     0.094 A 
ATOM     10  C   UNL     1      46.454  -8.357  18.535  1.00  0.00     0.146 A 
ATOM     11  O   UNL     1      47.722  -8.261  18.914  1.00  0.00    -0.452 OA
ENDROOT
BRANCH   1  12
ATOM     12  C   UNL     1      50.091  -7.925  18.628  1.00  0.00     0.025 A 
ATOM     13  C   UNL     1      50.811  -9.106  18.866  1.00  0.00     0.016 A 
ATOM     14  C   UNL     1      52.116  -9.052  19.367  1.00  0.00     0.051 A 
ATOM     15  C   UNL     1      52.722  -7.815  19.621  1.00  0.00     0.157 A 
ATOM     16  C   UNL     1      50.713  -6.686  18.864  1.00  0.00     0.062 A 
ATOM     17  C   UNL     1      52.021  -6.630  19.365  1.00  0.00     0.158 A 
BRANCH  15  18
ATOM     18  O   UNL     1      54.021  -7.756  20.123  1.00  0.00    -0.504 OA
ATOM     19  H   UNL     1      54.325  -8.359  20.878  1.00  0.00     0.293 HD
ENDBRANCH  15  18
BRANCH  17  20
ATOM     20  O   UNL     1      52.634  -5.400  19.606  1.00  0.00    -0.504 OA
ATOM     21  H   UNL     1      52.093  -4.577  19.843  1.00  0.00     0.293 HD
ENDBRANCH  17  20
ENDBRANCH   1  12
BRANCH   2  22
ATOM     22  O   UNL     1      49.488  -7.511  15.824  1.00  0.00    -0.502 OA
ATOM     23  H   UNL     1      49.424  -6.754  15.154  1.00  0.00     0.293 HD
ENDBRANCH   2  22
BRANCH   6  24
ATOM     24  O   UNL     1      44.188  -7.977  15.562  1.00  0.00    -0.507 OA
ATOM     25  H   UNL     1      44.233  -8.609  14.777  1.00  0.00     0.293 HD
ENDBRANCH   6  24
BRANCH   8  26
ATOM     26  O   UNL     1      43.211  -9.119  20.120  1.00  0.00    -0.508 OA
ATOM     27  H   UNL     1      42.258  -8.778  20.073  1.00  0.00     0.293 HD
ENDBRANCH   8  26
TORSDOF 6
ENDMDL
MODEL 3
REMARK VINA RESULT:     0.532      1.829      7.408
REMARK INTER + INTRA:           0.428
REMARK INTER:                   0.656
REMARK INTRA:                  -0.227
REMARK UNBOUND:                -0.212
REMARK SMILES O=c1c(O)c(-c2ccc(O)c(O)c2)oc2cc(O)cc(O)c12
REMARK SMILES IDX 5 1 3 2 2 3 1 4 22 5 20 6 19 7 17 8 16 9 15 10 14 11 6 12
REMARK SMILES IDX 7 13 8 14 9 15 13 16 11 17 10 18 12 20 4 22 21 24 18 26
REMARK H PARENT 10 19 12 21 4 23 21 25 18 27
REMARK Flexibility Score: inf
ROOT
ATOM      1  C   UNL     1      49.994  -7.115  18.363  1.00  0.00     0.180 A 
ATOM      2  C   UNL     1      50.833  -7.974  17.632  1.00  0.00     0.208 A 
ATOM      3  C   UNL     1      52.200  -7.669  17.532  1.00  0.00     0.238 A 
ATOM      4  O   UNL     1      52.930  -8.402  16.815  1.00  0.00    -0.285 OA
ATOM      5  C   UNL     1      52.723  -6.541  18.209  1.00  0.00     0.111 A 
ATOM      6  C   UNL     1      54.099  -6.162  18.214  1.00  0.00     0.134 A 
ATOM      7  C   UNL     1      54.484  -4.965  18.831  1.00  0.00     0.093 A 
ATOM      8  C   UNL     1      53.552  -4.167  19.499  1.00  0.00     0.123 A 
ATOM      9  C   UNL     1      52.215  -4.557  19.547  1.00  0.00     0.094 A 
ATOM     10  C   UNL     1      51.794  -5.724  18.907  1.00  0.00     0.146 A 
ATOM     11  O   UNL     1      50.508  -6.046  18.960  1.00  0.00    -0.452 OA
ENDROOT
BRANCH   1  12
ATOM     12  C   UNL     1      48.541  -7.362  18.502  1.00  0.00     0.025 A 
ATOM     13  C   UNL     1      48.011  -7.663  19.765  1.00  0.00     0.016 A 
ATOM     14  C   UNL     1      46.639  -7.879  19.925  1.00  0.00     0.051 A 
ATOM     15  C   UNL     1      45.777  -7.780  18.825  1.00  0.00     0.157 A 
ATOM     16  C   UNL     1      47.669  -7.243  17.405  1.00  0.00     0.062 A 
ATOM     17  C   UNL     1      46.293  -7.457  17.564  1.00  0.00     0.158 A 
BRANCH  15  18
ATOM     18  O   UNL     1      44.409  -7.997  18.978  1.00  0.00    -0.504 OA
ATOM     19  H   UNL     1      43.815  -7.320  19.444  1.00  0.00     0.293 HD
ENDBRANCH  15  18
BRANCH  17  20
ATOM     20  O   UNL     1      45.430  -7.345  16.473  1.00  0.00    -0.504 OA
ATOM     21  H   UNL     1      45.312  -8.104  15.813  1.00  0.00     0.293 HD
ENDBRANCH  17  20
ENDBRANCH   1  12
BRANCH   2  22
ATOM     22  O   UNL     1      50.312  -9.125  17.034  1.00  0.00    -0.502 OA
ATOM     23  H   UNL     1      50.185  -9.208  16.033  1.00  0.00     0.293 HD
ENDBRANCH   2  22
BRANCH   6  24
ATOM     24  O   UNL     1      55.125  -6.929  17.654  1.00  0.00    -0.507 OA
ATOM     25  H   UNL     1      55.996  -7.151  18.112  1.00  0.00     0.293 HD
ENDBRANCH   6  24
BRANCH   8  26
ATOM     26  O   UNL     1      53.946  -2.986  20.125  1.00  0.00    -0.508 OA
ATOM     27  H   UNL     1      53.866  -2.866  21.128  1.00  0.00     0.293 HD
ENDBRANCH   8  26
TORSDOF 6
ENDMDL
