MODEL 1
REMARK VINA RESULT:    -2.903      0.000      0.000
REMARK INTER + INTRA:          -3.453
REMARK INTER:                  -3.412
REMARK INTRA:                  -0.040
REMARK UNBOUND:                -0.040
REMARK SMILES CCCCC(=O)[O-]
REMARK SMILES IDX 4 1 5 2 6 3 7 4 3 5 2 6 1 7
REMARK H PARENT
REMARK Flexibility Score: inf
ROOT
ATOM      1  C   UNL     1      64.531 129.857  -5.858  1.00  0.00     0.053 C 
ENDROOT
BRANCH   1   2
ATOM      2  C   UNL     1      65.672 129.133  -5.215  1.00  0.00     0.041 C 
ATOM      3  O   UNL     1      65.466 128.375  -4.230  1.00  0.00    -0.550 OA
ATOM      4  O   UNL     1      66.954 129.254  -5.735  1.00  0.00    -0.550 OA
ENDBRANCH   1   2
BRANCH   1   5
ATOM      5  C   UNL     1      64.844 130.153  -7.328  1.00  0.00     0.006 C 
BRANCH   5   6
ATOM      6  C   UNL     1      63.566 130.493  -8.103  1.00  0.00    -0.003 C 
ATOM      7  C   UNL     1      62.340 129.864  -7.448  1.00  0.00     0.004 C 
ENDBRANCH   5   6
ENDBRANCH   1   5
TORSDOF 3
ENDMDL
MODEL 2
REMARK VINA RESULT:    -2.718      1.104      1.392
REMARK INTER + INTRA:          -3.236
REMARK INTER:                  -3.212
REMARK INTRA:                  -0.024
REMARK UNBOUND:                -0.040
REMARK SMILES CCCCC(=O)[O-]
REMARK SMILES IDX 4 1 5 2 6 3 7 4 3 5 2 6 1 7
REMARK H PARENT
REMARK Flexibility Score: inf
ROOT
ATOM      1  C   UNL     1      64.549 129.790  -5.988  1.00  0.00     0.053 C 
ENDROOT
BRANCH   1   2
ATOM      2  C   UNL     1      65.637 129.105  -5.223  1.00  0.00     0.041 C 
ATOM      3  O   UNL     1      65.356 128.384  -4.229  1.00  0.00    -0.550 OA
ATOM      4  O   UNL     1      66.958 129.221  -5.637  1.00  0.00    -0.550 OA
ENDBRANCH   1   2
BRANCH   1   5
ATOM      5  C   UNL     1      63.703 128.765  -6.750  1.00  0.00     0.006 C 
BRANCH   5   6
ATOM      6  C   UNL     1      62.245 129.228  -6.858  1.00  0.00    -0.003 C 
ATOM      7  C   UNL     1      61.281 128.078  -6.589  1.00  0.00     0.004 C 
ENDBRANCH   5   6
ENDBRANCH   1   5
TORSDOF 3
ENDMDL
MODEL 3
REMARK VINA RESULT:    -2.443     22.559     23.115
REMARK INTER + INTRA:          -2.911
REMARK INTER:                  -2.873
REMARK INTRA:                  -0.038
REMARK UNBOUND:                -0.040
REMARK SMILES CCCCC(=O)[O-]
REMARK SMILES IDX 4 1 5 2 6 3 7 4 3 5 2 6 1 7
REMARK H PARENT
REMARK Flexibility Score: inf
ROOT
ATOM      1  C   UNL     1      52.469 147.992   0.051  1.00  0.00     0.053 C 
ENDROOT
BRANCH   1   2
ATOM      2  C   UNL     1      53.958 147.962  -0.096  1.00  0.00     0.041 C 
ATOM      3  O   UNL     1      54.481 147.940  -1.242  1.00  0.00    -0.550 OA
ATOM      4  O   UNL     1      54.769 148.008   1.030  1.00  0.00    -0.550 OA
ENDBRANCH   1   2
BRANCH   1   5
ATOM      5  C   UNL     1      52.058 147.516   1.447  1.00  0.00     0.006 C 
BRANCH   5   6
ATOM      6  C   UNL     1      50.557 147.722   1.678  1.00  0.00    -0.003 C 
ATOM      7  C   UNL     1      49.851 148.125   0.387  1.00  0.00     0.004 C 
ENDBRANCH   5   6
ENDBRANCH   1   5
TORSDOF 3
ENDMDL
MODEL 4
REMARK VINA RESULT:    -2.296     21.763     22.443
REMARK INTER + INTRA:          -2.739
REMARK INTER:                  -2.714
REMARK INTRA:                  -0.025
REMARK UNBOUND:                -0.040
REMARK SMILES CCCCC(=O)[O-]
REMARK SMILES IDX 4 1 5 2 6 3 7 4 3 5 2 6 1 7
REMARK H PARENT
REMARK Flexibility Score: inf
ROOT
ATOM      1  C   UNL     1      52.354 147.781  -6.861  1.00  0.00     0.053 C 
ENDROOT
BRANCH   1   2
ATOM      2  C   UNL     1      52.890 147.927  -5.471  1.00  0.00     0.041 C 
ATOM      3  O   UNL     1      52.102 148.091  -4.503  1.00  0.00    -0.550 OA
ATOM      4  O   UNL     1      54.256 147.831  -5.239  1.00  0.00    -0.550 OA
ENDBRANCH   1   2
BRANCH   1   5
ATOM      5  C   UNL     1      50.862 148.125  -6.899  1.00  0.00     0.006 C 
BRANCH   5   6
ATOM      6  C   UNL     1      50.177 147.463  -8.100  1.00  0.00    -0.003 C 
ATOM      7  C   UNL     1      48.760 147.020  -7.750  1.00  0.00     0.004 C 
ENDBRANCH   5   6
ENDBRANCH   1   5
TORSDOF 3
ENDMDL
MODEL 5
REMARK VINA RESULT:    -2.267      2.824      3.900
REMARK INTER + INTRA:          -2.706
REMARK INTER:                  -2.624
REMARK INTRA:                  -0.082
REMARK UNBOUND:                -0.040
REMARK SMILES CCCCC(=O)[O-]
REMARK SMILES IDX 4 1 5 2 6 3 7 4 3 5 2 6 1 7
REMARK H PARENT
REMARK Flexibility Score: inf
ROOT
ATOM      1  C   UNL     1      62.709 130.010  -7.002  1.00  0.00     0.053 C 
ENDROOT
BRANCH   1   2
ATOM      2  C   UNL     1      62.078 128.670  -7.219  1.00  0.00     0.041 C 
ATOM      3  O   UNL     1      62.507 127.908  -8.125  1.00  0.00    -0.550 OA
ATOM      4  O   UNL     1      61.049 128.243  -6.389  1.00  0.00    -0.550 OA
ENDBRANCH   1   2
BRANCH   1   5
ATOM      5  C   UNL     1      64.234 129.882  -6.950  1.00  0.00     0.006 C 
BRANCH   5   6
ATOM      6  C   UNL     1      64.725 129.748  -5.504  1.00  0.00    -0.003 C 
ATOM      7  C   UNL     1      65.032 128.295  -5.158  1.00  0.00     0.004 C 
ENDBRANCH   5   6
ENDBRANCH   1   5
TORSDOF 3
ENDMDL
MODEL 6
REMARK VINA RESULT:    -2.229      2.600      3.813
REMARK INTER + INTRA:          -2.660
REMARK INTER:                  -2.603
REMARK INTRA:                  -0.058
REMARK UNBOUND:                -0.040
REMARK SMILES CCCCC(=O)[O-]
REMARK SMILES IDX 4 1 5 2 6 3 7 4 3 5 2 6 1 7
REMARK H PARENT
REMARK Flexibility Score: inf
ROOT
ATOM      1  C   UNL     1      64.490 130.037  -6.708  1.00  0.00     0.053 C 
ENDROOT
BRANCH   1   2
ATOM      2  C   UNL     1      63.080 129.661  -7.039  1.00  0.00     0.041 C 
ATOM      3  O   UNL     1      62.323 130.486  -7.616  1.00  0.00    -0.550 OA
ATOM      4  O   UNL     1      62.617 128.382  -6.757  1.00  0.00    -0.550 OA
ENDBRANCH   1   2
BRANCH   1   5
ATOM      5  C   UNL     1      64.936 129.357  -5.410  1.00  0.00     0.006 C 
BRANCH   5   6
ATOM      6  C   UNL     1      66.415 128.961  -5.477  1.00  0.00    -0.003 C 
ATOM      7  C   UNL     1      67.024 129.334  -6.825  1.00  0.00     0.004 C 
ENDBRANCH   5   6
ENDBRANCH   1   5
TORSDOF 3
ENDMDL
MODEL 7
REMARK VINA RESULT:    -2.206     21.482     21.996
REMARK INTER + INTRA:          -2.633
REMARK INTER:                  -2.594
REMARK INTRA:                  -0.039
REMARK UNBOUND:                -0.040
REMARK SMILES CCCCC(=O)[O-]
REMARK SMILES IDX 4 1 5 2 6 3 7 4 3 5 2 6 1 7
REMARK H PARENT
REMARK Flexibility Score: inf
ROOT
ATOM      1  C   UNL     1      53.440 148.125  -1.735  1.00  0.00     0.053 C 
ENDROOT
BRANCH   1   2
ATOM      2  C   UNL     1      54.632 147.916  -2.614  1.00  0.00     0.041 C 
ATOM      3  O   UNL     1      55.719 147.514  -2.121  1.00  0.00    -0.550 OA
ATOM      4  O   UNL     1      54.531 148.117  -3.984  1.00  0.00    -0.550 OA
ENDBRANCH   1   2
BRANCH   1   5
ATOM      5  C   UNL     1      53.817 147.931  -0.263  1.00  0.00     0.006 C 
BRANCH   5   6
ATOM      6  C   UNL     1      52.844 146.971   0.431  1.00  0.00    -0.003 C 
ATOM      7  C   UNL     1      51.734 147.735   1.148  1.00  0.00     0.004 C 
ENDBRANCH   5   6
ENDBRANCH   1   5
TORSDOF 3
ENDMDL
MODEL 8
REMARK VINA RESULT:    -1.956      2.548      3.467
REMARK INTER + INTRA:          -2.339
REMARK INTER:                  -2.314
REMARK INTRA:                  -0.025
REMARK UNBOUND:                -0.040
REMARK SMILES CCCCC(=O)[O-]
REMARK SMILES IDX 4 1 5 2 6 3 7 4 3 5 2 6 1 7
REMARK H PARENT
REMARK Flexibility Score: inf
ROOT
ATOM      1  C   UNL     1      62.463 129.861  -7.781  1.00  0.00     0.053 C 
ENDROOT
BRANCH   1   2
ATOM      2  C   UNL     1      63.899 130.278  -7.727  1.00  0.00     0.041 C 
ATOM      3  O   UNL     1      64.784 129.458  -7.365  1.00  0.00    -0.550 OA
ATOM      4  O   UNL     1      64.268 131.557  -8.125  1.00  0.00    -0.550 OA
ENDBRANCH   1   2
BRANCH   1   5
ATOM      5  C   UNL     1      62.173 128.799  -6.716  1.00  0.00     0.006 C 
BRANCH   5   6
ATOM      6  C   UNL     1      60.912 128.000  -7.066  1.00  0.00    -0.003 C 
ATOM      7  C   UNL     1      59.985 127.878  -5.861  1.00  0.00     0.004 C 
ENDBRANCH   5   6
ENDBRANCH   1   5
TORSDOF 3
ENDMDL
