MODEL 1
REMARK VINA RESULT:    -4.244      0.000      0.000
REMARK INTER + INTRA:          -8.669
REMARK INTER:                  -6.478
REMARK INTRA:                  -2.191
REMARK UNBOUND:                -2.191
REMARK SMILES CC(=O)CCC=C(C)CCC=C(C)CCC=C(C)C
REMARK SMILES IDX 10 1 11 2 12 3 13 4 14 5 15 6 16 7 18 8 17 9 19 10 9 11 7 12
REMARK SMILES IDX 6 13 8 14 5 15 4 16 2 17 3 18 1 19
REMARK H PARENT
REMARK Flexibility Score: inf
ROOT
ATOM      1  C   UNL     1      -5.086  -8.913 -41.573  1.00  0.00     0.032 C 
ENDROOT
BRANCH   1   2
ATOM      2  C   UNL     1      -5.724  -9.209 -42.911  1.00  0.00    -0.028 C 
ATOM      3  C   UNL     1      -5.476 -10.335 -43.615  1.00  0.00    -0.077 C 
ATOM      4  C   UNL     1      -4.545 -11.401 -43.087  1.00  0.00     0.039 C 
BRANCH   3   5
ATOM      5  C   UNL     1      -6.144 -10.532 -44.959  1.00  0.00     0.034 C 
BRANCH   5   6
ATOM      6  C   UNL     1      -6.307  -9.193 -45.688  1.00  0.00     0.032 C 
BRANCH   6   7
ATOM      7  C   UNL     1      -5.348  -9.099 -46.849  1.00  0.00    -0.028 C 
ATOM      8  C   UNL     1      -3.751  -7.617 -45.609  1.00  0.00     0.039 C 
ATOM      9  C   UNL     1      -4.189  -8.402 -46.825  1.00  0.00    -0.080 C 
ATOM     10  C   UNL     1      -3.313  -8.422 -48.050  1.00  0.00     0.039 C 
ENDBRANCH   6   7
ENDBRANCH   5   6
ENDBRANCH   3   5
ENDBRANCH   1   2
BRANCH   1  11
ATOM     11  C   UNL     1      -4.000  -7.832 -41.679  1.00  0.00     0.034 C 
BRANCH  11  12
ATOM     12  C   UNL     1      -2.613  -8.395 -41.444  1.00  0.00    -0.077 C 
ATOM     13  C   UNL     1      -1.919  -8.895 -42.490  1.00  0.00    -0.028 C 
ATOM     14  C   UNL     1      -2.018  -8.353 -40.055  1.00  0.00     0.039 C 
BRANCH  13  15
ATOM     15  C   UNL     1      -0.532  -9.480 -42.361  1.00  0.00     0.035 C 
BRANCH  15  16
ATOM     16  C   UNL     1      -0.541 -11.010 -42.484  1.00  0.00     0.079 C 
BRANCH  16  17
ATOM     17  C   UNL     1      -0.611 -11.679 -41.137  1.00  0.00     0.130 C 
ATOM     18  O   UNL     1       0.401 -11.803 -40.467  1.00  0.00    -0.300 OA
ATOM     19  C   UNL     1      -1.925 -12.148 -40.589  1.00  0.00     0.087 C 
ENDBRANCH  16  17
ENDBRANCH  15  16
ENDBRANCH  13  15
ENDBRANCH  11  12
ENDBRANCH   1  11
TORSDOF 9
ENDMDL
MODEL 2
REMARK VINA RESULT:    -4.219      2.922      6.516
REMARK INTER + INTRA:          -8.631
REMARK INTER:                  -7.050
REMARK INTRA:                  -1.581
REMARK UNBOUND:                -2.191
REMARK SMILES CC(=O)CCC=C(C)CCC=C(C)CCC=C(C)C
REMARK SMILES IDX 10 1 11 2 12 3 13 4 14 5 15 6 16 7 18 8 17 9 19 10 9 11 7 12
REMARK SMILES IDX 6 13 8 14 5 15 4 16 2 17 3 18 1 19
REMARK H PARENT
REMARK Flexibility Score: inf
ROOT
ATOM      1  C   UNL     1      -2.620 -12.009 -42.396  1.00  0.00     0.032 C 
ENDROOT
BRANCH   1   2
ATOM      2  C   UNL     1      -1.537 -11.314 -41.604  1.00  0.00    -0.028 C 
ATOM      3  C   UNL     1      -1.281  -9.992 -41.704  1.00  0.00    -0.077 C 
ATOM      4  C   UNL     1      -2.093  -9.103 -42.615  1.00  0.00     0.039 C 
BRANCH   3   5
ATOM      5  C   UNL     1      -0.157  -9.390 -40.888  1.00  0.00     0.034 C 
BRANCH   5   6
ATOM      6  C   UNL     1       1.194  -9.992 -41.292  1.00  0.00     0.032 C 
BRANCH   6   7
ATOM      7  C   UNL     1       1.560  -9.583 -42.698  1.00  0.00    -0.028 C 
ATOM      8  C   UNL     1       1.874 -11.948 -43.468  1.00  0.00     0.039 C 
ATOM      9  C   UNL     1       1.858 -10.453 -43.690  1.00  0.00    -0.080 C 
ATOM     10  C   UNL     1       2.175  -9.903 -45.056  1.00  0.00     0.039 C 
ENDBRANCH   6   7
ENDBRANCH   5   6
ENDBRANCH   3   5
ENDBRANCH   1   2
BRANCH   1  11
ATOM     11  C   UNL     1      -3.925 -12.141 -41.598  1.00  0.00     0.034 C 
BRANCH  11  12
ATOM     12  C   UNL     1      -5.060 -11.362 -42.233  1.00  0.00    -0.077 C 
ATOM     13  C   UNL     1      -5.410 -11.631 -43.510  1.00  0.00    -0.028 C 
ATOM     14  C   UNL     1      -5.800 -10.328 -41.416  1.00  0.00     0.039 C 
BRANCH  13  15
ATOM     15  C   UNL     1      -6.525 -10.910 -44.233  1.00  0.00     0.035 C 
BRANCH  15  16
ATOM     16  C   UNL     1      -5.987  -9.929 -45.284  1.00  0.00     0.079 C 
BRANCH  16  17
ATOM     17  C   UNL     1      -6.519 -10.236 -46.659  1.00  0.00     0.130 C 
ATOM     18  O   UNL     1      -5.945  -9.800 -47.643  1.00  0.00    -0.300 OA
ATOM     19  C   UNL     1      -7.721 -11.116 -46.829  1.00  0.00     0.087 C 
ENDBRANCH  16  17
ENDBRANCH  15  16
ENDBRANCH  13  15
ENDBRANCH  11  12
ENDBRANCH   1  11
TORSDOF 9
ENDMDL
MODEL 3
REMARK VINA RESULT:    -4.213      4.801      7.028
REMARK INTER + INTRA:          -8.622
REMARK INTER:                  -7.506
REMARK INTRA:                  -1.115
REMARK UNBOUND:                -2.191
REMARK SMILES CC(=O)CCC=C(C)CCC=C(C)CCC=C(C)C
REMARK SMILES IDX 10 1 11 2 12 3 13 4 14 5 15 6 16 7 18 8 17 9 19 10 9 11 7 12
REMARK SMILES IDX 6 13 8 14 5 15 4 16 2 17 3 18 1 19
REMARK H PARENT
REMARK Flexibility Score: inf
ROOT
ATOM      1  C   UNL     1      -1.543  -7.823 -38.820  1.00  0.00     0.032 C 
ENDROOT
BRANCH   1   2
ATOM      2  C   UNL     1      -1.163  -8.497 -40.118  1.00  0.00    -0.028 C 
ATOM      3  C   UNL     1      -1.251  -9.831 -40.311  1.00  0.00    -0.077 C 
ATOM      4  C   UNL     1      -1.768 -10.748 -39.228  1.00  0.00     0.039 C 
BRANCH   3   5
ATOM      5  C   UNL     1      -0.823 -10.418 -41.639  1.00  0.00     0.034 C 
BRANCH   5   6
ATOM      6  C   UNL     1       0.256  -9.551 -42.297  1.00  0.00     0.032 C 
BRANCH   6   7
ATOM      7  C   UNL     1       1.619  -9.886 -41.743  1.00  0.00    -0.028 C 
ATOM      8  C   UNL     1       2.128 -11.527 -43.567  1.00  0.00     0.039 C 
ATOM      9  C   UNL     1       2.477 -10.764 -42.310  1.00  0.00    -0.080 C 
ATOM     10  C   UNL     1       3.821 -10.976 -41.662  1.00  0.00     0.039 C 
ENDBRANCH   6   7
ENDBRANCH   5   6
ENDBRANCH   3   5
ENDBRANCH   1   2
BRANCH   1  11
ATOM     11  C   UNL     1      -0.363  -7.754 -37.839  1.00  0.00     0.034 C 
BRANCH  11  12
ATOM     12  C   UNL     1      -0.756  -8.205 -36.446  1.00  0.00    -0.077 C 
ATOM     13  C   UNL     1      -0.407  -9.443 -36.031  1.00  0.00    -0.028 C 
ATOM     14  C   UNL     1      -1.496  -7.252 -35.537  1.00  0.00     0.039 C 
BRANCH  13  15
ATOM     15  C   UNL     1      -0.752  -9.987 -34.664  1.00  0.00     0.035 C 
BRANCH  15  16
ATOM     16  C   UNL     1      -1.746 -11.153 -34.745  1.00  0.00     0.079 C 
BRANCH  16  17
ATOM     17  C   UNL     1      -2.277 -11.531 -33.387  1.00  0.00     0.130 C 
ATOM     18  O   UNL     1      -3.481 -11.609 -33.206  1.00  0.00    -0.300 OA
ATOM     19  C   UNL     1      -1.335 -11.863 -32.268  1.00  0.00     0.087 C 
ENDBRANCH  16  17
ENDBRANCH  15  16
ENDBRANCH  13  15
ENDBRANCH  11  12
ENDBRANCH   1  11
TORSDOF 9
ENDMDL
MODEL 4
REMARK VINA RESULT:    -4.210      4.344      6.425
REMARK INTER + INTRA:          -8.617
REMARK INTER:                  -7.170
REMARK INTRA:                  -1.447
REMARK UNBOUND:                -2.191
REMARK SMILES CC(=O)CCC=C(C)CCC=C(C)CCC=C(C)C
REMARK SMILES IDX 10 1 11 2 12 3 13 4 14 5 15 6 16 7 18 8 17 9 19 10 9 11 7 12
REMARK SMILES IDX 6 13 8 14 5 15 4 16 2 17 3 18 1 19
REMARK H PARENT
REMARK Flexibility Score: inf
ROOT
ATOM      1  C   UNL     1      -1.239  -7.880 -38.751  1.00  0.00     0.032 C 
ENDROOT
BRANCH   1   2
ATOM      2  C   UNL     1      -0.567  -8.898 -39.643  1.00  0.00    -0.028 C 
ATOM      3  C   UNL     1      -0.920 -10.201 -39.675  1.00  0.00    -0.077 C 
ATOM      4  C   UNL     1      -2.049 -10.728 -38.821  1.00  0.00     0.039 C 
BRANCH   3   5
ATOM      5  C   UNL     1      -0.171 -11.152 -40.583  1.00  0.00     0.034 C 
BRANCH   5   6
ATOM      6  C   UNL     1      -0.503 -10.877 -42.054  1.00  0.00     0.032 C 
BRANCH   6   7
ATOM      7  C   UNL     1      -1.961 -11.151 -42.331  1.00  0.00    -0.028 C 
ATOM      8  C   UNL     1      -2.492  -8.739 -42.758  1.00  0.00     0.039 C 
ATOM      9  C   UNL     1      -2.865 -10.201 -42.660  1.00  0.00    -0.080 C 
ATOM     10  C   UNL     1      -4.283 -10.624 -42.941  1.00  0.00     0.039 C 
ENDBRANCH   6   7
ENDBRANCH   5   6
ENDBRANCH   3   5
ENDBRANCH   1   2
BRANCH   1  11
ATOM     11  C   UNL     1      -0.359  -7.490 -37.555  1.00  0.00     0.034 C 
BRANCH  11  12
ATOM     12  C   UNL     1      -0.897  -8.044 -36.250  1.00  0.00    -0.077 C 
ATOM     13  C   UNL     1      -0.645  -9.331 -35.927  1.00  0.00    -0.028 C 
ATOM     14  C   UNL     1      -1.670  -7.137 -35.320  1.00  0.00     0.039 C 
BRANCH  13  15
ATOM     15  C   UNL     1      -1.137  -9.978 -34.652  1.00  0.00     0.035 C 
BRANCH  15  16
ATOM     16  C   UNL     1      -0.322 -11.227 -34.291  1.00  0.00     0.079 C 
BRANCH  16  17
ATOM     17  C   UNL     1      -0.799 -11.853 -33.007  1.00  0.00     0.130 C 
ATOM     18  O   UNL     1      -0.784 -11.205 -31.973  1.00  0.00    -0.300 OA
ATOM     19  C   UNL     1      -1.342 -13.250 -32.999  1.00  0.00     0.087 C 
ENDBRANCH  16  17
ENDBRANCH  15  16
ENDBRANCH  13  15
ENDBRANCH  11  12
ENDBRANCH   1  11
TORSDOF 9
ENDMDL
MODEL 5
REMARK VINA RESULT:    -4.183      5.576      9.814
REMARK INTER + INTRA:          -8.575
REMARK INTER:                  -7.352
REMARK INTRA:                  -1.223
REMARK UNBOUND:                -2.191
REMARK SMILES CC(=O)CCC=C(C)CCC=C(C)CCC=C(C)C
REMARK SMILES IDX 10 1 11 2 12 3 13 4 14 5 15 6 16 7 18 8 17 9 19 10 9 11 7 12
REMARK SMILES IDX 6 13 8 14 5 15 4 16 2 17 3 18 1 19
REMARK H PARENT
REMARK Flexibility Score: inf
ROOT
ATOM      1  C   UNL     1      -0.596 -10.189 -35.995  1.00  0.00     0.032 C 
ENDROOT
BRANCH   1   2
ATOM      2  C   UNL     1      -0.717 -10.504 -34.522  1.00  0.00    -0.028 C 
ATOM      3  C   UNL     1      -1.568 -11.432 -34.032  1.00  0.00    -0.077 C 
ATOM      4  C   UNL     1      -2.451 -12.247 -34.947  1.00  0.00     0.039 C 
BRANCH   3   5
ATOM      5  C   UNL     1      -1.637 -11.660 -32.537  1.00  0.00     0.034 C 
BRANCH   5   6
ATOM      6  C   UNL     1      -0.320 -12.242 -32.012  1.00  0.00     0.032 C 
BRANCH   6   7
ATOM      7  C   UNL     1      -0.132 -13.658 -32.498  1.00  0.00    -0.028 C 
ATOM      8  C   UNL     1       1.869 -13.079 -33.891  1.00  0.00     0.039 C 
ATOM      9  C   UNL     1       0.855 -14.052 -33.334  1.00  0.00    -0.080 C 
ATOM     10  C   UNL     1       0.940 -15.508 -33.711  1.00  0.00     0.039 C 
ENDBRANCH   6   7
ENDBRANCH   5   6
ENDBRANCH   3   5
ENDBRANCH   1   2
BRANCH   1  11
ATOM     11  C   UNL     1      -0.520  -8.678 -36.258  1.00  0.00     0.034 C 
BRANCH  11  12
ATOM     12  C   UNL     1      -0.591  -8.355 -37.737  1.00  0.00    -0.077 C 
ATOM     13  C   UNL     1      -0.511  -9.361 -38.635  1.00  0.00    -0.028 C 
ATOM     14  C   UNL     1      -0.785  -6.922 -38.177  1.00  0.00     0.039 C 
BRANCH  13  15
ATOM     15  C   UNL     1      -0.569  -9.143 -40.130  1.00  0.00     0.035 C 
BRANCH  15  16
ATOM     16  C   UNL     1      -0.140 -10.395 -40.909  1.00  0.00     0.079 C 
BRANCH  16  17
ATOM     17  C   UNL     1       1.132 -10.163 -41.681  1.00  0.00     0.130 C 
ATOM     18  O   UNL     1       2.133 -10.807 -41.410  1.00  0.00    -0.300 OA
ATOM     19  C   UNL     1       1.164  -9.184 -42.816  1.00  0.00     0.087 C 
ENDBRANCH  16  17
ENDBRANCH  15  16
ENDBRANCH  13  15
ENDBRANCH  11  12
ENDBRANCH   1  11
TORSDOF 9
ENDMDL
MODEL 6
REMARK VINA RESULT:    -4.179      1.686      2.225
REMARK INTER + INTRA:          -8.569
REMARK INTER:                  -7.321
REMARK INTRA:                  -1.248
REMARK UNBOUND:                -2.191
REMARK SMILES CC(=O)CCC=C(C)CCC=C(C)CCC=C(C)C
REMARK SMILES IDX 10 1 11 2 12 3 13 4 14 5 15 6 16 7 18 8 17 9 19 10 9 11 7 12
REMARK SMILES IDX 6 13 8 14 5 15 4 16 2 17 3 18 1 19
REMARK H PARENT
REMARK Flexibility Score: inf
ROOT
ATOM      1  C   UNL     1      -4.341  -9.344 -42.933  1.00  0.00     0.032 C 
ENDROOT
BRANCH   1   2
ATOM      2  C   UNL     1      -4.910  -9.902 -44.217  1.00  0.00    -0.028 C 
ATOM      3  C   UNL     1      -5.883  -9.287 -44.922  1.00  0.00    -0.077 C 
ATOM      4  C   UNL     1      -6.457  -7.962 -44.477  1.00  0.00     0.039 C 
BRANCH   3   5
ATOM      5  C   UNL     1      -6.409  -9.936 -46.184  1.00  0.00     0.034 C 
BRANCH   5   6
ATOM      6  C   UNL     1      -6.301  -8.979 -47.377  1.00  0.00     0.032 C 
BRANCH   6   7
ATOM      7  C   UNL     1      -5.006  -9.197 -48.119  1.00  0.00    -0.028 C 
ATOM      8  C   UNL     1      -3.927  -7.152 -47.149  1.00  0.00     0.039 C 
ATOM      9  C   UNL     1      -3.925  -8.390 -48.018  1.00  0.00    -0.080 C 
ATOM     10  C   UNL     1      -2.686  -8.748 -48.796  1.00  0.00     0.039 C 
ENDBRANCH   6   7
ENDBRANCH   5   6
ENDBRANCH   3   5
ENDBRANCH   1   2
BRANCH   1  11
ATOM     11  C   UNL     1      -3.002  -8.625 -43.160  1.00  0.00     0.034 C 
BRANCH  11  12
ATOM     12  C   UNL     1      -1.977  -8.987 -42.104  1.00  0.00    -0.077 C 
ATOM     13  C   UNL     1      -0.906  -9.733 -42.454  1.00  0.00    -0.028 C 
ATOM     14  C   UNL     1      -2.153  -8.478 -40.692  1.00  0.00     0.039 C 
BRANCH  13  15
ATOM     15  C   UNL     1       0.170 -10.148 -41.476  1.00  0.00     0.035 C 
BRANCH  15  16
ATOM     16  C   UNL     1       1.576  -9.813 -41.994  1.00  0.00     0.079 C 
BRANCH  16  17
ATOM     17  C   UNL     1       2.550 -10.930 -41.727  1.00  0.00     0.130 C 
ATOM     18  O   UNL     1       3.738 -10.681 -41.597  1.00  0.00    -0.300 OA
ATOM     19  C   UNL     1       2.066 -12.339 -41.569  1.00  0.00     0.087 C 
ENDBRANCH  16  17
ENDBRANCH  15  16
ENDBRANCH  13  15
ENDBRANCH  11  12
ENDBRANCH   1  11
TORSDOF 9
ENDMDL
MODEL 7
REMARK VINA RESULT:    -4.144      2.642      6.311
REMARK INTER + INTRA:          -8.516
REMARK INTER:                  -6.811
REMARK INTRA:                  -1.705
REMARK UNBOUND:                -2.191
REMARK SMILES CC(=O)CCC=C(C)CCC=C(C)CCC=C(C)C
REMARK SMILES IDX 10 1 11 2 12 3 13 4 14 5 15 6 16 7 18 8 17 9 19 10 9 11 7 12
REMARK SMILES IDX 6 13 8 14 5 15 4 16 2 17 3 18 1 19
REMARK H PARENT
REMARK Flexibility Score: inf
ROOT
ATOM      1  C   UNL     1      -3.379  -9.253 -41.980  1.00  0.00     0.032 C 
ENDROOT
BRANCH   1   2
ATOM      2  C   UNL     1      -2.314  -9.997 -41.207  1.00  0.00    -0.028 C 
ATOM      3  C   UNL     1      -2.015 -11.295 -41.423  1.00  0.00    -0.077 C 
ATOM      4  C   UNL     1      -2.722 -12.096 -42.491  1.00  0.00     0.039 C 
BRANCH   3   5
ATOM      5  C   UNL     1      -0.950 -11.962 -40.579  1.00  0.00     0.034 C 
BRANCH   5   6
ATOM      6  C   UNL     1       0.372 -11.191 -40.660  1.00  0.00     0.032 C 
BRANCH   6   7
ATOM      7  C   UNL     1       1.126 -11.556 -41.915  1.00  0.00    -0.028 C 
ATOM      8  C   UNL     1       1.016  -9.229 -42.842  1.00  0.00     0.039 C 
ATOM      9  C   UNL     1       1.433 -10.681 -42.900  1.00  0.00    -0.080 C 
ATOM     10  C   UNL     1       2.220 -11.179 -44.085  1.00  0.00     0.039 C 
ENDBRANCH   6   7
ENDBRANCH   5   6
ENDBRANCH   3   5
ENDBRANCH   1   2
BRANCH   1  11
ATOM     11  C   UNL     1      -2.800  -8.520 -43.200  1.00  0.00     0.034 C 
BRANCH  11  12
ATOM     12  C   UNL     1      -3.818  -8.381 -44.314  1.00  0.00    -0.077 C 
ATOM     13  C   UNL     1      -3.629  -7.439 -45.264  1.00  0.00    -0.028 C 
ATOM     14  C   UNL     1      -5.001  -9.319 -44.362  1.00  0.00     0.039 C 
BRANCH  13  15
ATOM     15  C   UNL     1      -4.585  -7.219 -46.414  1.00  0.00     0.035 C 
BRANCH  15  16
ATOM     16  C   UNL     1      -3.887  -7.353 -47.775  1.00  0.00     0.079 C 
BRANCH  16  17
ATOM     17  C   UNL     1      -4.021  -8.744 -48.336  1.00  0.00     0.130 C 
ATOM     18  O   UNL     1      -3.061  -9.281 -48.864  1.00  0.00    -0.300 OA
ATOM     19  C   UNL     1      -5.312  -9.495 -48.205  1.00  0.00     0.087 C 
ENDBRANCH  16  17
ENDBRANCH  15  16
ENDBRANCH  13  15
ENDBRANCH  11  12
ENDBRANCH   1  11
TORSDOF 9
ENDMDL
MODEL 8
REMARK VINA RESULT:    -4.117      4.551      8.868
REMARK INTER + INTRA:          -8.474
REMARK INTER:                  -7.665
REMARK INTRA:                  -0.809
REMARK UNBOUND:                -2.191
REMARK SMILES CC(=O)CCC=C(C)CCC=C(C)CCC=C(C)C
REMARK SMILES IDX 10 1 11 2 12 3 13 4 14 5 15 6 16 7 18 8 17 9 19 10 9 11 7 12
REMARK SMILES IDX 6 13 8 14 5 15 4 16 2 17 3 18 1 19
REMARK H PARENT
REMARK Flexibility Score: inf
ROOT
ATOM      1  C   UNL     1      -0.655  -8.599 -38.774  1.00  0.00     0.032 C 
ENDROOT
BRANCH   1   2
ATOM      2  C   UNL     1      -0.892  -9.359 -37.489  1.00  0.00    -0.028 C 
ATOM      3  C   UNL     1      -1.023  -8.756 -36.288  1.00  0.00    -0.077 C 
ATOM      4  C   UNL     1      -0.963  -7.253 -36.154  1.00  0.00     0.039 C 
BRANCH   3   5
ATOM      5  C   UNL     1      -1.232  -9.604 -35.051  1.00  0.00     0.034 C 
BRANCH   5   6
ATOM      6  C   UNL     1      -0.127 -10.658 -34.918  1.00  0.00     0.032 C 
BRANCH   6   7
ATOM      7  C   UNL     1      -0.497 -11.690 -33.882  1.00  0.00    -0.028 C 
ATOM      8  C   UNL     1       1.694 -12.893 -34.074  1.00  0.00     0.039 C 
ATOM      9  C   UNL     1       0.316 -12.695 -33.484  1.00  0.00    -0.080 C 
ATOM     10  C   UNL     1      -0.175 -13.636 -32.414  1.00  0.00     0.039 C 
ENDBRANCH   6   7
ENDBRANCH   5   6
ENDBRANCH   3   5
ENDBRANCH   1   2
BRANCH   1  11
ATOM     11  C   UNL     1      -1.763  -8.852 -39.807  1.00  0.00     0.034 C 
BRANCH  11  12
ATOM     12  C   UNL     1      -1.204  -9.318 -41.137  1.00  0.00    -0.077 C 
ATOM     13  C   UNL     1      -0.137 -10.146 -41.149  1.00  0.00    -0.028 C 
ATOM     14  C   UNL     1      -1.872  -8.878 -42.419  1.00  0.00     0.039 C 
BRANCH  13  15
ATOM     15  C   UNL     1       0.495 -10.665 -42.420  1.00  0.00     0.035 C 
BRANCH  15  16
ATOM     16  C   UNL     1       1.978 -10.282 -42.521  1.00  0.00     0.079 C 
BRANCH  16  17
ATOM     17  C   UNL     1       2.860 -11.274 -41.809  1.00  0.00     0.130 C 
ATOM     18  O   UNL     1       2.442 -12.394 -41.567  1.00  0.00    -0.300 OA
ATOM     19  C   UNL     1       4.268 -10.911 -41.442  1.00  0.00     0.087 C 
ENDBRANCH  16  17
ENDBRANCH  15  16
ENDBRANCH  13  15
ENDBRANCH  11  12
ENDBRANCH   1  11
TORSDOF 9
ENDMDL
MODEL 9
REMARK VINA RESULT:    -4.110      3.018      5.987
REMARK INTER + INTRA:          -8.464
REMARK INTER:                  -6.251
REMARK INTRA:                  -2.213
REMARK UNBOUND:                -2.191
REMARK SMILES CC(=O)CCC=C(C)CCC=C(C)CCC=C(C)C
REMARK SMILES IDX 10 1 11 2 12 3 13 4 14 5 15 6 16 7 18 8 17 9 19 10 9 11 7 12
REMARK SMILES IDX 6 13 8 14 5 15 4 16 2 17 3 18 1 19
REMARK H PARENT
REMARK Flexibility Score: inf
ROOT
ATOM      1  C   UNL     1      -3.968 -11.988 -41.626  1.00  0.00     0.032 C 
ENDROOT
BRANCH   1   2
ATOM      2  C   UNL     1      -3.849 -11.721 -40.143  1.00  0.00    -0.028 C 
ATOM      3  C   UNL     1      -2.853 -12.221 -39.380  1.00  0.00    -0.077 C 
ATOM      4  C   UNL     1      -1.761 -13.076 -39.978  1.00  0.00     0.039 C 
BRANCH   3   5
ATOM      5  C   UNL     1      -2.832 -11.921 -37.897  1.00  0.00     0.034 C 
BRANCH   5   6
ATOM      6  C   UNL     1      -1.525 -11.224 -37.500  1.00  0.00     0.032 C 
BRANCH   6   7
ATOM      7  C   UNL     1      -1.400  -9.890 -38.195  1.00  0.00    -0.028 C 
ATOM      8  C   UNL     1      -0.437  -8.756 -36.177  1.00  0.00     0.039 C 
ATOM      9  C   UNL     1      -0.902  -8.774 -37.616  1.00  0.00    -0.080 C 
ATOM     10  C   UNL     1      -0.807  -7.518 -38.442  1.00  0.00     0.039 C 
ENDBRANCH   6   7
ENDBRANCH   5   6
ENDBRANCH   3   5
ENDBRANCH   1   2
BRANCH   1  11
ATOM     11  C   UNL     1      -3.877 -10.697 -42.454  1.00  0.00     0.034 C 
BRANCH  11  12
ATOM     12  C   UNL     1      -2.667  -9.865 -42.077  1.00  0.00    -0.077 C 
ATOM     13  C   UNL     1      -1.433 -10.315 -42.395  1.00  0.00    -0.028 C 
ATOM     14  C   UNL     1      -2.865  -8.534 -41.389  1.00  0.00     0.039 C 
BRANCH  13  15
ATOM     15  C   UNL     1      -0.165  -9.563 -42.063  1.00  0.00     0.035 C 
BRANCH  15  16
ATOM     16  C   UNL     1       0.791 -10.401 -41.203  1.00  0.00     0.079 C 
BRANCH  16  17
ATOM     17  C   UNL     1       2.000 -10.845 -41.983  1.00  0.00     0.130 C 
ATOM     18  O   UNL     1       3.118 -10.577 -41.575  1.00  0.00    -0.300 OA
ATOM     19  C   UNL     1       1.841 -11.660 -43.232  1.00  0.00     0.087 C 
ENDBRANCH  16  17
ENDBRANCH  15  16
ENDBRANCH  13  15
ENDBRANCH  11  12
ENDBRANCH   1  11
TORSDOF 9
ENDMDL
