MODEL 1
REMARK VINA RESULT:    -3.802      0.000      0.000
REMARK INTER + INTRA:          -4.870
REMARK INTER:                  -4.691
REMARK INTRA:                  -0.178
REMARK UNBOUND:                -0.178
REMARK SMILES CCCCCC(=O)[O-]
REMARK SMILES IDX 4 1 5 2 6 3 7 4 8 5 3 6 2 7 1 8
REMARK H PARENT
REMARK Flexibility Score: inf
ROOT
ATOM      1  C   UNL     1      13.512  14.501 161.899  1.00  0.00     0.006 C 
ENDROOT
BRANCH   1   2
ATOM      2  C   UNL     1      13.090  13.094 162.343  1.00  0.00     0.053 C 
BRANCH   2   3
ATOM      3  C   UNL     1      11.823  13.122 163.142  1.00  0.00     0.041 C 
ATOM      4  O   UNL     1      10.730  12.800 162.607  1.00  0.00    -0.550 OA
ATOM      5  O   UNL     1      11.847  13.532 164.469  1.00  0.00    -0.550 OA
ENDBRANCH   2   3
ENDBRANCH   1   2
BRANCH   1   6
ATOM      6  C   UNL     1      14.596  15.098 162.809  1.00  0.00     0.000 C 
BRANCH   6   7
ATOM      7  C   UNL     1      15.577  14.016 163.276  1.00  0.00    -0.003 C 
ATOM      8  C   UNL     1      16.921  14.150 162.569  1.00  0.00     0.004 C 
ENDBRANCH   6   7
ENDBRANCH   1   6
TORSDOF 4
ENDMDL
MODEL 2
REMARK VINA RESULT:    -3.784      2.388      4.372
REMARK INTER + INTRA:          -4.848
REMARK INTER:                  -4.702
REMARK INTRA:                  -0.146
REMARK UNBOUND:                -0.178
REMARK SMILES CCCCCC(=O)[O-]
REMARK SMILES IDX 4 1 5 2 6 3 7 4 8 5 3 6 2 7 1 8
REMARK H PARENT
REMARK Flexibility Score: inf
ROOT
ATOM      1  C   UNL     1      12.636  12.749 162.359  1.00  0.00     0.006 C 
ENDROOT
BRANCH   1   2
ATOM      2  C   UNL     1      13.858  13.536 162.849  1.00  0.00     0.053 C 
BRANCH   2   3
ATOM      3  C   UNL     1      13.980  14.858 162.157  1.00  0.00     0.041 C 
ATOM      4  O   UNL     1      14.357  15.876 162.795  1.00  0.00    -0.550 OA
ATOM      5  O   UNL     1      13.647  14.973 160.813  1.00  0.00    -0.550 OA
ENDBRANCH   2   3
ENDBRANCH   1   2
BRANCH   1   6
ATOM      6  C   UNL     1      11.329  13.252 162.990  1.00  0.00     0.000 C 
BRANCH   6   7
ATOM      7  C   UNL     1      10.156  13.103 162.014  1.00  0.00    -0.003 C 
ATOM      8  C   UNL     1      10.243  11.789 161.244  1.00  0.00     0.004 C 
ENDBRANCH   6   7
ENDBRANCH   1   6
TORSDOF 4
ENDMDL
MODEL 3
REMARK VINA RESULT:    -3.768      2.381      4.233
REMARK INTER + INTRA:          -4.827
REMARK INTER:                  -4.693
REMARK INTRA:                  -0.135
REMARK UNBOUND:                -0.178
REMARK SMILES CCCCCC(=O)[O-]
REMARK SMILES IDX 4 1 5 2 6 3 7 4 8 5 3 6 2 7 1 8
REMARK H PARENT
REMARK Flexibility Score: inf
ROOT
ATOM      1  C   UNL     1      12.641  12.725 162.360  1.00  0.00     0.006 C 
ENDROOT
BRANCH   1   2
ATOM      2  C   UNL     1      13.825  13.558 162.869  1.00  0.00     0.053 C 
BRANCH   2   3
ATOM      3  C   UNL     1      13.869  14.909 162.223  1.00  0.00     0.041 C 
ATOM      4  O   UNL     1      13.583  15.040 161.005  1.00  0.00    -0.550 OA
ATOM      5  O   UNL     1      14.258  16.020 162.962  1.00  0.00    -0.550 OA
ENDBRANCH   2   3
ENDBRANCH   1   2
BRANCH   1   6
ATOM      6  C   UNL     1      11.322  13.108 163.046  1.00  0.00     0.000 C 
BRANCH   6   7
ATOM      7  C   UNL     1      10.141  12.979 162.076  1.00  0.00    -0.003 C 
ATOM      8  C   UNL     1      10.184  11.648 161.332  1.00  0.00     0.004 C 
ENDBRANCH   6   7
ENDBRANCH   1   6
TORSDOF 4
ENDMDL
MODEL 4
REMARK VINA RESULT:    -3.716      1.656      2.211
REMARK INTER + INTRA:          -4.763
REMARK INTER:                  -4.598
REMARK INTRA:                  -0.165
REMARK UNBOUND:                -0.178
REMARK SMILES CCCCCC(=O)[O-]
REMARK SMILES IDX 4 1 5 2 6 3 7 4 8 5 3 6 2 7 1 8
REMARK H PARENT
REMARK Flexibility Score: inf
ROOT
ATOM      1  C   UNL     1      12.746  12.874 162.317  1.00  0.00     0.006 C 
ENDROOT
BRANCH   1   2
ATOM      2  C   UNL     1      11.343  12.899 162.937  1.00  0.00     0.053 C 
BRANCH   2   3
ATOM      3  C   UNL     1      10.275  12.962 161.888  1.00  0.00     0.041 C 
ATOM      4  O   UNL     1      10.162  12.037 161.042  1.00  0.00    -0.550 OA
ATOM      5  O   UNL     1       9.423  14.058 161.828  1.00  0.00    -0.550 OA
ENDBRANCH   2   3
ENDBRANCH   1   2
BRANCH   1   6
ATOM      6  C   UNL     1      13.109  14.206 161.644  1.00  0.00     0.000 C 
BRANCH   6   7
ATOM      7  C   UNL     1      14.232  14.918 162.407  1.00  0.00    -0.003 C 
ATOM      8  C   UNL     1      15.041  13.932 163.243  1.00  0.00     0.004 C 
ENDBRANCH   6   7
ENDBRANCH   1   6
TORSDOF 4
ENDMDL
MODEL 5
REMARK VINA RESULT:    -3.650      1.346      2.591
REMARK INTER + INTRA:          -4.683
REMARK INTER:                  -4.434
REMARK INTRA:                  -0.249
REMARK UNBOUND:                -0.178
REMARK SMILES CCCCCC(=O)[O-]
REMARK SMILES IDX 4 1 5 2 6 3 7 4 8 5 3 6 2 7 1 8
REMARK H PARENT
REMARK Flexibility Score: inf
ROOT
ATOM      1  C   UNL     1      14.049  14.007 163.399  1.00  0.00     0.006 C 
ENDROOT
BRANCH   1   2
ATOM      2  C   UNL     1      13.003  13.153 162.672  1.00  0.00     0.053 C 
BRANCH   2   3
ATOM      3  C   UNL     1      11.689  13.154 163.391  1.00  0.00     0.041 C 
ATOM      4  O   UNL     1      11.634  13.461 164.611  1.00  0.00    -0.550 OA
ATOM      5  O   UNL     1      10.529  12.786 162.720  1.00  0.00    -0.550 OA
ENDBRANCH   2   3
ENDBRANCH   1   2
BRANCH   1   6
ATOM      6  C   UNL     1      14.236  15.382 162.742  1.00  0.00     0.000 C 
BRANCH   6   7
ATOM      7  C   UNL     1      13.585  16.486 163.584  1.00  0.00    -0.003 C 
ATOM      8  C   UNL     1      12.228  16.886 163.013  1.00  0.00     0.004 C 
ENDBRANCH   6   7
ENDBRANCH   1   6
TORSDOF 4
ENDMDL
MODEL 6
REMARK VINA RESULT:    -3.587      2.310      3.086
REMARK INTER + INTRA:          -4.604
REMARK INTER:                  -4.357
REMARK INTRA:                  -0.247
REMARK UNBOUND:                -0.178
REMARK SMILES CCCCCC(=O)[O-]
REMARK SMILES IDX 4 1 5 2 6 3 7 4 8 5 3 6 2 7 1 8
REMARK H PARENT
REMARK Flexibility Score: inf
ROOT
ATOM      1  C   UNL     1      12.787  13.000 162.180  1.00  0.00     0.006 C 
ENDROOT
BRANCH   1   2
ATOM      2  C   UNL     1      11.422  12.784 162.846  1.00  0.00     0.053 C 
BRANCH   2   3
ATOM      3  C   UNL     1      10.304  12.851 161.852  1.00  0.00     0.041 C 
ATOM      4  O   UNL     1      10.163  11.941 160.993  1.00  0.00    -0.550 OA
ATOM      5  O   UNL     1       9.435  13.936 161.854  1.00  0.00    -0.550 OA
ENDBRANCH   2   3
ENDBRANCH   1   2
BRANCH   1   6
ATOM      6  C   UNL     1      13.131  14.489 162.026  1.00  0.00     0.000 C 
BRANCH   6   7
ATOM      7  C   UNL     1      13.161  14.895 160.548  1.00  0.00    -0.003 C 
ATOM      8  C   UNL     1      12.016  15.848 160.215  1.00  0.00     0.004 C 
ENDBRANCH   6   7
ENDBRANCH   1   6
TORSDOF 4
ENDMDL
MODEL 7
REMARK VINA RESULT:    -3.582      2.432      3.887
REMARK INTER + INTRA:          -4.598
REMARK INTER:                  -4.362
REMARK INTRA:                  -0.235
REMARK UNBOUND:                -0.178
REMARK SMILES CCCCCC(=O)[O-]
REMARK SMILES IDX 4 1 5 2 6 3 7 4 8 5 3 6 2 7 1 8
REMARK H PARENT
REMARK Flexibility Score: inf
ROOT
ATOM      1  C   UNL     1      12.839  13.141 162.124  1.00  0.00     0.006 C 
ENDROOT
BRANCH   1   2
ATOM      2  C   UNL     1      13.457  14.459 161.641  1.00  0.00     0.053 C 
BRANCH   2   3
ATOM      3  C   UNL     1      14.373  15.051 162.667  1.00  0.00     0.041 C 
ATOM      4  O   UNL     1      14.100  16.160 163.197  1.00  0.00    -0.550 OA
ATOM      5  O   UNL     1      15.546  14.392 163.015  1.00  0.00    -0.550 OA
ENDBRANCH   2   3
ENDBRANCH   1   2
BRANCH   1   6
ATOM      6  C   UNL     1      11.486  13.353 162.818  1.00  0.00     0.000 C 
BRANCH   6   7
ATOM      7  C   UNL     1      11.607  13.145 164.333  1.00  0.00    -0.003 C 
ATOM      8  C   UNL     1      11.508  14.471 165.080  1.00  0.00     0.004 C 
ENDBRANCH   6   7
ENDBRANCH   1   6
TORSDOF 4
ENDMDL
MODEL 8
REMARK VINA RESULT:    -3.505      2.065      3.098
REMARK INTER + INTRA:          -4.503
REMARK INTER:                  -4.284
REMARK INTRA:                  -0.218
REMARK UNBOUND:                -0.178
REMARK SMILES CCCCCC(=O)[O-]
REMARK SMILES IDX 4 1 5 2 6 3 7 4 8 5 3 6 2 7 1 8
REMARK H PARENT
REMARK Flexibility Score: inf
ROOT
ATOM      1  C   UNL     1      14.030  15.428 162.674  1.00  0.00     0.006 C 
ENDROOT
BRANCH   1   2
ATOM      2  C   UNL     1      14.106  14.040 163.323  1.00  0.00     0.053 C 
BRANCH   2   3
ATOM      3  C   UNL     1      12.850  13.255 163.102  1.00  0.00     0.041 C 
ATOM      4  O   UNL     1      12.642  12.689 161.997  1.00  0.00    -0.550 OA
ATOM      5  O   UNL     1      11.894  13.175 164.107  1.00  0.00    -0.550 OA
ENDBRANCH   2   3
ENDBRANCH   1   2
BRANCH   1   6
ATOM      6  C   UNL     1      13.571  16.509 163.663  1.00  0.00     0.000 C 
BRANCH   6   7
ATOM      7  C   UNL     1      12.340  17.253 163.131  1.00  0.00    -0.003 C 
ATOM      8  C   UNL     1      11.053  16.665 163.702  1.00  0.00     0.004 C 
ENDBRANCH   6   7
ENDBRANCH   1   6
TORSDOF 4
ENDMDL
MODEL 9
REMARK VINA RESULT:    -3.483      1.956      2.746
REMARK INTER + INTRA:          -4.476
REMARK INTER:                  -4.269
REMARK INTRA:                  -0.207
REMARK UNBOUND:                -0.178
REMARK SMILES CCCCCC(=O)[O-]
REMARK SMILES IDX 4 1 5 2 6 3 7 4 8 5 3 6 2 7 1 8
REMARK H PARENT
REMARK Flexibility Score: inf
ROOT
ATOM      1  C   UNL     1      11.917  13.092 162.880  1.00  0.00     0.006 C 
ENDROOT
BRANCH   1   2
ATOM      2  C   UNL     1      11.554  13.428 164.332  1.00  0.00     0.053 C 
BRANCH   2   3
ATOM      3  C   UNL     1      11.288  14.890 164.514  1.00  0.00     0.041 C 
ATOM      4  O   UNL     1      10.609  15.522 163.662  1.00  0.00    -0.550 OA
ATOM      5  O   UNL     1      11.816  15.562 165.609  1.00  0.00    -0.550 OA
ENDBRANCH   2   3
ENDBRANCH   1   2
BRANCH   1   6
ATOM      6  C   UNL     1      13.433  13.128 162.636  1.00  0.00     0.000 C 
BRANCH   6   7
ATOM      7  C   UNL     1      13.855  14.458 161.998  1.00  0.00    -0.003 C 
ATOM      8  C   UNL     1      12.978  14.794 160.796  1.00  0.00     0.004 C 
ENDBRANCH   6   7
ENDBRANCH   1   6
TORSDOF 4
ENDMDL
