MODEL 1
REMARK VINA RESULT:    -4.611      0.000      0.000
REMARK INTER + INTRA:          -4.880
REMARK INTER:                  -4.880
REMARK INTRA:                   0.000
REMARK UNBOUND:                 0.000
REMARK SMILES O=c1ccc2cc(O)c(O)cc2o1
REMARK SMILES IDX 4 1 3 2 2 3 1 4 13 5 12 6 11 7 9 8 7 9 6 10 5 11 8 12 10 14
REMARK H PARENT 8 13 10 15
REMARK Flexibility Score: inf
ROOT
ATOM      1  C   UNL     1       5.962  42.716  36.526  1.00  0.00     0.019 A 
ATOM      2  C   UNL     1       5.844  41.416  36.037  1.00  0.00     0.094 A 
ATOM      3  C   UNL     1       5.506  40.387  36.923  1.00  0.00     0.336 A 
ATOM      4  O   UNL     1       5.395  39.206  36.501  1.00  0.00    -0.246 OA
ATOM      5  O   UNL     1       5.301  40.647  38.212  1.00  0.00    -0.423 OA
ATOM      6  C   UNL     1       5.404  41.874  38.719  1.00  0.00     0.142 A 
ATOM      7  C   UNL     1       5.177  42.088  40.082  1.00  0.00     0.098 A 
ATOM      8  C   UNL     1       5.283  43.375  40.623  1.00  0.00     0.161 A 
ATOM      9  C   UNL     1       5.619  44.460  39.793  1.00  0.00     0.158 A 
ATOM     10  C   UNL     1       5.847  44.250  38.426  1.00  0.00     0.062 A 
ATOM     11  C   UNL     1       5.741  42.962  37.886  1.00  0.00     0.022 A 
ENDROOT
BRANCH   9  12
ATOM     12  O   UNL     1       5.725  45.742  40.332  1.00  0.00    -0.504 OA
ATOM     13  H   UNL     1       6.323  46.445  39.913  1.00  0.00     0.293 HD
ENDBRANCH   9  12
BRANCH   8  14
ATOM     14  O   UNL     1       5.050  43.556  41.986  1.00  0.00    -0.504 OA
ATOM     15  H   UNL     1       5.683  43.199  42.692  1.00  0.00     0.293 HD
ENDBRANCH   8  14
TORSDOF 2
ENDMDL
MODEL 2
REMARK VINA RESULT:    -4.235     11.772     12.656
REMARK INTER + INTRA:          -4.483
REMARK INTER:                  -4.483
REMARK INTRA:                   0.000
REMARK UNBOUND:                 0.000
REMARK SMILES O=c1ccc2cc(O)c(O)cc2o1
REMARK SMILES IDX 4 1 3 2 2 3 1 4 13 5 12 6 11 7 9 8 7 9 6 10 5 11 8 12 10 14
REMARK H PARENT 8 13 10 15
REMARK Flexibility Score: inf
ROOT
ATOM      1  C   UNL     1      12.263  31.875  40.538  1.00  0.00     0.019 A 
ATOM      2  C   UNL     1      13.641  31.974  40.353  1.00  0.00     0.094 A 
ATOM      3  C   UNL     1      14.424  32.528  41.373  1.00  0.00     0.336 A 
ATOM      4  O   UNL     1      15.670  32.626  41.225  1.00  0.00    -0.246 OA
ATOM      5  O   UNL     1      13.859  32.953  42.500  1.00  0.00    -0.423 OA
ATOM      6  C   UNL     1      12.547  32.878  42.716  1.00  0.00     0.142 A 
ATOM      7  C   UNL     1      12.009  33.341  43.920  1.00  0.00     0.098 A 
ATOM      8  C   UNL     1      10.631  33.265  44.155  1.00  0.00     0.161 A 
ATOM      9  C   UNL     1       9.781  32.720  43.176  1.00  0.00     0.158 A 
ATOM     10  C   UNL     1      10.316  32.253  41.966  1.00  0.00     0.062 A 
ATOM     11  C   UNL     1      11.696  32.330  41.733  1.00  0.00     0.022 A 
ENDROOT
BRANCH   9  12
ATOM     12  O   UNL     1       8.408  32.644  43.409  1.00  0.00    -0.504 OA
ATOM     13  H   UNL     1       7.883  33.441  43.748  1.00  0.00     0.293 HD
ENDBRANCH   9  12
BRANCH   8  14
ATOM     14  O   UNL     1      10.125  33.736  45.366  1.00  0.00    -0.504 OA
ATOM     15  H   UNL     1      10.704  34.228  46.036  1.00  0.00     0.293 HD
ENDBRANCH   8  14
TORSDOF 2
ENDMDL
MODEL 3
REMARK VINA RESULT:    -3.930      1.418      4.982
REMARK INTER + INTRA:          -4.160
REMARK INTER:                  -4.160
REMARK INTRA:                   0.000
REMARK UNBOUND:                 0.000
REMARK SMILES O=c1ccc2cc(O)c(O)cc2o1
REMARK SMILES IDX 4 1 3 2 2 3 1 4 13 5 12 6 11 7 9 8 7 9 6 10 5 11 8 12 10 14
REMARK H PARENT 8 13 10 15
REMARK Flexibility Score: inf
ROOT
ATOM      1  C   UNL     1       4.941  43.115  40.917  1.00  0.00     0.019 A 
ATOM      2  C   UNL     1       4.880  44.505  41.002  1.00  0.00     0.094 A 
ATOM      3  C   UNL     1       5.032  45.263  39.836  1.00  0.00     0.336 A 
ATOM      4  O   UNL     1       4.980  46.519  39.891  1.00  0.00    -0.246 OA
ATOM      5  O   UNL     1       5.233  44.664  38.665  1.00  0.00    -0.423 OA
ATOM      6  C   UNL     1       5.299  43.340  38.539  1.00  0.00     0.142 A 
ATOM      7  C   UNL     1       5.511  42.765  37.283  1.00  0.00     0.098 A 
ATOM      8  C   UNL     1       5.581  41.375  37.143  1.00  0.00     0.161 A 
ATOM      9  C   UNL     1       5.436  40.547  38.272  1.00  0.00     0.158 A 
ATOM     10  C   UNL     1       5.222  41.118  39.535  1.00  0.00     0.062 A 
ATOM     11  C   UNL     1       5.153  42.511  39.673  1.00  0.00     0.022 A 
ENDROOT
BRANCH   9  12
ATOM     12  O   UNL     1       5.506  39.161  38.133  1.00  0.00    -0.504 OA
ATOM     13  H   UNL     1       5.259  38.702  37.265  1.00  0.00     0.293 HD
ENDBRANCH   9  12
BRANCH   8  14
ATOM     14  O   UNL     1       5.794  40.833  35.876  1.00  0.00    -0.504 OA
ATOM     15  H   UNL     1       6.080  39.870  35.743  1.00  0.00     0.293 HD
ENDBRANCH   8  14
TORSDOF 2
ENDMDL
MODEL 4
REMARK VINA RESULT:    -3.659     11.719     12.576
REMARK INTER + INTRA:          -3.873
REMARK INTER:                  -3.873
REMARK INTRA:                   0.000
REMARK UNBOUND:                 0.000
REMARK SMILES O=c1ccc2cc(O)c(O)cc2o1
REMARK SMILES IDX 4 1 3 2 2 3 1 4 13 5 12 6 11 7 9 8 7 9 6 10 5 11 8 12 10 14
REMARK H PARENT 8 13 10 15
REMARK Flexibility Score: inf
ROOT
ATOM      1  C   UNL     1      13.755  33.759  42.780  1.00  0.00     0.019 A 
ATOM      2  C   UNL     1      14.608  33.267  41.794  1.00  0.00     0.094 A 
ATOM      3  C   UNL     1      14.115  32.332  40.877  1.00  0.00     0.336 A 
ATOM      4  O   UNL     1      14.869  31.875  39.978  1.00  0.00    -0.246 OA
ATOM      5  O   UNL     1      12.851  31.921  40.947  1.00  0.00    -0.423 OA
ATOM      6  C   UNL     1      12.004  32.365  41.873  1.00  0.00     0.142 A 
ATOM      7  C   UNL     1      10.687  31.898  41.899  1.00  0.00     0.098 A 
ATOM      8  C   UNL     1       9.791  32.361  42.869  1.00  0.00     0.161 A 
ATOM      9  C   UNL     1      10.215  33.302  43.825  1.00  0.00     0.158 A 
ATOM     10  C   UNL     1      11.535  33.774  43.804  1.00  0.00     0.062 A 
ATOM     11  C   UNL     1      12.431  33.310  42.831  1.00  0.00     0.022 A 
ENDROOT
BRANCH   9  12
ATOM     12  O   UNL     1       9.323  33.763  44.793  1.00  0.00    -0.504 OA
ATOM     13  H   UNL     1       8.335  33.870  44.595  1.00  0.00     0.293 HD
ENDBRANCH   9  12
BRANCH   8  14
ATOM     14  O   UNL     1       8.483  31.875  42.868  1.00  0.00    -0.504 OA
ATOM     15  H   UNL     1       8.122  31.305  42.112  1.00  0.00     0.293 HD
ENDBRANCH   8  14
TORSDOF 2
ENDMDL
MODEL 5
REMARK VINA RESULT:    -3.522     18.003     18.877
REMARK INTER + INTRA:          -3.728
REMARK INTER:                  -3.728
REMARK INTRA:                   0.000
REMARK UNBOUND:                 0.000
REMARK SMILES O=c1ccc2cc(O)c(O)cc2o1
REMARK SMILES IDX 4 1 3 2 2 3 1 4 13 5 12 6 11 7 9 8 7 9 6 10 5 11 8 12 10 14
REMARK H PARENT 8 13 10 15
REMARK Flexibility Score: inf
ROOT
ATOM      1  C   UNL     1      23.248  34.861  42.432  1.00  0.00     0.019 A 
ATOM      2  C   UNL     1      23.965  35.941  42.943  1.00  0.00     0.094 A 
ATOM      3  C   UNL     1      23.929  37.163  42.261  1.00  0.00     0.336 A 
ATOM      4  O   UNL     1      24.570  38.150  42.705  1.00  0.00    -0.246 OA
ATOM      5  O   UNL     1      23.220  37.288  41.142  1.00  0.00    -0.423 OA
ATOM      6  C   UNL     1      22.521  36.282  40.620  1.00  0.00     0.142 A 
ATOM      7  C   UNL     1      21.794  36.472  39.442  1.00  0.00     0.098 A 
ATOM      8  C   UNL     1      21.057  35.419  38.888  1.00  0.00     0.161 A 
ATOM      9  C   UNL     1      21.046  34.161  39.518  1.00  0.00     0.158 A 
ATOM     10  C   UNL     1      21.773  33.965  40.701  1.00  0.00     0.062 A 
ATOM     11  C   UNL     1      22.511  35.021  41.254  1.00  0.00     0.022 A 
ENDROOT
BRANCH   9  12
ATOM     12  O   UNL     1      20.312  33.111  38.966  1.00  0.00    -0.504 OA
ATOM     13  H   UNL     1      19.516  32.710  39.449  1.00  0.00     0.293 HD
ENDBRANCH   9  12
BRANCH   8  14
ATOM     14  O   UNL     1      20.342  35.640  37.711  1.00  0.00    -0.504 OA
ATOM     15  H   UNL     1      19.420  36.061  37.712  1.00  0.00     0.293 HD
ENDBRANCH   8  14
TORSDOF 2
ENDMDL
MODEL 6
REMARK VINA RESULT:    -3.485     18.101     18.868
REMARK INTER + INTRA:          -3.688
REMARK INTER:                  -3.688
REMARK INTRA:                   0.000
REMARK UNBOUND:                 0.000
REMARK SMILES O=c1ccc2cc(O)c(O)cc2o1
REMARK SMILES IDX 4 1 3 2 2 3 1 4 13 5 12 6 11 7 9 8 7 9 6 10 5 11 8 12 10 14
REMARK H PARENT 8 13 10 15
REMARK Flexibility Score: inf
ROOT
ATOM      1  C   UNL     1      23.222  37.069  41.499  1.00  0.00     0.019 A 
ATOM      2  C   UNL     1      23.886  36.677  42.660  1.00  0.00     0.094 A 
ATOM      3  C   UNL     1      23.811  35.339  43.065  1.00  0.00     0.336 A 
ATOM      4  O   UNL     1      24.404  34.965  44.111  1.00  0.00    -0.246 OA
ATOM      5  O   UNL     1      23.114  34.458  42.352  1.00  0.00    -0.423 OA
ATOM      6  C   UNL     1      22.465  34.791  41.239  1.00  0.00     0.142 A 
ATOM      7  C   UNL     1      21.749  33.822  40.530  1.00  0.00     0.098 A 
ATOM      8  C   UNL     1      21.064  34.164  39.359  1.00  0.00     0.161 A 
ATOM      9  C   UNL     1      21.094  35.490  38.889  1.00  0.00     0.158 A 
ATOM     10  C   UNL     1      21.811  36.466  39.596  1.00  0.00     0.062 A 
ATOM     11  C   UNL     1      22.497  36.121  40.769  1.00  0.00     0.022 A 
ENDROOT
BRANCH   9  12
ATOM     12  O   UNL     1      20.411  35.832  37.722  1.00  0.00    -0.504 OA
ATOM     13  H   UNL     1      19.603  35.307  37.408  1.00  0.00     0.293 HD
ENDBRANCH   9  12
BRANCH   8  14
ATOM     14  O   UNL     1      20.358  33.174  38.675  1.00  0.00    -0.504 OA
ATOM     15  H   UNL     1      20.764  32.663  37.900  1.00  0.00     0.293 HD
ENDBRANCH   8  14
TORSDOF 2
ENDMDL
MODEL 7
REMARK VINA RESULT:    -3.435     17.811     18.213
REMARK INTER + INTRA:          -3.636
REMARK INTER:                  -3.636
REMARK INTRA:                   0.000
REMARK UNBOUND:                 0.000
REMARK SMILES O=c1ccc2cc(O)c(O)cc2o1
REMARK SMILES IDX 4 1 3 2 2 3 1 4 13 5 12 6 11 7 9 8 7 9 6 10 5 11 8 12 10 14
REMARK H PARENT 8 13 10 15
REMARK Flexibility Score: inf
ROOT
ATOM      1  C   UNL     1      21.332  35.620  38.532  1.00  0.00     0.019 A 
ATOM      2  C   UNL     1      20.867  34.419  37.999  1.00  0.00     0.094 A 
ATOM      3  C   UNL     1      20.939  33.259  38.779  1.00  0.00     0.336 A 
ATOM      4  O   UNL     1      20.524  32.164  38.316  1.00  0.00    -0.246 OA
ATOM      5  O   UNL     1      21.444  33.304  40.009  1.00  0.00    -0.423 OA
ATOM      6  C   UNL     1      21.900  34.430  40.554  1.00  0.00     0.142 A 
ATOM      7  C   UNL     1      22.421  34.418  41.852  1.00  0.00     0.098 A 
ATOM      8  C   UNL     1      22.901  35.597  42.432  1.00  0.00     0.161 A 
ATOM      9  C   UNL     1      22.861  36.803  41.709  1.00  0.00     0.158 A 
ATOM     10  C   UNL     1      22.340  36.821  40.408  1.00  0.00     0.062 A 
ATOM     11  C   UNL     1      21.859  35.639  39.828  1.00  0.00     0.022 A 
ENDROOT
BRANCH   9  12
ATOM     12  O   UNL     1      23.340  37.978  42.287  1.00  0.00    -0.504 OA
ATOM     13  H   UNL     1      23.223  38.169  43.276  1.00  0.00     0.293 HD
ENDBRANCH   9  12
BRANCH   8  14
ATOM     14  O   UNL     1      23.414  35.551  43.729  1.00  0.00    -0.504 OA
ATOM     15  H   UNL     1      24.241  35.014  43.961  1.00  0.00     0.293 HD
ENDBRANCH   8  14
TORSDOF 2
ENDMDL
