MODEL 1
REMARK VINA RESULT:    -5.515      0.000      0.000
REMARK INTER + INTRA:          -6.769
REMARK INTER:                  -6.482
REMARK INTRA:                  -0.287
REMARK UNBOUND:                -0.287
REMARK SMILES O=c1c(O)c(-c2ccc(O)cc2)oc2cc(O)cc(O)c12
REMARK SMILES IDX 5 1 3 2 2 3 1 4 21 5 19 6 18 7 16 8 15 9 14 10 13 11 6 12
REMARK SMILES IDX 7 13 8 14 9 15 12 16 11 17 10 18 4 20 20 22 17 24
REMARK H PARENT 10 19 4 21 20 23 17 25
REMARK Flexibility Score: inf
ROOT
ATOM      1  C   UNL     1      71.594  38.096  19.015  1.00  0.00     0.180 A 
ATOM      2  C   UNL     1      71.688  36.798  18.485  1.00  0.00     0.208 A 
ATOM      3  C   UNL     1      70.518  36.038  18.330  1.00  0.00     0.238 A 
ATOM      4  O   UNL     1      70.614  34.858  17.906  1.00  0.00    -0.285 OA
ATOM      5  C   UNL     1      69.265  36.593  18.691  1.00  0.00     0.111 A 
ATOM      6  C   UNL     1      68.010  35.928  18.540  1.00  0.00     0.134 A 
ATOM      7  C   UNL     1      66.849  36.520  19.052  1.00  0.00     0.093 A 
ATOM      8  C   UNL     1      66.889  37.781  19.651  1.00  0.00     0.123 A 
ATOM      9  C   UNL     1      68.099  38.463  19.751  1.00  0.00     0.094 A 
ATOM     10  C   UNL     1      69.280  37.883  19.282  1.00  0.00     0.146 A 
ATOM     11  O   UNL     1      70.413  38.563  19.406  1.00  0.00    -0.452 OA
ENDROOT
BRANCH   1  12
ATOM     12  C   UNL     1      72.780  38.966  19.185  1.00  0.00     0.021 A 
ATOM     13  C   UNL     1      73.569  38.912  20.348  1.00  0.00     0.016 A 
ATOM     14  C   UNL     1      74.698  39.726  20.475  1.00  0.00     0.047 A 
ATOM     15  C   UNL     1      75.061  40.593  19.437  1.00  0.00     0.115 A 
ATOM     16  C   UNL     1      73.163  39.824  18.140  1.00  0.00     0.016 A 
ATOM     17  C   UNL     1      74.293  40.638  18.269  1.00  0.00     0.047 A 
BRANCH  15  18
ATOM     18  O   UNL     1      76.184  41.410  19.553  1.00  0.00    -0.508 OA
ATOM     19  H   UNL     1      77.028  41.228  19.021  1.00  0.00     0.293 HD
ENDBRANCH  15  18
ENDBRANCH   1  12
BRANCH   2  20
ATOM     20  O   UNL     1      72.936  36.263  18.155  1.00  0.00    -0.502 OA
ATOM     21  H   UNL     1      73.384  35.543  18.711  1.00  0.00     0.293 HD
ENDBRANCH   2  20
BRANCH   6  22
ATOM     22  O   UNL     1      67.849  34.709  17.875  1.00  0.00    -0.507 OA
ATOM     23  H   UNL     1      67.030  34.444  17.350  1.00  0.00     0.293 HD
ENDBRANCH   6  22
BRANCH   8  24
ATOM     24  O   UNL     1      65.725  38.370  20.144  1.00  0.00    -0.508 OA
ATOM     25  H   UNL     1      65.747  39.256  20.636  1.00  0.00     0.293 HD
ENDBRANCH   8  24
TORSDOF 5
ENDMDL
MODEL 2
REMARK VINA RESULT:    -5.458      1.471      1.830
REMARK INTER + INTRA:          -6.702
REMARK INTER:                  -6.561
REMARK INTRA:                  -0.141
REMARK UNBOUND:                -0.287
REMARK SMILES O=c1c(O)c(-c2ccc(O)cc2)oc2cc(O)cc(O)c12
REMARK SMILES IDX 5 1 3 2 2 3 1 4 21 5 19 6 18 7 16 8 15 9 14 10 13 11 6 12
REMARK SMILES IDX 7 13 8 14 9 15 12 16 11 17 10 18 4 20 20 22 17 24
REMARK H PARENT 10 19 4 21 20 23 17 25
REMARK Flexibility Score: inf
ROOT
ATOM      1  C   UNL     1      71.338  38.514  20.225  1.00  0.00     0.180 A 
ATOM      2  C   UNL     1      71.683  37.329  19.553  1.00  0.00     0.208 A 
ATOM      3  C   UNL     1      70.661  36.506  19.055  1.00  0.00     0.238 A 
ATOM      4  O   UNL     1      70.974  35.420  18.502  1.00  0.00    -0.285 OA
ATOM      5  C   UNL     1      69.306  36.887  19.220  1.00  0.00     0.111 A 
ATOM      6  C   UNL     1      68.190  36.150  18.720  1.00  0.00     0.134 A 
ATOM      7  C   UNL     1      66.892  36.552  19.055  1.00  0.00     0.093 A 
ATOM      8  C   UNL     1      66.668  37.701  19.818  1.00  0.00     0.123 A 
ATOM      9  C   UNL     1      67.749  38.460  20.261  1.00  0.00     0.094 A 
ATOM     10  C   UNL     1      69.057  38.064  19.973  1.00  0.00     0.146 A 
ATOM     11  O   UNL     1      70.058  38.810  20.422  1.00  0.00    -0.452 OA
ENDROOT
BRANCH   1  12
ATOM     12  C   UNL     1      72.361  39.445  20.757  1.00  0.00     0.021 A 
ATOM     13  C   UNL     1      72.509  40.745  20.240  1.00  0.00     0.016 A 
ATOM     14  C   UNL     1      73.466  41.613  20.774  1.00  0.00     0.047 A 
ATOM     15  C   UNL     1      74.274  41.200  21.840  1.00  0.00     0.115 A 
ATOM     16  C   UNL     1      73.163  39.046  21.839  1.00  0.00     0.016 A 
ATOM     17  C   UNL     1      74.119  39.916  22.371  1.00  0.00     0.047 A 
BRANCH  15  18
ATOM     18  O   UNL     1      75.232  42.056  22.379  1.00  0.00    -0.508 OA
ATOM     19  H   UNL     1      75.129  42.445  23.310  1.00  0.00     0.293 HD
ENDBRANCH  15  18
ENDBRANCH   1  12
BRANCH   2  20
ATOM     20  O   UNL     1      73.025  36.962  19.420  1.00  0.00    -0.502 OA
ATOM     21  H   UNL     1      73.633  37.366  18.716  1.00  0.00     0.293 HD
ENDBRANCH   2  20
BRANCH   6  22
ATOM     22  O   UNL     1      68.303  35.043  17.875  1.00  0.00    -0.507 OA
ATOM     23  H   UNL     1      68.974  34.956  17.126  1.00  0.00     0.293 HD
ENDBRANCH   6  22
BRANCH   8  24
ATOM     24  O   UNL     1      65.371  38.103  20.134  1.00  0.00    -0.508 OA
ATOM     25  H   UNL     1      64.858  37.681  20.899  1.00  0.00     0.293 HD
ENDBRANCH   8  24
TORSDOF 5
ENDMDL
MODEL 3
REMARK VINA RESULT:    -5.208      1.622      3.173
REMARK INTER + INTRA:          -6.408
REMARK INTER:                  -6.289
REMARK INTRA:                  -0.119
REMARK UNBOUND:                -0.287
REMARK SMILES O=c1c(O)c(-c2ccc(O)cc2)oc2cc(O)cc(O)c12
REMARK SMILES IDX 5 1 3 2 2 3 1 4 21 5 19 6 18 7 16 8 15 9 14 10 13 11 6 12
REMARK SMILES IDX 7 13 8 14 9 15 12 16 11 17 10 18 4 20 20 22 17 24
REMARK H PARENT 10 19 4 21 20 23 17 25
REMARK Flexibility Score: inf
ROOT
ATOM      1  C   UNL     1      71.447  39.151  19.559  1.00  0.00     0.180 A 
ATOM      2  C   UNL     1      70.842  39.813  20.642  1.00  0.00     0.208 A 
ATOM      3  C   UNL     1      69.551  39.430  21.040  1.00  0.00     0.238 A 
ATOM      4  O   UNL     1      68.994  40.062  21.974  1.00  0.00    -0.285 OA
ATOM      5  C   UNL     1      68.888  38.378  20.361  1.00  0.00     0.111 A 
ATOM      6  C   UNL     1      67.594  37.881  20.705  1.00  0.00     0.134 A 
ATOM      7  C   UNL     1      66.981  36.927  19.883  1.00  0.00     0.093 A 
ATOM      8  C   UNL     1      67.641  36.407  18.768  1.00  0.00     0.123 A 
ATOM      9  C   UNL     1      68.927  36.843  18.458  1.00  0.00     0.094 A 
ATOM     10  C   UNL     1      69.551  37.819  19.237  1.00  0.00     0.146 A 
ATOM     11  O   UNL     1      70.773  38.214  18.901  1.00  0.00    -0.452 OA
ENDROOT
BRANCH   1  12
ATOM     12  C   UNL     1      72.814  39.481  19.098  1.00  0.00     0.021 A 
ATOM     13  C   UNL     1      73.126  40.750  18.576  1.00  0.00     0.016 A 
ATOM     14  C   UNL     1      74.430  41.046  18.169  1.00  0.00     0.047 A 
ATOM     15  C   UNL     1      75.441  40.086  18.292  1.00  0.00     0.115 A 
ATOM     16  C   UNL     1      73.839  38.531  19.236  1.00  0.00     0.016 A 
ATOM     17  C   UNL     1      75.144  38.829  18.828  1.00  0.00     0.047 A 
BRANCH  15  18
ATOM     18  O   UNL     1      76.745  40.370  17.889  1.00  0.00    -0.508 OA
ATOM     19  H   UNL     1      77.537  39.859  18.262  1.00  0.00     0.293 HD
ENDBRANCH  15  18
ENDBRANCH   1  12
BRANCH   2  20
ATOM     20  O   UNL     1      71.507  40.861  21.284  1.00  0.00    -0.502 OA
ATOM     21  H   UNL     1      72.221  41.415  20.824  1.00  0.00     0.293 HD
ENDBRANCH   2  20
BRANCH   6  22
ATOM     22  O   UNL     1      66.889  38.267  21.848  1.00  0.00    -0.507 OA
ATOM     23  H   UNL     1      65.927  38.031  22.038  1.00  0.00     0.293 HD
ENDBRANCH   6  22
BRANCH   8  24
ATOM     24  O   UNL     1      67.029  35.446  17.964  1.00  0.00    -0.508 OA
ATOM     25  H   UNL     1      67.081  34.458  18.186  1.00  0.00     0.293 HD
ENDBRANCH   8  24
TORSDOF 5
ENDMDL
MODEL 4
REMARK VINA RESULT:    -4.963      2.290      3.963
REMARK INTER + INTRA:          -6.120
REMARK INTER:                  -5.928
REMARK INTRA:                  -0.193
REMARK UNBOUND:                -0.287
REMARK SMILES O=c1c(O)c(-c2ccc(O)cc2)oc2cc(O)cc(O)c12
REMARK SMILES IDX 5 1 3 2 2 3 1 4 21 5 19 6 18 7 16 8 15 9 14 10 13 11 6 12
REMARK SMILES IDX 7 13 8 14 9 15 12 16 11 17 10 18 4 20 20 22 17 24
REMARK H PARENT 10 19 4 21 20 23 17 25
REMARK Flexibility Score: inf
ROOT
ATOM      1  C   UNL     1      71.768  39.782  21.205  1.00  0.00     0.180 A 
ATOM      2  C   UNL     1      70.555  40.339  21.648  1.00  0.00     0.208 A 
ATOM      3  C   UNL     1      69.348  39.723  21.281  1.00  0.00     0.238 A 
ATOM      4  O   UNL     1      68.265  40.256  21.634  1.00  0.00    -0.285 OA
ATOM      5  C   UNL     1      69.369  38.547  20.491  1.00  0.00     0.111 A 
ATOM      6  C   UNL     1      68.209  37.816  20.094  1.00  0.00     0.134 A 
ATOM      7  C   UNL     1      68.340  36.743  19.204  1.00  0.00     0.093 A 
ATOM      8  C   UNL     1      69.595  36.335  18.749  1.00  0.00     0.123 A 
ATOM      9  C   UNL     1      70.739  37.005  19.176  1.00  0.00     0.094 A 
ATOM     10  C   UNL     1      70.638  38.101  20.035  1.00  0.00     0.146 A 
ATOM     11  O   UNL     1      71.751  38.718  20.411  1.00  0.00    -0.452 OA
ENDROOT
BRANCH   1  12
ATOM     12  C   UNL     1      73.080  40.361  21.571  1.00  0.00     0.021 A 
ATOM     13  C   UNL     1      73.518  41.585  21.034  1.00  0.00     0.016 A 
ATOM     14  C   UNL     1      74.751  42.123  21.414  1.00  0.00     0.047 A 
ATOM     15  C   UNL     1      75.555  41.454  22.344  1.00  0.00     0.115 A 
ATOM     16  C   UNL     1      73.884  39.706  22.519  1.00  0.00     0.016 A 
ATOM     17  C   UNL     1      75.118  40.246  22.897  1.00  0.00     0.047 A 
BRANCH  15  18
ATOM     18  O   UNL     1      76.787  41.981  22.729  1.00  0.00    -0.508 OA
ATOM     19  H   UNL     1      77.513  41.394  23.124  1.00  0.00     0.293 HD
ENDBRANCH  15  18
ENDBRANCH   1  12
BRANCH   2  20
ATOM     20  O   UNL     1      70.557  41.511  22.409  1.00  0.00    -0.502 OA
ATOM     21  H   UNL     1      70.881  41.537  23.369  1.00  0.00     0.293 HD
ENDBRANCH   2  20
BRANCH   6  22
ATOM     22  O   UNL     1      66.920  38.085  20.564  1.00  0.00    -0.507 OA
ATOM     23  H   UNL     1      66.269  38.719  20.127  1.00  0.00     0.293 HD
ENDBRANCH   6  22
BRANCH   8  24
ATOM     24  O   UNL     1      69.718  35.255  17.875  1.00  0.00    -0.508 OA
ATOM     25  H   UNL     1      70.489  35.188  17.221  1.00  0.00     0.293 HD
ENDBRANCH   8  24
TORSDOF 5
ENDMDL
MODEL 5
REMARK VINA RESULT:    -4.851      2.085      7.229
REMARK INTER + INTRA:          -5.988
REMARK INTER:                  -5.707
REMARK INTRA:                  -0.281
REMARK UNBOUND:                -0.287
REMARK SMILES O=c1c(O)c(-c2ccc(O)cc2)oc2cc(O)cc(O)c12
REMARK SMILES IDX 5 1 3 2 2 3 1 4 21 5 19 6 18 7 16 8 15 9 14 10 13 11 6 12
REMARK SMILES IDX 7 13 8 14 9 15 12 16 11 17 10 18 4 20 20 22 17 24
REMARK H PARENT 10 19 4 21 20 23 17 25
REMARK Flexibility Score: inf
ROOT
ATOM      1  C   UNL     1      71.911  39.294  20.138  1.00  0.00     0.180 A 
ATOM      2  C   UNL     1      72.383  40.079  19.071  1.00  0.00     0.208 A 
ATOM      3  C   UNL     1      73.563  40.821  19.240  1.00  0.00     0.238 A 
ATOM      4  O   UNL     1      73.950  41.563  18.302  1.00  0.00    -0.285 OA
ATOM      5  C   UNL     1      74.265  40.756  20.469  1.00  0.00     0.111 A 
ATOM      6  C   UNL     1      75.493  41.434  20.737  1.00  0.00     0.134 A 
ATOM      7  C   UNL     1      76.030  41.402  22.030  1.00  0.00     0.093 A 
ATOM      8  C   UNL     1      75.419  40.663  23.046  1.00  0.00     0.123 A 
ATOM      9  C   UNL     1      74.253  39.951  22.778  1.00  0.00     0.094 A 
ATOM     10  C   UNL     1      73.673  39.992  21.508  1.00  0.00     0.146 A 
ATOM     11  O   UNL     1      72.556  39.306  21.299  1.00  0.00    -0.452 OA
ENDROOT
BRANCH   1  12
ATOM     12  C   UNL     1      70.689  38.466  20.026  1.00  0.00     0.021 A 
ATOM     13  C   UNL     1      69.433  38.952  20.433  1.00  0.00     0.016 A 
ATOM     14  C   UNL     1      68.290  38.160  20.295  1.00  0.00     0.047 A 
ATOM     15  C   UNL     1      68.383  36.880  19.736  1.00  0.00     0.115 A 
ATOM     16  C   UNL     1      70.770  37.188  19.448  1.00  0.00     0.016 A 
ATOM     17  C   UNL     1      69.625  36.397  19.311  1.00  0.00     0.047 A 
BRANCH  15  18
ATOM     18  O   UNL     1      67.250  36.080  19.595  1.00  0.00    -0.508 OA
ATOM     19  H   UNL     1      66.901  35.814  18.681  1.00  0.00     0.293 HD
ENDBRANCH  15  18
ENDBRANCH   1  12
BRANCH   2  20
ATOM     20  O   UNL     1      71.662  40.145  17.875  1.00  0.00    -0.502 OA
ATOM     21  H   UNL     1      72.101  40.029  16.968  1.00  0.00     0.293 HD
ENDBRANCH   2  20
BRANCH   6  22
ATOM     22  O   UNL     1      76.230  42.123  19.771  1.00  0.00    -0.507 OA
ATOM     23  H   UNL     1      76.499  43.093  19.835  1.00  0.00     0.293 HD
ENDBRANCH   6  22
BRANCH   8  24
ATOM     24  O   UNL     1      75.970  40.625  24.326  1.00  0.00    -0.508 OA
ATOM     25  H   UNL     1      75.593  41.184  25.082  1.00  0.00     0.293 HD
ENDBRANCH   8  24
TORSDOF 5
ENDMDL
MODEL 6
REMARK VINA RESULT:    -4.821      1.700      2.202
REMARK INTER + INTRA:          -5.954
REMARK INTER:                  -5.654
REMARK INTRA:                  -0.300
REMARK UNBOUND:                -0.287
REMARK SMILES O=c1c(O)c(-c2ccc(O)cc2)oc2cc(O)cc(O)c12
REMARK SMILES IDX 5 1 3 2 2 3 1 4 21 5 19 6 18 7 16 8 15 9 14 10 13 11 6 12
REMARK SMILES IDX 7 13 8 14 9 15 12 16 11 17 10 18 4 20 20 22 17 24
REMARK H PARENT 10 19 4 21 20 23 17 25
REMARK Flexibility Score: inf
ROOT
ATOM      1  C   UNL     1      72.077  39.442  19.804  1.00  0.00     0.180 A 
ATOM      2  C   UNL     1      71.949  38.052  19.963  1.00  0.00     0.208 A 
ATOM      3  C   UNL     1      70.669  37.476  19.923  1.00  0.00     0.238 A 
ATOM      4  O   UNL     1      70.555  36.239  20.121  1.00  0.00    -0.285 OA
ATOM      5  C   UNL     1      69.534  38.297  19.707  1.00  0.00     0.111 A 
ATOM      6  C   UNL     1      68.194  37.816  19.608  1.00  0.00     0.134 A 
ATOM      7  C   UNL     1      67.137  38.731  19.524  1.00  0.00     0.093 A 
ATOM      8  C   UNL     1      67.378  40.106  19.470  1.00  0.00     0.123 A 
ATOM      9  C   UNL     1      68.686  40.582  19.507  1.00  0.00     0.094 A 
ATOM     10  C   UNL     1      69.759  39.696  19.627  1.00  0.00     0.146 A 
ATOM     11  O   UNL     1      70.989  40.192  19.669  1.00  0.00    -0.452 OA
ENDROOT
BRANCH   1  12
ATOM     12  C   UNL     1      73.395  40.118  19.809  1.00  0.00     0.021 A 
ATOM     13  C   UNL     1      74.149  40.264  18.631  1.00  0.00     0.016 A 
ATOM     14  C   UNL     1      75.380  40.927  18.657  1.00  0.00     0.047 A 
ATOM     15  C   UNL     1      75.865  41.464  19.856  1.00  0.00     0.115 A 
ATOM     16  C   UNL     1      73.880  40.677  21.003  1.00  0.00     0.016 A 
ATOM     17  C   UNL     1      75.112  41.339  21.027  1.00  0.00     0.047 A 
BRANCH  15  18
ATOM     18  O   UNL     1      77.091  42.125  19.894  1.00  0.00    -0.508 OA
ATOM     19  H   UNL     1      77.931  41.704  19.515  1.00  0.00     0.293 HD
ENDBRANCH  15  18
ENDBRANCH   1  12
BRANCH   2  20
ATOM     20  O   UNL     1      73.080  37.264  20.197  1.00  0.00    -0.502 OA
ATOM     21  H   UNL     1      73.422  36.590  19.521  1.00  0.00     0.293 HD
ENDBRANCH   2  20
BRANCH   6  22
ATOM     22  O   UNL     1      67.853  36.462  19.559  1.00  0.00    -0.507 OA
ATOM     23  H   UNL     1      67.450  35.997  18.759  1.00  0.00     0.293 HD
ENDBRANCH   6  22
BRANCH   8  24
ATOM     24  O   UNL     1      66.320  41.009  19.371  1.00  0.00    -0.508 OA
ATOM     25  H   UNL     1      65.403  40.795  19.746  1.00  0.00     0.293 HD
ENDBRANCH   8  24
TORSDOF 5
ENDMDL
MODEL 7
REMARK VINA RESULT:    -4.808      1.758      3.506
REMARK INTER + INTRA:          -5.938
REMARK INTER:                  -5.707
REMARK INTRA:                  -0.231
REMARK UNBOUND:                -0.287
REMARK SMILES O=c1c(O)c(-c2ccc(O)cc2)oc2cc(O)cc(O)c12
REMARK SMILES IDX 5 1 3 2 2 3 1 4 21 5 19 6 18 7 16 8 15 9 14 10 13 11 6 12
REMARK SMILES IDX 7 13 8 14 9 15 12 16 11 17 10 18 4 20 20 22 17 24
REMARK H PARENT 10 19 4 21 20 23 17 25
REMARK Flexibility Score: inf
ROOT
ATOM      1  C   UNL     1      70.756  39.577  20.643  1.00  0.00     0.180 A 
ATOM      2  C   UNL     1      69.616  40.323  20.988  1.00  0.00     0.208 A 
ATOM      3  C   UNL     1      68.346  39.809  20.679  1.00  0.00     0.238 A 
ATOM      4  O   UNL     1      67.332  40.505  20.941  1.00  0.00    -0.285 OA
ATOM      5  C   UNL     1      68.233  38.547  20.045  1.00  0.00     0.111 A 
ATOM      6  C   UNL     1      66.996  37.911  19.722  1.00  0.00     0.134 A 
ATOM      7  C   UNL     1      67.004  36.725  18.978  1.00  0.00     0.093 A 
ATOM      8  C   UNL     1      68.205  36.119  18.602  1.00  0.00     0.123 A 
ATOM      9  C   UNL     1      69.417  36.701  18.963  1.00  0.00     0.094 A 
ATOM     10  C   UNL     1      69.442  37.903  19.674  1.00  0.00     0.146 A 
ATOM     11  O   UNL     1      70.619  38.429  19.990  1.00  0.00    -0.452 OA
ENDROOT
BRANCH   1  12
ATOM     12  C   UNL     1      72.126  40.042  20.958  1.00  0.00     0.021 A 
ATOM     13  C   UNL     1      72.876  39.464  21.998  1.00  0.00     0.016 A 
ATOM     14  C   UNL     1      74.177  39.904  22.261  1.00  0.00     0.047 A 
ATOM     15  C   UNL     1      74.750  40.915  21.479  1.00  0.00     0.115 A 
ATOM     16  C   UNL     1      72.716  41.042  20.166  1.00  0.00     0.016 A 
ATOM     17  C   UNL     1      74.017  41.481  20.431  1.00  0.00     0.047 A 
BRANCH  15  18
ATOM     18  O   UNL     1      76.045  41.362  21.733  1.00  0.00    -0.508 OA
ATOM     19  H   UNL     1      76.824  40.717  21.796  1.00  0.00     0.293 HD
ENDBRANCH  15  18
ENDBRANCH   1  12
BRANCH   2  20
ATOM     20  O   UNL     1      69.752  41.575  21.594  1.00  0.00    -0.502 OA
ATOM     21  H   UNL     1      69.700  41.702  22.598  1.00  0.00     0.293 HD
ENDBRANCH   2  20
BRANCH   6  22
ATOM     22  O   UNL     1      65.746  38.385  20.129  1.00  0.00    -0.507 OA
ATOM     23  H   UNL     1      65.093  38.872  19.534  1.00  0.00     0.293 HD
ENDBRANCH   6  22
BRANCH   8  24
ATOM     24  O   UNL     1      68.203  34.929  17.875  1.00  0.00    -0.508 OA
ATOM     25  H   UNL     1      67.627  34.141  18.149  1.00  0.00     0.293 HD
ENDBRANCH   8  24
TORSDOF 5
ENDMDL
MODEL 8
REMARK VINA RESULT:    -4.663      1.443      6.486
REMARK INTER + INTRA:          -5.768
REMARK INTER:                  -5.505
REMARK INTRA:                  -0.262
REMARK UNBOUND:                -0.287
REMARK SMILES O=c1c(O)c(-c2ccc(O)cc2)oc2cc(O)cc(O)c12
REMARK SMILES IDX 5 1 3 2 2 3 1 4 21 5 19 6 18 7 16 8 15 9 14 10 13 11 6 12
REMARK SMILES IDX 7 13 8 14 9 15 12 16 11 17 10 18 4 20 20 22 17 24
REMARK H PARENT 10 19 4 21 20 23 17 25
REMARK Flexibility Score: inf
ROOT
ATOM      1  C   UNL     1      70.798  38.099  18.915  1.00  0.00     0.180 A 
ATOM      2  C   UNL     1      71.482  36.925  18.555  1.00  0.00     0.208 A 
ATOM      3  C   UNL     1      72.850  37.001  18.249  1.00  0.00     0.238 A 
ATOM      4  O   UNL     1      73.445  35.957  17.876  1.00  0.00    -0.285 OA
ATOM      5  C   UNL     1      73.521  38.247  18.324  1.00  0.00     0.111 A 
ATOM      6  C   UNL     1      74.914  38.433  18.074  1.00  0.00     0.134 A 
ATOM      7  C   UNL     1      75.444  39.729  18.049  1.00  0.00     0.093 A 
ATOM      8  C   UNL     1      74.643  40.839  18.327  1.00  0.00     0.123 A 
ATOM      9  C   UNL     1      73.295  40.663  18.629  1.00  0.00     0.094 A 
ATOM     10  C   UNL     1      72.730  39.385  18.628  1.00  0.00     0.146 A 
ATOM     11  O   UNL     1      71.439  39.262  18.911  1.00  0.00    -0.452 OA
ENDROOT
BRANCH   1  12
ATOM     12  C   UNL     1      69.361  38.095  19.275  1.00  0.00     0.021 A 
ATOM     13  C   UNL     1      68.358  38.081  18.290  1.00  0.00     0.016 A 
ATOM     14  C   UNL     1      67.009  38.053  18.654  1.00  0.00     0.047 A 
ATOM     15  C   UNL     1      66.646  38.022  20.006  1.00  0.00     0.115 A 
ATOM     16  C   UNL     1      68.988  38.044  20.629  1.00  0.00     0.016 A 
ATOM     17  C   UNL     1      67.638  38.016  20.991  1.00  0.00     0.047 A 
BRANCH  15  18
ATOM     18  O   UNL     1      65.304  37.995  20.382  1.00  0.00    -0.508 OA
ATOM     19  H   UNL     1      64.663  37.305  20.007  1.00  0.00     0.293 HD
ENDBRANCH  15  18
ENDBRANCH   1  12
BRANCH   2  20
ATOM     20  O   UNL     1      70.796  35.711  18.468  1.00  0.00    -0.502 OA
ATOM     21  H   UNL     1      69.998  35.579  17.858  1.00  0.00     0.293 HD
ENDBRANCH   2  20
BRANCH   6  22
ATOM     22  O   UNL     1      75.818  37.385  17.876  1.00  0.00    -0.507 OA
ATOM     23  H   UNL     1      75.775  36.492  18.342  1.00  0.00     0.293 HD
ENDBRANCH   6  22
BRANCH   8  24
ATOM     24  O   UNL     1      75.181  42.125  18.315  1.00  0.00    -0.508 OA
ATOM     25  H   UNL     1      74.596  42.944  18.194  1.00  0.00     0.293 HD
ENDBRANCH   8  24
TORSDOF 5
ENDMDL
MODEL 9
REMARK VINA RESULT:    -4.543      2.012      7.492
REMARK INTER + INTRA:          -5.626
REMARK INTER:                  -5.340
REMARK INTRA:                  -0.286
REMARK UNBOUND:                -0.287
REMARK SMILES O=c1c(O)c(-c2ccc(O)cc2)oc2cc(O)cc(O)c12
REMARK SMILES IDX 5 1 3 2 2 3 1 4 21 5 19 6 18 7 16 8 15 9 14 10 13 11 6 12
REMARK SMILES IDX 7 13 8 14 9 15 12 16 11 17 10 18 4 20 20 22 17 24
REMARK H PARENT 10 19 4 21 20 23 17 25
REMARK Flexibility Score: inf
ROOT
ATOM      1  C   UNL     1      72.745  39.116  19.952  1.00  0.00     0.180 A 
ATOM      2  C   UNL     1      72.889  39.340  21.332  1.00  0.00     0.208 A 
ATOM      3  C   UNL     1      73.939  40.155  21.784  1.00  0.00     0.238 A 
ATOM      4  O   UNL     1      74.096  40.309  23.023  1.00  0.00    -0.285 OA
ATOM      5  C   UNL     1      74.822  40.749  20.849  1.00  0.00     0.111 A 
ATOM      6  C   UNL     1      75.897  41.625  21.192  1.00  0.00     0.134 A 
ATOM      7  C   UNL     1      76.786  42.049  20.197  1.00  0.00     0.093 A 
ATOM      8  C   UNL     1      76.601  41.681  18.862  1.00  0.00     0.123 A 
ATOM      9  C   UNL     1      75.523  40.875  18.509  1.00  0.00     0.094 A 
ATOM     10  C   UNL     1      74.638  40.407  19.484  1.00  0.00     0.146 A 
ATOM     11  O   UNL     1      73.629  39.632  19.106  1.00  0.00    -0.452 OA
ENDROOT
BRANCH   1  12
ATOM     12  C   UNL     1      71.649  38.289  19.398  1.00  0.00     0.021 A 
ATOM     13  C   UNL     1      71.812  36.910  19.173  1.00  0.00     0.016 A 
ATOM     14  C   UNL     1      70.753  36.146  18.672  1.00  0.00     0.047 A 
ATOM     15  C   UNL     1      69.517  36.745  18.405  1.00  0.00     0.115 A 
ATOM     16  C   UNL     1      70.399  38.878  19.147  1.00  0.00     0.016 A 
ATOM     17  C   UNL     1      69.341  38.111  18.645  1.00  0.00     0.047 A 
BRANCH  15  18
ATOM     18  O   UNL     1      68.455  35.993  17.904  1.00  0.00    -0.508 OA
ATOM     19  H   UNL     1      67.691  35.695  18.500  1.00  0.00     0.293 HD
ENDBRANCH  15  18
ENDBRANCH   1  12
BRANCH   2  20
ATOM     20  O   UNL     1      72.019  38.728  22.238  1.00  0.00    -0.502 OA
ATOM     21  H   UNL     1      71.162  38.271  21.946  1.00  0.00     0.293 HD
ENDBRANCH   2  20
BRANCH   6  22
ATOM     22  O   UNL     1      76.114  42.125  22.479  1.00  0.00    -0.507 OA
ATOM     23  H   UNL     1      76.720  41.702  23.166  1.00  0.00     0.293 HD
ENDBRANCH   6  22
BRANCH   8  24
ATOM     24  O   UNL     1      77.483  42.121  17.875  1.00  0.00    -0.508 OA
ATOM     25  H   UNL     1      77.156  42.392  16.955  1.00  0.00     0.293 HD
ENDBRANCH   8  24
TORSDOF 5
ENDMDL
