MODEL 1
REMARK VINA RESULT:    -3.187      0.000      0.000
REMARK INTER + INTRA:          -3.950
REMARK INTER:                  -3.653
REMARK INTRA:                  -0.297
REMARK UNBOUND:                -0.297
REMARK SMILES O=C1C[C@@H](c2ccc(O)cc2)Oc2cc(O)cc(O)c21
REMARK SMILES IDX 3 1 4 2 12 3 13 4 14 5 15 6 17 7 18 8 20 9 2 10 1 11 5 12
REMARK SMILES IDX 6 13 11 14 7 15 10 16 8 17 9 18 19 20 16 22
REMARK H PARENT 9 19 19 21 16 23
REMARK Flexibility Score: inf
ROOT
ATOM      1  C   UNL     1      10.087  72.500   0.233  1.00  0.00     0.131 C 
ATOM      2  C   UNL     1       9.973  71.317  -0.737  1.00  0.00     0.211 C 
ATOM      3  O   UNL     1      10.402  70.116  -0.097  1.00  0.00    -0.484 OA
ATOM      4  C   UNL     1       9.992  69.785   1.199  1.00  0.00     0.138 A 
ATOM      5  C   UNL     1      10.170  68.475   1.648  1.00  0.00     0.093 A 
ATOM      6  C   UNL     1       9.750  68.104   2.922  1.00  0.00     0.123 A 
ATOM      7  C   UNL     1       9.131  69.046   3.750  1.00  0.00     0.093 A 
ATOM      8  C   UNL     1       8.935  70.364   3.320  1.00  0.00     0.133 A 
ATOM      9  C   UNL     1       9.416  70.763   2.041  1.00  0.00     0.102 A 
ATOM     10  C   UNL     1       9.431  72.172   1.547  1.00  0.00     0.174 C 
ATOM     11  O   UNL     1       9.006  73.125   2.249  1.00  0.00    -0.294 OA
ENDROOT
BRANCH   2  12
ATOM     12  C   UNL     1      10.791  71.564  -1.982  1.00  0.00    -0.007 A 
ATOM     13  C   UNL     1      10.857  70.594  -2.997  1.00  0.00     0.011 A 
ATOM     14  C   UNL     1      11.540  72.745  -2.112  1.00  0.00     0.011 A 
ATOM     15  C   UNL     1      11.641  70.815  -4.135  1.00  0.00     0.046 A 
ATOM     16  C   UNL     1      12.323  72.962  -3.250  1.00  0.00     0.046 A 
ATOM     17  C   UNL     1      12.375  72.001  -4.264  1.00  0.00     0.115 A 
BRANCH  17  18
ATOM     18  O   UNL     1      13.158  72.232  -5.392  1.00  0.00    -0.508 OA
ATOM     19  H   UNL     1      13.964  71.656  -5.605  1.00  0.00     0.293 HD
ENDBRANCH  17  18
ENDBRANCH   2  12
BRANCH   8  20
ATOM     20  O   UNL     1       8.250  71.216   4.190  1.00  0.00    -0.507 OA
ATOM     21  H   UNL     1       8.494  71.361   5.159  1.00  0.00     0.293 HD
ENDBRANCH   8  20
BRANCH   6  22
ATOM     22  O   UNL     1       9.941  66.794   3.356  1.00  0.00    -0.508 OA
ATOM     23  H   UNL     1      10.858  66.448   3.612  1.00  0.00     0.293 HD
ENDBRANCH   6  22
TORSDOF 4
ENDMDL
MODEL 2
REMARK VINA RESULT:    -2.483      1.758      2.420
REMARK INTER + INTRA:          -3.144
REMARK INTER:                  -2.826
REMARK INTRA:                  -0.317
REMARK UNBOUND:                -0.297
REMARK SMILES O=C1C[C@@H](c2ccc(O)cc2)Oc2cc(O)cc(O)c21
REMARK SMILES IDX 3 1 4 2 12 3 13 4 14 5 15 6 17 7 18 8 20 9 2 10 1 11 5 12
REMARK SMILES IDX 6 13 11 14 7 15 10 16 8 17 9 18 19 20 16 22
REMARK H PARENT 9 19 19 21 16 23
REMARK Flexibility Score: inf
ROOT
ATOM      1  C   UNL     1      10.415  70.509   1.056  1.00  0.00     0.131 C 
ATOM      2  C   UNL     1       9.822  70.181  -0.320  1.00  0.00     0.211 C 
ATOM      3  O   UNL     1       9.923  68.781  -0.576  1.00  0.00    -0.484 OA
ATOM      4  C   UNL     1       9.583  67.829   0.392  1.00  0.00     0.138 A 
ATOM      5  C   UNL     1       9.391  66.504  -0.005  1.00  0.00     0.093 A 
ATOM      6  C   UNL     1       9.026  65.536   0.928  1.00  0.00     0.123 A 
ATOM      7  C   UNL     1       8.836  65.898   2.265  1.00  0.00     0.093 A 
ATOM      8  C   UNL     1       9.017  67.221   2.686  1.00  0.00     0.133 A 
ATOM      9  C   UNL     1       9.446  68.203   1.748  1.00  0.00     0.102 A 
ATOM     10  C   UNL     1       9.847  69.595   2.107  1.00  0.00     0.174 C 
ATOM     11  O   UNL     1       9.828  70.004   3.297  1.00  0.00    -0.294 OA
ENDROOT
BRANCH   2  12
ATOM     12  C   UNL     1      10.526  70.959  -1.407  1.00  0.00    -0.007 A 
ATOM     13  C   UNL     1      10.916  70.328  -2.600  1.00  0.00     0.011 A 
ATOM     14  C   UNL     1      10.847  72.312  -1.210  1.00  0.00     0.011 A 
ATOM     15  C   UNL     1      11.595  71.046  -3.590  1.00  0.00     0.046 A 
ATOM     16  C   UNL     1      11.526  73.028  -2.201  1.00  0.00     0.046 A 
ATOM     17  C   UNL     1      11.900  72.400  -3.393  1.00  0.00     0.115 A 
BRANCH  17  18
ATOM     18  O   UNL     1      12.574  73.125  -4.372  1.00  0.00    -0.508 OA
ATOM     19  H   UNL     1      13.499  73.505  -4.207  1.00  0.00     0.293 HD
ENDBRANCH  17  18
ENDBRANCH   2  12
BRANCH   8  20
ATOM     20  O   UNL     1       8.741  67.500   4.027  1.00  0.00    -0.507 OA
ATOM     21  H   UNL     1       8.171  66.921   4.626  1.00  0.00     0.293 HD
ENDBRANCH   8  20
BRANCH   6  22
ATOM     22  O   UNL     1       8.845  64.218   0.516  1.00  0.00    -0.508 OA
ATOM     23  H   UNL     1       8.855  63.449   1.176  1.00  0.00     0.293 HD
ENDBRANCH   6  22
TORSDOF 4
ENDMDL
MODEL 3
REMARK VINA RESULT:    -0.992      2.731      6.123
REMARK INTER + INTRA:          -1.435
REMARK INTER:                  -1.121
REMARK INTRA:                  -0.314
REMARK UNBOUND:                -0.297
REMARK SMILES O=C1C[C@@H](c2ccc(O)cc2)Oc2cc(O)cc(O)c21
REMARK SMILES IDX 3 1 4 2 12 3 13 4 14 5 15 6 17 7 18 8 20 9 2 10 1 11 5 12
REMARK SMILES IDX 6 13 11 14 7 15 10 16 8 17 9 18 19 20 16 22
REMARK H PARENT 9 19 19 21 16 23
REMARK Flexibility Score: inf
ROOT
ATOM      1  C   UNL     1       9.298  70.594  -0.633  1.00  0.00     0.131 C 
ATOM      2  C   UNL     1       9.822  70.013   0.687  1.00  0.00     0.211 C 
ATOM      3  O   UNL     1       9.404  68.656   0.824  1.00  0.00    -0.484 OA
ATOM      4  C   UNL     1       9.498  67.746  -0.234  1.00  0.00     0.138 A 
ATOM      5  C   UNL     1       9.385  66.381   0.039  1.00  0.00     0.093 A 
ATOM      6  C   UNL     1       9.499  65.445  -0.986  1.00  0.00     0.123 A 
ATOM      7  C   UNL     1       9.745  65.876  -2.294  1.00  0.00     0.093 A 
ATOM      8  C   UNL     1       9.869  67.239  -2.592  1.00  0.00     0.133 A 
ATOM      9  C   UNL     1       9.695  68.202  -1.557  1.00  0.00     0.102 A 
ATOM     10  C   UNL     1       9.621  69.676  -1.780  1.00  0.00     0.174 C 
ATOM     11  O   UNL     1       9.714  70.178  -2.929  1.00  0.00    -0.294 OA
ENDROOT
BRANCH   2  12
ATOM     12  C   UNL     1       9.337  70.828   1.862  1.00  0.00    -0.007 A 
ATOM     13  C   UNL     1       8.787  70.197   2.991  1.00  0.00     0.011 A 
ATOM     14  C   UNL     1       9.380  72.231   1.814  1.00  0.00     0.011 A 
ATOM     15  C   UNL     1       8.311  70.958   4.064  1.00  0.00     0.046 A 
ATOM     16  C   UNL     1       8.903  72.989   2.887  1.00  0.00     0.046 A 
ATOM     17  C   UNL     1       8.370  72.357   4.015  1.00  0.00     0.115 A 
BRANCH  17  18
ATOM     18  O   UNL     1       7.899  73.125   5.077  1.00  0.00    -0.508 OA
ATOM     19  H   UNL     1       7.638  74.096   4.954  1.00  0.00     0.293 HD
ENDBRANCH  17  18
ENDBRANCH   2  12
BRANCH   8  20
ATOM     20  O   UNL     1      10.179  67.570  -3.913  1.00  0.00    -0.507 OA
ATOM     21  H   UNL     1       9.654  67.263  -4.718  1.00  0.00     0.293 HD
ENDBRANCH   8  20
BRANCH   6  22
ATOM     22  O   UNL     1       9.377  64.088  -0.697  1.00  0.00    -0.508 OA
ATOM     23  H   UNL     1      10.184  63.476  -0.677  1.00  0.00     0.293 HD
ENDBRANCH   6  22
TORSDOF 4
ENDMDL
MODEL 4
REMARK VINA RESULT:    -0.451      2.155      6.413
REMARK INTER + INTRA:          -0.815
REMARK INTER:                  -0.533
REMARK INTRA:                  -0.282
REMARK UNBOUND:                -0.297
REMARK SMILES O=C1C[C@@H](c2ccc(O)cc2)Oc2cc(O)cc(O)c21
REMARK SMILES IDX 3 1 4 2 12 3 13 4 14 5 15 6 17 7 18 8 20 9 2 10 1 11 5 12
REMARK SMILES IDX 6 13 11 14 7 15 10 16 8 17 9 18 19 20 16 22
REMARK H PARENT 9 19 19 21 16 23
REMARK Flexibility Score: inf
ROOT
ATOM      1  C   UNL     1      10.214  72.444   0.231  1.00  0.00     0.131 C 
ATOM      2  C   UNL     1      10.092  71.235   1.167  1.00  0.00     0.211 C 
ATOM      3  O   UNL     1       9.369  70.188   0.522  1.00  0.00    -0.484 OA
ATOM      4  C   UNL     1       9.638  69.814  -0.799  1.00  0.00     0.138 A 
ATOM      5  C   UNL     1       9.141  68.596  -1.269  1.00  0.00     0.093 A 
ATOM      6  C   UNL     1       9.411  68.180  -2.570  1.00  0.00     0.123 A 
ATOM      7  C   UNL     1      10.196  68.982  -3.406  1.00  0.00     0.093 A 
ATOM      8  C   UNL     1      10.710  70.204  -2.955  1.00  0.00     0.133 A 
ATOM      9  C   UNL     1      10.389  70.661  -1.645  1.00  0.00     0.102 A 
ATOM     10  C   UNL     1      10.721  72.018  -1.119  1.00  0.00     0.174 C 
ATOM     11  O   UNL     1      11.325  72.870  -1.819  1.00  0.00    -0.294 OA
ENDROOT
BRANCH   2  12
ATOM     12  C   UNL     1       9.406  71.622   2.456  1.00  0.00    -0.007 A 
ATOM     13  C   UNL     1       9.507  70.803   3.594  1.00  0.00     0.011 A 
ATOM     14  C   UNL     1       8.612  72.779   2.513  1.00  0.00     0.011 A 
ATOM     15  C   UNL     1       8.844  71.150   4.776  1.00  0.00     0.046 A 
ATOM     16  C   UNL     1       7.950  73.124   3.696  1.00  0.00     0.046 A 
ATOM     17  C   UNL     1       8.065  72.314   4.830  1.00  0.00     0.115 A 
BRANCH  17  18
ATOM     18  O   UNL     1       7.402  72.670   6.001  1.00  0.00    -0.508 OA
ATOM     19  H   UNL     1       6.400  72.815   6.019  1.00  0.00     0.293 HD
ENDBRANCH  17  18
ENDBRANCH   2  12
BRANCH   8  20
ATOM     20  O   UNL     1      11.537  70.904  -3.838  1.00  0.00    -0.507 OA
ATOM     21  H   UNL     1      11.689  71.901  -3.810  1.00  0.00     0.293 HD
ENDBRANCH   8  20
BRANCH   6  22
ATOM     22  O   UNL     1       8.903  66.965  -3.024  1.00  0.00    -0.508 OA
ATOM     23  H   UNL     1       8.421  66.326  -2.403  1.00  0.00     0.293 HD
ENDBRANCH   6  22
TORSDOF 4
ENDMDL
