MODEL 1
REMARK VINA RESULT:    -5.651      0.000      0.000
REMARK INTER + INTRA:          -7.709
REMARK INTER:                  -7.302
REMARK INTRA:                  -0.406
REMARK UNBOUND:                -0.406
REMARK SMILES CCO[C@H]1O[C@H](CO)[C@H](O)[C@H](O)[C@@H]1O
REMARK SMILES IDX 4 1 13 2 11 3 9 4 6 5 5 6 3 7 2 8 1 9 14 10 12 12 7 14 8 15
REMARK SMILES IDX 10 17
REMARK H PARENT 14 11 12 13 8 16 10 18
REMARK Flexibility Score: inf
ROOT
ATOM      1  C   UNL     1      34.350   2.018  44.050  1.00  0.00     0.281 C 
ATOM      2  C   UNL     1      35.709   1.966  44.774  1.00  0.00     0.202 C 
ATOM      3  C   UNL     1      36.104   3.370  45.272  1.00  0.00     0.179 C 
ATOM      4  C   UNL     1      35.988   4.403  44.133  1.00  0.00     0.177 C 
ATOM      5  C   UNL     1      34.587   4.290  43.491  1.00  0.00     0.178 C 
ATOM      6  O   UNL     1      34.366   2.977  42.999  1.00  0.00    -0.341 OA
ENDROOT
BRANCH   1   7
ATOM      7  O   UNL     1      33.315   2.282  44.985  1.00  0.00    -0.350 OA
BRANCH   7   8
ATOM      8  C   UNL     1      32.137   1.592  44.618  1.00  0.00     0.160 C 
ATOM      9  C   UNL     1      31.064   2.604  44.249  1.00  0.00     0.035 C 
ENDBRANCH   7   8
ENDBRANCH   1   7
BRANCH   2  10
ATOM     10  O   UNL     1      36.680   1.462  43.891  1.00  0.00    -0.385 OA
ATOM     11  H   UNL     1      37.518   1.966  44.061  1.00  0.00     0.211 HD
ENDBRANCH   2  10
BRANCH   3  12
ATOM     12  O   UNL     1      37.408   3.346  45.794  1.00  0.00    -0.387 OA
ATOM     13  H   UNL     1      37.844   2.529  45.435  1.00  0.00     0.211 HD
ENDBRANCH   3  12
BRANCH   5  14
ATOM     14  C   UNL     1      34.413   5.281  42.333  1.00  0.00     0.191 C 
BRANCH  14  15
ATOM     15  O   UNL     1      34.753   4.670  41.118  1.00  0.00    -0.394 OA
ATOM     16  H   UNL     1      35.744   4.619  41.104  1.00  0.00     0.210 HD
ENDBRANCH  14  15
ENDBRANCH   5  14
BRANCH   4  17
ATOM     17  O   UNL     1      36.980   4.178  43.162  1.00  0.00    -0.387 OA
ATOM     18  H   UNL     1      36.512   3.914  42.327  1.00  0.00     0.211 HD
ENDBRANCH   4  17
TORSDOF 7
ENDMDL
MODEL 2
REMARK VINA RESULT:    -5.402      1.676      3.506
REMARK INTER + INTRA:          -7.387
REMARK INTER:                  -6.983
REMARK INTRA:                  -0.404
REMARK UNBOUND:                -0.406
REMARK SMILES CCO[C@H]1O[C@H](CO)[C@H](O)[C@H](O)[C@@H]1O
REMARK SMILES IDX 4 1 13 2 11 3 9 4 6 5 5 6 3 7 2 8 1 9 14 10 12 12 7 14 8 15
REMARK SMILES IDX 10 17
REMARK H PARENT 14 11 12 13 8 16 10 18
REMARK Flexibility Score: inf
ROOT
ATOM      1  C   UNL     1      36.477   1.683  44.979  1.00  0.00     0.281 C 
ATOM      2  C   UNL     1      37.238   2.690  44.095  1.00  0.00     0.202 C 
ATOM      3  C   UNL     1      36.431   3.996  43.956  1.00  0.00     0.179 C 
ATOM      4  C   UNL     1      34.979   3.696  43.535  1.00  0.00     0.177 C 
ATOM      5  C   UNL     1      34.384   2.641  44.495  1.00  0.00     0.178 C 
ATOM      6  O   UNL     1      35.164   1.454  44.481  1.00  0.00    -0.341 OA
ENDROOT
BRANCH   1   7
ATOM      7  O   UNL     1      36.456   2.140  46.323  1.00  0.00    -0.350 OA
BRANCH   7   8
ATOM      8  C   UNL     1      37.470   1.501  47.072  1.00  0.00     0.160 C 
ATOM      9  C   UNL     1      37.524   0.032  46.683  1.00  0.00     0.035 C 
ENDBRANCH   7   8
ENDBRANCH   1   7
BRANCH   2  10
ATOM     10  O   UNL     1      37.466   2.112  42.834  1.00  0.00    -0.385 OA
ATOM     11  H   UNL     1      38.381   1.728  42.851  1.00  0.00     0.211 HD
ENDBRANCH   2  10
BRANCH   3  12
ATOM     12  O   UNL     1      37.054   4.848  43.030  1.00  0.00    -0.387 OA
ATOM     13  H   UNL     1      36.704   5.761  43.201  1.00  0.00     0.211 HD
ENDBRANCH   3  12
BRANCH   5  14
ATOM     14  C   UNL     1      32.941   2.281  44.118  1.00  0.00     0.191 C 
BRANCH  14  15
ATOM     15  O   UNL     1      32.929   1.438  42.998  1.00  0.00    -0.394 OA
ATOM     16  H   UNL     1      32.295   1.846  42.354  1.00  0.00     0.210 HD
ENDBRANCH  14  15
ENDBRANCH   5  14
BRANCH   4  17
ATOM     17  O   UNL     1      34.938   3.218  42.213  1.00  0.00    -0.387 OA
ATOM     18  H   UNL     1      35.368   3.908  41.643  1.00  0.00     0.211 HD
ENDBRANCH   4  17
TORSDOF 7
ENDMDL
MODEL 3
REMARK VINA RESULT:    -5.308      2.553      4.802
REMARK INTER + INTRA:          -7.266
REMARK INTER:                  -6.841
REMARK INTRA:                  -0.424
REMARK UNBOUND:                -0.406
REMARK SMILES CCO[C@H]1O[C@H](CO)[C@H](O)[C@H](O)[C@@H]1O
REMARK SMILES IDX 4 1 13 2 11 3 9 4 6 5 5 6 3 7 2 8 1 9 14 10 12 12 7 14 8 15
REMARK SMILES IDX 10 17
REMARK H PARENT 14 11 12 13 8 16 10 18
REMARK Flexibility Score: inf
ROOT
ATOM      1  C   UNL     1      36.241   1.945  44.877  1.00  0.00     0.281 C 
ATOM      2  C   UNL     1      37.301   2.406  45.897  1.00  0.00     0.202 C 
ATOM      3  C   UNL     1      38.584   1.566  45.753  1.00  0.00     0.179 C 
ATOM      4  C   UNL     1      38.252   0.060  45.764  1.00  0.00     0.177 C 
ATOM      5  C   UNL     1      37.149  -0.220  44.720  1.00  0.00     0.178 C 
ATOM      6  O   UNL     1      35.988   0.550  44.998  1.00  0.00    -0.341 OA
ENDROOT
BRANCH   1   7
ATOM      7  O   UNL     1      36.654   2.291  43.564  1.00  0.00    -0.350 OA
BRANCH   7   8
ATOM      8  C   UNL     1      36.455   3.672  43.338  1.00  0.00     0.160 C 
ATOM      9  C   UNL     1      34.997   3.913  42.982  1.00  0.00     0.035 C 
ENDBRANCH   7   8
ENDBRANCH   1   7
BRANCH   2  10
ATOM     10  O   UNL     1      36.772   2.285  47.194  1.00  0.00    -0.385 OA
ATOM     11  H   UNL     1      36.553   1.327  47.331  1.00  0.00     0.211 HD
ENDBRANCH   2  10
BRANCH   3  12
ATOM     12  O   UNL     1      39.486   1.886  46.781  1.00  0.00    -0.387 OA
ATOM     13  H   UNL     1      39.197   2.760  47.153  1.00  0.00     0.211 HD
ENDBRANCH   3  12
BRANCH   5  14
ATOM     14  C   UNL     1      36.755  -1.702  44.694  1.00  0.00     0.191 C 
BRANCH  14  15
ATOM     15  O   UNL     1      35.784  -1.963  45.671  1.00  0.00    -0.394 OA
ATOM     16  H   UNL     1      35.091  -1.261  45.565  1.00  0.00     0.210 HD
ENDBRANCH  14  15
ENDBRANCH   5  14
BRANCH   4  17
ATOM     17  O   UNL     1      37.817  -0.339  47.040  1.00  0.00    -0.387 OA
ATOM     18  H   UNL     1      38.543  -0.889  47.435  1.00  0.00     0.211 HD
ENDBRANCH   4  17
TORSDOF 7
ENDMDL
MODEL 4
REMARK VINA RESULT:    -5.299      1.517      3.454
REMARK INTER + INTRA:          -7.255
REMARK INTER:                  -6.834
REMARK INTRA:                  -0.420
REMARK UNBOUND:                -0.406
REMARK SMILES CCO[C@H]1O[C@H](CO)[C@H](O)[C@H](O)[C@@H]1O
REMARK SMILES IDX 4 1 13 2 11 3 9 4 6 5 5 6 3 7 2 8 1 9 14 10 12 12 7 14 8 15
REMARK SMILES IDX 10 17
REMARK H PARENT 14 11 12 13 8 16 10 18
REMARK Flexibility Score: inf
ROOT
ATOM      1  C   UNL     1      34.438   2.979  44.618  1.00  0.00     0.281 C 
ATOM      2  C   UNL     1      35.089   4.177  43.899  1.00  0.00     0.202 C 
ATOM      3  C   UNL     1      36.520   3.820  43.452  1.00  0.00     0.179 C 
ATOM      4  C   UNL     1      37.323   3.223  44.626  1.00  0.00     0.177 C 
ATOM      5  C   UNL     1      36.512   2.070  45.256  1.00  0.00     0.178 C 
ATOM      6  O   UNL     1      35.245   2.533  45.702  1.00  0.00    -0.341 OA
ENDROOT
BRANCH   1   7
ATOM      7  O   UNL     1      34.186   1.938  43.688  1.00  0.00    -0.350 OA
BRANCH   7   8
ATOM      8  C   UNL     1      33.012   1.237  44.045  1.00  0.00     0.160 C 
ATOM      9  C   UNL     1      31.913   2.238  44.364  1.00  0.00     0.035 C 
ENDBRANCH   7   8
ENDBRANCH   1   7
BRANCH   2  10
ATOM     10  O   UNL     1      35.103   5.282  44.769  1.00  0.00    -0.385 OA
ATOM     11  H   UNL     1      34.788   6.066  44.249  1.00  0.00     0.211 HD
ENDBRANCH   2  10
BRANCH   3  12
ATOM     12  O   UNL     1      37.161   4.958  42.936  1.00  0.00    -0.387 OA
ATOM     13  H   UNL     1      36.796   5.739  43.429  1.00  0.00     0.211 HD
ENDBRANCH   3  12
BRANCH   5  14
ATOM     14  C   UNL     1      37.248   1.443  46.447  1.00  0.00     0.191 C 
BRANCH  14  15
ATOM     15  O   UNL     1      37.051   2.217  47.600  1.00  0.00    -0.394 OA
ATOM     16  H   UNL     1      36.314   1.782  48.101  1.00  0.00     0.210 HD
ENDBRANCH  14  15
ENDBRANCH   5  14
BRANCH   4  17
ATOM     17  O   UNL     1      37.587   4.209  45.593  1.00  0.00    -0.387 OA
ATOM     18  H   UNL     1      36.735   4.692  45.754  1.00  0.00     0.211 HD
ENDBRANCH   4  17
TORSDOF 7
ENDMDL
MODEL 5
REMARK VINA RESULT:    -5.293      1.989      4.556
REMARK INTER + INTRA:          -7.247
REMARK INTER:                  -7.119
REMARK INTRA:                  -0.127
REMARK UNBOUND:                -0.406
REMARK SMILES CCO[C@H]1O[C@H](CO)[C@H](O)[C@H](O)[C@@H]1O
REMARK SMILES IDX 4 1 13 2 11 3 9 4 6 5 5 6 3 7 2 8 1 9 14 10 12 12 7 14 8 15
REMARK SMILES IDX 10 17
REMARK H PARENT 14 11 12 13 8 16 10 18
REMARK Flexibility Score: inf
ROOT
ATOM      1  C   UNL     1      35.847   4.938  44.310  1.00  0.00     0.281 C 
ATOM      2  C   UNL     1      34.728   4.388  43.404  1.00  0.00     0.202 C 
ATOM      3  C   UNL     1      33.912   3.317  44.153  1.00  0.00     0.179 C 
ATOM      4  C   UNL     1      34.845   2.263  44.782  1.00  0.00     0.177 C 
ATOM      5  C   UNL     1      35.927   2.984  45.617  1.00  0.00     0.178 C 
ATOM      6  O   UNL     1      36.667   3.886  44.807  1.00  0.00    -0.341 OA
ENDROOT
BRANCH   1   7
ATOM      7  O   UNL     1      35.283   5.705  45.362  1.00  0.00    -0.350 OA
BRANCH   7   8
ATOM      8  C   UNL     1      35.766   7.032  45.313  1.00  0.00     0.160 C 
ATOM      9  C   UNL     1      35.277   7.785  46.541  1.00  0.00     0.035 C 
ENDBRANCH   7   8
ENDBRANCH   1   7
BRANCH   2  10
ATOM     10  O   UNL     1      35.304   3.849  42.240  1.00  0.00    -0.385 OA
ATOM     11  H   UNL     1      35.251   2.862  42.320  1.00  0.00     0.211 HD
ENDBRANCH   2  10
BRANCH   3  12
ATOM     12  O   UNL     1      32.995   2.713  43.277  1.00  0.00    -0.387 OA
ATOM     13  H   UNL     1      33.494   2.017  42.776  1.00  0.00     0.211 HD
ENDBRANCH   3  12
BRANCH   5  14
ATOM     14  C   UNL     1      36.905   1.990  46.257  1.00  0.00     0.191 C 
BRANCH  14  15
ATOM     15  O   UNL     1      37.004   2.227  47.635  1.00  0.00    -0.394 OA
ATOM     16  H   UNL     1      36.730   1.383  48.079  1.00  0.00     0.210 HD
ENDBRANCH  14  15
ENDBRANCH   5  14
BRANCH   4  17
ATOM     17  O   UNL     1      35.451   1.483  43.782  1.00  0.00    -0.387 OA
ATOM     18  H   UNL     1      35.898   2.110  43.157  1.00  0.00     0.211 HD
ENDBRANCH   4  17
TORSDOF 7
ENDMDL
MODEL 6
REMARK VINA RESULT:    -5.288      3.125      4.844
REMARK INTER + INTRA:          -7.240
REMARK INTER:                  -6.828
REMARK INTRA:                  -0.412
REMARK UNBOUND:                -0.406
REMARK SMILES CCO[C@H]1O[C@H](CO)[C@H](O)[C@H](O)[C@@H]1O
REMARK SMILES IDX 4 1 13 2 11 3 9 4 6 5 5 6 3 7 2 8 1 9 14 10 12 12 7 14 8 15
REMARK SMILES IDX 10 17
REMARK H PARENT 14 11 12 13 8 16 10 18
REMARK Flexibility Score: inf
ROOT
ATOM      1  C   UNL     1      36.278   5.106  44.931  1.00  0.00     0.281 C 
ATOM      2  C   UNL     1      35.659   6.517  44.960  1.00  0.00     0.202 C 
ATOM      3  C   UNL     1      36.447   7.467  44.037  1.00  0.00     0.179 C 
ATOM      4  C   UNL     1      37.957   7.390  44.340  1.00  0.00     0.177 C 
ATOM      5  C   UNL     1      38.401   5.910  44.313  1.00  0.00     0.178 C 
ATOM      6  O   UNL     1      37.663   5.148  45.257  1.00  0.00    -0.341 OA
ENDROOT
BRANCH   1   7
ATOM      7  O   UNL     1      36.056   4.509  43.663  1.00  0.00    -0.350 OA
BRANCH   7   8
ATOM      8  C   UNL     1      34.788   3.886  43.632  1.00  0.00     0.160 C 
ATOM      9  C   UNL     1      34.662   2.956  44.829  1.00  0.00     0.035 C 
ENDBRANCH   7   8
ENDBRANCH   1   7
BRANCH   2  10
ATOM     10  O   UNL     1      35.665   6.993  46.283  1.00  0.00    -0.385 OA
ATOM     11  H   UNL     1      35.137   6.351  46.826  1.00  0.00     0.211 HD
ENDBRANCH   2  10
BRANCH   3  12
ATOM     12  O   UNL     1      35.974   8.781  44.185  1.00  0.00    -0.387 OA
ATOM     13  H   UNL     1      36.128   9.240  43.318  1.00  0.00     0.211 HD
ENDBRANCH   3  12
BRANCH   5  14
ATOM     14  C   UNL     1      39.895   5.761  44.627  1.00  0.00     0.191 C 
BRANCH  14  15
ATOM     15  O   UNL     1      40.120   5.930  46.000  1.00  0.00    -0.394 OA
ATOM     16  H   UNL     1      40.542   6.822  46.102  1.00  0.00     0.210 HD
ENDBRANCH  14  15
ENDBRANCH   5  14
BRANCH   4  17
ATOM     17  O   UNL     1      38.236   7.952  45.598  1.00  0.00    -0.387 OA
ATOM     18  H   UNL     1      38.464   7.201  46.206  1.00  0.00     0.211 HD
ENDBRANCH   4  17
TORSDOF 7
ENDMDL
MODEL 7
REMARK VINA RESULT:    -5.250      3.165      4.520
REMARK INTER + INTRA:          -7.190
REMARK INTER:                  -6.851
REMARK INTRA:                  -0.339
REMARK UNBOUND:                -0.406
REMARK SMILES CCO[C@H]1O[C@H](CO)[C@H](O)[C@H](O)[C@@H]1O
REMARK SMILES IDX 4 1 13 2 11 3 9 4 6 5 5 6 3 7 2 8 1 9 14 10 12 12 7 14 8 15
REMARK SMILES IDX 10 17
REMARK H PARENT 14 11 12 13 8 16 10 18
REMARK Flexibility Score: inf
ROOT
ATOM      1  C   UNL     1      35.565   5.271  44.419  1.00  0.00     0.281 C 
ATOM      2  C   UNL     1      36.747   5.429  43.443  1.00  0.00     0.202 C 
ATOM      3  C   UNL     1      37.884   6.231  44.105  1.00  0.00     0.179 C 
ATOM      4  C   UNL     1      37.342   7.536  44.720  1.00  0.00     0.177 C 
ATOM      5  C   UNL     1      36.140   7.202  45.632  1.00  0.00     0.178 C 
ATOM      6  O   UNL     1      35.123   6.536  44.898  1.00  0.00    -0.341 OA
ENDROOT
BRANCH   1   7
ATOM      7  O   UNL     1      35.931   4.406  45.483  1.00  0.00    -0.350 OA
BRANCH   7   8
ATOM      8  C   UNL     1      35.467   3.095  45.228  1.00  0.00     0.160 C 
ATOM      9  C   UNL     1      36.516   2.098  45.696  1.00  0.00     0.035 C 
ENDBRANCH   7   8
ENDBRANCH   1   7
BRANCH   2  10
ATOM     10  O   UNL     1      36.297   6.076  42.278  1.00  0.00    -0.385 OA
ATOM     11  H   UNL     1      35.306   6.097  42.322  1.00  0.00     0.211 HD
ENDBRANCH   2  10
BRANCH   3  12
ATOM     12  O   UNL     1      38.891   6.502  43.165  1.00  0.00    -0.387 OA
ATOM     13  H   UNL     1      39.672   5.942  43.412  1.00  0.00     0.211 HD
ENDBRANCH   3  12
BRANCH   5  14
ATOM     14  C   UNL     1      35.538   8.464  46.263  1.00  0.00     0.191 C 
BRANCH  14  15
ATOM     15  O   UNL     1      36.558   9.308  46.726  1.00  0.00    -0.394 OA
ATOM     16  H   UNL     1      36.379   9.451  47.692  1.00  0.00     0.210 HD
ENDBRANCH  14  15
ENDBRANCH   5  14
BRANCH   4  17
ATOM     17  O   UNL     1      36.943   8.429  43.710  1.00  0.00    -0.387 OA
ATOM     18  H   UNL     1      37.493   8.223  42.909  1.00  0.00     0.211 HD
ENDBRANCH   4  17
TORSDOF 7
ENDMDL
MODEL 8
REMARK VINA RESULT:    -5.067      2.606      4.967
REMARK INTER + INTRA:          -6.955
REMARK INTER:                  -6.557
REMARK INTRA:                  -0.397
REMARK UNBOUND:                -0.406
REMARK SMILES CCO[C@H]1O[C@H](CO)[C@H](O)[C@H](O)[C@@H]1O
REMARK SMILES IDX 4 1 13 2 11 3 9 4 6 5 5 6 3 7 2 8 1 9 14 10 12 12 7 14 8 15
REMARK SMILES IDX 10 17
REMARK H PARENT 14 11 12 13 8 16 10 18
REMARK Flexibility Score: inf
ROOT
ATOM      1  C   UNL     1      38.373   5.056  43.559  1.00  0.00     0.281 C 
ATOM      2  C   UNL     1      38.134   6.565  43.361  1.00  0.00     0.202 C 
ATOM      3  C   UNL     1      36.907   7.023  44.171  1.00  0.00     0.179 C 
ATOM      4  C   UNL     1      35.697   6.109  43.890  1.00  0.00     0.177 C 
ATOM      5  C   UNL     1      36.121   4.637  44.093  1.00  0.00     0.178 C 
ATOM      6  O   UNL     1      37.207   4.306  43.240  1.00  0.00    -0.341 OA
ENDROOT
BRANCH   1   7
ATOM      7  O   UNL     1      38.809   4.807  44.887  1.00  0.00    -0.350 OA
BRANCH   7   8
ATOM      8  C   UNL     1      39.998   4.043  44.876  1.00  0.00     0.160 C 
ATOM      9  C   UNL     1      39.667   2.604  45.242  1.00  0.00     0.035 C 
ENDBRANCH   7   8
ENDBRANCH   1   7
BRANCH   2  10
ATOM     10  O   UNL     1      37.949   6.824  41.991  1.00  0.00    -0.385 OA
ATOM     11  H   UNL     1      38.808   7.178  41.643  1.00  0.00     0.211 HD
ENDBRANCH   2  10
BRANCH   3  12
ATOM     12  O   UNL     1      36.603   8.361  43.868  1.00  0.00    -0.387 OA
ATOM     13  H   UNL     1      35.958   8.671  44.556  1.00  0.00     0.211 HD
ENDBRANCH   3  12
BRANCH   5  14
ATOM     14  C   UNL     1      34.965   3.670  43.808  1.00  0.00     0.191 C 
BRANCH  14  15
ATOM     15  O   UNL     1      34.988   3.270  42.465  1.00  0.00    -0.394 OA
ATOM     16  H   UNL     1      35.578   3.915  41.996  1.00  0.00     0.210 HD
ENDBRANCH  14  15
ENDBRANCH   5  14
BRANCH   4  17
ATOM     17  O   UNL     1      35.232   6.298  42.577  1.00  0.00    -0.387 OA
ATOM     18  H   UNL     1      35.981   6.694  42.059  1.00  0.00     0.211 HD
ENDBRANCH   4  17
TORSDOF 7
ENDMDL
MODEL 9
REMARK VINA RESULT:    -4.998      2.385      3.145
REMARK INTER + INTRA:          -6.865
REMARK INTER:                  -6.435
REMARK INTRA:                  -0.430
REMARK UNBOUND:                -0.406
REMARK SMILES CCO[C@H]1O[C@H](CO)[C@H](O)[C@H](O)[C@@H]1O
REMARK SMILES IDX 4 1 13 2 11 3 9 4 6 5 5 6 3 7 2 8 1 9 14 10 12 12 7 14 8 15
REMARK SMILES IDX 10 17
REMARK H PARENT 14 11 12 13 8 16 10 18
REMARK Flexibility Score: inf
ROOT
ATOM      1  C   UNL     1      36.927   3.275  44.346  1.00  0.00     0.281 C 
ATOM      2  C   UNL     1      38.026   4.317  44.629  1.00  0.00     0.202 C 
ATOM      3  C   UNL     1      37.398   5.702  44.880  1.00  0.00     0.179 C 
ATOM      4  C   UNL     1      36.406   6.061  43.755  1.00  0.00     0.177 C 
ATOM      5  C   UNL     1      35.407   4.896  43.575  1.00  0.00     0.178 C 
ATOM      6  O   UNL     1      36.092   3.690  43.271  1.00  0.00    -0.341 OA
ENDROOT
BRANCH   1   7
ATOM      7  O   UNL     1      36.178   3.030  45.527  1.00  0.00    -0.350 OA
BRANCH   7   8
ATOM      8  C   UNL     1      36.798   2.021  46.298  1.00  0.00     0.160 C 
ATOM      9  C   UNL     1      36.945   0.767  45.450  1.00  0.00     0.035 C 
ENDBRANCH   7   8
ENDBRANCH   1   7
BRANCH   2  10
ATOM     10  O   UNL     1      38.908   4.363  43.535  1.00  0.00    -0.385 OA
ATOM     11  H   UNL     1      39.740   4.802  43.850  1.00  0.00     0.211 HD
ENDBRANCH   2  10
BRANCH   3  12
ATOM     12  O   UNL     1      38.406   6.674  44.986  1.00  0.00    -0.387 OA
ATOM     13  H   UNL     1      38.894   6.489  45.830  1.00  0.00     0.211 HD
ENDBRANCH   3  12
BRANCH   5  14
ATOM     14  C   UNL     1      34.400   5.181  42.453  1.00  0.00     0.191 C 
BRANCH  14  15
ATOM     15  O   UNL     1      34.878   4.679  41.234  1.00  0.00    -0.394 OA
ATOM     16  H   UNL     1      34.076   4.485  40.683  1.00  0.00     0.210 HD
ENDBRANCH  14  15
ENDBRANCH   5  14
BRANCH   4  17
ATOM     17  O   UNL     1      37.091   6.295  42.551  1.00  0.00    -0.387 OA
ATOM     18  H   UNL     1      36.802   5.593  41.911  1.00  0.00     0.211 HD
ENDBRANCH   4  17
TORSDOF 7
ENDMDL
