MODEL 1
REMARK VINA RESULT:    -5.857      0.000      0.000
REMARK INTER + INTRA:          -6.371
REMARK INTER:                  -6.371
REMARK INTRA:                   0.000
REMARK UNBOUND:                 0.000
REMARK SMILES Cc1cc(O)c2c(c1)C(=O)c1cc(O)cc(O)c1C2=O
REMARK SMILES IDX 1 1 2 2 8 3 7 4 6 5 4 6 3 7 19 8 20 9 18 10 11 11 9 12 10 13
REMARK SMILES IDX 12 14 13 15 15 16 16 17 5 18 17 20 14 22
REMARK H PARENT 5 19 17 21 14 23
REMARK Flexibility Score: inf
ROOT
ATOM      1  C   UNL     1     160.683  -1.930  25.324  1.00  0.00     0.044 C 
ATOM      2  C   UNL     1     159.899  -3.208  25.265  1.00  0.00    -0.047 A 
ATOM      3  C   UNL     1     158.626  -3.280  25.839  1.00  0.00     0.016 A 
ATOM      4  C   UNL     1     157.895  -4.480  25.814  1.00  0.00     0.038 A 
ATOM      5  C   UNL     1     158.449  -5.628  25.203  1.00  0.00     0.076 A 
ATOM      6  C   UNL     1     159.774  -5.571  24.699  1.00  0.00     0.127 A 
ATOM      7  C   UNL     1     160.472  -4.360  24.717  1.00  0.00     0.050 A 
ATOM      8  C   UNL     1     157.591  -6.833  25.064  1.00  0.00     0.201 C 
ATOM      9  O   UNL     1     157.769  -7.620  24.097  1.00  0.00    -0.288 OA
ATOM     10  C   UNL     1     156.413  -7.006  25.952  1.00  0.00     0.076 A 
ATOM     11  C   UNL     1     155.862  -5.857  26.562  1.00  0.00     0.041 A 
ATOM     12  C   UNL     1     156.549  -4.550  26.431  1.00  0.00     0.194 C 
ATOM     13  O   UNL     1     155.999  -3.500  26.866  1.00  0.00    -0.289 OA
ATOM     14  C   UNL     1     154.668  -5.958  27.297  1.00  0.00     0.059 A 
ATOM     15  C   UNL     1     154.027  -7.192  27.441  1.00  0.00     0.120 A 
ATOM     16  C   UNL     1     154.590  -8.336  26.874  1.00  0.00     0.093 A 
ATOM     17  C   UNL     1     155.787  -8.264  26.155  1.00  0.00     0.131 A 
ENDROOT
BRANCH   6  18
ATOM     18  O   UNL     1     160.442  -6.694  24.207  1.00  0.00    -0.507 OA
ATOM     19  H   UNL     1     161.144  -6.653  23.482  1.00  0.00     0.293 HD
ENDBRANCH   6  18
BRANCH  17  20
ATOM     20  O   UNL     1     156.335  -9.464  25.695  1.00  0.00    -0.507 OA
ATOM     21  H   UNL     1     156.793  -9.562  24.800  1.00  0.00     0.293 HD
ENDBRANCH  17  20
BRANCH  15  22
ATOM     22  O   UNL     1     152.838  -7.296  28.158  1.00  0.00    -0.508 OA
ATOM     23  H   UNL     1     152.413  -6.488  28.600  1.00  0.00     0.293 HD
ENDBRANCH  15  22
TORSDOF 3
ENDMDL
MODEL 2
REMARK VINA RESULT:    -5.573      3.982      7.061
REMARK INTER + INTRA:          -6.062
REMARK INTER:                  -6.062
REMARK INTRA:                   0.000
REMARK UNBOUND:                 0.000
REMARK SMILES Cc1cc(O)c2c(c1)C(=O)c1cc(O)cc(O)c1C2=O
REMARK SMILES IDX 1 1 2 2 8 3 7 4 6 5 4 6 3 7 19 8 20 9 18 10 11 11 9 12 10 13
REMARK SMILES IDX 12 14 13 15 15 16 16 17 5 18 17 20 14 22
REMARK H PARENT 5 19 17 21 14 23
REMARK Flexibility Score: inf
ROOT
ATOM      1  C   UNL     1     151.882  -9.615  19.266  1.00  0.00     0.044 C 
ATOM      2  C   UNL     1     152.663  -9.394  20.529  1.00  0.00    -0.047 A 
ATOM      3  C   UNL     1     153.848  -8.651  20.502  1.00  0.00     0.016 A 
ATOM      4  C   UNL     1     154.601  -8.462  21.673  1.00  0.00     0.038 A 
ATOM      5  C   UNL     1     154.161  -9.028  22.891  1.00  0.00     0.076 A 
ATOM      6  C   UNL     1     153.006  -9.850  22.894  1.00  0.00     0.127 A 
ATOM      7  C   UNL     1     152.261 -10.006  21.720  1.00  0.00     0.050 A 
ATOM      8  C   UNL     1     154.901  -8.684  24.133  1.00  0.00     0.201 C 
ATOM      9  O   UNL     1     154.293  -8.651  25.235  1.00  0.00    -0.288 OA
ATOM     10  C   UNL     1     156.303  -8.199  24.047  1.00  0.00     0.076 A 
ATOM     11  C   UNL     1     156.740  -7.636  22.826  1.00  0.00     0.041 A 
ATOM     12  C   UNL     1     155.860  -7.679  21.635  1.00  0.00     0.194 C 
ATOM     13  O   UNL     1     156.192  -7.070  20.581  1.00  0.00    -0.289 OA
ATOM     14  C   UNL     1     158.012  -7.043  22.745  1.00  0.00     0.059 A 
ATOM     15  C   UNL     1     158.854  -7.018  23.861  1.00  0.00     0.120 A 
ATOM     16  C   UNL     1     158.442  -7.608  25.055  1.00  0.00     0.093 A 
ATOM     17  C   UNL     1     157.189  -8.223  25.155  1.00  0.00     0.131 A 
ENDROOT
BRANCH   6  18
ATOM     18  O   UNL     1     152.584 -10.555  24.023  1.00  0.00    -0.507 OA
ATOM     19  H   UNL     1     152.219 -11.496  23.991  1.00  0.00     0.293 HD
ENDBRANCH   6  18
BRANCH  17  20
ATOM     20  O   UNL     1     156.884  -8.871  26.353  1.00  0.00    -0.507 OA
ATOM     21  H   UNL     1     156.070  -9.457  26.480  1.00  0.00     0.293 HD
ENDBRANCH  17  20
BRANCH  15  22
ATOM     22  O   UNL     1     160.111  -6.420  23.789  1.00  0.00    -0.508 OA
ATOM     23  H   UNL     1     160.365  -5.646  24.390  1.00  0.00     0.293 HD
ENDBRANCH  15  22
TORSDOF 3
ENDMDL
MODEL 3
REMARK VINA RESULT:    -5.478      1.575      3.549
REMARK INTER + INTRA:          -5.958
REMARK INTER:                  -5.958
REMARK INTRA:                   0.000
REMARK UNBOUND:                 0.000
REMARK SMILES Cc1cc(O)c2c(c1)C(=O)c1cc(O)cc(O)c1C2=O
REMARK SMILES IDX 1 1 2 2 8 3 7 4 6 5 4 6 3 7 19 8 20 9 18 10 11 11 9 12 10 13
REMARK SMILES IDX 12 14 13 15 15 16 16 17 5 18 17 20 14 22
REMARK H PARENT 5 19 17 21 14 23
REMARK Flexibility Score: inf
ROOT
ATOM      1  C   UNL     1     160.691  -7.520  22.953  1.00  0.00     0.044 C 
ATOM      2  C   UNL     1     159.780  -6.732  23.849  1.00  0.00    -0.047 A 
ATOM      3  C   UNL     1     158.574  -7.286  24.291  1.00  0.00     0.016 A 
ATOM      4  C   UNL     1     157.702  -6.546  25.107  1.00  0.00     0.038 A 
ATOM      5  C   UNL     1     158.043  -5.229  25.487  1.00  0.00     0.076 A 
ATOM      6  C   UNL     1     159.225  -4.643  24.966  1.00  0.00     0.127 A 
ATOM      7  C   UNL     1     160.088  -5.406  24.173  1.00  0.00     0.050 A 
ATOM      8  C   UNL     1     157.171  -4.532  26.468  1.00  0.00     0.201 C 
ATOM      9  O   UNL     1     157.665  -3.678  27.249  1.00  0.00    -0.288 OA
ATOM     10  C   UNL     1     155.766  -4.978  26.652  1.00  0.00     0.076 A 
ATOM     11  C   UNL     1     155.428  -6.296  26.270  1.00  0.00     0.041 A 
ATOM     12  C   UNL     1     156.422  -7.138  25.565  1.00  0.00     0.194 C 
ATOM     13  O   UNL     1     156.171  -8.354  25.333  1.00  0.00    -0.289 OA
ATOM     14  C   UNL     1     154.147  -6.801  26.553  1.00  0.00     0.059 A 
ATOM     15  C   UNL     1     153.198  -6.003  27.200  1.00  0.00     0.120 A 
ATOM     16  C   UNL     1     153.515  -4.689  27.543  1.00  0.00     0.093 A 
ATOM     17  C   UNL     1     154.776  -4.157  27.253  1.00  0.00     0.131 A 
ENDROOT
BRANCH   6  18
ATOM     18  O   UNL     1     159.562  -3.305  25.182  1.00  0.00    -0.507 OA
ATOM     19  H   UNL     1     159.613  -2.616  24.444  1.00  0.00     0.293 HD
ENDBRANCH   6  18
BRANCH  17  20
ATOM     20  O   UNL     1     154.988  -2.808  27.545  1.00  0.00    -0.507 OA
ATOM     21  H   UNL     1     154.303  -2.220  27.997  1.00  0.00     0.293 HD
ENDBRANCH  17  20
BRANCH  15  22
ATOM     22  O   UNL     1     151.932  -6.503  27.494  1.00  0.00    -0.508 OA
ATOM     23  H   UNL     1     151.097  -6.114  27.072  1.00  0.00     0.293 HD
ENDBRANCH  15  22
TORSDOF 3
ENDMDL
MODEL 4
REMARK VINA RESULT:    -5.422      3.261      6.947
REMARK INTER + INTRA:          -5.898
REMARK INTER:                  -5.898
REMARK INTRA:                   0.000
REMARK UNBOUND:                 0.000
REMARK SMILES Cc1cc(O)c2c(c1)C(=O)c1cc(O)cc(O)c1C2=O
REMARK SMILES IDX 1 1 2 2 8 3 7 4 6 5 4 6 3 7 19 8 20 9 18 10 11 11 9 12 10 13
REMARK SMILES IDX 12 14 13 15 15 16 16 17 5 18 17 20 14 22
REMARK H PARENT 5 19 17 21 14 23
REMARK Flexibility Score: inf
ROOT
ATOM      1  C   UNL     1     152.495  -9.356  23.252  1.00  0.00     0.044 C 
ATOM      2  C   UNL     1     153.900  -8.862  23.438  1.00  0.00    -0.047 A 
ATOM      3  C   UNL     1     154.604  -8.318  22.358  1.00  0.00     0.016 A 
ATOM      4  C   UNL     1     155.929  -7.878  22.516  1.00  0.00     0.038 A 
ATOM      5  C   UNL     1     156.560  -7.986  23.775  1.00  0.00     0.076 A 
ATOM      6  C   UNL     1     155.871  -8.616  24.843  1.00  0.00     0.127 A 
ATOM      7  C   UNL     1     154.546  -9.026  24.668  1.00  0.00     0.050 A 
ATOM      8  C   UNL     1     157.906  -7.377  23.941  1.00  0.00     0.201 C 
ATOM      9  O   UNL     1     158.258  -6.934  25.066  1.00  0.00    -0.288 OA
ATOM     10  C   UNL     1     158.753  -7.123  22.747  1.00  0.00     0.076 A 
ATOM     11  C   UNL     1     158.118  -7.018  21.489  1.00  0.00     0.041 A 
ATOM     12  C   UNL     1     156.671  -7.309  21.365  1.00  0.00     0.194 C 
ATOM     13  O   UNL     1     156.074  -7.097  20.273  1.00  0.00    -0.289 OA
ATOM     14  C   UNL     1     158.864  -6.643  20.358  1.00  0.00     0.059 A 
ATOM     15  C   UNL     1     160.234  -6.386  20.466  1.00  0.00     0.120 A 
ATOM     16  C   UNL     1     160.871  -6.528  21.699  1.00  0.00     0.093 A 
ATOM     17  C   UNL     1     160.155  -6.920  22.834  1.00  0.00     0.131 A 
ENDROOT
BRANCH   6  18
ATOM     18  O   UNL     1     156.472  -8.885  26.075  1.00  0.00    -0.507 OA
ATOM     19  H   UNL     1     156.218  -9.668  26.661  1.00  0.00     0.293 HD
ENDBRANCH   6  18
BRANCH  17  20
ATOM     20  O   UNL     1     160.877  -7.129  24.011  1.00  0.00    -0.507 OA
ATOM     21  H   UNL     1     161.803  -7.534  24.034  1.00  0.00     0.293 HD
ENDBRANCH  17  20
BRANCH  15  22
ATOM     22  O   UNL     1     160.975  -6.002  19.350  1.00  0.00    -0.508 OA
ATOM     23  H   UNL     1     161.987  -6.049  19.344  1.00  0.00     0.293 HD
ENDBRANCH  15  22
TORSDOF 3
ENDMDL
MODEL 5
REMARK VINA RESULT:    -5.232      3.102      6.297
REMARK INTER + INTRA:          -5.691
REMARK INTER:                  -5.691
REMARK INTRA:                   0.000
REMARK UNBOUND:                 0.000
REMARK SMILES Cc1cc(O)c2c(c1)C(=O)c1cc(O)cc(O)c1C2=O
REMARK SMILES IDX 1 1 2 2 8 3 7 4 6 5 4 6 3 7 19 8 20 9 18 10 11 11 9 12 10 13
REMARK SMILES IDX 12 14 13 15 15 16 16 17 5 18 17 20 14 22
REMARK H PARENT 5 19 17 21 14 23
REMARK Flexibility Score: inf
ROOT
ATOM      1  C   UNL     1     153.833  -6.397  27.216  1.00  0.00     0.044 C 
ATOM      2  C   UNL     1     154.479  -6.612  25.878  1.00  0.00    -0.047 A 
ATOM      3  C   UNL     1     155.861  -6.802  25.786  1.00  0.00     0.016 A 
ATOM      4  C   UNL     1     156.478  -6.976  24.535  1.00  0.00     0.038 A 
ATOM      5  C   UNL     1     155.698  -6.958  23.358  1.00  0.00     0.076 A 
ATOM      6  C   UNL     1     154.310  -6.680  23.452  1.00  0.00     0.127 A 
ATOM      7  C   UNL     1     153.715  -6.531  24.708  1.00  0.00     0.050 A 
ATOM      8  C   UNL     1     156.361  -7.293  22.070  1.00  0.00     0.201 C 
ATOM      9  O   UNL     1     155.699  -7.839  21.149  1.00  0.00    -0.288 OA
ATOM     10  C   UNL     1     157.834  -7.154  21.942  1.00  0.00     0.076 A 
ATOM     11  C   UNL     1     158.612  -7.170  23.122  1.00  0.00     0.041 A 
ATOM     12  C   UNL     1     157.945  -7.170  24.445  1.00  0.00     0.194 C 
ATOM     13  O   UNL     1     158.629  -7.311  25.498  1.00  0.00    -0.289 OA
ATOM     14  C   UNL     1     160.015  -7.181  23.036  1.00  0.00     0.059 A 
ATOM     15  C   UNL     1     160.648  -7.160  21.790  1.00  0.00     0.120 A 
ATOM     16  C   UNL     1     159.885  -7.104  20.624  1.00  0.00     0.093 A 
ATOM     17  C   UNL     1     158.487  -7.072  20.684  1.00  0.00     0.131 A 
ENDROOT
BRANCH   6  18
ATOM     18  O   UNL     1     153.497  -6.509  22.329  1.00  0.00    -0.507 OA
ATOM     19  H   UNL     1     153.378  -7.211  21.613  1.00  0.00     0.293 HD
ENDBRANCH   6  18
BRANCH  17  20
ATOM     20  O   UNL     1     157.795  -6.924  19.481  1.00  0.00    -0.507 OA
ATOM     21  H   UNL     1     157.373  -7.694  18.980  1.00  0.00     0.293 HD
ENDBRANCH  17  20
BRANCH  15  22
ATOM     22  O   UNL     1     162.039  -7.182  21.699  1.00  0.00    -0.508 OA
ATOM     23  H   UNL     1     162.540  -6.545  21.092  1.00  0.00     0.293 HD
ENDBRANCH  15  22
TORSDOF 3
ENDMDL
MODEL 6
REMARK VINA RESULT:    -5.050      3.072      4.096
REMARK INTER + INTRA:          -5.492
REMARK INTER:                  -5.492
REMARK INTRA:                   0.000
REMARK UNBOUND:                 0.000
REMARK SMILES Cc1cc(O)c2c(c1)C(=O)c1cc(O)cc(O)c1C2=O
REMARK SMILES IDX 1 1 2 2 8 3 7 4 6 5 4 6 3 7 19 8 20 9 18 10 11 11 9 12 10 13
REMARK SMILES IDX 12 14 13 15 15 16 16 17 5 18 17 20 14 22
REMARK H PARENT 5 19 17 21 14 23
REMARK Flexibility Score: inf
ROOT
ATOM      1  C   UNL     1     161.579  -5.431  20.746  1.00  0.00     0.044 C 
ATOM      2  C   UNL     1     160.230  -5.994  21.087  1.00  0.00    -0.047 A 
ATOM      3  C   UNL     1     159.906  -6.288  22.415  1.00  0.00     0.016 A 
ATOM      4  C   UNL     1     158.656  -6.841  22.742  1.00  0.00     0.038 A 
ATOM      5  C   UNL     1     157.716  -7.105  21.721  1.00  0.00     0.076 A 
ATOM      6  C   UNL     1     158.083  -6.885  20.369  1.00  0.00     0.127 A 
ATOM      7  C   UNL     1     159.324  -6.314  20.070  1.00  0.00     0.050 A 
ATOM      8  C   UNL     1     156.354  -7.550  22.117  1.00  0.00     0.201 C 
ATOM      9  O   UNL     1     155.365  -7.259  21.394  1.00  0.00    -0.288 OA
ATOM     10  C   UNL     1     156.140  -8.169  23.450  1.00  0.00     0.076 A 
ATOM     11  C   UNL     1     157.083  -7.904  24.469  1.00  0.00     0.041 A 
ATOM     12  C   UNL     1     158.323  -7.157  24.151  1.00  0.00     0.194 C 
ATOM     13  O   UNL     1     159.107  -6.809  25.078  1.00  0.00    -0.289 OA
ATOM     14  C   UNL     1     156.845  -8.356  25.778  1.00  0.00     0.059 A 
ATOM     15  C   UNL     1     155.687  -9.080  26.079  1.00  0.00     0.120 A 
ATOM     16  C   UNL     1     154.774  -9.377  25.067  1.00  0.00     0.093 A 
ATOM     17  C   UNL     1     154.998  -8.956  23.753  1.00  0.00     0.131 A 
ENDROOT
BRANCH   6  18
ATOM     18  O   UNL     1     157.266  -7.248  19.296  1.00  0.00    -0.507 OA
ATOM     19  H   UNL     1     156.257  -7.246  19.337  1.00  0.00     0.293 HD
ENDBRANCH   6  18
BRANCH  17  20
ATOM     20  O   UNL     1     154.086  -9.369  22.780  1.00  0.00    -0.507 OA
ATOM     21  H   UNL     1     154.076 -10.298  22.381  1.00  0.00     0.293 HD
ENDBRANCH  17  20
BRANCH  15  22
ATOM     22  O   UNL     1     155.441  -9.520  27.377  1.00  0.00    -0.508 OA
ATOM     23  H   UNL     1     155.067 -10.443  27.562  1.00  0.00     0.293 HD
ENDBRANCH  15  22
TORSDOF 3
ENDMDL
MODEL 7
REMARK VINA RESULT:    -4.960      3.426      6.755
REMARK INTER + INTRA:          -5.395
REMARK INTER:                  -5.395
REMARK INTRA:                   0.000
REMARK UNBOUND:                 0.000
REMARK SMILES Cc1cc(O)c2c(c1)C(=O)c1cc(O)cc(O)c1C2=O
REMARK SMILES IDX 1 1 2 2 8 3 7 4 6 5 4 6 3 7 19 8 20 9 18 10 11 11 9 12 10 13
REMARK SMILES IDX 12 14 13 15 15 16 16 17 5 18 17 20 14 22
REMARK H PARENT 5 19 17 21 14 23
REMARK Flexibility Score: inf
ROOT
ATOM      1  C   UNL     1     151.938 -10.469  23.264  1.00  0.00     0.044 C 
ATOM      2  C   UNL     1     153.129  -9.667  22.824  1.00  0.00    -0.047 A 
ATOM      3  C   UNL     1     154.199  -9.458  23.701  1.00  0.00     0.016 A 
ATOM      4  C   UNL     1     155.305  -8.686  23.309  1.00  0.00     0.038 A 
ATOM      5  C   UNL     1     155.340  -8.113  22.018  1.00  0.00     0.076 A 
ATOM      6  C   UNL     1     154.216  -8.258  21.166  1.00  0.00     0.127 A 
ATOM      7  C   UNL     1     153.136  -9.048  21.570  1.00  0.00     0.050 A 
ATOM      8  C   UNL     1     156.588  -7.429  21.586  1.00  0.00     0.201 C 
ATOM      9  O   UNL     1     156.905  -7.416  20.368  1.00  0.00    -0.288 OA
ATOM     10  C   UNL     1     157.545  -6.929  22.606  1.00  0.00     0.076 A 
ATOM     11  C   UNL     1     157.506  -7.503  23.897  1.00  0.00     0.041 A 
ATOM     12  C   UNL     1     156.432  -8.463  24.246  1.00  0.00     0.194 C 
ATOM     13  O   UNL     1     156.463  -9.072  25.352  1.00  0.00    -0.289 OA
ATOM     14  C   UNL     1     158.482  -7.157  24.847  1.00  0.00     0.059 A 
ATOM     15  C   UNL     1     159.486  -6.237  24.529  1.00  0.00     0.120 A 
ATOM     16  C   UNL     1     159.504  -5.638  23.270  1.00  0.00     0.093 A 
ATOM     17  C   UNL     1     158.531  -5.951  22.314  1.00  0.00     0.131 A 
ENDROOT
BRANCH   6  18
ATOM     18  O   UNL     1     154.115  -7.610  19.933  1.00  0.00    -0.507 OA
ATOM     19  H   UNL     1     154.101  -6.605  19.829  1.00  0.00     0.293 HD
ENDBRANCH   6  18
BRANCH  17  20
ATOM     20  O   UNL     1     158.562  -5.245  21.110  1.00  0.00    -0.507 OA
ATOM     21  H   UNL     1     158.263  -5.634  20.226  1.00  0.00     0.293 HD
ENDBRANCH  17  20
BRANCH  15  22
ATOM     22  O   UNL     1     160.462  -5.900  25.464  1.00  0.00    -0.508 OA
ATOM     23  H   UNL     1     161.442  -6.102  25.303  1.00  0.00     0.293 HD
ENDBRANCH  15  22
TORSDOF 3
ENDMDL
MODEL 8
REMARK VINA RESULT:    -4.849      3.710      7.723
REMARK INTER + INTRA:          -5.274
REMARK INTER:                  -5.274
REMARK INTRA:                   0.000
REMARK UNBOUND:                 0.000
REMARK SMILES Cc1cc(O)c2c(c1)C(=O)c1cc(O)cc(O)c1C2=O
REMARK SMILES IDX 1 1 2 2 8 3 7 4 6 5 4 6 3 7 19 8 20 9 18 10 11 11 9 12 10 13
REMARK SMILES IDX 12 14 13 15 15 16 16 17 5 18 17 20 14 22
REMARK H PARENT 5 19 17 21 14 23
REMARK Flexibility Score: inf
ROOT
ATOM      1  C   UNL     1     157.181  -8.053  25.306  1.00  0.00     0.044 C 
ATOM      2  C   UNL     1     158.062  -6.991  24.715  1.00  0.00    -0.047 A 
ATOM      3  C   UNL     1     158.579  -7.144  23.425  1.00  0.00     0.016 A 
ATOM      4  C   UNL     1     159.427  -6.169  22.873  1.00  0.00     0.038 A 
ATOM      5  C   UNL     1     159.764  -5.022  23.627  1.00  0.00     0.076 A 
ATOM      6  C   UNL     1     159.305  -4.915  24.965  1.00  0.00     0.127 A 
ATOM      7  C   UNL     1     158.445  -5.887  25.484  1.00  0.00     0.050 A 
ATOM      8  C   UNL     1     160.540  -3.944  22.959  1.00  0.00     0.201 C 
ATOM      9  O   UNL     1     160.386  -2.747  23.318  1.00  0.00    -0.288 OA
ATOM     10  C   UNL     1     161.348  -4.257  21.753  1.00  0.00     0.076 A 
ATOM     11  C   UNL     1     161.010  -5.406  21.002  1.00  0.00     0.041 A 
ATOM     12  C   UNL     1     159.977  -6.341  21.507  1.00  0.00     0.194 C 
ATOM     13  O   UNL     1     159.582  -7.298  20.785  1.00  0.00    -0.289 OA
ATOM     14  C   UNL     1     161.659  -5.661  19.782  1.00  0.00     0.059 A 
ATOM     15  C   UNL     1     162.649  -4.793  19.311  1.00  0.00     0.120 A 
ATOM     16  C   UNL     1     163.014  -3.680  20.069  1.00  0.00     0.093 A 
ATOM     17  C   UNL     1     162.396  -3.416  21.296  1.00  0.00     0.131 A 
ENDROOT
BRANCH   6  18
ATOM     18  O   UNL     1     159.704  -3.885  25.820  1.00  0.00    -0.507 OA
ATOM     19  H   UNL     1     159.117  -3.503  26.547  1.00  0.00     0.293 HD
ENDBRANCH   6  18
BRANCH  17  20
ATOM     20  O   UNL     1     162.877  -2.336  22.039  1.00  0.00    -0.507 OA
ATOM     21  H   UNL     1     162.530  -1.392  21.941  1.00  0.00     0.293 HD
ENDBRANCH  17  20
BRANCH  15  22
ATOM     22  O   UNL     1     163.287  -5.035  18.096  1.00  0.00    -0.508 OA
ATOM     23  H   UNL     1     163.813  -4.312  17.621  1.00  0.00     0.293 HD
ENDBRANCH  15  22
TORSDOF 3
ENDMDL
MODEL 9
REMARK VINA RESULT:    -4.803      1.806      5.938
REMARK INTER + INTRA:          -5.225
REMARK INTER:                  -5.225
REMARK INTRA:                   0.000
REMARK UNBOUND:                 0.000
REMARK SMILES Cc1cc(O)c2c(c1)C(=O)c1cc(O)cc(O)c1C2=O
REMARK SMILES IDX 1 1 2 2 8 3 7 4 6 5 4 6 3 7 19 8 20 9 18 10 11 11 9 12 10 13
REMARK SMILES IDX 12 14 13 15 15 16 16 17 5 18 17 20 14 22
REMARK H PARENT 5 19 17 21 14 23
REMARK Flexibility Score: inf
ROOT
ATOM      1  C   UNL     1     151.875  -6.003  27.301  1.00  0.00     0.044 C 
ATOM      2  C   UNL     1     153.238  -5.475  26.957  1.00  0.00    -0.047 A 
ATOM      3  C   UNL     1     154.125  -6.253  26.206  1.00  0.00     0.016 A 
ATOM      4  C   UNL     1     155.413  -5.779  25.903  1.00  0.00     0.038 A 
ATOM      5  C   UNL     1     155.818  -4.505  26.359  1.00  0.00     0.076 A 
ATOM      6  C   UNL     1     154.946  -3.758  27.190  1.00  0.00     0.127 A 
ATOM      7  C   UNL     1     153.662  -4.241  27.461  1.00  0.00     0.050 A 
ATOM      8  C   UNL     1     157.128  -3.977  25.894  1.00  0.00     0.201 C 
ATOM      9  O   UNL     1     157.293  -2.735  25.767  1.00  0.00    -0.288 OA
ATOM     10  C   UNL     1     158.170  -4.915  25.404  1.00  0.00     0.076 A 
ATOM     11  C   UNL     1     157.761  -6.190  24.950  1.00  0.00     0.041 A 
ATOM     12  C   UNL     1     156.350  -6.613  25.112  1.00  0.00     0.194 C 
ATOM     13  O   UNL     1     155.951  -7.695  24.598  1.00  0.00    -0.289 OA
ATOM     14  C   UNL     1     158.695  -7.053  24.353  1.00  0.00     0.059 A 
ATOM     15  C   UNL     1     160.031  -6.667  24.216  1.00  0.00     0.120 A 
ATOM     16  C   UNL     1     160.447  -5.426  24.699  1.00  0.00     0.093 A 
ATOM     17  C   UNL     1     159.540  -4.557  25.316  1.00  0.00     0.131 A 
ENDROOT
BRANCH   6  18
ATOM     18  O   UNL     1     155.323  -2.556  27.793  1.00  0.00    -0.507 OA
ATOM     19  H   UNL     1     155.770  -1.798  27.297  1.00  0.00     0.293 HD
ENDBRANCH   6  18
BRANCH  17  20
ATOM     20  O   UNL     1     160.048  -3.373  25.855  1.00  0.00    -0.507 OA
ATOM     21  H   UNL     1     159.839  -2.456  25.485  1.00  0.00     0.293 HD
ENDBRANCH  17  20
BRANCH  15  22
ATOM     22  O   UNL     1     160.958  -7.514  23.614  1.00  0.00    -0.508 OA
ATOM     23  H   UNL     1     161.391  -8.275  24.125  1.00  0.00     0.293 HD
ENDBRANCH  15  22
TORSDOF 3
ENDMDL
