MODEL 1
REMARK VINA RESULT:    -3.640      0.000      0.000
REMARK INTER + INTRA:          -4.408
REMARK INTER:                  -4.278
REMARK INTRA:                  -0.129
REMARK UNBOUND:                -0.129
REMARK SMILES O=C([O-])C=Cc1ccc(O)c(O)c1
REMARK SMILES IDX 6 1 13 2 7 3 11 4 8 5 9 6 5 7 4 8 2 9 1 10 3 11 12 12 10 14
REMARK H PARENT 12 13 10 15
REMARK Flexibility Score: inf
ROOT
ATOM      1  C   UNL     1       7.674 -22.117 -17.745  1.00  0.00    -0.022 A 
ATOM      2  C   UNL     1       7.366 -21.088 -16.833  1.00  0.00     0.058 A 
ATOM      3  C   UNL     1       6.724 -23.125 -17.975  1.00  0.00     0.012 A 
ATOM      4  C   UNL     1       6.144 -21.083 -16.148  1.00  0.00     0.157 A 
ATOM      5  C   UNL     1       5.505 -23.123 -17.293  1.00  0.00     0.051 A 
ATOM      6  C   UNL     1       5.211 -22.106 -16.375  1.00  0.00     0.157 A 
ENDROOT
BRANCH   1   7
ATOM      7  C   UNL     1       8.949 -22.158 -18.503  1.00  0.00     0.010 C 
ATOM      8  C   UNL     1       9.128 -21.567 -19.694  1.00  0.00     0.025 C 
BRANCH   8   9
ATOM      9  C   UNL     1      10.413 -21.618 -20.412  1.00  0.00     0.064 C 
ATOM     10  O   UNL     1      11.118 -22.663 -20.414  1.00  0.00    -0.545 OA
ATOM     11  O   UNL     1      10.853 -20.497 -21.101  1.00  0.00    -0.545 OA
ENDBRANCH   8   9
ENDBRANCH   1   7
BRANCH   4  12
ATOM     12  O   UNL     1       5.876 -20.049 -15.251  1.00  0.00    -0.504 OA
ATOM     13  H   UNL     1       6.587 -19.391 -14.960  1.00  0.00     0.293 HD
ENDBRANCH   4  12
BRANCH   6  14
ATOM     14  O   UNL     1       3.995 -22.108 -15.694  1.00  0.00    -0.504 OA
ATOM     15  H   UNL     1       3.273 -21.426 -15.894  1.00  0.00     0.293 HD
ENDBRANCH   6  14
TORSDOF 4
ENDMDL
MODEL 2
REMARK VINA RESULT:    -3.504      2.132      6.286
REMARK INTER + INTRA:          -4.248
REMARK INTER:                  -4.101
REMARK INTRA:                  -0.147
REMARK UNBOUND:                -0.129
REMARK SMILES O=C([O-])C=Cc1ccc(O)c(O)c1
REMARK SMILES IDX 6 1 13 2 7 3 11 4 8 5 9 6 5 7 4 8 2 9 1 10 3 11 12 12 10 14
REMARK H PARENT 12 13 10 15
REMARK Flexibility Score: inf
ROOT
ATOM      1  C   UNL     1       8.369 -22.288 -20.153  1.00  0.00    -0.022 A 
ATOM      2  C   UNL     1       8.115 -22.652 -21.491  1.00  0.00     0.058 A 
ATOM      3  C   UNL     1       9.365 -21.333 -19.889  1.00  0.00     0.012 A 
ATOM      4  C   UNL     1       8.859 -22.093 -22.537  1.00  0.00     0.157 A 
ATOM      5  C   UNL     1      10.109 -20.775 -20.931  1.00  0.00     0.051 A 
ATOM      6  C   UNL     1       9.863 -21.153 -22.256  1.00  0.00     0.157 A 
ENDROOT
BRANCH   1   7
ATOM      7  C   UNL     1       7.599 -22.844 -19.013  1.00  0.00     0.010 C 
ATOM      8  C   UNL     1       7.407 -22.193 -17.856  1.00  0.00     0.025 C 
BRANCH   8   9
ATOM      9  C   UNL     1       6.626 -22.773 -16.750  1.00  0.00     0.064 C 
ATOM     10  O   UNL     1       7.173 -23.089 -15.660  1.00  0.00    -0.545 OA
ATOM     11  O   UNL     1       5.261 -22.971 -16.910  1.00  0.00    -0.545 OA
ENDBRANCH   8   9
ENDBRANCH   1   7
BRANCH   4  12
ATOM     12  O   UNL     1       8.581 -22.480 -23.848  1.00  0.00    -0.504 OA
ATOM     13  H   UNL     1       9.260 -22.966 -24.420  1.00  0.00     0.293 HD
ENDBRANCH   4  12
BRANCH   6  14
ATOM     14  O   UNL     1      10.610 -20.596 -23.294  1.00  0.00    -0.504 OA
ATOM     15  H   UNL     1      10.966 -19.649 -23.241  1.00  0.00     0.293 HD
ENDBRANCH   6  14
TORSDOF 4
ENDMDL
MODEL 3
REMARK VINA RESULT:    -3.448      2.024      5.768
REMARK INTER + INTRA:          -4.182
REMARK INTER:                  -4.045
REMARK INTRA:                  -0.136
REMARK UNBOUND:                -0.129
REMARK SMILES O=C([O-])C=Cc1ccc(O)c(O)c1
REMARK SMILES IDX 6 1 13 2 7 3 11 4 8 5 9 6 5 7 4 8 2 9 1 10 3 11 12 12 10 14
REMARK H PARENT 12 13 10 15
REMARK Flexibility Score: inf
ROOT
ATOM      1  C   UNL     1       8.692 -21.833 -19.699  1.00  0.00    -0.022 A 
ATOM      2  C   UNL     1       9.439 -20.978 -20.534  1.00  0.00     0.058 A 
ATOM      3  C   UNL     1       8.007 -22.915 -20.277  1.00  0.00     0.012 A 
ATOM      4  C   UNL     1       9.477 -21.186 -21.918  1.00  0.00     0.157 A 
ATOM      5  C   UNL     1       8.043 -23.124 -21.658  1.00  0.00     0.051 A 
ATOM      6  C   UNL     1       8.773 -22.260 -22.484  1.00  0.00     0.157 A 
ENDROOT
BRANCH   1   7
ATOM      7  C   UNL     1       8.631 -21.660 -18.227  1.00  0.00     0.010 C 
ATOM      8  C   UNL     1       7.496 -21.430 -17.550  1.00  0.00     0.025 C 
BRANCH   8   9
ATOM      9  C   UNL     1       7.472 -21.275 -16.086  1.00  0.00     0.064 C 
ATOM     10  O   UNL     1       7.937 -22.167 -15.328  1.00  0.00    -0.545 OA
ATOM     11  O   UNL     1       6.930 -20.123 -15.531  1.00  0.00    -0.545 OA
ENDBRANCH   8   9
ENDBRANCH   1   7
BRANCH   4  12
ATOM     12  O   UNL     1      10.224 -20.317 -22.713  1.00  0.00    -0.504 OA
ATOM     13  H   UNL     1      11.100 -19.918 -22.398  1.00  0.00     0.293 HD
ENDBRANCH   4  12
BRANCH   6  14
ATOM     14  O   UNL     1       8.805 -22.470 -23.862  1.00  0.00    -0.504 OA
ATOM     15  H   UNL     1       8.763 -21.699 -24.518  1.00  0.00     0.293 HD
ENDBRANCH   6  14
TORSDOF 4
ENDMDL
MODEL 4
REMARK VINA RESULT:    -3.230     14.943     16.425
REMARK INTER + INTRA:          -3.926
REMARK INTER:                  -3.800
REMARK INTRA:                  -0.126
REMARK UNBOUND:                -0.129
REMARK SMILES O=C([O-])C=Cc1ccc(O)c(O)c1
REMARK SMILES IDX 6 1 13 2 7 3 11 4 8 5 9 6 5 7 4 8 2 9 1 10 3 11 12 12 10 14
REMARK H PARENT 12 13 10 15
REMARK Flexibility Score: inf
ROOT
ATOM      1  C   UNL     1      -8.204 -21.656 -12.786  1.00  0.00    -0.022 A 
ATOM      2  C   UNL     1      -7.218 -22.389 -12.097  1.00  0.00     0.058 A 
ATOM      3  C   UNL     1      -9.125 -20.896 -12.046  1.00  0.00     0.012 A 
ATOM      4  C   UNL     1      -7.171 -22.382 -10.697  1.00  0.00     0.157 A 
ATOM      5  C   UNL     1      -9.081 -20.889 -10.650  1.00  0.00     0.051 A 
ATOM      6  C   UNL     1      -8.109 -21.633  -9.970  1.00  0.00     0.157 A 
ENDROOT
BRANCH   1   7
ATOM      7  C   UNL     1      -8.285 -21.623 -14.268  1.00  0.00     0.010 C 
ATOM      8  C   UNL     1      -7.213 -21.633 -15.073  1.00  0.00     0.025 C 
BRANCH   8   9
ATOM      9  C   UNL     1      -7.332 -21.611 -16.541  1.00  0.00     0.064 C 
ATOM     10  O   UNL     1      -8.459 -21.650 -17.105  1.00  0.00    -0.545 OA
ATOM     11  O   UNL     1      -6.183 -21.543 -17.317  1.00  0.00    -0.545 OA
ENDBRANCH   8   9
ENDBRANCH   1   7
BRANCH   4  12
ATOM     12  O   UNL     1      -6.183 -23.123 -10.049  1.00  0.00    -0.504 OA
ATOM     13  H   UNL     1      -6.386 -23.701  -9.243  1.00  0.00     0.293 HD
ENDBRANCH   4  12
BRANCH   6  14
ATOM     14  O   UNL     1      -8.070 -21.625  -8.576  1.00  0.00    -0.504 OA
ATOM     15  H   UNL     1      -8.909 -21.740  -8.021  1.00  0.00     0.293 HD
ENDBRANCH   6  14
TORSDOF 4
ENDMDL
MODEL 5
REMARK VINA RESULT:    -2.860      2.211      3.110
REMARK INTER + INTRA:          -3.491
REMARK INTER:                  -3.360
REMARK INTRA:                  -0.131
REMARK UNBOUND:                -0.129
REMARK SMILES O=C([O-])C=Cc1ccc(O)c(O)c1
REMARK SMILES IDX 6 1 13 2 7 3 11 4 8 5 9 6 5 7 4 8 2 9 1 10 3 11 12 12 10 14
REMARK H PARENT 12 13 10 15
REMARK Flexibility Score: inf
ROOT
ATOM      1  C   UNL     1       8.598 -22.512 -19.399  1.00  0.00    -0.022 A 
ATOM      2  C   UNL     1       7.313 -22.389 -18.835  1.00  0.00     0.058 A 
ATOM      3  C   UNL     1       9.720 -22.288 -18.584  1.00  0.00     0.012 A 
ATOM      4  C   UNL     1       7.154 -22.025 -17.492  1.00  0.00     0.157 A 
ATOM      5  C   UNL     1       9.564 -21.924 -17.245  1.00  0.00     0.051 A 
ATOM      6  C   UNL     1       8.284 -21.787 -16.694  1.00  0.00     0.157 A 
ENDROOT
BRANCH   1   7
ATOM      7  C   UNL     1       8.816 -22.906 -20.813  1.00  0.00     0.010 C 
ATOM      8  C   UNL     1       9.296 -22.077 -21.752  1.00  0.00     0.025 C 
BRANCH   8   9
ATOM      9  C   UNL     1       9.510 -22.508 -23.144  1.00  0.00     0.064 C 
ATOM     10  O   UNL     1      10.617 -22.330 -23.719  1.00  0.00    -0.545 OA
ATOM     11  O   UNL     1       8.475 -23.125 -23.834  1.00  0.00    -0.545 OA
ENDBRANCH   8   9
ENDBRANCH   1   7
BRANCH   4  12
ATOM     12  O   UNL     1       5.866 -21.910 -16.969  1.00  0.00    -0.504 OA
ATOM     13  H   UNL     1       5.152 -22.605 -17.142  1.00  0.00     0.293 HD
ENDBRANCH   4  12
BRANCH   6  14
ATOM     14  O   UNL     1       8.132 -21.421 -15.357  1.00  0.00    -0.504 OA
ATOM     15  H   UNL     1       8.539 -20.568 -14.991  1.00  0.00     0.293 HD
ENDBRANCH   6  14
TORSDOF 4
ENDMDL
MODEL 6
REMARK VINA RESULT:    -2.763      2.884      3.459
REMARK INTER + INTRA:          -3.377
REMARK INTER:                  -3.255
REMARK INTRA:                  -0.122
REMARK UNBOUND:                -0.129
REMARK SMILES O=C([O-])C=Cc1ccc(O)c(O)c1
REMARK SMILES IDX 6 1 13 2 7 3 11 4 8 5 9 6 5 7 4 8 2 9 1 10 3 11 12 12 10 14
REMARK H PARENT 12 13 10 15
REMARK Flexibility Score: inf
ROOT
ATOM      1  C   UNL     1       6.673 -21.628 -16.026  1.00  0.00    -0.022 A 
ATOM      2  C   UNL     1       5.730 -20.811 -15.372  1.00  0.00     0.058 A 
ATOM      3  C   UNL     1       6.225 -22.780 -16.692  1.00  0.00     0.012 A 
ATOM      4  C   UNL     1       4.372 -21.154 -15.363  1.00  0.00     0.157 A 
ATOM      5  C   UNL     1       4.871 -23.125 -16.684  1.00  0.00     0.051 A 
ATOM      6  C   UNL     1       3.941 -22.318 -16.017  1.00  0.00     0.157 A 
ENDROOT
BRANCH   1   7
ATOM      7  C   UNL     1       8.119 -21.299 -16.072  1.00  0.00     0.010 C 
ATOM      8  C   UNL     1       8.821 -20.875 -15.011  1.00  0.00     0.025 C 
BRANCH   8   9
ATOM      9  C   UNL     1      10.260 -20.570 -15.092  1.00  0.00     0.064 C 
ATOM     10  O   UNL     1      10.861 -20.001 -14.142  1.00  0.00    -0.545 OA
ATOM     11  O   UNL     1      10.967 -20.919 -16.235  1.00  0.00    -0.545 OA
ENDBRANCH   8   9
ENDBRANCH   1   7
BRANCH   4  12
ATOM     12  O   UNL     1       3.468 -20.322 -14.701  1.00  0.00    -0.504 OA
ATOM     13  H   UNL     1       2.707 -20.691 -14.145  1.00  0.00     0.293 HD
ENDBRANCH   4  12
BRANCH   6  14
ATOM     14  O   UNL     1       2.590 -22.666 -16.009  1.00  0.00    -0.504 OA
ATOM     15  H   UNL     1       1.929 -22.213 -15.390  1.00  0.00     0.293 HD
ENDBRANCH   6  14
TORSDOF 4
ENDMDL
MODEL 7
REMARK VINA RESULT:    -2.697      1.495      5.801
REMARK INTER + INTRA:          -3.299
REMARK INTER:                  -3.146
REMARK INTRA:                  -0.153
REMARK UNBOUND:                -0.129
REMARK SMILES O=C([O-])C=Cc1ccc(O)c(O)c1
REMARK SMILES IDX 6 1 13 2 7 3 11 4 8 5 9 6 5 7 4 8 2 9 1 10 3 11 12 12 10 14
REMARK H PARENT 12 13 10 15
REMARK Flexibility Score: inf
ROOT
ATOM      1  C   UNL     1       7.252 -22.102 -17.064  1.00  0.00    -0.022 A 
ATOM      2  C   UNL     1       8.534 -21.657 -16.686  1.00  0.00     0.058 A 
ATOM      3  C   UNL     1       7.110 -22.809 -18.270  1.00  0.00     0.012 A 
ATOM      4  C   UNL     1       9.643 -21.890 -17.508  1.00  0.00     0.157 A 
ATOM      5  C   UNL     1       8.214 -23.043 -19.092  1.00  0.00     0.051 A 
ATOM      6  C   UNL     1       9.483 -22.583 -18.719  1.00  0.00     0.157 A 
ENDROOT
BRANCH   1   7
ATOM      7  C   UNL     1       6.050 -21.889 -16.221  1.00  0.00     0.010 C 
ATOM      8  C   UNL     1       4.817 -22.285 -16.568  1.00  0.00     0.025 C 
BRANCH   8   9
ATOM      9  C   UNL     1       3.648 -22.066 -15.699  1.00  0.00     0.064 C 
ATOM     10  O   UNL     1       2.630 -22.805 -15.775  1.00  0.00    -0.545 OA
ATOM     11  O   UNL     1       3.670 -21.029 -14.776  1.00  0.00    -0.545 OA
ENDBRANCH   8   9
ENDBRANCH   1   7
BRANCH   4  12
ATOM     12  O   UNL     1      10.896 -21.431 -17.102  1.00  0.00    -0.504 OA
ATOM     13  H   UNL     1      11.200 -21.478 -16.138  1.00  0.00     0.293 HD
ENDBRANCH   4  12
BRANCH   6  14
ATOM     14  O   UNL     1      10.583 -22.816 -19.543  1.00  0.00    -0.504 OA
ATOM     15  H   UNL     1      10.582 -23.557 -20.233  1.00  0.00     0.293 HD
ENDBRANCH   6  14
TORSDOF 4
ENDMDL
MODEL 8
REMARK VINA RESULT:    -2.604     14.686     17.124
REMARK INTER + INTRA:          -3.190
REMARK INTER:                  -3.037
REMARK INTRA:                  -0.153
REMARK UNBOUND:                -0.129
REMARK SMILES O=C([O-])C=Cc1ccc(O)c(O)c1
REMARK SMILES IDX 6 1 13 2 7 3 11 4 8 5 9 6 5 7 4 8 2 9 1 10 3 11 12 12 10 14
REMARK H PARENT 12 13 10 15
REMARK Flexibility Score: inf
ROOT
ATOM      1  C   UNL     1      -7.567 -22.169 -12.691  1.00  0.00    -0.022 A 
ATOM      2  C   UNL     1      -6.556 -22.273 -13.668  1.00  0.00     0.058 A 
ATOM      3  C   UNL     1      -8.856 -21.777 -13.089  1.00  0.00     0.012 A 
ATOM      4  C   UNL     1      -6.824 -21.968 -15.008  1.00  0.00     0.157 A 
ATOM      5  C   UNL     1      -9.125 -21.471 -14.425  1.00  0.00     0.051 A 
ATOM      6  C   UNL     1      -8.112 -21.561 -15.389  1.00  0.00     0.157 A 
ENDROOT
BRANCH   1   7
ATOM      7  C   UNL     1      -7.334 -22.493 -11.262  1.00  0.00     0.010 C 
ATOM      8  C   UNL     1      -8.268 -22.368 -10.308  1.00  0.00     0.025 C 
BRANCH   8   9
ATOM      9  C   UNL     1      -8.004 -22.712  -8.900  1.00  0.00     0.064 C 
ATOM     10  O   UNL     1      -8.912 -22.641  -8.030  1.00  0.00    -0.545 OA
ATOM     11  O   UNL     1      -6.732 -23.124  -8.527  1.00  0.00    -0.545 OA
ENDBRANCH   8   9
ENDBRANCH   1   7
BRANCH   4  12
ATOM     12  O   UNL     1      -5.798 -22.080 -15.946  1.00  0.00    -0.504 OA
ATOM     13  H   UNL     1      -4.865 -22.378 -15.690  1.00  0.00     0.293 HD
ENDBRANCH   4  12
BRANCH   6  14
ATOM     14  O   UNL     1      -8.384 -21.253 -16.721  1.00  0.00    -0.504 OA
ATOM     15  H   UNL     1      -9.246 -20.795 -16.995  1.00  0.00     0.293 HD
ENDBRANCH   6  14
TORSDOF 4
ENDMDL
