MODEL 1
REMARK VINA RESULT:    -2.978      0.000      0.000
REMARK INTER + INTRA:          -2.978
REMARK INTER:                  -2.978
REMARK INTRA:                   0.000
REMARK UNBOUND:                 0.000
REMARK SMILES CC(=O)[O-]
REMARK SMILES IDX 1 1 2 2 3 3 4 4
REMARK H PARENT
REMARK Flexibility Score: inf
ROOT
ATOM      1  C   UNL     1      -2.839 -21.430 -13.833  1.00  0.00     0.063 C 
ATOM      2  C   UNL     1      -1.794 -20.433 -13.458  1.00  0.00     0.038 C 
ATOM      3  O   UNL     1      -2.002 -19.623 -12.518  1.00  0.00    -0.550 OA
ATOM      4  O   UNL     1      -0.567 -20.434 -14.109  1.00  0.00    -0.550 OA
ENDROOT
TORSDOF 0
ENDMDL
MODEL 2
REMARK VINA RESULT:    -2.963      0.109      1.620
REMARK INTER + INTRA:          -2.963
REMARK INTER:                  -2.963
REMARK INTRA:                   0.000
REMARK UNBOUND:                 0.000
REMARK SMILES CC(=O)[O-]
REMARK SMILES IDX 1 1 2 2 3 3 4 4
REMARK H PARENT
REMARK Flexibility Score: inf
ROOT
ATOM      1  C   UNL     1      -2.841 -21.413 -13.810  1.00  0.00     0.063 C 
ATOM      2  C   UNL     1      -1.748 -20.478 -13.416  1.00  0.00     0.038 C 
ATOM      3  O   UNL     1      -0.670 -20.458 -14.064  1.00  0.00    -0.550 OA
ATOM      4  O   UNL     1      -1.939 -19.588 -12.367  1.00  0.00    -0.550 OA
ENDROOT
TORSDOF 0
ENDMDL
MODEL 3
REMARK VINA RESULT:    -2.826      1.321      2.017
REMARK INTER + INTRA:          -2.826
REMARK INTER:                  -2.826
REMARK INTRA:                   0.000
REMARK UNBOUND:                 0.000
REMARK SMILES CC(=O)[O-]
REMARK SMILES IDX 1 1 2 2 3 3 4 4
REMARK H PARENT
REMARK Flexibility Score: inf
ROOT
ATOM      1  C   UNL     1      -2.046 -20.611 -13.594  1.00  0.00     0.063 C 
ATOM      2  C   UNL     1      -0.595 -20.337 -13.805  1.00  0.00     0.038 C 
ATOM      3  O   UNL     1       0.013 -20.864 -14.773  1.00  0.00    -0.550 OA
ATOM      4  O   UNL     1       0.075 -19.455 -12.967  1.00  0.00    -0.550 OA
ENDROOT
TORSDOF 0
ENDMDL
MODEL 4
REMARK VINA RESULT:    -2.709      1.381      1.777
REMARK INTER + INTRA:          -2.709
REMARK INTER:                  -2.709
REMARK INTRA:                   0.000
REMARK UNBOUND:                 0.000
REMARK SMILES CC(=O)[O-]
REMARK SMILES IDX 1 1 2 2 3 3 4 4
REMARK H PARENT
REMARK Flexibility Score: inf
ROOT
ATOM      1  C   UNL     1      -0.291 -20.310 -13.836  1.00  0.00     0.063 C 
ATOM      2  C   UNL     1      -1.698 -20.330 -13.342  1.00  0.00     0.038 C 
ATOM      3  O   UNL     1      -2.051 -19.563 -12.408  1.00  0.00    -0.550 OA
ATOM      4  O   UNL     1      -2.637 -21.154 -13.949  1.00  0.00    -0.550 OA
ENDROOT
TORSDOF 0
ENDMDL
MODEL 5
REMARK VINA RESULT:    -2.694      1.338      2.181
REMARK INTER + INTRA:          -2.694
REMARK INTER:                  -2.694
REMARK INTRA:                   0.000
REMARK UNBOUND:                 0.000
REMARK SMILES CC(=O)[O-]
REMARK SMILES IDX 1 1 2 2 3 3 4 4
REMARK H PARENT
REMARK Flexibility Score: inf
ROOT
ATOM      1  C   UNL     1      -0.252 -20.250 -13.751  1.00  0.00     0.063 C 
ATOM      2  C   UNL     1      -1.689 -20.266 -13.350  1.00  0.00     0.038 C 
ATOM      3  O   UNL     1      -2.506 -21.004 -13.960  1.00  0.00    -0.550 OA
ATOM      4  O   UNL     1      -2.118 -19.509 -12.268  1.00  0.00    -0.550 OA
ENDROOT
TORSDOF 0
ENDMDL
MODEL 6
REMARK VINA RESULT:    -2.673      1.414      1.721
REMARK INTER + INTRA:          -2.673
REMARK INTER:                  -2.673
REMARK INTRA:                   0.000
REMARK UNBOUND:                 0.000
REMARK SMILES CC(=O)[O-]
REMARK SMILES IDX 1 1 2 2 3 3 4 4
REMARK H PARENT
REMARK Flexibility Score: inf
ROOT
ATOM      1  C   UNL     1      -1.768 -19.668 -12.598  1.00  0.00     0.063 C 
ATOM      2  C   UNL     1      -1.691 -20.656 -13.712  1.00  0.00     0.038 C 
ATOM      3  O   UNL     1      -2.702 -21.340 -14.021  1.00  0.00    -0.550 OA
ATOM      4  O   UNL     1      -0.521 -20.785 -14.448  1.00  0.00    -0.550 OA
ENDROOT
TORSDOF 0
ENDMDL
MODEL 7
REMARK VINA RESULT:    -2.541      1.993      2.146
REMARK INTER + INTRA:          -2.541
REMARK INTER:                  -2.541
REMARK INTRA:                   0.000
REMARK UNBOUND:                 0.000
REMARK SMILES CC(=O)[O-]
REMARK SMILES IDX 1 1 2 2 3 3 4 4
REMARK H PARENT
REMARK Flexibility Score: inf
ROOT
ATOM      1  C   UNL     1      -0.295 -20.393 -11.682  1.00  0.00     0.063 C 
ATOM      2  C   UNL     1      -0.347 -19.762 -13.033  1.00  0.00     0.038 C 
ATOM      3  O   UNL     1      -0.748 -18.575 -13.161  1.00  0.00    -0.550 OA
ATOM      4  O   UNL     1       0.099 -20.462 -14.146  1.00  0.00    -0.550 OA
ENDROOT
TORSDOF 0
ENDMDL
MODEL 8
REMARK VINA RESULT:    -2.100     15.708     16.054
REMARK INTER + INTRA:          -2.100
REMARK INTER:                  -2.100
REMARK INTRA:                   0.000
REMARK UNBOUND:                 0.000
REMARK SMILES CC(=O)[O-]
REMARK SMILES IDX 1 1 2 2 3 3 4 4
REMARK H PARENT
REMARK Flexibility Score: inf
ROOT
ATOM      1  C   UNL     1       3.871  -5.192  -9.060  1.00  0.00     0.063 C 
ATOM      2  C   UNL     1       4.087  -6.050 -10.261  1.00  0.00     0.038 C 
ATOM      3  O   UNL     1       5.115  -6.771 -10.346  1.00  0.00    -0.550 OA
ATOM      4  O   UNL     1       3.126  -6.099 -11.263  1.00  0.00    -0.550 OA
ENDROOT
TORSDOF 0
ENDMDL
MODEL 9
REMARK VINA RESULT:    -2.027      3.684      4.352
REMARK INTER + INTRA:          -2.027
REMARK INTER:                  -2.027
REMARK INTRA:                   0.000
REMARK UNBOUND:                 0.000
REMARK SMILES CC(=O)[O-]
REMARK SMILES IDX 1 1 2 2 3 3 4 4
REMARK H PARENT
REMARK Flexibility Score: inf
ROOT
ATOM      1  C   UNL     1       0.857 -22.924 -16.478  1.00  0.00     0.063 C 
ATOM      2  C   UNL     1       1.359 -21.807 -15.627  1.00  0.00     0.038 C 
ATOM      3  O   UNL     1       2.551 -21.417 -15.733  1.00  0.00    -0.550 OA
ATOM      4  O   UNL     1       0.496 -21.157 -14.753  1.00  0.00    -0.550 OA
ENDROOT
TORSDOF 0
ENDMDL
