MODEL 1
REMARK VINA RESULT:    -4.074      0.000      0.000
REMARK INTER + INTRA:          -6.982
REMARK INTER:                  -6.218
REMARK INTRA:                  -0.764
REMARK UNBOUND:                -0.764
REMARK SMILES O=C([O-])CCCCCCCCC(=O)[O-]
REMARK SMILES IDX 7 1 6 2 5 3 4 4 2 5 1 6 3 7 8 8 9 9 10 10 11 11 12 12 13 13
REMARK SMILES IDX 14 14
REMARK H PARENT
REMARK Flexibility Score: inf
ROOT
ATOM      1  C   UNL     1      -1.544   7.964  -8.696  1.00  0.00     0.000 C 
ENDROOT
BRANCH   1   2
ATOM      2  C   UNL     1      -0.119   8.162  -8.157  1.00  0.00     0.000 C 
BRANCH   2   3
ATOM      3  C   UNL     1       0.884   7.166  -8.759  1.00  0.00     0.006 C 
BRANCH   3   4
ATOM      4  C   UNL     1       1.983   7.899  -9.533  1.00  0.00     0.053 C 
BRANCH   4   5
ATOM      5  C   UNL     1       1.768   7.759 -11.008  1.00  0.00     0.041 C 
ATOM      6  O   UNL     1       0.774   8.303 -11.557  1.00  0.00    -0.550 OA
ATOM      7  O   UNL     1       2.639   6.989 -11.768  1.00  0.00    -0.550 OA
ENDBRANCH   4   5
ENDBRANCH   3   4
ENDBRANCH   2   3
ENDBRANCH   1   2
BRANCH   1   8
ATOM      8  C   UNL     1      -1.673   6.715  -9.586  1.00  0.00     0.000 C 
BRANCH   8   9
ATOM      9  C   UNL     1      -2.482   6.981 -10.865  1.00  0.00     0.000 C 
BRANCH   9  10
ATOM     10  C   UNL     1      -2.858   8.461 -11.030  1.00  0.00     0.006 C 
BRANCH  10  11
ATOM     11  C   UNL     1      -4.375   8.629 -11.162  1.00  0.00     0.053 C 
BRANCH  11  12
ATOM     12  C   UNL     1      -4.807   9.948 -10.604  1.00  0.00     0.041 C 
ATOM     13  O   UNL     1      -3.972  10.701 -10.038  1.00  0.00    -0.550 OA
ATOM     14  O   UNL     1      -6.123  10.368 -10.753  1.00  0.00    -0.550 OA
ENDBRANCH  11  12
ENDBRANCH  10  11
ENDBRANCH   9  10
ENDBRANCH   8   9
ENDBRANCH   1   8
TORSDOF 9
ENDMDL
MODEL 2
REMARK VINA RESULT:    -3.917     15.473     17.759
REMARK INTER + INTRA:          -6.741
REMARK INTER:                  -6.333
REMARK INTRA:                  -0.408
REMARK UNBOUND:                -0.764
REMARK SMILES O=C([O-])CCCCCCCCC(=O)[O-]
REMARK SMILES IDX 7 1 6 2 5 3 4 4 2 5 1 6 3 7 8 8 9 9 10 10 11 11 12 12 13 13
REMARK SMILES IDX 14 14
REMARK H PARENT
REMARK Flexibility Score: inf
ROOT
ATOM      1  C   UNL     1       1.866  12.920   5.108  1.00  0.00     0.000 C 
ENDROOT
BRANCH   1   2
ATOM      2  C   UNL     1       0.513  13.636   4.977  1.00  0.00     0.000 C 
BRANCH   2   3
ATOM      3  C   UNL     1      -0.469  12.881   4.069  1.00  0.00     0.006 C 
BRANCH   3   4
ATOM      4  C   UNL     1      -1.617  12.280   4.885  1.00  0.00     0.053 C 
BRANCH   4   5
ATOM      5  C   UNL     1      -1.246  10.920   5.388  1.00  0.00     0.041 C 
ATOM      6  O   UNL     1      -1.390   9.911   4.649  1.00  0.00    -0.550 OA
ATOM      7  O   UNL     1      -0.785  10.761   6.689  1.00  0.00    -0.550 OA
ENDBRANCH   4   5
ENDBRANCH   3   4
ENDBRANCH   2   3
ENDBRANCH   1   2
BRANCH   1   8
ATOM      8  C   UNL     1       3.049  13.806   4.680  1.00  0.00     0.000 C 
BRANCH   8   9
ATOM      9  C   UNL     1       4.245  13.700   5.640  1.00  0.00     0.000 C 
BRANCH   9  10
ATOM     10  C   UNL     1       4.318  12.337   6.344  1.00  0.00     0.006 C 
BRANCH  10  11
ATOM     11  C   UNL     1       5.768  11.966   6.671  1.00  0.00     0.053 C 
BRANCH  11  12
ATOM     12  C   UNL     1       6.109  10.628   6.097  1.00  0.00     0.041 C 
ATOM     13  O   UNL     1       7.265  10.406   5.650  1.00  0.00    -0.550 OA
ATOM     14  O   UNL     1       5.165   9.608   6.100  1.00  0.00    -0.550 OA
ENDBRANCH  11  12
ENDBRANCH  10  11
ENDBRANCH   9  10
ENDBRANCH   8   9
ENDBRANCH   1   8
TORSDOF 9
ENDMDL
MODEL 3
REMARK VINA RESULT:    -3.885      2.062      2.815
REMARK INTER + INTRA:          -6.693
REMARK INTER:                  -6.201
REMARK INTRA:                  -0.492
REMARK UNBOUND:                -0.764
REMARK SMILES O=C([O-])CCCCCCCCC(=O)[O-]
REMARK SMILES IDX 7 1 6 2 5 3 4 4 2 5 1 6 3 7 8 8 9 9 10 10 11 11 12 12 13 13
REMARK SMILES IDX 14 14
REMARK H PARENT
REMARK Flexibility Score: inf
ROOT
ATOM      1  C   UNL     1      -2.512   6.889 -10.825  1.00  0.00     0.000 C 
ENDROOT
BRANCH   1   2
ATOM      2  C   UNL     1      -1.019   6.769 -11.166  1.00  0.00     0.000 C 
BRANCH   2   3
ATOM      3  C   UNL     1      -0.183   7.911 -10.567  1.00  0.00     0.006 C 
BRANCH   3   4
ATOM      4  C   UNL     1       0.859   7.368  -9.585  1.00  0.00     0.053 C 
BRANCH   4   5
ATOM      5  C   UNL     1       0.406   7.576  -8.173  1.00  0.00     0.041 C 
ATOM      6  O   UNL     1       1.199   7.370  -7.217  1.00  0.00    -0.550 OA
ATOM      7  O   UNL     1      -0.906   7.950  -7.912  1.00  0.00    -0.550 OA
ENDBRANCH   4   5
ENDBRANCH   3   4
ENDBRANCH   2   3
ENDBRANCH   1   2
BRANCH   1   8
ATOM      8  C   UNL     1      -3.398   7.005 -12.079  1.00  0.00     0.000 C 
BRANCH   8   9
ATOM      9  C   UNL     1      -4.390   8.176 -11.995  1.00  0.00     0.000 C 
BRANCH   9  10
ATOM     10  C   UNL     1      -3.701   9.515 -11.697  1.00  0.00     0.006 C 
BRANCH  10  11
ATOM     11  C   UNL     1      -4.605  10.693 -12.072  1.00  0.00     0.053 C 
BRANCH  11  12
ATOM     12  C   UNL     1      -5.470  11.079 -10.914  1.00  0.00     0.041 C 
ATOM     13  O   UNL     1      -5.036  11.868 -10.034  1.00  0.00    -0.550 OA
ATOM     14  O   UNL     1      -6.774  10.607 -10.833  1.00  0.00    -0.550 OA
ENDBRANCH  11  12
ENDBRANCH  10  11
ENDBRANCH   9  10
ENDBRANCH   8   9
ENDBRANCH   1   8
TORSDOF 9
ENDMDL
MODEL 4
REMARK VINA RESULT:    -3.864      1.214      6.455
REMARK INTER + INTRA:          -6.660
REMARK INTER:                  -6.337
REMARK INTRA:                  -0.322
REMARK UNBOUND:                -0.764
REMARK SMILES O=C([O-])CCCCCCCCC(=O)[O-]
REMARK SMILES IDX 7 1 6 2 5 3 4 4 2 5 1 6 3 7 8 8 9 9 10 10 11 11 12 12 13 13
REMARK SMILES IDX 14 14
REMARK H PARENT
REMARK Flexibility Score: inf
ROOT
ATOM      1  C   UNL     1      -2.141   7.139 -10.860  1.00  0.00     0.000 C 
ENDROOT
BRANCH   1   2
ATOM      2  C   UNL     1      -3.476   7.707 -11.368  1.00  0.00     0.000 C 
BRANCH   2   3
ATOM      3  C   UNL     1      -3.551   9.236 -11.246  1.00  0.00     0.006 C 
BRANCH   3   4
ATOM      4  C   UNL     1      -4.845   9.771 -11.867  1.00  0.00     0.053 C 
BRANCH   4   5
ATOM      5  C   UNL     1      -5.556  10.670 -10.905  1.00  0.00     0.041 C 
ATOM      6  O   UNL     1      -4.899  11.392 -10.110  1.00  0.00    -0.550 OA
ATOM      7  O   UNL     1      -6.944  10.675 -10.853  1.00  0.00    -0.550 OA
ENDBRANCH   4   5
ENDBRANCH   3   4
ENDBRANCH   2   3
ENDBRANCH   1   2
BRANCH   1   8
ATOM      8  C   UNL     1      -1.764   7.670  -9.466  1.00  0.00     0.000 C 
BRANCH   8   9
ATOM      9  C   UNL     1      -0.566   6.927  -8.855  1.00  0.00     0.000 C 
BRANCH   9  10
ATOM     10  C   UNL     1       0.441   7.876  -8.187  1.00  0.00     0.006 C 
BRANCH  10  11
ATOM     11  C   UNL     1       1.880   7.461  -8.504  1.00  0.00     0.053 C 
BRANCH  11  12
ATOM     12  C   UNL     1       2.325   8.058  -9.801  1.00  0.00     0.041 C 
ATOM     13  O   UNL     1       2.878   9.189  -9.821  1.00  0.00    -0.550 OA
ATOM     14  O   UNL     1       2.175   7.344 -10.984  1.00  0.00    -0.550 OA
ENDBRANCH  11  12
ENDBRANCH  10  11
ENDBRANCH   9  10
ENDBRANCH   8   9
ENDBRANCH   1   8
TORSDOF 9
ENDMDL
MODEL 5
REMARK VINA RESULT:    -3.813     15.603     16.950
REMARK INTER + INTRA:          -6.582
REMARK INTER:                  -6.101
REMARK INTRA:                  -0.481
REMARK UNBOUND:                -0.764
REMARK SMILES O=C([O-])CCCCCCCCC(=O)[O-]
REMARK SMILES IDX 7 1 6 2 5 3 4 4 2 5 1 6 3 7 8 8 9 9 10 10 11 11 12 12 13 13
REMARK SMILES IDX 14 14
REMARK H PARENT
REMARK Flexibility Score: inf
ROOT
ATOM      1  C   UNL     1       2.818  12.713   5.913  1.00  0.00     0.000 C 
ENDROOT
BRANCH   1   2
ATOM      2  C   UNL     1       4.332  12.970   5.885  1.00  0.00     0.000 C 
BRANCH   2   3
ATOM      3  C   UNL     1       5.034  12.503   7.170  1.00  0.00     0.006 C 
BRANCH   3   4
ATOM      4  C   UNL     1       5.060  10.974   7.253  1.00  0.00     0.053 C 
BRANCH   4   5
ATOM      5  C   UNL     1       5.840  10.401   6.111  1.00  0.00     0.041 C 
ATOM      6  O   UNL     1       5.364   9.455   5.431  1.00  0.00    -0.550 OA
ATOM      7  O   UNL     1       7.113  10.881   5.828  1.00  0.00    -0.550 OA
ENDBRANCH   4   5
ENDBRANCH   3   4
ENDBRANCH   2   3
ENDBRANCH   1   2
BRANCH   1   8
ATOM      8  C   UNL     1       2.086  13.355   4.720  1.00  0.00     0.000 C 
BRANCH   8   9
ATOM      9  C   UNL     1       0.643  13.758   5.060  1.00  0.00     0.000 C 
BRANCH   9  10
ATOM     10  C   UNL     1      -0.391  13.072   4.155  1.00  0.00     0.006 C 
BRANCH  10  11
ATOM     11  C   UNL     1      -1.491  12.406   4.986  1.00  0.00     0.053 C 
BRANCH  11  12
ATOM     12  C   UNL     1      -1.033  11.076   5.494  1.00  0.00     0.041 C 
ATOM     13  O   UNL     1      -1.119  10.054   4.764  1.00  0.00    -0.550 OA
ATOM     14  O   UNL     1      -0.462  10.973   6.757  1.00  0.00    -0.550 OA
ENDBRANCH  11  12
ENDBRANCH  10  11
ENDBRANCH   9  10
ENDBRANCH   8   9
ENDBRANCH   1   8
TORSDOF 9
ENDMDL
MODEL 6
REMARK VINA RESULT:    -3.787      1.737      6.133
REMARK INTER + INTRA:          -6.543
REMARK INTER:                  -6.042
REMARK INTRA:                  -0.501
REMARK UNBOUND:                -0.764
REMARK SMILES O=C([O-])CCCCCCCCC(=O)[O-]
REMARK SMILES IDX 7 1 6 2 5 3 4 4 2 5 1 6 3 7 8 8 9 9 10 10 11 11 12 12 13 13
REMARK SMILES IDX 14 14
REMARK H PARENT
REMARK Flexibility Score: inf
ROOT
ATOM      1  C   UNL     1      -3.204   6.682 -12.123  1.00  0.00     0.000 C 
ENDROOT
BRANCH   1   2
ATOM      2  C   UNL     1      -4.192   7.822 -11.835  1.00  0.00     0.000 C 
BRANCH   2   3
ATOM      3  C   UNL     1      -3.507   9.195 -11.769  1.00  0.00     0.006 C 
BRANCH   3   4
ATOM      4  C   UNL     1      -4.103  10.051 -10.647  1.00  0.00     0.053 C 
BRANCH   4   5
ATOM      5  C   UNL     1      -5.348  10.736 -11.117  1.00  0.00     0.041 C 
ATOM      6  O   UNL     1      -6.466  10.421 -10.632  1.00  0.00    -0.550 OA
ATOM      7  O   UNL     1      -5.278  11.690 -12.125  1.00  0.00    -0.550 OA
ENDBRANCH   4   5
ENDBRANCH   3   4
ENDBRANCH   2   3
ENDBRANCH   1   2
BRANCH   1   8
ATOM      8  C   UNL     1      -1.936   6.764 -11.254  1.00  0.00     0.000 C 
BRANCH   8   9
ATOM      9  C   UNL     1      -2.253   6.928  -9.760  1.00  0.00     0.000 C 
BRANCH   9  10
ATOM     10  C   UNL     1      -1.252   7.845  -9.040  1.00  0.00     0.006 C 
BRANCH  10  11
ATOM     11  C   UNL     1       0.152   7.696  -9.633  1.00  0.00     0.053 C 
BRANCH  11  12
ATOM     12  C   UNL     1       1.151   7.422  -8.554  1.00  0.00     0.041 C 
ATOM     13  O   UNL     1       2.371   7.294  -8.837  1.00  0.00    -0.550 OA
ATOM     14  O   UNL     1       0.741   7.359  -7.227  1.00  0.00    -0.550 OA
ENDBRANCH  11  12
ENDBRANCH  10  11
ENDBRANCH   9  10
ENDBRANCH   8   9
ENDBRANCH   1   8
TORSDOF 9
ENDMDL
MODEL 7
REMARK VINA RESULT:    -3.761      1.287      1.932
REMARK INTER + INTRA:          -6.504
REMARK INTER:                  -5.837
REMARK INTRA:                  -0.667
REMARK UNBOUND:                -0.764
REMARK SMILES O=C([O-])CCCCCCCCC(=O)[O-]
REMARK SMILES IDX 7 1 6 2 5 3 4 4 2 5 1 6 3 7 8 8 9 9 10 10 11 11 12 12 13 13
REMARK SMILES IDX 14 14
REMARK H PARENT
REMARK Flexibility Score: inf
ROOT
ATOM      1  C   UNL     1       0.832   7.506  -8.358  1.00  0.00     0.000 C 
ENDROOT
BRANCH   1   2
ATOM      2  C   UNL     1       1.228   8.869  -8.946  1.00  0.00     0.000 C 
BRANCH   2   3
ATOM      3  C   UNL     1       1.182   8.887 -10.481  1.00  0.00     0.006 C 
BRANCH   3   4
ATOM      4  C   UNL     1       2.546   9.267 -11.065  1.00  0.00     0.053 C 
BRANCH   4   5
ATOM      5  C   UNL     1       3.184   8.082 -11.720  1.00  0.00     0.041 C 
ATOM      6  O   UNL     1       2.534   7.014 -11.868  1.00  0.00    -0.550 OA
ATOM      7  O   UNL     1       4.512   8.142 -12.125  1.00  0.00    -0.550 OA
ENDBRANCH   4   5
ENDBRANCH   3   4
ENDBRANCH   2   3
ENDBRANCH   1   2
BRANCH   1   8
ATOM      8  C   UNL     1      -0.041   6.679  -9.318  1.00  0.00     0.000 C 
BRANCH   8   9
ATOM      9  C   UNL     1      -1.538   7.002  -9.182  1.00  0.00     0.000 C 
BRANCH   9  10
ATOM     10  C   UNL     1      -2.240   7.134 -10.541  1.00  0.00     0.006 C 
BRANCH  10  11
ATOM     11  C   UNL     1      -2.380   8.605 -10.946  1.00  0.00     0.053 C 
BRANCH  11  12
ATOM     12  C   UNL     1      -3.753   9.107 -10.633  1.00  0.00     0.041 C 
ATOM     13  O   UNL     1      -3.907  10.113  -9.892  1.00  0.00    -0.550 OA
ATOM     14  O   UNL     1      -4.864   8.494 -11.200  1.00  0.00    -0.550 OA
ENDBRANCH  11  12
ENDBRANCH  10  11
ENDBRANCH   9  10
ENDBRANCH   8   9
ENDBRANCH   1   8
TORSDOF 9
ENDMDL
MODEL 8
REMARK VINA RESULT:    -3.730      2.538      3.134
REMARK INTER + INTRA:          -6.456
REMARK INTER:                  -5.737
REMARK INTRA:                  -0.719
REMARK UNBOUND:                -0.764
REMARK SMILES O=C([O-])CCCCCCCCC(=O)[O-]
REMARK SMILES IDX 7 1 6 2 5 3 4 4 2 5 1 6 3 7 8 8 9 9 10 10 11 11 12 12 13 13
REMARK SMILES IDX 14 14
REMARK H PARENT
REMARK Flexibility Score: inf
ROOT
ATOM      1  C   UNL     1       0.674   8.424  -7.964  1.00  0.00     0.000 C 
ENDROOT
BRANCH   1   2
ATOM      2  C   UNL     1       1.754   7.630  -8.714  1.00  0.00     0.000 C 
BRANCH   2   3
ATOM      3  C   UNL     1       2.460   8.467  -9.792  1.00  0.00     0.006 C 
BRANCH   3   4
ATOM      4  C   UNL     1       1.822   9.854  -9.913  1.00  0.00     0.053 C 
BRANCH   4   5
ATOM      5  C   UNL     1       2.856  10.923  -9.744  1.00  0.00     0.041 C 
ATOM      6  O   UNL     1       3.705  11.131 -10.650  1.00  0.00    -0.550 OA
ATOM      7  O   UNL     1       2.912  11.657  -8.566  1.00  0.00    -0.550 OA
ENDBRANCH   4   5
ENDBRANCH   3   4
ENDBRANCH   2   3
ENDBRANCH   1   2
BRANCH   1   8
ATOM      8  C   UNL     1      -0.747   7.909  -8.253  1.00  0.00     0.000 C 
BRANCH   8   9
ATOM      9  C   UNL     1      -0.758   6.714  -9.219  1.00  0.00     0.000 C 
BRANCH   9  10
ATOM     10  C   UNL     1      -1.125   7.118 -10.654  1.00  0.00     0.006 C 
BRANCH  10  11
ATOM     11  C   UNL     1      -2.164   8.243 -10.660  1.00  0.00     0.053 C 
BRANCH  11  12
ATOM     12  C   UNL     1      -3.459   7.759 -11.230  1.00  0.00     0.041 C 
ATOM     13  O   UNL     1      -4.536   8.343 -10.942  1.00  0.00    -0.550 OA
ATOM     14  O   UNL     1      -3.470   6.693 -12.121  1.00  0.00    -0.550 OA
ENDBRANCH  11  12
ENDBRANCH  10  11
ENDBRANCH   9  10
ENDBRANCH   8   9
ENDBRANCH   1   8
TORSDOF 9
ENDMDL
MODEL 9
REMARK VINA RESULT:    -3.608      2.115      2.906
REMARK INTER + INTRA:          -6.270
REMARK INTER:                  -5.742
REMARK INTRA:                  -0.528
REMARK UNBOUND:                -0.764
REMARK SMILES O=C([O-])CCCCCCCCC(=O)[O-]
REMARK SMILES IDX 7 1 6 2 5 3 4 4 2 5 1 6 3 7 8 8 9 9 10 10 11 11 12 12 13 13
REMARK SMILES IDX 14 14
REMARK H PARENT
REMARK Flexibility Score: inf
ROOT
ATOM      1  C   UNL     1      -0.577  10.515 -11.326  1.00  0.00     0.000 C 
ENDROOT
BRANCH   1   2
ATOM      2  C   UNL     1       0.093   9.146 -11.133  1.00  0.00     0.000 C 
BRANCH   2   3
ATOM      3  C   UNL     1       1.173   9.166 -10.040  1.00  0.00     0.006 C 
BRANCH   3   4
ATOM      4  C   UNL     1       1.538   7.743  -9.607  1.00  0.00     0.053 C 
BRANCH   4   5
ATOM      5  C   UNL     1       0.660   7.298  -8.480  1.00  0.00     0.041 C 
ATOM      6  O   UNL     1      -0.303   6.518  -8.698  1.00  0.00    -0.550 OA
ATOM      7  O   UNL     1       0.878   7.782  -7.196  1.00  0.00    -0.550 OA
ENDBRANCH   4   5
ENDBRANCH   3   4
ENDBRANCH   2   3
ENDBRANCH   1   2
BRANCH   1   8
ATOM      8  C   UNL     1      -2.111  10.420 -11.395  1.00  0.00     0.000 C 
BRANCH   8   9
ATOM      9  C   UNL     1      -2.661   9.198 -10.642  1.00  0.00     0.000 C 
BRANCH   9  10
ATOM     10  C   UNL     1      -4.132   8.909 -10.979  1.00  0.00     0.006 C 
BRANCH  10  11
ATOM     11  C   UNL     1      -4.660   9.897 -12.022  1.00  0.00     0.053 C 
BRANCH  11  12
ATOM     12  C   UNL     1      -5.798  10.691 -11.464  1.00  0.00     0.041 C 
ATOM     13  O   UNL     1      -6.957  10.556 -11.936  1.00  0.00    -0.550 OA
ATOM     14  O   UNL     1      -5.588  11.546 -10.388  1.00  0.00    -0.550 OA
ENDBRANCH  11  12
ENDBRANCH  10  11
ENDBRANCH   9  10
ENDBRANCH   8   9
ENDBRANCH   1   8
TORSDOF 9
ENDMDL
