MODEL 1
REMARK VINA RESULT:    -4.315      0.000      0.000
REMARK INTER + INTRA:          -4.315
REMARK INTER:                  -4.315
REMARK INTRA:                   0.000
REMARK UNBOUND:                 0.000
REMARK SMILES CC1=CC[C@@]2(C)CCCC(C)(C)[C@]23C[C@@H]13
REMARK SMILES IDX 1 1 2 2 3 3 4 4 5 5 7 6 8 7 9 8 10 9 13 10 15 11 14 12 11 13
REMARK SMILES IDX 12 14 6 15
REMARK H PARENT
REMARK Flexibility Score: inf
ROOT
ATOM      1  C   UNL     1      18.194  65.069  16.690  1.00  0.00     0.039 C 
ATOM      2  C   UNL     1      19.619  64.662  16.934  1.00  0.00    -0.074 C 
ATOM      3  C   UNL     1      19.921  63.516  17.592  1.00  0.00    -0.027 C 
ATOM      4  C   UNL     1      21.376  63.140  17.885  1.00  0.00     0.034 C 
ATOM      5  C   UNL     1      22.425  63.704  16.835  1.00  0.00    -0.022 C 
ATOM      6  C   UNL     1      23.134  62.523  16.093  1.00  0.00     0.008 C 
ATOM      7  C   UNL     1      23.654  62.937  14.712  1.00  0.00     0.001 C 
ATOM      8  C   UNL     1      22.531  63.363  13.741  1.00  0.00     0.007 C 
ATOM      9  C   UNL     1      21.231  63.920  14.414  1.00  0.00    -0.029 C 
ATOM     10  C   UNL     1      21.662  64.620  15.795  1.00  0.00    -0.012 C 
ATOM     11  C   UNL     1      20.743  65.603  16.626  1.00  0.00     0.022 C 
ATOM     12  C   UNL     1      21.832  66.105  15.669  1.00  0.00     0.017 C 
ATOM     13  C   UNL     1      20.224  62.748  14.608  1.00  0.00     0.012 C 
ATOM     14  C   UNL     1      20.543  64.868  13.389  1.00  0.00     0.012 C 
ATOM     15  C   UNL     1      23.536  64.483  17.599  1.00  0.00     0.012 C 
ENDROOT
TORSDOF 0
ENDMDL
MODEL 2
REMARK VINA RESULT:    -4.163      1.108      3.901
REMARK INTER + INTRA:          -4.163
REMARK INTER:                  -4.163
REMARK INTRA:                   0.000
REMARK UNBOUND:                 0.000
REMARK SMILES CC1=CC[C@@]2(C)CCCC(C)(C)[C@]23C[C@@H]13
REMARK SMILES IDX 1 1 2 2 3 3 4 4 5 5 7 6 8 7 9 8 10 9 13 10 15 11 14 12 11 13
REMARK SMILES IDX 12 14 6 15
REMARK H PARENT
REMARK Flexibility Score: inf
ROOT
ATOM      1  C   UNL     1      23.632  63.921  13.426  1.00  0.00     0.039 C 
ATOM      2  C   UNL     1      22.421  64.002  14.310  1.00  0.00    -0.074 C 
ATOM      3  C   UNL     1      21.495  63.012  14.328  1.00  0.00    -0.027 C 
ATOM      4  C   UNL     1      20.236  63.131  15.190  1.00  0.00     0.034 C 
ATOM      5  C   UNL     1      20.414  64.019  16.494  1.00  0.00    -0.022 C 
ATOM      6  C   UNL     1      20.208  63.144  17.775  1.00  0.00     0.008 C 
ATOM      7  C   UNL     1      20.941  63.720  18.992  1.00  0.00     0.001 C 
ATOM      8  C   UNL     1      22.475  63.763  18.816  1.00  0.00     0.007 C 
ATOM      9  C   UNL     1      22.982  63.857  17.337  1.00  0.00    -0.029 C 
ATOM     10  C   UNL     1      21.867  64.645  16.490  1.00  0.00    -0.012 C 
ATOM     11  C   UNL     1      22.103  65.264  15.054  1.00  0.00     0.022 C 
ATOM     12  C   UNL     1      22.174  66.105  16.335  1.00  0.00     0.017 C 
ATOM     13  C   UNL     1      23.252  62.416  16.807  1.00  0.00     0.012 C 
ATOM     14  C   UNL     1      24.382  64.537  17.364  1.00  0.00     0.012 C 
ATOM     15  C   UNL     1      19.305  65.112  16.517  1.00  0.00     0.012 C 
ENDROOT
TORSDOF 0
ENDMDL
MODEL 3
REMARK VINA RESULT:    -4.132      1.281      3.742
REMARK INTER + INTRA:          -4.132
REMARK INTER:                  -4.132
REMARK INTRA:                   0.000
REMARK UNBOUND:                 0.000
REMARK SMILES CC1=CC[C@@]2(C)CCCC(C)(C)[C@]23C[C@@H]13
REMARK SMILES IDX 1 1 2 2 3 3 4 4 5 5 7 6 8 7 9 8 10 9 13 10 15 11 14 12 11 13
REMARK SMILES IDX 12 14 6 15
REMARK H PARENT
REMARK Flexibility Score: inf
ROOT
ATOM      1  C   UNL     1      24.018  63.048  17.644  1.00  0.00     0.039 C 
ATOM      2  C   UNL     1      22.772  63.114  16.809  1.00  0.00    -0.074 C 
ATOM      3  C   UNL     1      21.583  63.482  17.347  1.00  0.00    -0.027 C 
ATOM      4  C   UNL     1      20.308  63.489  16.499  1.00  0.00     0.034 C 
ATOM      5  C   UNL     1      20.548  63.751  14.952  1.00  0.00    -0.022 C 
ATOM      6  C   UNL     1      19.857  65.087  14.518  1.00  0.00     0.008 C 
ATOM      7  C   UNL     1      20.525  65.710  13.288  1.00  0.00     0.001 C 
ATOM      8  C   UNL     1      21.995  66.117  13.532  1.00  0.00     0.007 C 
ATOM      9  C   UNL     1      22.743  65.308  14.645  1.00  0.00    -0.029 C 
ATOM     10  C   UNL     1      22.105  63.834  14.685  1.00  0.00    -0.012 C 
ATOM     11  C   UNL     1      22.767  62.590  15.405  1.00  0.00     0.022 C 
ATOM     12  C   UNL     1      22.897  62.833  13.896  1.00  0.00     0.017 C 
ATOM     13  C   UNL     1      22.609  66.072  15.996  1.00  0.00     0.012 C 
ATOM     14  C   UNL     1      24.263  65.353  14.315  1.00  0.00     0.012 C 
ATOM     15  C   UNL     1      19.872  62.613  14.134  1.00  0.00     0.012 C 
ENDROOT
TORSDOF 0
ENDMDL
MODEL 4
REMARK VINA RESULT:    -4.083      1.029      3.563
REMARK INTER + INTRA:          -4.083
REMARK INTER:                  -4.083
REMARK INTRA:                   0.000
REMARK UNBOUND:                 0.000
REMARK SMILES CC1=CC[C@@]2(C)CCCC(C)(C)[C@]23C[C@@H]13
REMARK SMILES IDX 1 1 2 2 3 3 4 4 5 5 7 6 8 7 9 8 10 9 13 10 15 11 14 12 11 13
REMARK SMILES IDX 12 14 6 15
REMARK H PARENT
REMARK Flexibility Score: inf
ROOT
ATOM      1  C   UNL     1      23.784  63.975  19.083  1.00  0.00     0.039 C 
ATOM      2  C   UNL     1      23.341  63.858  17.653  1.00  0.00    -0.074 C 
ATOM      3  C   UNL     1      23.334  62.664  17.013  1.00  0.00    -0.027 C 
ATOM      4  C   UNL     1      22.934  62.567  15.538  1.00  0.00     0.034 C 
ATOM      5  C   UNL     1      21.913  63.684  15.058  1.00  0.00    -0.022 C 
ATOM      6  C   UNL     1      20.565  63.026  14.613  1.00  0.00     0.008 C 
ATOM      7  C   UNL     1      19.382  63.993  14.737  1.00  0.00     0.001 C 
ATOM      8  C   UNL     1      19.112  64.443  16.190  1.00  0.00     0.007 C 
ATOM      9  C   UNL     1      20.352  64.416  17.146  1.00  0.00    -0.029 C 
ATOM     10  C   UNL     1      21.660  64.689  16.253  1.00  0.00    -0.012 C 
ATOM     11  C   UNL     1      23.076  65.086  16.836  1.00  0.00     0.022 C 
ATOM     12  C   UNL     1      22.094  66.124  16.277  1.00  0.00     0.017 C 
ATOM     13  C   UNL     1      20.387  63.044  17.884  1.00  0.00     0.012 C 
ATOM     14  C   UNL     1      20.099  65.463  18.270  1.00  0.00     0.012 C 
ATOM     15  C   UNL     1      22.497  64.398  13.804  1.00  0.00     0.012 C 
ENDROOT
TORSDOF 0
ENDMDL
MODEL 5
REMARK VINA RESULT:    -4.078      1.207      4.241
REMARK INTER + INTRA:          -4.078
REMARK INTER:                  -4.078
REMARK INTRA:                   0.000
REMARK UNBOUND:                 0.000
REMARK SMILES CC1=CC[C@@]2(C)CCCC(C)(C)[C@]23C[C@@H]13
REMARK SMILES IDX 1 1 2 2 3 3 4 4 5 5 7 6 8 7 9 8 10 9 13 10 15 11 14 12 11 13
REMARK SMILES IDX 12 14 6 15
REMARK H PARENT
REMARK Flexibility Score: inf
ROOT
ATOM      1  C   UNL     1      22.866  62.495  14.206  1.00  0.00     0.039 C 
ATOM      2  C   UNL     1      21.611  63.310  14.320  1.00  0.00    -0.074 C 
ATOM      3  C   UNL     1      20.387  62.734  14.232  1.00  0.00    -0.027 C 
ATOM      4  C   UNL     1      19.114  63.583  14.293  1.00  0.00     0.034 C 
ATOM      5  C   UNL     1      19.257  64.924  15.132  1.00  0.00    -0.022 C 
ATOM      6  C   UNL     1      18.303  64.888  16.372  1.00  0.00     0.008 C 
ATOM      7  C   UNL     1      18.801  65.783  17.511  1.00  0.00     0.001 C 
ATOM      8  C   UNL     1      20.166  65.341  18.082  1.00  0.00     0.007 C 
ATOM      9  C   UNL     1      21.089  64.553  17.092  1.00  0.00    -0.029 C 
ATOM     10  C   UNL     1      20.759  65.070  15.606  1.00  0.00    -0.012 C 
ATOM     11  C   UNL     1      21.674  64.808  14.342  1.00  0.00     0.022 C 
ATOM     12  C   UNL     1      21.713  66.124  15.129  1.00  0.00     0.017 C 
ATOM     13  C   UNL     1      20.840  63.027  17.281  1.00  0.00     0.012 C 
ATOM     14  C   UNL     1      22.561  64.774  17.547  1.00  0.00     0.012 C 
ATOM     15  C   UNL     1      18.800  66.123  14.252  1.00  0.00     0.012 C 
ENDROOT
TORSDOF 0
ENDMDL
MODEL 6
REMARK VINA RESULT:    -4.039      1.296      3.578
REMARK INTER + INTRA:          -4.039
REMARK INTER:                  -4.039
REMARK INTRA:                   0.000
REMARK UNBOUND:                 0.000
REMARK SMILES CC1=CC[C@@]2(C)CCCC(C)(C)[C@]23C[C@@H]13
REMARK SMILES IDX 1 1 2 2 3 3 4 4 5 5 7 6 8 7 9 8 10 9 13 10 15 11 14 12 11 13
REMARK SMILES IDX 12 14 6 15
REMARK H PARENT
REMARK Flexibility Score: inf
ROOT
ATOM      1  C   UNL     1      25.060  65.658  17.776  1.00  0.00     0.039 C 
ATOM      2  C   UNL     1      23.651  65.143  17.728  1.00  0.00    -0.074 C 
ATOM      3  C   UNL     1      22.592  65.989  17.720  1.00  0.00    -0.027 C 
ATOM      4  C   UNL     1      21.158  65.451  17.729  1.00  0.00     0.034 C 
ATOM      5  C   UNL     1      20.987  64.024  17.054  1.00  0.00    -0.022 C 
ATOM      6  C   UNL     1      20.061  64.130  15.797  1.00  0.00     0.008 C 
ATOM      7  C   UNL     1      20.337  63.016  14.781  1.00  0.00     0.001 C 
ATOM      8  C   UNL     1      21.765  63.065  14.195  1.00  0.00     0.007 C 
ATOM      9  C   UNL     1      22.847  63.733  15.108  1.00  0.00    -0.029 C 
ATOM     10  C   UNL     1      22.414  63.484  16.635  1.00  0.00    -0.012 C 
ATOM     11  C   UNL     1      23.369  63.679  17.881  1.00  0.00     0.022 C 
ATOM     12  C   UNL     1      23.103  62.304  17.254  1.00  0.00     0.017 C 
ATOM     13  C   UNL     1      22.954  65.242  14.737  1.00  0.00     0.012 C 
ATOM     14  C   UNL     1      24.228  63.130  14.715  1.00  0.00     0.012 C 
ATOM     15  C   UNL     1      20.271  63.073  18.057  1.00  0.00     0.012 C 
ENDROOT
TORSDOF 0
ENDMDL
MODEL 7
REMARK VINA RESULT:    -4.010      1.203      3.163
REMARK INTER + INTRA:          -4.010
REMARK INTER:                  -4.010
REMARK INTRA:                   0.000
REMARK UNBOUND:                 0.000
REMARK SMILES CC1=CC[C@@]2(C)CCCC(C)(C)[C@]23C[C@@H]13
REMARK SMILES IDX 1 1 2 2 3 3 4 4 5 5 7 6 8 7 9 8 10 9 13 10 15 11 14 12 11 13
REMARK SMILES IDX 12 14 6 15
REMARK H PARENT
REMARK Flexibility Score: inf
ROOT
ATOM      1  C   UNL     1      19.138  63.527  14.324  1.00  0.00     0.039 C 
ATOM      2  C   UNL     1      20.471  63.247  14.956  1.00  0.00    -0.074 C 
ATOM      3  C   UNL     1      21.593  63.124  14.206  1.00  0.00    -0.027 C 
ATOM      4  C   UNL     1      22.937  62.781  14.856  1.00  0.00     0.034 C 
ATOM      5  C   UNL     1      23.085  63.271  16.359  1.00  0.00    -0.022 C 
ATOM      6  C   UNL     1      24.237  64.324  16.471  1.00  0.00     0.008 C 
ATOM      7  C   UNL     1      24.045  65.265  17.666  1.00  0.00     0.001 C 
ATOM      8  C   UNL     1      22.766  66.125  17.566  1.00  0.00     0.007 C 
ATOM      9  C   UNL     1      21.605  65.511  16.712  1.00  0.00    -0.029 C 
ATOM     10  C   UNL     1      21.715  63.912  16.823  1.00  0.00    -0.012 C 
ATOM     11  C   UNL     1      20.567  62.904  16.412  1.00  0.00     0.022 C 
ATOM     12  C   UNL     1      20.804  63.334  17.865  1.00  0.00     0.017 C 
ATOM     13  C   UNL     1      21.725  66.036  15.250  1.00  0.00     0.012 C 
ATOM     14  C   UNL     1      20.269  66.111  17.240  1.00  0.00     0.012 C 
ATOM     15  C   UNL     1      23.498  62.062  17.247  1.00  0.00     0.012 C 
ENDROOT
TORSDOF 0
ENDMDL
MODEL 8
REMARK VINA RESULT:    -3.969      1.184      3.520
REMARK INTER + INTRA:          -3.969
REMARK INTER:                  -3.969
REMARK INTRA:                   0.000
REMARK UNBOUND:                 0.000
REMARK SMILES CC1=CC[C@@]2(C)CCCC(C)(C)[C@]23C[C@@H]13
REMARK SMILES IDX 1 1 2 2 3 3 4 4 5 5 7 6 8 7 9 8 10 9 13 10 15 11 14 12 11 13
REMARK SMILES IDX 12 14 6 15
REMARK H PARENT
REMARK Flexibility Score: inf
ROOT
ATOM      1  C   UNL     1      21.356  66.124  12.515  1.00  0.00     0.039 C 
ATOM      2  C   UNL     1      21.974  65.294  13.603  1.00  0.00    -0.074 C 
ATOM      3  C   UNL     1      22.924  65.804  14.424  1.00  0.00    -0.027 C 
ATOM      4  C   UNL     1      23.588  64.931  15.492  1.00  0.00     0.034 C 
ATOM      5  C   UNL     1      22.677  63.750  16.036  1.00  0.00    -0.022 C 
ATOM      6  C   UNL     1      22.387  63.952  17.561  1.00  0.00     0.008 C 
ATOM      7  C   UNL     1      21.085  63.271  17.997  1.00  0.00     0.001 C 
ATOM      8  C   UNL     1      19.832  63.848  17.302  1.00  0.00     0.007 C 
ATOM      9  C   UNL     1      20.078  64.498  15.898  1.00  0.00    -0.029 C 
ATOM     10  C   UNL     1      21.321  63.736  15.222  1.00  0.00    -0.012 C 
ATOM     11  C   UNL     1      21.698  63.823  13.688  1.00  0.00     0.022 C 
ATOM     12  C   UNL     1      20.897  62.653  14.275  1.00  0.00     0.017 C 
ATOM     13  C   UNL     1      20.322  66.025  16.088  1.00  0.00     0.012 C 
ATOM     14  C   UNL     1      18.745  64.406  15.101  1.00  0.00     0.012 C 
ATOM     15  C   UNL     1      23.455  62.408  15.904  1.00  0.00     0.012 C 
ENDROOT
TORSDOF 0
ENDMDL
MODEL 9
REMARK VINA RESULT:    -3.826      1.391      3.343
REMARK INTER + INTRA:          -3.826
REMARK INTER:                  -3.826
REMARK INTRA:                   0.000
REMARK UNBOUND:                 0.000
REMARK SMILES CC1=CC[C@@]2(C)CCCC(C)(C)[C@]23C[C@@H]13
REMARK SMILES IDX 1 1 2 2 3 3 4 4 5 5 7 6 8 7 9 8 10 9 13 10 15 11 14 12 11 13
REMARK SMILES IDX 12 14 6 15
REMARK H PARENT
REMARK Flexibility Score: inf
ROOT
ATOM      1  C   UNL     1      20.272  63.614  18.005  1.00  0.00     0.039 C 
ATOM      2  C   UNL     1      21.026  63.338  16.736  1.00  0.00    -0.074 C 
ATOM      3  C   UNL     1      20.429  63.449  15.525  1.00  0.00    -0.027 C 
ATOM      4  C   UNL     1      21.192  63.110  14.241  1.00  0.00     0.034 C 
ATOM      5  C   UNL     1      22.761  63.331  14.330  1.00  0.00    -0.022 C 
ATOM      6  C   UNL     1      23.207  64.441  13.321  1.00  0.00     0.008 C 
ATOM      7  C   UNL     1      24.504  65.131  13.757  1.00  0.00     0.001 C 
ATOM      8  C   UNL     1      24.374  65.883  15.100  1.00  0.00     0.007 C 
ATOM      9  C   UNL     1      23.277  65.337  16.076  1.00  0.00    -0.029 C 
ATOM     10  C   UNL     1      23.132  63.759  15.807  1.00  0.00    -0.012 C 
ATOM     11  C   UNL     1      22.403  62.748  16.782  1.00  0.00     0.022 C 
ATOM     12  C   UNL     1      23.926  62.927  16.770  1.00  0.00     0.017 C 
ATOM     13  C   UNL     1      21.955  66.125  15.836  1.00  0.00     0.012 C 
ATOM     14  C   UNL     1      23.707  65.716  17.523  1.00  0.00     0.012 C 
ATOM     15  C   UNL     1      23.483  62.021  13.900  1.00  0.00     0.012 C 
ENDROOT
TORSDOF 0
ENDMDL
