MODEL 1
REMARK VINA RESULT:    -4.226      0.000      0.000
REMARK INTER + INTRA:          -6.940
REMARK INTER:                  -6.449
REMARK INTRA:                  -0.492
REMARK UNBOUND:                -0.492
REMARK SMILES CCCCCCCCCCC(=O)[O-]
REMARK SMILES IDX 7 1 8 2 9 3 10 4 11 5 12 6 13 7 6 8 5 9 4 10 3 11 2 12 1 13
REMARK H PARENT
REMARK Flexibility Score: inf
ROOT
ATOM      1  C   UNL     1      99.969 -69.490   5.458  1.00  0.00     0.000 C 
ENDROOT
BRANCH   1   2
ATOM      2  C   UNL     1      99.482 -68.221   4.749  1.00  0.00     0.000 C 
BRANCH   2   3
ATOM      3  C   UNL     1      98.577 -68.568   3.557  1.00  0.00     0.006 C 
BRANCH   3   4
ATOM      4  C   UNL     1      98.850 -67.674   2.341  1.00  0.00     0.053 C 
BRANCH   4   5
ATOM      5  C   UNL     1      99.774 -68.334   1.364  1.00  0.00     0.041 C 
ATOM      6  O   UNL     1     101.009 -68.089   1.392  1.00  0.00    -0.550 OA
ATOM      7  O   UNL     1      99.275 -69.247   0.443  1.00  0.00    -0.550 OA
ENDBRANCH   4   5
ENDBRANCH   3   4
ENDBRANCH   2   3
ENDBRANCH   1   2
BRANCH   1   8
ATOM      8  C   UNL     1     100.992 -69.152   6.552  1.00  0.00     0.000 C 
BRANCH   8   9
ATOM      9  C   UNL     1     100.990 -67.662   6.938  1.00  0.00    -0.000 C 
BRANCH   9  10
ATOM     10  C   UNL     1     100.969 -67.381   8.450  1.00  0.00    -0.000 C 
BRANCH  10  11
ATOM     11  C   UNL     1     101.194 -68.641   9.298  1.00  0.00    -0.000 C 
BRANCH  11  12
ATOM     12  C   UNL     1     100.311 -68.625  10.552  1.00  0.00    -0.003 C 
ATOM     13  C   UNL     1     100.068 -67.200  11.037  1.00  0.00     0.004 C 
ENDBRANCH  11  12
ENDBRANCH  10  11
ENDBRANCH   9  10
ENDBRANCH   8   9
ENDBRANCH   1   8
TORSDOF 9
ENDMDL
MODEL 2
REMARK VINA RESULT:    -4.019      1.340      2.541
REMARK INTER + INTRA:          -6.626
REMARK INTER:                  -6.187
REMARK INTRA:                  -0.439
REMARK UNBOUND:                -0.492
REMARK SMILES CCCCCCCCCCC(=O)[O-]
REMARK SMILES IDX 7 1 8 2 9 3 10 4 11 5 12 6 13 7 6 8 5 9 4 10 3 11 2 12 1 13
REMARK H PARENT
REMARK Flexibility Score: inf
ROOT
ATOM      1  C   UNL     1      98.233 -68.033   3.817  1.00  0.00     0.000 C 
ENDROOT
BRANCH   1   2
ATOM      2  C   UNL     1      98.526 -67.367   2.467  1.00  0.00     0.000 C 
BRANCH   2   3
ATOM      3  C   UNL     1      99.672 -68.084   1.736  1.00  0.00     0.006 C 
BRANCH   3   4
ATOM      4  C   UNL     1      99.472 -68.097   0.215  1.00  0.00     0.053 C 
BRANCH   4   5
ATOM      5  C   UNL     1      98.697 -69.299  -0.231  1.00  0.00     0.041 C 
ATOM      6  O   UNL     1      98.544 -70.280   0.543  1.00  0.00    -0.550 OA
ATOM      7  O   UNL     1      98.115 -69.321  -1.493  1.00  0.00    -0.550 OA
ENDBRANCH   4   5
ENDBRANCH   3   4
ENDBRANCH   2   3
ENDBRANCH   1   2
BRANCH   1   8
ATOM      8  C   UNL     1      99.497 -68.091   4.688  1.00  0.00     0.000 C 
BRANCH   8   9
ATOM      9  C   UNL     1      99.823 -69.512   5.180  1.00  0.00    -0.000 C 
BRANCH   9  10
ATOM     10  C   UNL     1     100.989 -69.603   6.180  1.00  0.00    -0.000 C 
BRANCH  10  11
ATOM     11  C   UNL     1     101.159 -68.330   7.021  1.00  0.00    -0.000 C 
BRANCH  11  12
ATOM     12  C   UNL     1     100.956 -68.624   8.512  1.00  0.00    -0.003 C 
ATOM     13  C   UNL     1     100.701 -67.342   9.298  1.00  0.00     0.004 C 
ENDBRANCH  11  12
ENDBRANCH  10  11
ENDBRANCH   9  10
ENDBRANCH   8   9
ENDBRANCH   1   8
TORSDOF 9
ENDMDL
MODEL 3
REMARK VINA RESULT:    -4.018      1.001      1.382
REMARK INTER + INTRA:          -6.624
REMARK INTER:                  -6.102
REMARK INTRA:                  -0.521
REMARK UNBOUND:                -0.492
REMARK SMILES CCCCCCCCCCC(=O)[O-]
REMARK SMILES IDX 7 1 8 2 9 3 10 4 11 5 12 6 13 7 6 8 5 9 4 10 3 11 2 12 1 13
REMARK H PARENT
REMARK Flexibility Score: inf
ROOT
ATOM      1  C   UNL     1      99.790 -69.060   5.309  1.00  0.00     0.000 C 
ENDROOT
BRANCH   1   2
ATOM      2  C   UNL     1      99.906 -67.570   4.970  1.00  0.00     0.000 C 
BRANCH   2   3
ATOM      3  C   UNL     1      98.891 -67.169   3.889  1.00  0.00     0.006 C 
BRANCH   3   4
ATOM      4  C   UNL     1      98.496 -68.352   2.996  1.00  0.00     0.053 C 
BRANCH   4   5
ATOM      5  C   UNL     1      98.981 -68.171   1.590  1.00  0.00     0.041 C 
ATOM      6  O   UNL     1      99.301 -69.171   0.894  1.00  0.00    -0.550 OA
ATOM      7  O   UNL     1      99.050 -66.898   1.037  1.00  0.00    -0.550 OA
ENDBRANCH   4   5
ENDBRANCH   3   4
ENDBRANCH   2   3
ENDBRANCH   1   2
BRANCH   1   8
ATOM      8  C   UNL     1     101.049 -69.561   6.032  1.00  0.00     0.000 C 
BRANCH   8   9
ATOM      9  C   UNL     1     101.629 -68.526   7.013  1.00  0.00    -0.000 C 
BRANCH   9  10
ATOM     10  C   UNL     1     100.977 -68.513   8.407  1.00  0.00    -0.000 C 
BRANCH  10  11
ATOM     11  C   UNL     1     100.715 -67.094   8.932  1.00  0.00    -0.000 C 
BRANCH  11  12
ATOM     12  C   UNL     1     100.260 -67.126  10.396  1.00  0.00    -0.003 C 
ATOM     13  C   UNL     1     100.309 -68.543  10.959  1.00  0.00     0.004 C 
ENDBRANCH  11  12
ENDBRANCH  10  11
ENDBRANCH   9  10
ENDBRANCH   8   9
ENDBRANCH   1   8
TORSDOF 9
ENDMDL
MODEL 4
REMARK VINA RESULT:    -3.845      1.810      3.183
REMARK INTER + INTRA:          -6.360
REMARK INTER:                  -5.687
REMARK INTRA:                  -0.673
REMARK UNBOUND:                -0.492
REMARK SMILES CCCCCCCCCCC(=O)[O-]
REMARK SMILES IDX 7 1 8 2 9 3 10 4 11 5 12 6 13 7 6 8 5 9 4 10 3 11 2 12 1 13
REMARK H PARENT
REMARK Flexibility Score: inf
ROOT
ATOM      1  C   UNL     1     101.026 -68.490   7.772  1.00  0.00     0.000 C 
ENDROOT
BRANCH   1   2
ATOM      2  C   UNL     1     102.057 -68.765   6.671  1.00  0.00     0.000 C 
BRANCH   2   3
ATOM      3  C   UNL     1     101.447 -69.613   5.544  1.00  0.00     0.006 C 
BRANCH   3   4
ATOM      4  C   UNL     1      99.913 -69.594   5.568  1.00  0.00     0.053 C 
BRANCH   4   5
ATOM      5  C   UNL     1      99.354 -68.654   4.544  1.00  0.00     0.041 C 
ATOM      6  O   UNL     1      99.377 -67.411   4.742  1.00  0.00    -0.550 OA
ATOM      7  O   UNL     1      98.837 -69.151   3.354  1.00  0.00    -0.550 OA
ENDBRANCH   4   5
ENDBRANCH   3   4
ENDBRANCH   2   3
ENDBRANCH   1   2
BRANCH   1   8
ATOM      8  C   UNL     1     101.532 -68.985   9.135  1.00  0.00     0.000 C 
BRANCH   8   9
ATOM      9  C   UNL     1     100.513 -68.771  10.268  1.00  0.00    -0.000 C 
BRANCH   9  10
ATOM     10  C   UNL     1     101.106 -68.244  11.587  1.00  0.00    -0.000 C 
BRANCH  10  11
ATOM     11  C   UNL     1     101.011 -66.717  11.718  1.00  0.00    -0.000 C 
BRANCH  11  12
ATOM     12  C   UNL     1      99.809 -66.171  10.938  1.00  0.00    -0.003 C 
ATOM     13  C   UNL     1     100.246 -65.133   9.908  1.00  0.00     0.004 C 
ENDBRANCH  11  12
ENDBRANCH  10  11
ENDBRANCH   9  10
ENDBRANCH   8   9
ENDBRANCH   1   8
TORSDOF 9
ENDMDL
MODEL 5
REMARK VINA RESULT:    -3.805      2.155      3.203
REMARK INTER + INTRA:          -6.299
REMARK INTER:                  -5.200
REMARK INTRA:                  -1.099
REMARK UNBOUND:                -0.492
REMARK SMILES CCCCCCCCCCC(=O)[O-]
REMARK SMILES IDX 7 1 8 2 9 3 10 4 11 5 12 6 13 7 6 8 5 9 4 10 3 11 2 12 1 13
REMARK H PARENT
REMARK Flexibility Score: inf
ROOT
ATOM      1  C   UNL     1      98.092 -66.279   3.531  1.00  0.00     0.000 C 
ENDROOT
BRANCH   1   2
ATOM      2  C   UNL     1      97.861 -67.726   3.982  1.00  0.00     0.000 C 
BRANCH   2   3
ATOM      3  C   UNL     1      98.266 -68.718   2.881  1.00  0.00     0.006 C 
BRANCH   3   4
ATOM      4  C   UNL     1      99.244 -68.101   1.874  1.00  0.00     0.053 C 
BRANCH   4   5
ATOM      5  C   UNL     1      99.104 -68.717   0.516  1.00  0.00     0.041 C 
ATOM      6  O   UNL     1      99.358 -68.044  -0.517  1.00  0.00    -0.550 OA
ATOM      7  O   UNL     1      98.723 -70.048   0.393  1.00  0.00    -0.550 OA
ENDBRANCH   4   5
ENDBRANCH   3   4
ENDBRANCH   2   3
ENDBRANCH   1   2
BRANCH   1   8
ATOM      8  C   UNL     1      98.939 -65.511   4.556  1.00  0.00     0.000 C 
BRANCH   8   9
ATOM      9  C   UNL     1     100.291 -66.187   4.846  1.00  0.00    -0.000 C 
BRANCH   9  10
ATOM     10  C   UNL     1     100.659 -66.297   6.336  1.00  0.00    -0.000 C 
BRANCH  10  11
ATOM     11  C   UNL     1     101.096 -67.712   6.743  1.00  0.00    -0.000 C 
BRANCH  11  12
ATOM     12  C   UNL     1     101.123 -68.649   5.529  1.00  0.00    -0.003 C 
ATOM     13  C   UNL     1     100.251 -69.879   5.763  1.00  0.00     0.004 C 
ENDBRANCH  11  12
ENDBRANCH  10  11
ENDBRANCH   9  10
ENDBRANCH   8   9
ENDBRANCH   1   8
TORSDOF 9
ENDMDL
MODEL 6
REMARK VINA RESULT:    -3.681      3.529      4.942
REMARK INTER + INTRA:          -6.109
REMARK INTER:                  -4.643
REMARK INTRA:                  -1.466
REMARK UNBOUND:                -0.492
REMARK SMILES CCCCCCCCCCC(=O)[O-]
REMARK SMILES IDX 7 1 8 2 9 3 10 4 11 5 12 6 13 7 6 8 5 9 4 10 3 11 2 12 1 13
REMARK H PARENT
REMARK Flexibility Score: inf
ROOT
ATOM      1  C   UNL     1      97.500 -65.253   1.729  1.00  0.00     0.000 C 
ENDROOT
BRANCH   1   2
ATOM      2  C   UNL     1      99.006 -64.994   1.861  1.00  0.00     0.000 C 
BRANCH   2   3
ATOM      3  C   UNL     1      99.806 -65.900   0.913  1.00  0.00     0.006 C 
BRANCH   3   4
ATOM      4  C   UNL     1      98.946 -67.020   0.315  1.00  0.00     0.053 C 
BRANCH   4   5
ATOM      5  C   UNL     1      99.675 -68.328   0.295  1.00  0.00     0.041 C 
ATOM      6  O   UNL     1      99.097 -69.384   0.666  1.00  0.00    -0.550 OA
ATOM      7  O   UNL     1     100.985 -68.387  -0.166  1.00  0.00    -0.550 OA
ENDBRANCH   4   5
ENDBRANCH   3   4
ENDBRANCH   2   3
ENDBRANCH   1   2
BRANCH   1   8
ATOM      8  C   UNL     1      96.845 -65.406   3.110  1.00  0.00     0.000 C 
BRANCH   8   9
ATOM      9  C   UNL     1      97.637 -66.328   4.053  1.00  0.00    -0.000 C 
BRANCH   9  10
ATOM     10  C   UNL     1      97.593 -67.823   3.691  1.00  0.00    -0.000 C 
BRANCH  10  11
ATOM     11  C   UNL     1      98.849 -68.585   4.138  1.00  0.00    -0.000 C 
BRANCH  11  12
ATOM     12  C   UNL     1     100.052 -67.642   4.256  1.00  0.00    -0.003 C 
ATOM     13  C   UNL     1     101.292 -68.246   3.604  1.00  0.00     0.004 C 
ENDBRANCH  11  12
ENDBRANCH  10  11
ENDBRANCH   9  10
ENDBRANCH   8   9
ENDBRANCH   1   8
TORSDOF 9
ENDMDL
MODEL 7
REMARK VINA RESULT:    -3.680      3.870      6.284
REMARK INTER + INTRA:          -6.108
REMARK INTER:                  -5.113
REMARK INTRA:                  -0.995
REMARK UNBOUND:                -0.492
REMARK SMILES CCCCCCCCCCC(=O)[O-]
REMARK SMILES IDX 7 1 8 2 9 3 10 4 11 5 12 6 13 7 6 8 5 9 4 10 3 11 2 12 1 13
REMARK H PARENT
REMARK Flexibility Score: inf
ROOT
ATOM      1  C   UNL     1     101.341 -69.598   5.355  1.00  0.00     0.000 C 
ENDROOT
BRANCH   1   2
ATOM      2  C   UNL     1     101.998 -69.105   6.649  1.00  0.00     0.000 C 
BRANCH   2   3
ATOM      3  C   UNL     1     100.939 -68.712   7.690  1.00  0.00     0.006 C 
BRANCH   3   4
ATOM      4  C   UNL     1     101.505 -68.691   9.116  1.00  0.00     0.053 C 
BRANCH   4   5
ATOM      5  C   UNL     1     100.491 -68.209  10.108  1.00  0.00     0.041 C 
ATOM      6  O   UNL     1     100.030 -68.993  10.978  1.00  0.00    -0.550 OA
ATOM      7  O   UNL     1     100.079 -66.882  10.090  1.00  0.00    -0.550 OA
ENDBRANCH   4   5
ENDBRANCH   3   4
ENDBRANCH   2   3
ENDBRANCH   1   2
BRANCH   1   8
ATOM      8  C   UNL     1      99.812 -69.481   5.434  1.00  0.00     0.000 C 
BRANCH   8   9
ATOM      9  C   UNL     1      99.208 -68.687   4.262  1.00  0.00    -0.000 C 
BRANCH   9  10
ATOM     10  C   UNL     1     100.225 -67.900   3.417  1.00  0.00    -0.000 C 
BRANCH  10  11
ATOM     11  C   UNL     1      99.961 -66.387   3.418  1.00  0.00    -0.000 C 
BRANCH  11  12
ATOM     12  C   UNL     1      99.493 -65.911   4.798  1.00  0.00    -0.003 C 
ATOM     13  C   UNL     1     100.679 -65.587   5.701  1.00  0.00     0.004 C 
ENDBRANCH  11  12
ENDBRANCH  10  11
ENDBRANCH   9  10
ENDBRANCH   8   9
ENDBRANCH   1   8
TORSDOF 9
ENDMDL
MODEL 8
REMARK VINA RESULT:    -3.510      2.644      4.953
REMARK INTER + INTRA:          -5.849
REMARK INTER:                  -5.301
REMARK INTRA:                  -0.548
REMARK UNBOUND:                -0.492
REMARK SMILES CCCCCCCCCCC(=O)[O-]
REMARK SMILES IDX 7 1 8 2 9 3 10 4 11 5 12 6 13 7 6 8 5 9 4 10 3 11 2 12 1 13
REMARK H PARENT
REMARK Flexibility Score: inf
ROOT
ATOM      1  C   UNL     1      99.968 -66.971   1.009  1.00  0.00     0.000 C 
ENDROOT
BRANCH   1   2
ATOM      2  C   UNL     1     100.037 -68.203   0.098  1.00  0.00     0.000 C 
BRANCH   2   3
ATOM      3  C   UNL     1      99.950 -67.800  -1.382  1.00  0.00     0.006 C 
BRANCH   3   4
ATOM      4  C   UNL     1      98.669 -68.315  -2.050  1.00  0.00     0.053 C 
BRANCH   4   5
ATOM      5  C   UNL     1      97.720 -67.199  -2.362  1.00  0.00     0.041 C 
ATOM      6  O   UNL     1      96.999 -67.248  -3.394  1.00  0.00    -0.550 OA
ATOM      7  O   UNL     1      97.608 -66.119  -1.496  1.00  0.00    -0.550 OA
ENDBRANCH   4   5
ENDBRANCH   3   4
ENDBRANCH   2   3
ENDBRANCH   1   2
BRANCH   1   8
ATOM      8  C   UNL     1      98.720 -67.016   1.902  1.00  0.00     0.000 C 
BRANCH   8   9
ATOM      9  C   UNL     1      98.548 -68.362   2.628  1.00  0.00    -0.000 C 
BRANCH   9  10
ATOM     10  C   UNL     1      98.789 -68.318   4.147  1.00  0.00    -0.000 C 
BRANCH  10  11
ATOM     11  C   UNL     1     100.208 -68.751   4.542  1.00  0.00    -0.000 C 
BRANCH  11  12
ATOM     12  C   UNL     1     100.181 -69.676   5.765  1.00  0.00    -0.003 C 
ATOM     13  C   UNL     1     100.887 -69.037   6.956  1.00  0.00     0.004 C 
ENDBRANCH  11  12
ENDBRANCH  10  11
ENDBRANCH   9  10
ENDBRANCH   8   9
ENDBRANCH   1   8
TORSDOF 9
ENDMDL
MODEL 9
REMARK VINA RESULT:    -3.480      1.912      3.386
REMARK INTER + INTRA:          -5.803
REMARK INTER:                  -5.077
REMARK INTRA:                  -0.726
REMARK UNBOUND:                -0.492
REMARK SMILES CCCCCCCCCCC(=O)[O-]
REMARK SMILES IDX 7 1 8 2 9 3 10 4 11 5 12 6 13 7 6 8 5 9 4 10 3 11 2 12 1 13
REMARK H PARENT
REMARK Flexibility Score: inf
ROOT
ATOM      1  C   UNL     1      97.660 -66.237   2.958  1.00  0.00     0.000 C 
ENDROOT
BRANCH   1   2
ATOM      2  C   UNL     1      99.067 -65.645   2.805  1.00  0.00     0.000 C 
BRANCH   2   3
ATOM      3  C   UNL     1      99.589 -65.828   1.371  1.00  0.00     0.006 C 
BRANCH   3   4
ATOM      4  C   UNL     1      98.926 -67.014   0.658  1.00  0.00     0.053 C 
BRANCH   4   5
ATOM      5  C   UNL     1      99.699 -68.281   0.857  1.00  0.00     0.041 C 
ATOM      6  O   UNL     1     100.874 -68.245   1.308  1.00  0.00    -0.550 OA
ATOM      7  O   UNL     1      99.109 -69.507   0.572  1.00  0.00    -0.550 OA
ENDBRANCH   4   5
ENDBRANCH   3   4
ENDBRANCH   2   3
ENDBRANCH   1   2
BRANCH   1   8
ATOM      8  C   UNL     1      97.667 -67.431   3.923  1.00  0.00     0.000 C 
BRANCH   8   9
ATOM      9  C   UNL     1      99.050 -67.691   4.547  1.00  0.00    -0.000 C 
BRANCH   9  10
ATOM     10  C   UNL     1      99.457 -69.173   4.634  1.00  0.00    -0.000 C 
BRANCH  10  11
ATOM     11  C   UNL     1     100.807 -69.384   5.333  1.00  0.00    -0.000 C 
BRANCH  11  12
ATOM     12  C   UNL     1     100.720 -69.016   6.819  1.00  0.00    -0.003 C 
ATOM     13  C   UNL     1     101.715 -67.916   7.175  1.00  0.00     0.004 C 
ENDBRANCH  11  12
ENDBRANCH  10  11
ENDBRANCH   9  10
ENDBRANCH   8   9
ENDBRANCH   1   8
TORSDOF 9
ENDMDL
