MODEL 1
REMARK VINA RESULT:    -8.337      0.000      0.000
REMARK INTER + INTRA:         -11.594
REMARK INTER:                 -11.261
REMARK INTRA:                  -0.333
REMARK UNBOUND:                -0.333
REMARK SMILES O=c1c(-c2ccc(O)cc2)coc2c([C@@H]3O[C@@H](CO)[C@H](O)[C@H](O)[C@H]3O)c(O)ccc12
REMARK SMILES IDX 3 1 11 2 12 3 13 4 30 5 2 6 1 7 29 8 28 9 26 10 14 11 4 12
REMARK SMILES IDX 5 13 6 14 7 15 10 16 9 17 8 18 15 20 24 21 16 22 22 23 17 24
REMARK SMILES IDX 20 25 25 26 23 28 18 30 19 31 21 33 27 35
REMARK H PARENT 8 19 25 27 23 29 19 32 21 34 27 36
REMARK Flexibility Score: inf
ROOT
ATOM      1  C   UNL     1     171.967 171.384 203.617  1.00  0.00     0.065 A 
ATOM      2  C   UNL     1     170.854 170.924 202.904  1.00  0.00     0.208 A 
ATOM      3  O   UNL     1     170.918 170.732 201.593  1.00  0.00    -0.463 OA
ATOM      4  C   UNL     1     172.008 170.957 200.867  1.00  0.00     0.147 A 
ATOM      5  C   UNL     1     173.198 171.363 201.522  1.00  0.00     0.066 A 
ATOM      6  C   UNL     1     173.163 171.594 202.910  1.00  0.00     0.200 A 
ATOM      7  O   UNL     1     174.207 171.955 203.521  1.00  0.00    -0.288 OA
ATOM      8  C   UNL     1     174.387 171.475 200.794  1.00  0.00     0.020 A 
ATOM      9  C   UNL     1     174.418 171.100 199.457  1.00  0.00     0.047 A 
ATOM     10  C   UNL     1     173.253 170.686 198.802  1.00  0.00     0.125 A 
ATOM     11  C   UNL     1     171.992 170.757 199.457  1.00  0.00     0.069 A 
ENDROOT
BRANCH   1  12
ATOM     12  C   UNL     1     171.868 171.611 205.082  1.00  0.00    -0.011 A 
ATOM     13  C   UNL     1     172.805 171.030 205.955  1.00  0.00     0.013 A 
ATOM     14  C   UNL     1     172.711 171.237 207.334  1.00  0.00     0.047 A 
ATOM     15  C   UNL     1     171.680 172.021 207.860  1.00  0.00     0.115 A 
ATOM     16  C   UNL     1     170.829 172.392 205.618  1.00  0.00     0.013 A 
ATOM     17  C   UNL     1     170.739 172.598 206.999  1.00  0.00     0.047 A 
BRANCH  15  18
ATOM     18  O   UNL     1     171.600 172.220 209.237  1.00  0.00    -0.508 OA
ATOM     19  H   UNL     1     171.920 173.080 209.667  1.00  0.00     0.293 HD
ENDBRANCH  15  18
ENDBRANCH   1  12
BRANCH  11  20
ATOM     20  C   UNL     1     170.674 170.432 198.707  1.00  0.00     0.188 C 
ATOM     21  C   UNL     1     169.347 170.964 199.348  1.00  0.00     0.179 C 
ATOM     22  O   UNL     1     170.707 170.767 197.320  1.00  0.00    -0.362 OA
ATOM     23  C   UNL     1     169.153 172.466 199.092  1.00  0.00     0.177 C 
ATOM     24  C   UNL     1     170.622 172.169 197.071  1.00  0.00     0.176 C 
ATOM     25  C   UNL     1     169.303 172.771 197.599  1.00  0.00     0.177 C 
BRANCH  21  26
ATOM     26  O   UNL     1     168.234 170.238 198.877  1.00  0.00    -0.387 OA
ATOM     27  H   UNL     1     167.416 170.777 199.028  1.00  0.00     0.211 HD
ENDBRANCH  21  26
BRANCH  23  28
ATOM     28  O   UNL     1     170.098 173.209 199.824  1.00  0.00    -0.387 OA
ATOM     29  H   UNL     1     170.394 173.955 199.239  1.00  0.00     0.211 HD
ENDBRANCH  23  28
BRANCH  24  30
ATOM     30  C   UNL     1     170.722 172.396 195.551  1.00  0.00     0.191 C 
BRANCH  30  31
ATOM     31  O   UNL     1     169.448 172.425 194.966  1.00  0.00    -0.394 OA
ATOM     32  H   UNL     1     169.556 172.098 194.035  1.00  0.00     0.210 HD
ENDBRANCH  30  31
ENDBRANCH  24  30
BRANCH  25  33
ATOM     33  O   UNL     1     169.299 174.162 197.396  1.00  0.00    -0.388 OA
ATOM     34  H   UNL     1     170.155 174.389 196.947  1.00  0.00     0.211 HD
ENDBRANCH  25  33
ENDBRANCH  11  20
BRANCH  10  35
ATOM     35  O   UNL     1     173.368 170.169 197.513  1.00  0.00    -0.507 OA
ATOM     36  H   UNL     1     172.619 170.246 196.835  1.00  0.00     0.293 HD
ENDBRANCH  10  35
TORSDOF 9
ENDMDL
MODEL 2
REMARK VINA RESULT:    -8.218      1.839      3.771
REMARK INTER + INTRA:         -11.433
REMARK INTER:                 -11.102
REMARK INTRA:                  -0.332
REMARK UNBOUND:                -0.333
REMARK SMILES O=c1c(-c2ccc(O)cc2)coc2c([C@@H]3O[C@@H](CO)[C@H](O)[C@H](O)[C@H]3O)c(O)ccc12
REMARK SMILES IDX 3 1 11 2 12 3 13 4 30 5 2 6 1 7 29 8 28 9 26 10 14 11 4 12
REMARK SMILES IDX 5 13 6 14 7 15 10 16 9 17 8 18 15 20 24 21 16 22 22 23 17 24
REMARK SMILES IDX 20 25 25 26 23 28 18 30 19 31 21 33 27 35
REMARK H PARENT 8 19 25 27 23 29 19 32 21 34 27 36
REMARK Flexibility Score: inf
ROOT
ATOM      1  C   UNL     1     171.646 172.277 203.658  1.00  0.00     0.065 A 
ATOM      2  C   UNL     1     172.750 172.758 202.944  1.00  0.00     0.208 A 
ATOM      3  O   UNL     1     172.677 172.968 201.637  1.00  0.00    -0.463 OA
ATOM      4  C   UNL     1     171.584 172.742 200.914  1.00  0.00     0.147 A 
ATOM      5  C   UNL     1     170.403 172.316 201.570  1.00  0.00     0.066 A 
ATOM      6  C   UNL     1     170.447 172.066 202.955  1.00  0.00     0.200 A 
ATOM      7  O   UNL     1     169.411 171.686 203.566  1.00  0.00    -0.288 OA
ATOM      8  C   UNL     1     169.210 172.203 200.847  1.00  0.00     0.020 A 
ATOM      9  C   UNL     1     169.168 172.596 199.516  1.00  0.00     0.047 A 
ATOM     10  C   UNL     1     170.326 173.031 198.860  1.00  0.00     0.125 A 
ATOM     11  C   UNL     1     171.590 172.963 199.507  1.00  0.00     0.069 A 
ENDROOT
BRANCH   1  12
ATOM     12  C   UNL     1     171.755 172.032 205.118  1.00  0.00    -0.011 A 
ATOM     13  C   UNL     1     172.795 171.236 205.629  1.00  0.00     0.013 A 
ATOM     14  C   UNL     1     172.897 170.998 207.003  1.00  0.00     0.047 A 
ATOM     15  C   UNL     1     171.960 171.548 207.884  1.00  0.00     0.115 A 
ATOM     16  C   UNL     1     170.812 172.575 206.009  1.00  0.00     0.013 A 
ATOM     17  C   UNL     1     170.917 172.336 207.383  1.00  0.00     0.047 A 
BRANCH  15  18
ATOM     18  O   UNL     1     172.075 171.304 209.251  1.00  0.00    -0.508 OA
ATOM     19  H   UNL     1     172.786 170.684 209.620  1.00  0.00     0.293 HD
ENDBRANCH  15  18
ENDBRANCH   1  12
BRANCH  11  20
ATOM     20  C   UNL     1     172.901 173.310 198.754  1.00  0.00     0.188 C 
ATOM     21  C   UNL     1     174.237 172.783 199.381  1.00  0.00     0.179 C 
ATOM     22  O   UNL     1     172.865 172.993 197.363  1.00  0.00    -0.362 OA
ATOM     23  C   UNL     1     174.445 171.286 199.104  1.00  0.00     0.177 C 
ATOM     24  C   UNL     1     172.962 171.595 197.095  1.00  0.00     0.176 C 
ATOM     25  C   UNL     1     174.290 171.000 197.608  1.00  0.00     0.177 C 
BRANCH  21  26
ATOM     26  O   UNL     1     175.340 173.527 198.914  1.00  0.00    -0.387 OA
ATOM     27  H   UNL     1     175.699 173.087 198.101  1.00  0.00     0.211 HD
ENDBRANCH  21  26
BRANCH  23  28
ATOM     28  O   UNL     1     173.511 170.525 199.832  1.00  0.00    -0.387 OA
ATOM     29  H   UNL     1     172.808 170.242 199.190  1.00  0.00     0.211 HD
ENDBRANCH  23  28
BRANCH  24  30
ATOM     30  C   UNL     1     172.856 171.387 195.573  1.00  0.00     0.191 C 
BRANCH  30  31
ATOM     31  O   UNL     1     174.127 171.367 194.983  1.00  0.00    -0.394 OA
ATOM     32  H   UNL     1     174.163 170.554 194.413  1.00  0.00     0.210 HD
ENDBRANCH  30  31
ENDBRANCH  24  30
BRANCH  25  33
ATOM     33  O   UNL     1     174.306 169.612 197.387  1.00  0.00    -0.388 OA
ATOM     34  H   UNL     1     174.956 169.445 196.654  1.00  0.00     0.211 HD
ENDBRANCH  25  33
ENDBRANCH  11  20
BRANCH  10  35
ATOM     35  O   UNL     1     170.198 173.564 197.579  1.00  0.00    -0.507 OA
ATOM     36  H   UNL     1     170.057 172.977 196.766  1.00  0.00     0.293 HD
ENDBRANCH  10  35
TORSDOF 9
ENDMDL
MODEL 3
REMARK VINA RESULT:    -8.178      2.155      2.617
REMARK INTER + INTRA:         -11.379
REMARK INTER:                 -10.717
REMARK INTRA:                  -0.663
REMARK UNBOUND:                -0.333
REMARK SMILES O=c1c(-c2ccc(O)cc2)coc2c([C@@H]3O[C@@H](CO)[C@H](O)[C@H](O)[C@H]3O)c(O)ccc12
REMARK SMILES IDX 3 1 11 2 12 3 13 4 30 5 2 6 1 7 29 8 28 9 26 10 14 11 4 12
REMARK SMILES IDX 5 13 6 14 7 15 10 16 9 17 8 18 15 20 24 21 16 22 22 23 17 24
REMARK SMILES IDX 20 25 25 26 23 28 18 30 19 31 21 33 27 35
REMARK H PARENT 8 19 25 27 23 29 19 32 21 34 27 36
REMARK Flexibility Score: inf
ROOT
ATOM      1  C   UNL     1     172.137 172.020 203.235  1.00  0.00     0.065 A 
ATOM      2  C   UNL     1     172.380 170.747 202.707  1.00  0.00     0.208 A 
ATOM      3  O   UNL     1     172.615 170.581 201.412  1.00  0.00    -0.463 OA
ATOM      4  C   UNL     1     172.633 171.577 200.532  1.00  0.00     0.147 A 
ATOM      5  C   UNL     1     172.460 172.905 200.995  1.00  0.00     0.066 A 
ATOM      6  C   UNL     1     172.192 173.119 202.360  1.00  0.00     0.200 A 
ATOM      7  O   UNL     1     172.034 174.291 202.802  1.00  0.00    -0.288 OA
ATOM      8  C   UNL     1     172.610 173.975 200.106  1.00  0.00     0.020 A 
ATOM      9  C   UNL     1     173.017 173.737 198.799  1.00  0.00     0.047 A 
ATOM     10  C   UNL     1     173.204 172.431 198.334  1.00  0.00     0.125 A 
ATOM     11  C   UNL     1     172.862 171.318 199.150  1.00  0.00     0.069 A 
ENDROOT
BRANCH   1  12
ATOM     12  C   UNL     1     171.859 172.182 204.685  1.00  0.00    -0.011 A 
ATOM     13  C   UNL     1     172.915 172.200 205.613  1.00  0.00     0.013 A 
ATOM     14  C   UNL     1     172.655 172.346 206.979  1.00  0.00     0.047 A 
ATOM     15  C   UNL     1     171.339 172.472 207.436  1.00  0.00     0.115 A 
ATOM     16  C   UNL     1     170.538 172.302 205.152  1.00  0.00     0.013 A 
ATOM     17  C   UNL     1     170.281 172.448 206.519  1.00  0.00     0.047 A 
BRANCH  15  18
ATOM     18  O   UNL     1     171.095 172.619 208.800  1.00  0.00    -0.508 OA
ATOM     19  H   UNL     1     170.326 173.182 209.142  1.00  0.00     0.293 HD
ENDBRANCH  15  18
ENDBRANCH   1  12
BRANCH  11  20
ATOM     20  C   UNL     1     172.932 169.867 198.607  1.00  0.00     0.188 C 
ATOM     21  C   UNL     1     172.157 168.771 199.416  1.00  0.00     0.179 C 
ATOM     22  O   UNL     1     172.612 169.758 197.221  1.00  0.00    -0.362 OA
ATOM     23  C   UNL     1     170.646 168.827 199.146  1.00  0.00     0.177 C 
ATOM     24  C   UNL     1     171.219 169.902 196.945  1.00  0.00     0.176 C 
ATOM     25  C   UNL     1     170.378 168.811 197.639  1.00  0.00     0.177 C 
BRANCH  21  26
ATOM     26  O   UNL     1     172.660 167.485 199.131  1.00  0.00    -0.387 OA
ATOM     27  H   UNL     1     173.201 167.177 199.902  1.00  0.00     0.211 HD
ENDBRANCH  21  26
BRANCH  23  28
ATOM     28  O   UNL     1     170.095 169.991 199.714  1.00  0.00    -0.387 OA
ATOM     29  H   UNL     1     170.584 170.761 199.322  1.00  0.00     0.211 HD
ENDBRANCH  23  28
BRANCH  24  30
ATOM     30  C   UNL     1     171.018 169.819 195.421  1.00  0.00     0.191 C 
BRANCH  30  31
ATOM     31  O   UNL     1     170.559 168.549 195.046  1.00  0.00    -0.394 OA
ATOM     32  H   UNL     1     170.768 167.938 195.801  1.00  0.00     0.210 HD
ENDBRANCH  30  31
ENDBRANCH  24  30
BRANCH  25  33
ATOM     33  O   UNL     1     169.011 169.038 197.398  1.00  0.00    -0.388 OA
ATOM     34  H   UNL     1     168.887 169.024 196.413  1.00  0.00     0.211 HD
ENDBRANCH  25  33
ENDBRANCH  11  20
BRANCH  10  35
ATOM     35  O   UNL     1     173.765 172.254 197.071  1.00  0.00    -0.507 OA
ATOM     36  H   UNL     1     173.219 172.350 196.223  1.00  0.00     0.293 HD
ENDBRANCH  10  35
TORSDOF 9
ENDMDL
MODEL 4
REMARK VINA RESULT:    -8.169      2.309      3.291
REMARK INTER + INTRA:         -11.368
REMARK INTER:                 -10.683
REMARK INTRA:                  -0.685
REMARK UNBOUND:                -0.333
REMARK SMILES O=c1c(-c2ccc(O)cc2)coc2c([C@@H]3O[C@@H](CO)[C@H](O)[C@H](O)[C@H]3O)c(O)ccc12
REMARK SMILES IDX 3 1 11 2 12 3 13 4 30 5 2 6 1 7 29 8 28 9 26 10 14 11 4 12
REMARK SMILES IDX 5 13 6 14 7 15 10 16 9 17 8 18 15 20 24 21 16 22 22 23 17 24
REMARK SMILES IDX 20 25 25 26 23 28 18 30 19 31 21 33 27 35
REMARK H PARENT 8 19 25 27 23 29 19 32 21 34 27 36
REMARK Flexibility Score: inf
ROOT
ATOM      1  C   UNL     1     171.458 171.589 203.202  1.00  0.00     0.065 A 
ATOM      2  C   UNL     1     171.224 172.874 202.699  1.00  0.00     0.208 A 
ATOM      3  O   UNL     1     171.019 173.071 201.403  1.00  0.00    -0.463 OA
ATOM      4  C   UNL     1     171.024 172.096 200.499  1.00  0.00     0.147 A 
ATOM      5  C   UNL     1     171.189 170.758 200.934  1.00  0.00     0.066 A 
ATOM      6  C   UNL     1     171.426 170.512 202.300  1.00  0.00     0.200 A 
ATOM      7  O   UNL     1     171.577 169.330 202.717  1.00  0.00    -0.288 OA
ATOM      8  C   UNL     1     171.063 169.710 200.016  1.00  0.00     0.020 A 
ATOM      9  C   UNL     1     170.686 169.978 198.707  1.00  0.00     0.047 A 
ATOM     10  C   UNL     1     170.507 171.295 198.268  1.00  0.00     0.125 A 
ATOM     11  C   UNL     1     170.827 172.389 199.119  1.00  0.00     0.069 A 
ENDROOT
BRANCH   1  12
ATOM     12  C   UNL     1     171.703 171.393 204.653  1.00  0.00    -0.011 A 
ATOM     13  C   UNL     1     170.624 171.316 205.552  1.00  0.00     0.013 A 
ATOM     14  C   UNL     1     170.852 171.137 206.919  1.00  0.00     0.047 A 
ATOM     15  C   UNL     1     172.158 171.038 207.408  1.00  0.00     0.115 A 
ATOM     16  C   UNL     1     173.014 171.300 205.152  1.00  0.00     0.013 A 
ATOM     17  C   UNL     1     173.239 171.120 206.522  1.00  0.00     0.047 A 
BRANCH  15  18
ATOM     18  O   UNL     1     172.370 170.858 208.773  1.00  0.00    -0.508 OA
ATOM     19  H   UNL     1     173.195 171.224 209.233  1.00  0.00     0.293 HD
ENDBRANCH  15  18
ENDBRANCH   1  12
BRANCH  11  20
ATOM     20  C   UNL     1     170.766 173.852 198.609  1.00  0.00     0.188 C 
ATOM     21  C   UNL     1     171.546 174.925 199.445  1.00  0.00     0.179 C 
ATOM     22  O   UNL     1     171.089 173.991 197.226  1.00  0.00    -0.362 OA
ATOM     23  C   UNL     1     173.058 174.866 199.175  1.00  0.00     0.177 C 
ATOM     24  C   UNL     1     172.481 173.846 196.949  1.00  0.00     0.176 C 
ATOM     25  C   UNL     1     173.328 174.915 197.669  1.00  0.00     0.177 C 
BRANCH  21  26
ATOM     26  O   UNL     1     171.051 176.220 199.189  1.00  0.00    -0.387 OA
ATOM     27  H   UNL     1     170.377 176.165 198.464  1.00  0.00     0.211 HD
ENDBRANCH  21  26
BRANCH  23  28
ATOM     28  O   UNL     1     173.601 173.686 199.716  1.00  0.00    -0.387 OA
ATOM     29  H   UNL     1     174.330 173.399 199.105  1.00  0.00     0.211 HD
ENDBRANCH  23  28
BRANCH  24  30
ATOM     30  C   UNL     1     172.684 173.962 195.427  1.00  0.00     0.191 C 
BRANCH  30  31
ATOM     31  O   UNL     1     173.140 175.242 195.082  1.00  0.00    -0.394 OA
ATOM     32  H   UNL     1     174.092 175.142 194.817  1.00  0.00     0.210 HD
ENDBRANCH  30  31
ENDBRANCH  24  30
BRANCH  25  33
ATOM     33  O   UNL     1     174.693 174.686 197.424  1.00  0.00    -0.388 OA
ATOM     34  H   UNL     1     175.114 174.494 198.304  1.00  0.00     0.211 HD
ENDBRANCH  25  33
ENDBRANCH  11  20
BRANCH  10  35
ATOM     35  O   UNL     1     169.975 171.502 196.997  1.00  0.00    -0.507 OA
ATOM     36  H   UNL     1     168.981 171.625 196.846  1.00  0.00     0.293 HD
ENDBRANCH  10  35
TORSDOF 9
ENDMDL
MODEL 5
REMARK VINA RESULT:    -7.802      1.768      2.042
REMARK INTER + INTRA:         -10.872
REMARK INTER:                 -10.330
REMARK INTRA:                  -0.542
REMARK UNBOUND:                -0.333
REMARK SMILES O=c1c(-c2ccc(O)cc2)coc2c([C@@H]3O[C@@H](CO)[C@H](O)[C@H](O)[C@H]3O)c(O)ccc12
REMARK SMILES IDX 3 1 11 2 12 3 13 4 30 5 2 6 1 7 29 8 28 9 26 10 14 11 4 12
REMARK SMILES IDX 5 13 6 14 7 15 10 16 9 17 8 18 15 20 24 21 16 22 22 23 17 24
REMARK SMILES IDX 20 25 25 26 23 28 18 30 19 31 21 33 27 35
REMARK H PARENT 8 19 25 27 23 29 19 32 21 34 27 36
REMARK Flexibility Score: inf
ROOT
ATOM      1  C   UNL     1     172.029 172.059 203.445  1.00  0.00     0.065 A 
ATOM      2  C   UNL     1     171.976 170.920 202.633  1.00  0.00     0.208 A 
ATOM      3  O   UNL     1     172.016 171.024 201.312  1.00  0.00    -0.463 OA
ATOM      4  C   UNL     1     172.102 172.182 200.665  1.00  0.00     0.147 A 
ATOM      5  C   UNL     1     172.225 173.379 201.414  1.00  0.00     0.066 A 
ATOM      6  C   UNL     1     172.169 173.310 202.819  1.00  0.00     0.200 A 
ATOM      7  O   UNL     1     172.276 174.358 203.513  1.00  0.00    -0.288 OA
ATOM      8  C   UNL     1     172.451 174.591 200.753  1.00  0.00     0.020 A 
ATOM      9  C   UNL     1     172.645 174.603 199.378  1.00  0.00     0.047 A 
ATOM     10  C   UNL     1     172.539 173.426 198.629  1.00  0.00     0.125 A 
ATOM     11  C   UNL     1     172.110 172.217 199.242  1.00  0.00     0.069 A 
ENDROOT
BRANCH   1  12
ATOM     12  C   UNL     1     171.964 171.922 204.923  1.00  0.00    -0.011 A 
ATOM     13  C   UNL     1     173.003 171.284 205.623  1.00  0.00     0.013 A 
ATOM     14  C   UNL     1     172.942 171.148 207.013  1.00  0.00     0.047 A 
ATOM     15  C   UNL     1     171.842 171.643 207.721  1.00  0.00     0.115 A 
ATOM     16  C   UNL     1     170.857 172.410 205.640  1.00  0.00     0.013 A 
ATOM     17  C   UNL     1     170.799 172.273 207.031  1.00  0.00     0.047 A 
BRANCH  15  18
ATOM     18  O   UNL     1     171.795 171.502 209.106  1.00  0.00    -0.508 OA
ATOM     19  H   UNL     1     171.075 170.951 209.558  1.00  0.00     0.293 HD
ENDBRANCH  15  18
ENDBRANCH   1  12
BRANCH  11  20
ATOM     20  C   UNL     1     171.855 170.935 198.406  1.00  0.00     0.188 C 
ATOM     21  C   UNL     1     171.001 169.808 199.083  1.00  0.00     0.179 C 
ATOM     22  O   UNL     1     171.355 171.196 197.095  1.00  0.00    -0.362 OA
ATOM     23  C   UNL     1     169.502 170.145 199.071  1.00  0.00     0.177 C 
ATOM     24  C   UNL     1     169.987 171.602 197.077  1.00  0.00     0.176 C 
ATOM     25  C   UNL     1     169.055 170.516 197.654  1.00  0.00     0.177 C 
BRANCH  21  26
ATOM     26  O   UNL     1     171.229 168.563 198.462  1.00  0.00    -0.387 OA
ATOM     27  H   UNL     1     171.931 168.676 197.771  1.00  0.00     0.211 HD
ENDBRANCH  21  26
BRANCH  23  28
ATOM     28  O   UNL     1     169.239 171.216 199.946  1.00  0.00    -0.387 OA
ATOM     29  H   UNL     1     168.487 171.731 199.552  1.00  0.00     0.211 HD
ENDBRANCH  23  28
BRANCH  24  30
ATOM     30  C   UNL     1     169.592 171.901 195.619  1.00  0.00     0.191 C 
BRANCH  30  31
ATOM     31  O   UNL     1     168.419 172.667 195.568  1.00  0.00    -0.394 OA
ATOM     32  H   UNL     1     168.237 172.970 196.496  1.00  0.00     0.210 HD
ENDBRANCH  30  31
ENDBRANCH  24  30
BRANCH  25  33
ATOM     33  O   UNL     1     167.732 170.989 197.683  1.00  0.00    -0.388 OA
ATOM     34  H   UNL     1     167.723 171.778 198.287  1.00  0.00     0.211 HD
ENDBRANCH  25  33
ENDBRANCH  11  20
BRANCH  10  35
ATOM     35  O   UNL     1     172.901 173.464 197.283  1.00  0.00    -0.507 OA
ATOM     36  H   UNL     1     172.210 173.512 196.544  1.00  0.00     0.293 HD
ENDBRANCH  10  35
TORSDOF 9
ENDMDL
MODEL 6
REMARK VINA RESULT:    -6.842      1.819      3.816
REMARK INTER + INTRA:          -9.574
REMARK INTER:                 -10.662
REMARK INTRA:                   1.087
REMARK UNBOUND:                -0.333
REMARK SMILES O=c1c(-c2ccc(O)cc2)coc2c([C@@H]3O[C@@H](CO)[C@H](O)[C@H](O)[C@H]3O)c(O)ccc12
REMARK SMILES IDX 3 1 11 2 12 3 13 4 30 5 2 6 1 7 29 8 28 9 26 10 14 11 4 12
REMARK SMILES IDX 5 13 6 14 7 15 10 16 9 17 8 18 15 20 24 21 16 22 22 23 17 24
REMARK SMILES IDX 20 25 25 26 23 28 18 30 19 31 21 33 27 35
REMARK H PARENT 8 19 25 27 23 29 19 32 21 34 27 36
REMARK Flexibility Score: inf
ROOT
ATOM      1  C   UNL     1     171.156 171.753 202.212  1.00  0.00     0.065 A 
ATOM      2  C   UNL     1     172.148 171.419 201.282  1.00  0.00     0.208 A 
ATOM      3  O   UNL     1     171.848 171.238 200.002  1.00  0.00    -0.463 OA
ATOM      4  C   UNL     1     170.618 171.349 199.510  1.00  0.00     0.147 A 
ATOM      5  C   UNL     1     169.567 171.747 200.373  1.00  0.00     0.066 A 
ATOM      6  C   UNL     1     169.844 171.932 201.741  1.00  0.00     0.200 A 
ATOM      7  O   UNL     1     168.928 172.287 202.534  1.00  0.00    -0.288 OA
ATOM      8  C   UNL     1     168.295 171.999 199.847  1.00  0.00     0.020 A 
ATOM      9  C   UNL     1     168.092 171.948 198.474  1.00  0.00     0.047 A 
ATOM     10  C   UNL     1     169.126 171.569 197.610  1.00  0.00     0.125 A 
ATOM     11  C   UNL     1     170.368 171.110 198.129  1.00  0.00     0.069 A 
ENDROOT
BRANCH   1  12
ATOM     12  C   UNL     1     171.510 171.933 203.643  1.00  0.00    -0.011 A 
ATOM     13  C   UNL     1     172.360 172.981 204.038  1.00  0.00     0.013 A 
ATOM     14  C   UNL     1     172.700 173.149 205.383  1.00  0.00     0.047 A 
ATOM     15  C   UNL     1     172.200 172.272 206.351  1.00  0.00     0.115 A 
ATOM     16  C   UNL     1     171.017 171.050 204.620  1.00  0.00     0.013 A 
ATOM     17  C   UNL     1     171.358 171.221 205.965  1.00  0.00     0.047 A 
BRANCH  15  18
ATOM     18  O   UNL     1     172.545 172.453 207.688  1.00  0.00    -0.508 OA
ATOM     19  H   UNL     1     173.498 172.654 207.966  1.00  0.00     0.293 HD
ENDBRANCH  15  18
ENDBRANCH   1  12
BRANCH  11  20
ATOM     20  C   UNL     1     171.477 170.558 197.196  1.00  0.00     0.188 C 
ATOM     21  C   UNL     1     171.464 171.057 195.710  1.00  0.00     0.179 C 
ATOM     22  O   UNL     1     172.792 170.682 197.734  1.00  0.00    -0.362 OA
ATOM     23  C   UNL     1     172.030 172.480 195.583  1.00  0.00     0.177 C 
ATOM     24  C   UNL     1     173.295 172.017 197.708  1.00  0.00     0.176 C 
ATOM     25  C   UNL     1     173.395 172.568 196.270  1.00  0.00     0.177 C 
BRANCH  21  26
ATOM     26  O   UNL     1     172.173 170.170 194.875  1.00  0.00    -0.387 OA
ATOM     27  H   UNL     1     171.994 169.241 195.173  1.00  0.00     0.211 HD
ENDBRANCH  21  26
BRANCH  23  28
ATOM     28  O   UNL     1     171.145 173.407 196.164  1.00  0.00    -0.387 OA
ATOM     29  H   UNL     1     170.253 172.972 196.196  1.00  0.00     0.211 HD
ENDBRANCH  23  28
BRANCH  24  30
ATOM     30  C   UNL     1     174.690 172.019 198.361  1.00  0.00     0.191 C 
BRANCH  30  31
ATOM     31  O   UNL     1     175.686 171.750 197.412  1.00  0.00    -0.394 OA
ATOM     32  H   UNL     1     175.861 170.773 197.455  1.00  0.00     0.210 HD
ENDBRANCH  30  31
ENDBRANCH  24  30
BRANCH  25  33
ATOM     33  O   UNL     1     173.824 173.906 196.302  1.00  0.00    -0.388 OA
ATOM     34  H   UNL     1     174.706 173.936 195.846  1.00  0.00     0.211 HD
ENDBRANCH  25  33
ENDBRANCH  11  20
BRANCH  10  35
ATOM     35  O   UNL     1     168.917 171.690 196.238  1.00  0.00    -0.507 OA
ATOM     36  H   UNL     1     169.488 172.296 195.660  1.00  0.00     0.293 HD
ENDBRANCH  10  35
TORSDOF 9
ENDMDL
MODEL 7
REMARK VINA RESULT:    -6.786      1.658      2.966
REMARK INTER + INTRA:          -9.499
REMARK INTER:                 -10.588
REMARK INTRA:                   1.089
REMARK UNBOUND:                -0.333
REMARK SMILES O=c1c(-c2ccc(O)cc2)coc2c([C@@H]3O[C@@H](CO)[C@H](O)[C@H](O)[C@H]3O)c(O)ccc12
REMARK SMILES IDX 3 1 11 2 12 3 13 4 30 5 2 6 1 7 29 8 28 9 26 10 14 11 4 12
REMARK SMILES IDX 5 13 6 14 7 15 10 16 9 17 8 18 15 20 24 21 16 22 22 23 17 24
REMARK SMILES IDX 20 25 25 26 23 28 18 30 19 31 21 33 27 35
REMARK H PARENT 8 19 25 27 23 29 19 32 21 34 27 36
REMARK Flexibility Score: inf
ROOT
ATOM      1  C   UNL     1     172.541 171.956 202.179  1.00  0.00     0.065 A 
ATOM      2  C   UNL     1     171.600 172.373 201.231  1.00  0.00     0.208 A 
ATOM      3  O   UNL     1     171.950 172.577 199.968  1.00  0.00    -0.463 OA
ATOM      4  C   UNL     1     173.187 172.414 199.510  1.00  0.00     0.147 A 
ATOM      5  C   UNL     1     174.187 171.932 200.391  1.00  0.00     0.066 A 
ATOM      6  C   UNL     1     173.857 171.720 201.743  1.00  0.00     0.200 A 
ATOM      7  O   UNL     1     174.726 171.291 202.551  1.00  0.00    -0.288 OA
ATOM      8  C   UNL     1     175.460 171.627 199.895  1.00  0.00     0.020 A 
ATOM      9  C   UNL     1     175.709 171.710 198.532  1.00  0.00     0.047 A 
ATOM     10  C   UNL     1     174.726 172.172 197.650  1.00  0.00     0.125 A 
ATOM     11  C   UNL     1     173.495 172.682 198.145  1.00  0.00     0.069 A 
ENDROOT
BRANCH   1  12
ATOM     12  C   UNL     1     172.132 171.751 203.592  1.00  0.00    -0.011 A 
ATOM     13  C   UNL     1     172.624 172.595 204.603  1.00  0.00     0.013 A 
ATOM     14  C   UNL     1     172.245 172.400 205.935  1.00  0.00     0.047 A 
ATOM     15  C   UNL     1     171.374 171.360 206.274  1.00  0.00     0.115 A 
ATOM     16  C   UNL     1     171.263 170.703 203.941  1.00  0.00     0.013 A 
ATOM     17  C   UNL     1     170.885 170.511 205.274  1.00  0.00     0.047 A 
BRANCH  15  18
ATOM     18  O   UNL     1     171.004 171.179 207.605  1.00  0.00    -0.508 OA
ATOM     19  H   UNL     1     171.692 171.159 208.348  1.00  0.00     0.293 HD
ENDBRANCH  15  18
ENDBRANCH   1  12
BRANCH  11  20
ATOM     20  C   UNL     1     172.448 173.324 197.198  1.00  0.00     0.188 C 
ATOM     21  C   UNL     1     172.514 172.910 195.687  1.00  0.00     0.179 C 
ATOM     22  O   UNL     1     171.105 173.214 197.669  1.00  0.00    -0.362 OA
ATOM     23  C   UNL     1     171.911 171.517 195.452  1.00  0.00     0.177 C 
ATOM     24  C   UNL     1     170.563 171.900 197.542  1.00  0.00     0.176 C 
ATOM     25  C   UNL     1     170.513 171.435 196.072  1.00  0.00     0.177 C 
BRANCH  21  26
ATOM     26  O   UNL     1     171.872 173.867 194.875  1.00  0.00    -0.387 OA
ATOM     27  H   UNL     1     172.161 173.732 193.936  1.00  0.00     0.211 HD
ENDBRANCH  21  26
BRANCH  23  28
ATOM     28  O   UNL     1     172.738 170.529 196.017  1.00  0.00    -0.387 OA
ATOM     29  H   UNL     1     173.553 170.478 195.452  1.00  0.00     0.211 HD
ENDBRANCH  23  28
BRANCH  24  30
ATOM     30  C   UNL     1     169.140 171.907 198.132  1.00  0.00     0.191 C 
BRANCH  30  31
ATOM     31  O   UNL     1     168.193 172.206 197.143  1.00  0.00    -0.394 OA
ATOM     32  H   UNL     1     167.524 171.472 197.160  1.00  0.00     0.210 HD
ENDBRANCH  30  31
ENDBRANCH  24  30
BRANCH  25  33
ATOM     33  O   UNL     1     170.042 170.112 196.006  1.00  0.00    -0.388 OA
ATOM     34  H   UNL     1     170.490 169.612 196.738  1.00  0.00     0.211 HD
ENDBRANCH  25  33
ENDBRANCH  11  20
BRANCH  10  35
ATOM     35  O   UNL     1     174.972 172.083 196.281  1.00  0.00    -0.507 OA
ATOM     36  H   UNL     1     175.274 172.883 195.738  1.00  0.00     0.293 HD
ENDBRANCH  10  35
TORSDOF 9
ENDMDL
MODEL 8
REMARK VINA RESULT:    -6.638      1.900      3.096
REMARK INTER + INTRA:          -9.299
REMARK INTER:                 -10.289
REMARK INTRA:                   0.990
REMARK UNBOUND:                -0.333
REMARK SMILES O=c1c(-c2ccc(O)cc2)coc2c([C@@H]3O[C@@H](CO)[C@H](O)[C@H](O)[C@H]3O)c(O)ccc12
REMARK SMILES IDX 3 1 11 2 12 3 13 4 30 5 2 6 1 7 29 8 28 9 26 10 14 11 4 12
REMARK SMILES IDX 5 13 6 14 7 15 10 16 9 17 8 18 15 20 24 21 16 22 22 23 17 24
REMARK SMILES IDX 20 25 25 26 23 28 18 30 19 31 21 33 27 35
REMARK H PARENT 8 19 25 27 23 29 19 32 21 34 27 36
REMARK Flexibility Score: inf
ROOT
ATOM      1  C   UNL     1     172.002 171.452 203.297  1.00  0.00     0.065 A 
ATOM      2  C   UNL     1     172.433 172.495 202.467  1.00  0.00     0.208 A 
ATOM      3  O   UNL     1     172.621 172.298 201.169  1.00  0.00    -0.463 OA
ATOM      4  C   UNL     1     172.428 171.130 200.565  1.00  0.00     0.147 A 
ATOM      5  C   UNL     1     171.929 170.040 201.320  1.00  0.00     0.066 A 
ATOM      6  C   UNL     1     171.734 170.206 202.705  1.00  0.00     0.200 A 
ATOM      7  O   UNL     1     171.291 169.253 203.404  1.00  0.00    -0.288 OA
ATOM      8  C   UNL     1     171.593 168.844 200.675  1.00  0.00     0.020 A 
ATOM      9  C   UNL     1     171.662 168.762 199.291  1.00  0.00     0.047 A 
ATOM     10  C   UNL     1     172.140 169.837 198.532  1.00  0.00     0.125 A 
ATOM     11  C   UNL     1     172.680 170.987 199.170  1.00  0.00     0.069 A 
ENDROOT
BRANCH   1  12
ATOM     12  C   UNL     1     171.815 171.689 204.751  1.00  0.00    -0.011 A 
ATOM     13  C   UNL     1     170.669 172.356 205.220  1.00  0.00     0.013 A 
ATOM     14  C   UNL     1     170.494 172.586 206.588  1.00  0.00     0.047 A 
ATOM     15  C   UNL     1     171.460 172.156 207.504  1.00  0.00     0.115 A 
ATOM     16  C   UNL     1     172.785 171.266 205.676  1.00  0.00     0.013 A 
ATOM     17  C   UNL     1     172.606 171.497 207.044  1.00  0.00     0.047 A 
BRANCH  15  18
ATOM     18  O   UNL     1     171.270 172.390 208.864  1.00  0.00    -0.508 OA
ATOM     19  H   UNL     1     171.680 173.194 209.325  1.00  0.00     0.293 HD
ENDBRANCH  15  18
ENDBRANCH   1  12
BRANCH  11  20
ATOM     20  C   UNL     1     173.339 172.129 198.352  1.00  0.00     0.188 C 
ATOM     21  C   UNL     1     172.915 172.256 196.849  1.00  0.00     0.179 C 
ATOM     22  O   UNL     1     173.260 173.405 198.985  1.00  0.00    -0.362 OA
ATOM     23  C   UNL     1     171.533 172.912 196.701  1.00  0.00     0.177 C 
ATOM     24  C   UNL     1     171.957 173.986 198.937  1.00  0.00     0.176 C 
ATOM     25  C   UNL     1     171.485 174.225 197.488  1.00  0.00     0.177 C 
BRANCH  21  26
ATOM     26  O   UNL     1     173.880 172.973 196.113  1.00  0.00    -0.387 OA
ATOM     27  H   UNL     1     174.781 172.717 196.437  1.00  0.00     0.211 HD
ENDBRANCH  21  26
BRANCH  23  28
ATOM     28  O   UNL     1     170.531 172.042 197.169  1.00  0.00    -0.387 OA
ATOM     29  H   UNL     1     169.666 172.518 197.066  1.00  0.00     0.211 HD
ENDBRANCH  23  28
BRANCH  24  30
ATOM     30  C   UNL     1     171.998 175.325 199.696  1.00  0.00     0.191 C 
BRANCH  30  31
ATOM     31  O   UNL     1     172.186 176.395 198.809  1.00  0.00    -0.394 OA
ATOM     32  H   UNL     1     173.031 176.213 198.321  1.00  0.00     0.210 HD
ENDBRANCH  30  31
ENDBRANCH  24  30
BRANCH  25  33
ATOM     33  O   UNL     1     170.172 174.727 197.491  1.00  0.00    -0.388 OA
ATOM     34  H   UNL     1     169.730 174.369 198.306  1.00  0.00     0.211 HD
ENDBRANCH  25  33
ENDBRANCH  11  20
BRANCH  10  35
ATOM     35  O   UNL     1     172.037 169.763 197.144  1.00  0.00    -0.507 OA
ATOM     36  H   UNL     1     172.824 169.504 196.561  1.00  0.00     0.293 HD
ENDBRANCH  10  35
TORSDOF 9
ENDMDL
MODEL 9
REMARK VINA RESULT:    -6.632      1.955      3.255
REMARK INTER + INTRA:          -9.291
REMARK INTER:                 -10.280
REMARK INTRA:                   0.989
REMARK UNBOUND:                -0.333
REMARK SMILES O=c1c(-c2ccc(O)cc2)coc2c([C@@H]3O[C@@H](CO)[C@H](O)[C@H](O)[C@H]3O)c(O)ccc12
REMARK SMILES IDX 3 1 11 2 12 3 13 4 30 5 2 6 1 7 29 8 28 9 26 10 14 11 4 12
REMARK SMILES IDX 5 13 6 14 7 15 10 16 9 17 8 18 15 20 24 21 16 22 22 23 17 24
REMARK SMILES IDX 20 25 25 26 23 28 18 30 19 31 21 33 27 35
REMARK H PARENT 8 19 25 27 23 29 19 32 21 34 27 36
REMARK Flexibility Score: inf
ROOT
ATOM      1  C   UNL     1     171.635 172.210 203.339  1.00  0.00     0.065 A 
ATOM      2  C   UNL     1     171.216 171.171 202.500  1.00  0.00     0.208 A 
ATOM      3  O   UNL     1     171.046 171.373 201.199  1.00  0.00    -0.463 OA
ATOM      4  C   UNL     1     171.249 172.544 200.603  1.00  0.00     0.147 A 
ATOM      5  C   UNL     1     171.736 173.631 201.370  1.00  0.00     0.066 A 
ATOM      6  C   UNL     1     171.911 173.459 202.756  1.00  0.00     0.200 A 
ATOM      7  O   UNL     1     172.344 174.408 203.466  1.00  0.00    -0.288 OA
ATOM      8  C   UNL     1     172.081 174.829 200.735  1.00  0.00     0.020 A 
ATOM      9  C   UNL     1     172.033 174.916 199.350  1.00  0.00     0.047 A 
ATOM     10  C   UNL     1     171.566 173.845 198.580  1.00  0.00     0.125 A 
ATOM     11  C   UNL     1     171.016 172.692 199.205  1.00  0.00     0.069 A 
ENDROOT
BRANCH   1  12
ATOM     12  C   UNL     1     171.800 171.967 204.795  1.00  0.00    -0.011 A 
ATOM     13  C   UNL     1     172.933 171.289 205.277  1.00  0.00     0.013 A 
ATOM     14  C   UNL     1     173.089 171.054 206.647  1.00  0.00     0.047 A 
ATOM     15  C   UNL     1     172.115 171.489 207.551  1.00  0.00     0.115 A 
ATOM     16  C   UNL     1     170.821 172.396 205.709  1.00  0.00     0.013 A 
ATOM     17  C   UNL     1     170.980 172.160 207.079  1.00  0.00     0.047 A 
BRANCH  15  18
ATOM     18  O   UNL     1     172.284 171.250 208.913  1.00  0.00    -0.508 OA
ATOM     19  H   UNL     1     171.698 170.591 209.411  1.00  0.00     0.293 HD
ENDBRANCH  15  18
ENDBRANCH   1  12
BRANCH  11  20
ATOM     20  C   UNL     1     170.370 171.554 198.373  1.00  0.00     0.188 C 
ATOM     21  C   UNL     1     170.813 171.434 196.875  1.00  0.00     0.179 C 
ATOM     22  O   UNL     1     170.442 170.274 199.000  1.00  0.00    -0.362 OA
ATOM     23  C   UNL     1     172.197 170.781 196.741  1.00  0.00     0.177 C 
ATOM     24  C   UNL     1     171.746 169.695 198.966  1.00  0.00     0.176 C 
ATOM     25  C   UNL     1     172.237 169.464 197.522  1.00  0.00     0.177 C 
BRANCH  21  26
ATOM     26  O   UNL     1     169.858 170.720 196.123  1.00  0.00    -0.387 OA
ATOM     27  H   UNL     1     169.265 171.369 195.664  1.00  0.00     0.211 HD
ENDBRANCH  21  26
BRANCH  23  28
ATOM     28  O   UNL     1     173.192 171.650 197.226  1.00  0.00    -0.387 OA
ATOM     29  H   UNL     1     173.756 171.903 196.449  1.00  0.00     0.211 HD
ENDBRANCH  23  28
BRANCH  24  30
ATOM     30  C   UNL     1     171.697 168.352 199.717  1.00  0.00     0.191 C 
BRANCH  30  31
ATOM     31  O   UNL     1     171.494 167.289 198.826  1.00  0.00    -0.394 OA
ATOM     32  H   UNL     1     170.648 167.482 198.343  1.00  0.00     0.210 HD
ENDBRANCH  30  31
ENDBRANCH  24  30
BRANCH  25  33
ATOM     33  O   UNL     1     173.550 168.963 197.540  1.00  0.00    -0.388 OA
ATOM     34  H   UNL     1     174.030 169.389 196.781  1.00  0.00     0.211 HD
ENDBRANCH  25  33
ENDBRANCH  11  20
BRANCH  10  35
ATOM     35  O   UNL     1     171.690 173.924 197.194  1.00  0.00    -0.507 OA
ATOM     36  H   UNL     1     172.332 173.335 196.679  1.00  0.00     0.293 HD
ENDBRANCH  10  35
TORSDOF 9
ENDMDL
