MODEL 1
REMARK VINA RESULT:    -3.926      0.000      0.000
REMARK INTER + INTRA:          -4.392
REMARK INTER:                  -4.270
REMARK INTRA:                  -0.122
REMARK UNBOUND:                -0.122
REMARK SMILES CC(=O)[C@H]1CC[C@H]2[C@H]3CC=C4C[C@H](O)CC[C@]4(C)[C@@H]3CC[C@@]12C
REMARK SMILES IDX 4 1 5 2 6 3 7 4 22 5 21 6 20 7 19 8 8 9 9 10 10 11 11 12
REMARK SMILES IDX 17 13 16 14 15 15 13 16 12 17 18 18 23 19 2 20 1 21 3 22
REMARK SMILES IDX 14 23
REMARK H PARENT 14 24
REMARK Flexibility Score: inf
ROOT
ATOM      1  C   UNL     1     206.886 206.559 225.657  1.00  0.00     0.062 C 
ATOM      2  C   UNL     1     208.067 205.733 225.132  1.00  0.00     0.012 C 
ATOM      3  C   UNL     1     209.195 206.729 224.857  1.00  0.00     0.005 C 
ATOM      4  C   UNL     1     208.677 208.112 225.294  1.00  0.00    -0.001 C 
ATOM      5  C   UNL     1     207.142 208.011 225.182  1.00  0.00    -0.020 C 
ATOM      6  C   UNL     1     206.688 208.223 223.706  1.00  0.00     0.008 C 
ATOM      7  C   UNL     1     207.248 209.505 223.089  1.00  0.00     0.005 C 
ATOM      8  C   UNL     1     208.797 209.525 223.114  1.00  0.00     0.003 C 
ATOM      9  C   UNL     1     209.307 209.337 224.560  1.00  0.00     0.000 C 
ATOM     10  C   UNL     1     210.840 209.234 224.547  1.00  0.00     0.031 C 
ATOM     11  C   UNL     1     211.455 210.428 223.894  1.00  0.00    -0.027 C 
ATOM     12  C   UNL     1     210.862 211.102 222.885  1.00  0.00    -0.065 C 
ATOM     13  C   UNL     1     209.427 210.804 222.408  1.00  0.00    -0.008 C 
ATOM     14  C   UNL     1     208.585 212.093 222.689  1.00  0.00     0.014 C 
ATOM     15  C   UNL     1     209.238 213.400 222.190  1.00  0.00     0.033 C 
ATOM     16  C   UNL     1     210.672 213.580 222.718  1.00  0.00     0.118 C 
ATOM     17  C   UNL     1     211.532 212.361 222.373  1.00  0.00     0.063 C 
ATOM     18  C   UNL     1     209.460 210.527 220.882  1.00  0.00     0.016 C 
ATOM     19  C   UNL     1     206.437 209.015 226.125  1.00  0.00     0.012 C 
ENDROOT
BRANCH   1  20
ATOM     20  C   UNL     1     205.527 205.985 225.286  1.00  0.00     0.133 C 
ATOM     21  C   UNL     1     205.360 205.128 224.066  1.00  0.00     0.088 C 
ATOM     22  O   UNL     1     204.547 206.216 225.980  1.00  0.00    -0.300 OA
ENDBRANCH   1  20
BRANCH  16  23
ATOM     23  O   UNL     1     210.660 213.766 224.111  1.00  0.00    -0.393 OA
ATOM     24  H   UNL     1     210.117 214.579 224.287  1.00  0.00     0.210 HD
ENDBRANCH  16  23
TORSDOF 2
ENDMDL
MODEL 2
REMARK VINA RESULT:    -3.910      3.580      5.596
REMARK INTER + INTRA:          -4.375
REMARK INTER:                  -4.257
REMARK INTRA:                  -0.118
REMARK UNBOUND:                -0.122
REMARK SMILES CC(=O)[C@H]1CC[C@H]2[C@H]3CC=C4C[C@H](O)CC[C@]4(C)[C@@H]3CC[C@@]12C
REMARK SMILES IDX 4 1 5 2 6 3 7 4 22 5 21 6 20 7 19 8 8 9 9 10 10 11 11 12
REMARK SMILES IDX 17 13 16 14 15 15 13 16 12 17 18 18 23 19 2 20 1 21 3 22
REMARK SMILES IDX 14 23
REMARK H PARENT 14 24
REMARK Flexibility Score: inf
ROOT
ATOM      1  C   UNL     1     208.189 206.860 225.633  1.00  0.00     0.062 C 
ATOM      2  C   UNL     1     209.024 208.030 225.097  1.00  0.00     0.012 C 
ATOM      3  C   UNL     1     208.038 209.169 224.828  1.00  0.00     0.005 C 
ATOM      4  C   UNL     1     206.653 208.668 225.280  1.00  0.00    -0.001 C 
ATOM      5  C   UNL     1     206.735 207.132 225.171  1.00  0.00    -0.020 C 
ATOM      6  C   UNL     1     206.504 206.677 223.698  1.00  0.00     0.008 C 
ATOM      7  C   UNL     1     205.223 207.250 223.092  1.00  0.00     0.005 C 
ATOM      8  C   UNL     1     205.222 208.799 223.112  1.00  0.00     0.003 C 
ATOM      9  C   UNL     1     205.429 209.311 224.555  1.00  0.00     0.000 C 
ATOM     10  C   UNL     1     205.549 210.842 224.536  1.00  0.00     0.031 C 
ATOM     11  C   UNL     1     204.356 211.469 223.893  1.00  0.00    -0.027 C 
ATOM     12  C   UNL     1     203.667 210.881 222.892  1.00  0.00    -0.065 C 
ATOM     13  C   UNL     1     203.943 209.441 222.417  1.00  0.00    -0.008 C 
ATOM     14  C   UNL     1     202.647 208.615 222.712  1.00  0.00     0.014 C 
ATOM     15  C   UNL     1     201.343 209.282 222.223  1.00  0.00     0.033 C 
ATOM     16  C   UNL     1     201.185 210.719 222.749  1.00  0.00     0.118 C 
ATOM     17  C   UNL     1     202.411 211.564 222.390  1.00  0.00     0.063 C 
ATOM     18  C   UNL     1     204.207 209.466 220.888  1.00  0.00     0.016 C 
ATOM     19  C   UNL     1     205.733 206.441 226.125  1.00  0.00     0.012 C 
ENDROOT
BRANCH   1  20
ATOM     20  C   UNL     1     208.744 205.494 225.260  1.00  0.00     0.133 C 
ATOM     21  C   UNL     1     209.584 205.312 224.031  1.00  0.00     0.088 C 
ATOM     22  O   UNL     1     208.510 204.519 225.960  1.00  0.00    -0.300 OA
ENDBRANCH   1  20
BRANCH  16  23
ATOM     23  O   UNL     1     201.012 210.714 224.144  1.00  0.00    -0.393 OA
ATOM     24  H   UNL     1     201.870 210.407 224.538  1.00  0.00     0.210 HD
ENDBRANCH  16  23
TORSDOF 2
ENDMDL
MODEL 3
REMARK VINA RESULT:    -3.901      2.698      7.962
REMARK INTER + INTRA:          -4.365
REMARK INTER:                  -4.231
REMARK INTRA:                  -0.134
REMARK UNBOUND:                -0.122
REMARK SMILES CC(=O)[C@H]1CC[C@H]2[C@H]3CC=C4C[C@H](O)CC[C@]4(C)[C@@H]3CC[C@@]12C
REMARK SMILES IDX 4 1 5 2 6 3 7 4 22 5 21 6 20 7 19 8 8 9 9 10 10 11 11 12
REMARK SMILES IDX 17 13 16 14 15 15 13 16 12 17 18 18 23 19 2 20 1 21 3 22
REMARK SMILES IDX 14 23
REMARK H PARENT 14 24
REMARK Flexibility Score: inf
ROOT
ATOM      1  C   UNL     1     207.850 208.206 225.618  1.00  0.00     0.062 C 
ATOM      2  C   UNL     1     206.674 209.033 225.084  1.00  0.00     0.012 C 
ATOM      3  C   UNL     1     205.536 208.043 224.831  1.00  0.00     0.005 C 
ATOM      4  C   UNL     1     206.043 206.663 225.289  1.00  0.00    -0.001 C 
ATOM      5  C   UNL     1     207.578 206.748 225.168  1.00  0.00    -0.020 C 
ATOM      6  C   UNL     1     208.024 206.507 223.694  1.00  0.00     0.008 C 
ATOM      7  C   UNL     1     207.449 205.220 223.101  1.00  0.00     0.005 C 
ATOM      8  C   UNL     1     205.900 205.215 223.133  1.00  0.00     0.003 C 
ATOM      9  C   UNL     1     205.398 205.431 224.578  1.00  0.00     0.000 C 
ATOM     10  C   UNL     1     203.867 205.548 224.569  1.00  0.00     0.031 C 
ATOM     11  C   UNL     1     203.238 204.349 223.939  1.00  0.00    -0.027 C 
ATOM     12  C   UNL     1     203.820 203.654 222.939  1.00  0.00    -0.065 C 
ATOM     13  C   UNL     1     205.256 203.930 222.451  1.00  0.00    -0.008 C 
ATOM     14  C   UNL     1     206.088 202.638 222.750  1.00  0.00     0.014 C 
ATOM     15  C   UNL     1     205.421 201.329 222.276  1.00  0.00     0.033 C 
ATOM     16  C   UNL     1     203.987 201.171 222.813  1.00  0.00     0.118 C 
ATOM     17  C   UNL     1     203.137 202.392 222.451  1.00  0.00     0.063 C 
ATOM     18  C   UNL     1     205.219 204.182 220.921  1.00  0.00     0.016 C 
ATOM     19  C   UNL     1     208.279 205.754 226.125  1.00  0.00     0.012 C 
ENDROOT
BRANCH   1  20
ATOM     20  C   UNL     1     209.212 208.761 225.231  1.00  0.00     0.133 C 
ATOM     21  C   UNL     1     209.374 209.632 224.020  1.00  0.00     0.088 C 
ATOM     22  O   UNL     1     210.199 208.502 225.905  1.00  0.00    -0.300 OA
ENDBRANCH   1  20
BRANCH  16  23
ATOM     23  O   UNL     1     204.004 201.008 224.209  1.00  0.00    -0.393 OA
ATOM     24  H   UNL     1     204.644 201.677 224.568  1.00  0.00     0.210 HD
ENDBRANCH  16  23
TORSDOF 2
ENDMDL
MODEL 4
REMARK VINA RESULT:    -3.884      3.577      5.643
REMARK INTER + INTRA:          -4.347
REMARK INTER:                  -4.224
REMARK INTRA:                  -0.123
REMARK UNBOUND:                -0.122
REMARK SMILES CC(=O)[C@H]1CC[C@H]2[C@H]3CC=C4C[C@H](O)CC[C@]4(C)[C@@H]3CC[C@@]12C
REMARK SMILES IDX 4 1 5 2 6 3 7 4 22 5 21 6 20 7 19 8 8 9 9 10 10 11 11 12
REMARK SMILES IDX 17 13 16 14 15 15 13 16 12 17 18 18 23 19 2 20 1 21 3 22
REMARK SMILES IDX 14 23
REMARK H PARENT 14 24
REMARK Flexibility Score: inf
ROOT
ATOM      1  C   UNL     1     206.488 207.851 225.570  1.00  0.00     0.062 C 
ATOM      2  C   UNL     1     205.660 206.690 225.005  1.00  0.00     0.012 C 
ATOM      3  C   UNL     1     206.648 205.551 224.741  1.00  0.00     0.005 C 
ATOM      4  C   UNL     1     208.025 206.043 225.223  1.00  0.00    -0.001 C 
ATOM      5  C   UNL     1     207.949 207.581 225.131  1.00  0.00    -0.020 C 
ATOM      6  C   UNL     1     208.207 208.053 223.668  1.00  0.00     0.008 C 
ATOM      7  C   UNL     1     209.498 207.483 223.078  1.00  0.00     0.005 C 
ATOM      8  C   UNL     1     209.495 205.934 223.080  1.00  0.00     0.003 C 
ATOM      9  C   UNL     1     209.261 205.406 224.514  1.00  0.00     0.000 C 
ATOM     10  C   UNL     1     209.137 203.875 224.474  1.00  0.00     0.031 C 
ATOM     11  C   UNL     1     210.340 203.253 223.845  1.00  0.00    -0.027 C 
ATOM     12  C   UNL     1     211.048 203.850 222.864  1.00  0.00    -0.065 C 
ATOM     13  C   UNL     1     210.785 205.296 222.401  1.00  0.00    -0.008 C 
ATOM     14  C   UNL     1     212.077 206.115 222.728  1.00  0.00     0.014 C 
ATOM     15  C   UNL     1     213.388 205.451 222.256  1.00  0.00     0.033 C 
ATOM     16  C   UNL     1     213.533 204.007 222.767  1.00  0.00     0.118 C 
ATOM     17  C   UNL     1     212.311 203.169 222.376  1.00  0.00     0.063 C 
ATOM     18  C   UNL     1     210.548 205.289 220.867  1.00  0.00     0.016 C 
ATOM     19  C   UNL     1     208.936 208.258 226.111  1.00  0.00     0.012 C 
ENDROOT
BRANCH   1  20
ATOM     20  C   UNL     1     205.944 209.223 225.204  1.00  0.00     0.133 C 
ATOM     21  C   UNL     1     205.114 209.419 223.969  1.00  0.00     0.088 C 
ATOM     22  O   UNL     1     206.177 210.191 225.913  1.00  0.00    -0.300 OA
ENDBRANCH   1  20
BRANCH  16  23
ATOM     23  O   UNL     1     213.681 203.996 224.165  1.00  0.00    -0.393 OA
ATOM     24  H   UNL     1     213.165 203.217 224.502  1.00  0.00     0.210 HD
ENDBRANCH  16  23
TORSDOF 2
ENDMDL
MODEL 5
REMARK VINA RESULT:    -3.880     10.484     13.900
REMARK INTER + INTRA:          -4.342
REMARK INTER:                  -4.181
REMARK INTRA:                  -0.161
REMARK UNBOUND:                -0.122
REMARK SMILES CC(=O)[C@H]1CC[C@H]2[C@H]3CC=C4C[C@H](O)CC[C@]4(C)[C@@H]3CC[C@@]12C
REMARK SMILES IDX 4 1 5 2 6 3 7 4 22 5 21 6 20 7 19 8 8 9 9 10 10 11 11 12
REMARK SMILES IDX 17 13 16 14 15 15 13 16 12 17 18 18 23 19 2 20 1 21 3 22
REMARK SMILES IDX 14 23
REMARK H PARENT 14 24
REMARK Flexibility Score: inf
ROOT
ATOM      1  C   UNL     1     205.496 199.114 223.995  1.00  0.00     0.062 C 
ATOM      2  C   UNL     1     205.390 200.317 223.049  1.00  0.00     0.012 C 
ATOM      3  C   UNL     1     203.913 200.717 223.032  1.00  0.00     0.005 C 
ATOM      4  C   UNL     1     203.193 199.784 224.023  1.00  0.00    -0.001 C 
ATOM      5  C   UNL     1     204.068 198.516 224.078  1.00  0.00    -0.020 C 
ATOM      6  C   UNL     1     203.761 197.588 222.863  1.00  0.00     0.008 C 
ATOM      7  C   UNL     1     202.271 197.278 222.713  1.00  0.00     0.005 C 
ATOM      8  C   UNL     1     201.431 198.569 222.546  1.00  0.00     0.003 C 
ATOM      9  C   UNL     1     201.681 199.523 223.735  1.00  0.00     0.000 C 
ATOM     10  C   UNL     1     200.938 200.844 223.488  1.00  0.00     0.031 C 
ATOM     11  C   UNL     1     199.480 200.610 223.265  1.00  0.00    -0.027 C 
ATOM     12  C   UNL     1     198.997 199.498 222.671  1.00  0.00    -0.065 C 
ATOM     13  C   UNL     1     199.883 198.291 222.304  1.00  0.00    -0.008 C 
ATOM     14  C   UNL     1     199.371 197.083 223.158  1.00  0.00     0.014 C 
ATOM     15  C   UNL     1     197.842 196.875 223.113  1.00  0.00     0.033 C 
ATOM     16  C   UNL     1     197.065 198.151 223.483  1.00  0.00     0.118 C 
ATOM     17  C   UNL     1     197.493 199.322 222.594  1.00  0.00     0.063 C 
ATOM     18  C   UNL     1     199.695 197.979 220.797  1.00  0.00     0.016 C 
ATOM     19  C   UNL     1     203.884 197.755 225.412  1.00  0.00     0.012 C 
ENDROOT
BRANCH   1  20
ATOM     20  C   UNL     1     206.590 198.130 223.610  1.00  0.00     0.133 C 
ATOM     21  C   UNL     1     207.234 198.185 222.256  1.00  0.00     0.088 C 
ATOM     22  O   UNL     1     206.960 197.276 224.402  1.00  0.00    -0.300 OA
ENDBRANCH   1  20
BRANCH  16  23
ATOM     23  O   UNL     1     197.281 198.482 224.832  1.00  0.00    -0.393 OA
ATOM     24  H   UNL     1     198.078 199.074 224.857  1.00  0.00     0.210 HD
ENDBRANCH  16  23
TORSDOF 2
ENDMDL
MODEL 6
REMARK VINA RESULT:    -3.763      9.225     13.511
REMARK INTER + INTRA:          -4.215
REMARK INTER:                  -4.059
REMARK INTRA:                  -0.156
REMARK UNBOUND:                -0.122
REMARK SMILES CC(=O)[C@H]1CC[C@H]2[C@H]3CC=C4C[C@H](O)CC[C@]4(C)[C@@H]3CC[C@@]12C
REMARK SMILES IDX 4 1 5 2 6 3 7 4 22 5 21 6 20 7 19 8 8 9 9 10 10 11 11 12
REMARK SMILES IDX 17 13 16 14 15 15 13 16 12 17 18 18 23 19 2 20 1 21 3 22
REMARK SMILES IDX 14 23
REMARK H PARENT 14 24
REMARK Flexibility Score: inf
ROOT
ATOM      1  C   UNL     1     204.766 201.216 223.340  1.00  0.00     0.062 C 
ATOM      2  C   UNL     1     204.239 202.339 222.438  1.00  0.00     0.012 C 
ATOM      3  C   UNL     1     202.717 202.341 222.604  1.00  0.00     0.005 C 
ATOM      4  C   UNL     1     202.388 201.265 223.656  1.00  0.00    -0.001 C 
ATOM      5  C   UNL     1     203.563 200.269 223.581  1.00  0.00    -0.020 C 
ATOM      6  C   UNL     1     203.364 199.278 222.394  1.00  0.00     0.008 C 
ATOM      7  C   UNL     1     201.998 198.590 222.416  1.00  0.00     0.005 C 
ATOM      8  C   UNL     1     200.838 199.615 222.375  1.00  0.00     0.003 C 
ATOM      9  C   UNL     1     200.973 200.616 223.544  1.00  0.00     0.000 C 
ATOM     10  C   UNL     1     199.888 201.696 223.413  1.00  0.00     0.031 C 
ATOM     11  C   UNL     1     198.525 201.088 223.360  1.00  0.00    -0.027 C 
ATOM     12  C   UNL     1     198.280 199.881 222.807  1.00  0.00    -0.065 C 
ATOM     13  C   UNL     1     199.398 198.942 222.314  1.00  0.00    -0.008 C 
ATOM     14  C   UNL     1     199.324 197.653 223.198  1.00  0.00     0.014 C 
ATOM     15  C   UNL     1     197.907 197.054 223.332  1.00  0.00     0.033 C 
ATOM     16  C   UNL     1     196.875 198.088 223.817  1.00  0.00     0.118 C 
ATOM     17  C   UNL     1     196.876 199.320 222.906  1.00  0.00     0.063 C 
ATOM     18  C   UNL     1     199.118 198.573 220.833  1.00  0.00     0.016 C 
ATOM     19  C   UNL     1     203.744 199.503 224.913  1.00  0.00     0.012 C 
ENDROOT
BRANCH   1  20
ATOM     20  C   UNL     1     206.023 200.546 222.809  1.00  0.00     0.133 C 
ATOM     21  C   UNL     1     206.479 200.772 221.397  1.00  0.00     0.088 C 
ATOM     22  O   UNL     1     206.683 199.809 223.528  1.00  0.00    -0.300 OA
ENDBRANCH   1  20
BRANCH  16  23
ATOM     23  O   UNL     1     197.158 198.481 225.136  1.00  0.00    -0.393 OA
ATOM     24  H   UNL     1     197.110 197.661 225.695  1.00  0.00     0.210 HD
ENDBRANCH  16  23
TORSDOF 2
ENDMDL
MODEL 7
REMARK VINA RESULT:    -3.648      4.179      7.221
REMARK INTER + INTRA:          -4.089
REMARK INTER:                  -4.010
REMARK INTRA:                  -0.079
REMARK UNBOUND:                -0.122
REMARK SMILES CC(=O)[C@H]1CC[C@H]2[C@H]3CC=C4C[C@H](O)CC[C@]4(C)[C@@H]3CC[C@@]12C
REMARK SMILES IDX 4 1 5 2 6 3 7 4 22 5 21 6 20 7 19 8 8 9 9 10 10 11 11 12
REMARK SMILES IDX 17 13 16 14 15 15 13 16 12 17 18 18 23 19 2 20 1 21 3 22
REMARK SMILES IDX 14 23
REMARK H PARENT 14 24
REMARK Flexibility Score: inf
ROOT
ATOM      1  C   UNL     1     206.633 206.860 224.571  1.00  0.00     0.062 C 
ATOM      2  C   UNL     1     205.934 206.332 223.312  1.00  0.00     0.012 C 
ATOM      3  C   UNL     1     206.572 204.975 223.007  1.00  0.00     0.005 C 
ATOM      4  C   UNL     1     207.583 204.700 224.136  1.00  0.00    -0.001 C 
ATOM      5  C   UNL     1     207.979 206.097 224.658  1.00  0.00    -0.020 C 
ATOM      6  C   UNL     1     209.063 206.735 223.738  1.00  0.00     0.008 C 
ATOM      7  C   UNL     1     210.267 205.819 223.512  1.00  0.00     0.005 C 
ATOM      8  C   UNL     1     209.849 204.467 222.881  1.00  0.00     0.003 C 
ATOM      9  C   UNL     1     208.784 203.776 223.762  1.00  0.00     0.000 C 
ATOM     10  C   UNL     1     208.294 202.503 223.058  1.00  0.00     0.031 C 
ATOM     11  C   UNL     1     209.431 201.587 222.744  1.00  0.00    -0.027 C 
ATOM     12  C   UNL     1     210.671 202.030 222.447  1.00  0.00    -0.065 C 
ATOM     13  C   UNL     1     211.079 203.513 222.552  1.00  0.00    -0.008 C 
ATOM     14  C   UNL     1     212.187 203.597 223.654  1.00  0.00     0.014 C 
ATOM     15  C   UNL     1     213.321 202.562 223.494  1.00  0.00     0.033 C 
ATOM     16  C   UNL     1     212.792 201.121 223.385  1.00  0.00     0.118 C 
ATOM     17  C   UNL     1     211.770 201.006 222.250  1.00  0.00     0.063 C 
ATOM     18  C   UNL     1     211.666 203.962 221.189  1.00  0.00     0.016 C 
ATOM     19  C   UNL     1     208.467 206.037 226.125  1.00  0.00     0.012 C 
ENDROOT
BRANCH   1  20
ATOM     20  C   UNL     1     206.743 208.376 224.618  1.00  0.00     0.133 C 
ATOM     21  C   UNL     1     206.874 209.099 225.926  1.00  0.00     0.088 C 
ATOM     22  O   UNL     1     206.724 209.029 223.585  1.00  0.00    -0.300 OA
ENDBRANCH   1  20
BRANCH  16  23
ATOM     23  O   UNL     1     212.197 200.726 224.595  1.00  0.00    -0.393 OA
ATOM     24  H   UNL     1     211.737 201.525 224.962  1.00  0.00     0.210 HD
ENDBRANCH  16  23
TORSDOF 2
ENDMDL
MODEL 8
REMARK VINA RESULT:    -3.642      3.516      8.628
REMARK INTER + INTRA:          -4.083
REMARK INTER:                  -4.047
REMARK INTRA:                  -0.036
REMARK UNBOUND:                -0.122
REMARK SMILES CC(=O)[C@H]1CC[C@H]2[C@H]3CC=C4C[C@H](O)CC[C@]4(C)[C@@H]3CC[C@@]12C
REMARK SMILES IDX 4 1 5 2 6 3 7 4 22 5 21 6 20 7 19 8 8 9 9 10 10 11 11 12
REMARK SMILES IDX 17 13 16 14 15 15 13 16 12 17 18 18 23 19 2 20 1 21 3 22
REMARK SMILES IDX 14 23
REMARK H PARENT 14 24
REMARK Flexibility Score: inf
ROOT
ATOM      1  C   UNL     1     206.878 208.089 224.585  1.00  0.00     0.062 C 
ATOM      2  C   UNL     1     206.362 208.803 223.329  1.00  0.00     0.012 C 
ATOM      3  C   UNL     1     205.000 208.179 223.013  1.00  0.00     0.005 C 
ATOM      4  C   UNL     1     204.713 207.161 224.131  1.00  0.00    -0.001 C 
ATOM      5  C   UNL     1     206.104 206.749 224.656  1.00  0.00    -0.020 C 
ATOM      6  C   UNL     1     206.738 205.668 223.730  1.00  0.00     0.008 C 
ATOM      7  C   UNL     1     205.814 204.473 223.489  1.00  0.00     0.005 C 
ATOM      8  C   UNL     1     204.469 204.907 222.855  1.00  0.00     0.003 C 
ATOM      9  C   UNL     1     203.782 205.969 223.743  1.00  0.00     0.000 C 
ATOM     10  C   UNL     1     202.515 206.476 223.037  1.00  0.00     0.031 C 
ATOM     11  C   UNL     1     201.593 205.349 222.710  1.00  0.00    -0.027 C 
ATOM     12  C   UNL     1     202.027 204.108 222.404  1.00  0.00    -0.065 C 
ATOM     13  C   UNL     1     203.506 203.688 222.512  1.00  0.00    -0.008 C 
ATOM     14  C   UNL     1     203.577 202.569 223.604  1.00  0.00     0.014 C 
ATOM     15  C   UNL     1     202.534 201.444 223.430  1.00  0.00     0.033 C 
ATOM     16  C   UNL     1     201.098 201.985 223.319  1.00  0.00     0.118 C 
ATOM     17  C   UNL     1     200.995 203.018 222.193  1.00  0.00     0.063 C 
ATOM     18  C   UNL     1     203.958 203.108 221.145  1.00  0.00     0.016 C 
ATOM     19  C   UNL     1     206.034 206.249 226.119  1.00  0.00     0.012 C 
ENDROOT
BRANCH   1  20
ATOM     20  C   UNL     1     208.393 207.968 224.637  1.00  0.00     0.133 C 
ATOM     21  C   UNL     1     209.129 208.058 225.942  1.00  0.00     0.088 C 
ATOM     22  O   UNL     1     209.035 207.795 223.612  1.00  0.00    -0.300 OA
ENDBRANCH   1  20
BRANCH  16  23
ATOM     23  O   UNL     1     200.701 202.573 224.532  1.00  0.00    -0.393 OA
ATOM     24  H   UNL     1     200.391 201.836 225.120  1.00  0.00     0.210 HD
ENDBRANCH  16  23
TORSDOF 2
ENDMDL
MODEL 9
REMARK VINA RESULT:    -3.639      1.789      2.273
REMARK INTER + INTRA:          -4.079
REMARK INTER:                  -4.004
REMARK INTRA:                  -0.076
REMARK UNBOUND:                -0.122
REMARK SMILES CC(=O)[C@H]1CC[C@H]2[C@H]3CC=C4C[C@H](O)CC[C@]4(C)[C@@H]3CC[C@@]12C
REMARK SMILES IDX 4 1 5 2 6 3 7 4 22 5 21 6 20 7 19 8 8 9 9 10 10 11 11 12
REMARK SMILES IDX 17 13 16 14 15 15 13 16 12 17 18 18 23 19 2 20 1 21 3 22
REMARK SMILES IDX 14 23
REMARK H PARENT 14 24
REMARK Flexibility Score: inf
ROOT
ATOM      1  C   UNL     1     207.902 206.676 224.504  1.00  0.00     0.062 C 
ATOM      2  C   UNL     1     208.396 206.040 223.198  1.00  0.00     0.012 C 
ATOM      3  C   UNL     1     209.746 206.691 222.891  1.00  0.00     0.005 C 
ATOM      4  C   UNL     1     210.051 207.645 224.061  1.00  0.00    -0.001 C 
ATOM      5  C   UNL     1     208.670 208.016 224.638  1.00  0.00    -0.020 C 
ATOM      6  C   UNL     1     208.010 209.145 223.789  1.00  0.00     0.008 C 
ATOM      7  C   UNL     1     208.923 210.357 223.600  1.00  0.00     0.005 C 
ATOM      8  C   UNL     1     210.257 209.970 222.914  1.00  0.00     0.003 C 
ATOM      9  C   UNL     1     210.968 208.863 223.724  1.00  0.00     0.000 C 
ATOM     10  C   UNL     1     212.222 208.407 222.964  1.00  0.00     0.031 C 
ATOM     11  C   UNL     1     213.131 209.557 222.684  1.00  0.00    -0.027 C 
ATOM     12  C   UNL     1     212.684 210.811 222.460  1.00  0.00    -0.065 C 
ATOM     13  C   UNL     1     211.205 211.214 222.623  1.00  0.00    -0.008 C 
ATOM     14  C   UNL     1     211.151 212.266 223.780  1.00  0.00     0.014 C 
ATOM     15  C   UNL     1     212.184 213.407 223.651  1.00  0.00     0.033 C 
ATOM     16  C   UNL     1     213.620 212.882 223.478  1.00  0.00     0.118 C 
ATOM     17  C   UNL     1     213.705 211.917 222.292  1.00  0.00     0.063 C 
ATOM     18  C   UNL     1     210.722 211.869 221.302  1.00  0.00     0.016 C 
ATOM     19  C   UNL     1     208.767 208.430 226.125  1.00  0.00     0.012 C 
ENDROOT
BRANCH   1  20
ATOM     20  C   UNL     1     206.388 206.784 224.595  1.00  0.00     0.133 C 
ATOM     21  C   UNL     1     205.696 206.831 225.925  1.00  0.00     0.088 C 
ATOM     22  O   UNL     1     205.709 206.834 223.579  1.00  0.00    -0.300 OA
ENDBRANCH   1  20
BRANCH  16  23
ATOM     23  O   UNL     1     214.045 212.227 224.647  1.00  0.00    -0.393 OA
ATOM     24  H   UNL     1     214.332 211.316 224.376  1.00  0.00     0.210 HD
ENDBRANCH  16  23
TORSDOF 2
ENDMDL
