MODEL 1
REMARK VINA RESULT:    31.835      0.000      0.000
REMARK INTER + INTRA:          37.256
REMARK INTER:                  37.418
REMARK INTRA:                  -0.162
REMARK UNBOUND:                -0.162
REMARK SMILES O=c1c(O)c(-c2ccc(O)cc2)oc2cc(O)cc(O)c12
REMARK SMILES IDX 5 1 3 2 2 3 1 4 21 5 19 6 18 7 16 8 15 9 14 10 13 11 6 12
REMARK SMILES IDX 7 13 8 14 9 15 12 16 11 17 10 18 4 20 20 22 17 24
REMARK H PARENT 10 19 4 21 20 23 17 25
REMARK Flexibility Score: inf
ROOT
ATOM      1  C   UNL     1      16.194  52.823  24.584  1.00  0.00     0.180 A 
ATOM      2  C   UNL     1      15.147  53.514  25.222  1.00  0.00     0.208 A 
ATOM      3  C   UNL     1      14.722  54.742  24.693  1.00  0.00     0.238 A 
ATOM      4  O   UNL     1      13.792  55.376  25.263  1.00  0.00    -0.285 OA
ATOM      5  C   UNL     1      15.336  55.249  23.528  1.00  0.00     0.111 A 
ATOM      6  C   UNL     1      14.965  56.477  22.929  1.00  0.00     0.134 A 
ATOM      7  C   UNL     1      15.617  56.908  21.764  1.00  0.00     0.093 A 
ATOM      8  C   UNL     1      16.630  56.137  21.189  1.00  0.00     0.123 A 
ATOM      9  C   UNL     1      17.001  54.924  21.776  1.00  0.00     0.094 A 
ATOM     10  C   UNL     1      16.364  54.477  22.937  1.00  0.00     0.146 A 
ATOM     11  O   UNL     1      16.739  53.324  23.478  1.00  0.00    -0.452 OA
ENDROOT
BRANCH   1  12
ATOM     12  C   UNL     1      16.710  51.531  25.091  1.00  0.00     0.021 A 
ATOM     13  C   UNL     1      16.495  50.330  24.391  1.00  0.00     0.016 A 
ATOM     14  C   UNL     1      16.970  49.119  24.902  1.00  0.00     0.047 A 
ATOM     15  C   UNL     1      17.655  49.089  26.121  1.00  0.00     0.115 A 
ATOM     16  C   UNL     1      17.380  51.491  26.325  1.00  0.00     0.016 A 
ATOM     17  C   UNL     1      17.856  50.278  26.834  1.00  0.00     0.047 A 
BRANCH  15  18
ATOM     18  O   UNL     1      18.125  47.875  26.616  1.00  0.00    -0.508 OA
ATOM     19  H   UNL     1      17.490  47.153  26.936  1.00  0.00     0.293 HD
ENDBRANCH  15  18
ENDBRANCH   1  12
BRANCH   2  20
ATOM     20  O   UNL     1      14.522  52.967  26.346  1.00  0.00    -0.502 OA
ATOM     21  H   UNL     1      13.536  53.098  26.536  1.00  0.00     0.293 HD
ENDBRANCH   2  20
BRANCH   6  22
ATOM     22  O   UNL     1      13.957  57.269  23.480  1.00  0.00    -0.507 OA
ATOM     23  H   UNL     1      13.932  58.273  23.342  1.00  0.00     0.293 HD
ENDBRANCH   6  22
BRANCH   8  24
ATOM     24  O   UNL     1      17.261  56.588  20.031  1.00  0.00    -0.508 OA
ATOM     25  H   UNL     1      17.861  55.980  19.485  1.00  0.00     0.293 HD
ENDBRANCH   8  24
TORSDOF 5
ENDMDL
MODEL 2
REMARK VINA RESULT:    32.490      2.277      6.787
REMARK INTER + INTRA:          38.026
REMARK INTER:                  38.320
REMARK INTRA:                  -0.294
REMARK UNBOUND:                -0.162
REMARK SMILES O=c1c(O)c(-c2ccc(O)cc2)oc2cc(O)cc(O)c12
REMARK SMILES IDX 5 1 3 2 2 3 1 4 21 5 19 6 18 7 16 8 15 9 14 10 13 11 6 12
REMARK SMILES IDX 7 13 8 14 9 15 12 16 11 17 10 18 4 20 20 22 17 24
REMARK H PARENT 10 19 4 21 20 23 17 25
REMARK Flexibility Score: inf
ROOT
ATOM      1  C   UNL     1      15.867  53.329  23.416  1.00  0.00     0.180 A 
ATOM      2  C   UNL     1      16.843  52.778  24.268  1.00  0.00     0.208 A 
ATOM      3  C   UNL     1      16.585  51.547  24.890  1.00  0.00     0.238 A 
ATOM      4  O   UNL     1      17.447  51.050  25.664  1.00  0.00    -0.285 OA
ATOM      5  C   UNL     1      15.368  50.880  24.637  1.00  0.00     0.111 A 
ATOM      6  C   UNL     1      15.032  49.635  25.220  1.00  0.00     0.134 A 
ATOM      7  C   UNL     1      13.805  49.030  24.909  1.00  0.00     0.093 A 
ATOM      8  C   UNL     1      12.911  49.644  24.030  1.00  0.00     0.123 A 
ATOM      9  C   UNL     1      13.237  50.874  23.451  1.00  0.00     0.094 A 
ATOM     10  C   UNL     1      14.454  51.493  23.748  1.00  0.00     0.146 A 
ATOM     11  O   UNL     1      14.737  52.664  23.188  1.00  0.00    -0.452 OA
ENDROOT
BRANCH   1  12
ATOM     12  C   UNL     1      16.058  54.632  22.738  1.00  0.00     0.021 A 
ATOM     13  C   UNL     1      15.752  55.845  23.381  1.00  0.00     0.016 A 
ATOM     14  C   UNL     1      15.916  57.061  22.713  1.00  0.00     0.047 A 
ATOM     15  C   UNL     1      16.376  57.082  21.392  1.00  0.00     0.115 A 
ATOM     16  C   UNL     1      16.498  54.659  21.405  1.00  0.00     0.016 A 
ATOM     17  C   UNL     1      16.664  55.877  20.737  1.00  0.00     0.047 A 
BRANCH  15  18
ATOM     18  O   UNL     1      16.537  58.302  20.739  1.00  0.00    -0.508 OA
ATOM     19  H   UNL     1      15.851  58.641  20.075  1.00  0.00     0.293 HD
ENDBRANCH  15  18
ENDBRANCH   1  12
BRANCH   2  20
ATOM     20  O   UNL     1      18.061  53.435  24.464  1.00  0.00    -0.502 OA
ATOM     21  H   UNL     1      18.871  52.972  24.859  1.00  0.00     0.293 HD
ENDBRANCH   2  20
BRANCH   6  22
ATOM     22  O   UNL     1      15.904  48.996  26.103  1.00  0.00    -0.507 OA
ATOM     23  H   UNL     1      16.652  48.396  25.773  1.00  0.00     0.293 HD
ENDBRANCH   6  22
BRANCH   8  24
ATOM     24  O   UNL     1      11.699  49.021  23.738  1.00  0.00    -0.508 OA
ATOM     25  H   UNL     1      11.510  48.635  22.820  1.00  0.00     0.293 HD
ENDBRANCH   8  24
TORSDOF 5
ENDMDL
MODEL 3
REMARK VINA RESULT:    33.147      2.825      6.696
REMARK INTER + INTRA:          38.797
REMARK INTER:                  38.456
REMARK INTRA:                   0.342
REMARK UNBOUND:                -0.162
REMARK SMILES O=c1c(O)c(-c2ccc(O)cc2)oc2cc(O)cc(O)c12
REMARK SMILES IDX 5 1 3 2 2 3 1 4 21 5 19 6 18 7 16 8 15 9 14 10 13 11 6 12
REMARK SMILES IDX 7 13 8 14 9 15 12 16 11 17 10 18 4 20 20 22 17 24
REMARK H PARENT 10 19 4 21 20 23 17 25
REMARK Flexibility Score: inf
ROOT
ATOM      1  C   UNL     1      16.628  53.997  26.281  1.00  0.00     0.180 A 
ATOM      2  C   UNL     1      16.240  53.860  24.935  1.00  0.00     0.208 A 
ATOM      3  C   UNL     1      16.326  52.598  24.328  1.00  0.00     0.238 A 
ATOM      4  O   UNL     1      15.991  52.466  23.119  1.00  0.00    -0.285 OA
ATOM      5  C   UNL     1      16.779  51.493  25.078  1.00  0.00     0.111 A 
ATOM      6  C   UNL     1      16.892  50.188  24.543  1.00  0.00     0.134 A 
ATOM      7  C   UNL     1      17.342  49.138  25.359  1.00  0.00     0.093 A 
ATOM      8  C   UNL     1      17.680  49.368  26.694  1.00  0.00     0.123 A 
ATOM      9  C   UNL     1      17.571  50.655  27.228  1.00  0.00     0.094 A 
ATOM     10  C   UNL     1      17.125  51.714  26.432  1.00  0.00     0.146 A 
ATOM     11  O   UNL     1      17.036  52.929  26.963  1.00  0.00    -0.452 OA
ENDROOT
BRANCH   1  12
ATOM     12  C   UNL     1      16.583  55.298  26.987  1.00  0.00     0.021 A 
ATOM     13  C   UNL     1      15.687  56.311  26.599  1.00  0.00     0.016 A 
ATOM     14  C   UNL     1      15.679  57.540  27.265  1.00  0.00     0.047 A 
ATOM     15  C   UNL     1      16.572  57.779  28.314  1.00  0.00     0.115 A 
ATOM     16  C   UNL     1      17.492  55.552  28.027  1.00  0.00     0.016 A 
ATOM     17  C   UNL     1      17.482  56.782  28.692  1.00  0.00     0.047 A 
BRANCH  15  18
ATOM     18  O   UNL     1      16.552  59.008  28.969  1.00  0.00    -0.508 OA
ATOM     19  H   UNL     1      17.397  59.551  29.101  1.00  0.00     0.293 HD
ENDBRANCH  15  18
ENDBRANCH   1  12
BRANCH   2  20
ATOM     20  O   UNL     1      15.748  54.960  24.227  1.00  0.00    -0.502 OA
ATOM     21  H   UNL     1      16.331  55.516  23.614  1.00  0.00     0.293 HD
ENDBRANCH   2  20
BRANCH   6  22
ATOM     22  O   UNL     1      16.562  49.926  23.213  1.00  0.00    -0.507 OA
ATOM     23  H   UNL     1      17.237  50.032  22.464  1.00  0.00     0.293 HD
ENDBRANCH   6  22
BRANCH   8  24
ATOM     24  O   UNL     1      18.123  48.307  27.482  1.00  0.00    -0.508 OA
ATOM     25  H   UNL     1      17.514  47.532  27.715  1.00  0.00     0.293 HD
ENDBRANCH   8  24
TORSDOF 5
ENDMDL
