MODEL 1
REMARK VINA RESULT:    -3.003      0.000      0.000
REMARK INTER + INTRA:          -3.645
REMARK INTER:                  -3.530
REMARK INTRA:                  -0.116
REMARK UNBOUND:                -0.116
REMARK SMILES O=C([O-])CCC(=O)[O-]
REMARK SMILES IDX 4 1 2 2 1 3 3 4 5 5 6 6 7 7 8 8
REMARK H PARENT
REMARK Flexibility Score: inf
ROOT
ATOM      1  C   UNL     1     153.834 151.491 157.484  1.00  0.00     0.059 C 
ENDROOT
BRANCH   1   2
ATOM      2  C   UNL     1     155.248 151.940 157.695  1.00  0.00     0.042 C 
ATOM      3  O   UNL     1     156.205 151.167 157.424  1.00  0.00    -0.550 OA
ATOM      4  O   UNL     1     155.509 153.226 158.150  1.00  0.00    -0.550 OA
ENDBRANCH   1   2
BRANCH   1   5
ATOM      5  C   UNL     1     153.241 150.875 158.756  1.00  0.00     0.059 C 
BRANCH   5   6
ATOM      6  C   UNL     1     152.603 151.913 159.628  1.00  0.00     0.042 C 
ATOM      7  O   UNL     1     152.980 152.057 160.820  1.00  0.00    -0.550 OA
ATOM      8  O   UNL     1     151.621 152.748 159.110  1.00  0.00    -0.550 OA
ENDBRANCH   5   6
ENDBRANCH   1   5
TORSDOF 3
ENDMDL
MODEL 2
REMARK VINA RESULT:    -2.988      0.674      3.595
REMARK INTER + INTRA:          -3.627
REMARK INTER:                  -3.455
REMARK INTRA:                  -0.173
REMARK UNBOUND:                -0.116
REMARK SMILES O=C([O-])CCC(=O)[O-]
REMARK SMILES IDX 4 1 2 2 1 3 3 4 5 5 6 6 7 7 8 8
REMARK H PARENT
REMARK Flexibility Score: inf
ROOT
ATOM      1  C   UNL     1     153.170 150.875 158.953  1.00  0.00     0.059 C 
ENDROOT
BRANCH   1   2
ATOM      2  C   UNL     1     152.643 152.024 159.756  1.00  0.00     0.042 C 
ATOM      3  O   UNL     1     153.148 152.300 160.876  1.00  0.00    -0.550 OA
ATOM      4  O   UNL     1     151.621 152.817 159.249  1.00  0.00    -0.550 OA
ENDBRANCH   1   2
BRANCH   1   5
ATOM      5  C   UNL     1     153.479 151.288 157.510  1.00  0.00     0.059 C 
BRANCH   5   6
ATOM      6  C   UNL     1     154.664 152.200 157.437  1.00  0.00     0.042 C 
ATOM      7  O   UNL     1     154.526 153.390 157.048  1.00  0.00    -0.550 OA
ATOM      8  O   UNL     1     155.916 151.748 157.836  1.00  0.00    -0.550 OA
ENDBRANCH   5   6
ENDBRANCH   1   5
TORSDOF 3
ENDMDL
MODEL 3
REMARK VINA RESULT:    -2.939     11.887     12.654
REMARK INTER + INTRA:          -3.570
REMARK INTER:                  -3.447
REMARK INTRA:                  -0.123
REMARK UNBOUND:                -0.116
REMARK SMILES O=C([O-])CCC(=O)[O-]
REMARK SMILES IDX 4 1 2 2 1 3 3 4 5 5 6 6 7 7 8 8
REMARK H PARENT
REMARK Flexibility Score: inf
ROOT
ATOM      1  C   UNL     1     149.856 154.243 147.808  1.00  0.00     0.059 C 
ENDROOT
BRANCH   1   2
ATOM      2  C   UNL     1     150.534 155.175 146.851  1.00  0.00     0.042 C 
ATOM      3  O   UNL     1     149.920 156.179 146.402  1.00  0.00    -0.550 OA
ATOM      4  O   UNL     1     151.857 154.960 146.489  1.00  0.00    -0.550 OA
ENDBRANCH   1   2
BRANCH   1   5
ATOM      5  C   UNL     1     149.174 153.081 147.078  1.00  0.00     0.059 C 
BRANCH   5   6
ATOM      6  C   UNL     1     150.069 151.884 146.986  1.00  0.00     0.042 C 
ATOM      7  O   UNL     1     151.055 151.768 147.761  1.00  0.00    -0.550 OA
ATOM      8  O   UNL     1     149.791 150.876 146.071  1.00  0.00    -0.550 OA
ENDBRANCH   5   6
ENDBRANCH   1   5
TORSDOF 3
ENDMDL
MODEL 4
REMARK VINA RESULT:    -2.938      1.468      1.829
REMARK INTER + INTRA:          -3.569
REMARK INTER:                  -3.464
REMARK INTRA:                  -0.105
REMARK UNBOUND:                -0.116
REMARK SMILES O=C([O-])CCC(=O)[O-]
REMARK SMILES IDX 4 1 2 2 1 3 3 4 5 5 6 6 7 7 8 8
REMARK H PARENT
REMARK Flexibility Score: inf
ROOT
ATOM      1  C   UNL     1     154.563 153.424 158.949  1.00  0.00     0.059 C 
ENDROOT
BRANCH   1   2
ATOM      2  C   UNL     1     154.969 153.030 157.562  1.00  0.00     0.042 C 
ATOM      3  O   UNL     1     155.554 151.933 157.360  1.00  0.00    -0.550 OA
ATOM      4  O   UNL     1     154.665 153.855 156.487  1.00  0.00    -0.550 OA
ENDBRANCH   1   2
BRANCH   1   5
ATOM      5  C   UNL     1     153.042 153.384 159.126  1.00  0.00     0.059 C 
BRANCH   5   6
ATOM      6  C   UNL     1     152.615 152.232 159.982  1.00  0.00     0.042 C 
ATOM      7  O   UNL     1     151.762 152.401 160.894  1.00  0.00    -0.550 OA
ATOM      8  O   UNL     1     153.128 150.962 159.748  1.00  0.00    -0.550 OA
ENDBRANCH   5   6
ENDBRANCH   1   5
TORSDOF 3
ENDMDL
MODEL 5
REMARK VINA RESULT:    -2.934      1.477      3.889
REMARK INTER + INTRA:          -3.564
REMARK INTER:                  -3.462
REMARK INTRA:                  -0.103
REMARK UNBOUND:                -0.116
REMARK SMILES O=C([O-])CCC(=O)[O-]
REMARK SMILES IDX 4 1 2 2 1 3 3 4 5 5 6 6 7 7 8 8
REMARK H PARENT
REMARK Flexibility Score: inf
ROOT
ATOM      1  C   UNL     1     152.999 153.397 159.136  1.00  0.00     0.059 C 
ENDROOT
BRANCH   1   2
ATOM      2  C   UNL     1     152.581 152.236 159.986  1.00  0.00     0.042 C 
ATOM      3  O   UNL     1     151.713 152.389 160.885  1.00  0.00    -0.550 OA
ATOM      4  O   UNL     1     153.118 150.976 159.756  1.00  0.00    -0.550 OA
ENDBRANCH   1   2
BRANCH   1   5
ATOM      5  C   UNL     1     154.521 153.458 158.971  1.00  0.00     0.059 C 
BRANCH   5   6
ATOM      6  C   UNL     1     154.945 153.031 157.599  1.00  0.00     0.042 C 
ATOM      7  O   UNL     1     155.521 151.925 157.429  1.00  0.00    -0.550 OA
ATOM      8  O   UNL     1     154.669 153.839 156.503  1.00  0.00    -0.550 OA
ENDBRANCH   5   6
ENDBRANCH   1   5
TORSDOF 3
ENDMDL
MODEL 6
REMARK VINA RESULT:    -2.926     11.976     12.835
REMARK INTER + INTRA:          -3.555
REMARK INTER:                  -3.479
REMARK INTRA:                  -0.076
REMARK UNBOUND:                -0.116
REMARK SMILES O=C([O-])CCC(=O)[O-]
REMARK SMILES IDX 4 1 2 2 1 3 3 4 5 5 6 6 7 7 8 8
REMARK H PARENT
REMARK Flexibility Score: inf
ROOT
ATOM      1  C   UNL     1     149.306 153.202 147.256  1.00  0.00     0.059 C 
ENDROOT
BRANCH   1   2
ATOM      2  C   UNL     1     149.641 151.764 147.002  1.00  0.00     0.042 C 
ATOM      3  O   UNL     1     150.816 151.346 147.177  1.00  0.00    -0.550 OA
ATOM      4  O   UNL     1     148.647 150.875 146.614  1.00  0.00    -0.550 OA
ENDBRANCH   1   2
BRANCH   1   5
ATOM      5  C   UNL     1     150.539 154.003 147.685  1.00  0.00     0.059 C 
BRANCH   5   6
ATOM      6  C   UNL     1     150.926 155.017 146.654  1.00  0.00     0.042 C 
ATOM      7  O   UNL     1     152.079 154.999 146.148  1.00  0.00    -0.550 OA
ATOM      8  O   UNL     1     150.000 155.958 146.221  1.00  0.00    -0.550 OA
ENDBRANCH   5   6
ENDBRANCH   1   5
TORSDOF 3
ENDMDL
MODEL 7
REMARK VINA RESULT:    -2.899     12.255     13.090
REMARK INTER + INTRA:          -3.523
REMARK INTER:                  -3.402
REMARK INTRA:                  -0.121
REMARK UNBOUND:                -0.116
REMARK SMILES O=C([O-])CCC(=O)[O-]
REMARK SMILES IDX 4 1 2 2 1 3 3 4 5 5 6 6 7 7 8 8
REMARK H PARENT
REMARK Flexibility Score: inf
ROOT
ATOM      1  C   UNL     1     148.970 153.096 147.079  1.00  0.00     0.059 C 
ENDROOT
BRANCH   1   2
ATOM      2  C   UNL     1     149.717 151.799 147.012  1.00  0.00     0.042 C 
ATOM      3  O   UNL     1     149.315 150.875 146.257  1.00  0.00    -0.550 OA
ATOM      4  O   UNL     1     150.880 151.627 147.751  1.00  0.00    -0.550 OA
ENDBRANCH   1   2
BRANCH   1   5
ATOM      5  C   UNL     1     149.281 153.991 145.875  1.00  0.00     0.059 C 
BRANCH   5   6
ATOM      6  C   UNL     1     150.296 155.040 146.213  1.00  0.00     0.042 C 
ATOM      7  O   UNL     1     149.926 156.196 146.548  1.00  0.00    -0.550 OA
ATOM      8  O   UNL     1     151.650 154.728 146.199  1.00  0.00    -0.550 OA
ENDBRANCH   5   6
ENDBRANCH   1   5
TORSDOF 3
ENDMDL
MODEL 8
REMARK VINA RESULT:    -2.783      1.199      1.540
REMARK INTER + INTRA:          -3.387
REMARK INTER:                  -3.288
REMARK INTRA:                  -0.100
REMARK UNBOUND:                -0.116
REMARK SMILES O=C([O-])CCC(=O)[O-]
REMARK SMILES IDX 4 1 2 2 1 3 3 4 5 5 6 6 7 7 8 8
REMARK H PARENT
REMARK Flexibility Score: inf
ROOT
ATOM      1  C   UNL     1     153.661 151.241 157.512  1.00  0.00     0.059 C 
ENDROOT
BRANCH   1   2
ATOM      2  C   UNL     1     155.097 151.651 157.635  1.00  0.00     0.042 C 
ATOM      3  O   UNL     1     156.010 150.896 157.209  1.00  0.00    -0.550 OA
ATOM      4  O   UNL     1     155.424 152.886 158.180  1.00  0.00    -0.550 OA
ENDBRANCH   1   2
BRANCH   1   5
ATOM      5  C   UNL     1     152.860 151.604 158.767  1.00  0.00     0.059 C 
BRANCH   5   6
ATOM      6  C   UNL     1     151.952 152.770 158.524  1.00  0.00     0.042 C 
ATOM      7  O   UNL     1     150.891 152.621 157.862  1.00  0.00    -0.550 OA
ATOM      8  O   UNL     1     152.256 154.014 159.065  1.00  0.00    -0.550 OA
ENDBRANCH   5   6
ENDBRANCH   1   5
TORSDOF 3
ENDMDL
MODEL 9
REMARK VINA RESULT:    -2.763      1.692      3.914
REMARK INTER + INTRA:          -3.364
REMARK INTER:                  -3.175
REMARK INTRA:                  -0.189
REMARK UNBOUND:                -0.116
REMARK SMILES O=C([O-])CCC(=O)[O-]
REMARK SMILES IDX 4 1 2 2 1 3 3 4 5 5 6 6 7 7 8 8
REMARK H PARENT
REMARK Flexibility Score: inf
ROOT
ATOM      1  C   UNL     1     152.107 152.673 159.954  1.00  0.00     0.059 C 
ENDROOT
BRANCH   1   2
ATOM      2  C   UNL     1     151.332 153.449 158.934  1.00  0.00     0.042 C 
ATOM      3  O   UNL     1     151.341 154.708 158.955  1.00  0.00    -0.550 OA
ATOM      4  O   UNL     1     150.634 152.783 157.934  1.00  0.00    -0.550 OA
ENDBRANCH   1   2
BRANCH   1   5
ATOM      5  C   UNL     1     153.114 151.724 159.297  1.00  0.00     0.059 C 
BRANCH   5   6
ATOM      6  C   UNL     1     154.111 152.468 158.463  1.00  0.00     0.042 C 
ATOM      7  O   UNL     1     154.256 152.185 157.245  1.00  0.00    -0.550 OA
ATOM      8  O   UNL     1     154.853 153.502 159.022  1.00  0.00    -0.550 OA
ENDBRANCH   5   6
ENDBRANCH   1   5
TORSDOF 3
ENDMDL
