MODEL 1
REMARK VINA RESULT:    -2.963      0.000      0.000
REMARK INTER + INTRA:          -4.749
REMARK INTER:                  -4.436
REMARK INTRA:                  -0.313
REMARK UNBOUND:                -0.313
REMARK SMILES C=C(CC[C@H](C(=O)[O-])[C@H]1[C@@H](O)C[C@@]2(C)C3=C(CC[C@@]12C)[C@@]1(C)CC[C@@H](OC(C)=O)C(C)(C)[C@@H]1CC3)C(C)C
REMARK SMILES IDX 4 1 5 2 6 3 7 4 8 5 9 6 10 7 19 8 12 9 13 10 18 11 20 12
REMARK SMILES IDX 14 13 15 14 17 15 16 16 35 17 21 18 34 19 33 20 23 21 22 22
REMARK SMILES IDX 30 23 24 24 25 25 31 26 32 27 11 28 26 30 27 31 29 32 28 33
REMARK SMILES IDX 3 34 2 35 1 36 36 37 37 38 38 39
REMARK H PARENT 11 29
REMARK Flexibility Score: inf
ROOT
ATOM      1  C   UNL     1      -1.381  29.685  60.055  1.00  0.00     0.014 C 
ENDROOT
BRANCH   1   2
ATOM      2  C   UNL     1      -1.912  30.566  61.215  1.00  0.00     0.042 C 
BRANCH   2   3
ATOM      3  C   UNL     1      -3.293  30.110  61.629  1.00  0.00     0.045 C 
ATOM      4  O   UNL     1      -3.729  30.348  62.788  1.00  0.00    -0.550 OA
ATOM      5  O   UNL     1      -4.125  29.487  60.707  1.00  0.00    -0.550 OA
ENDBRANCH   2   3
BRANCH   2   6
ATOM      6  C   UNL     1      -1.786  32.098  60.866  1.00  0.00     0.033 C 
ATOM      7  C   UNL     1      -3.057  32.843  60.458  1.00  0.00     0.119 C 
ATOM      8  C   UNL     1      -1.048  33.042  61.878  1.00  0.00    -0.017 C 
ATOM      9  C   UNL     1      -2.567  34.274  60.339  1.00  0.00     0.043 C 
ATOM     10  C   UNL     1      -1.605  34.510  61.545  1.00  0.00    -0.003 C 
ATOM     11  C   UNL     1      -1.370  32.645  63.340  1.00  0.00     0.012 C 
ATOM     12  C   UNL     1       0.490  32.876  61.666  1.00  0.00     0.013 C 
ATOM     13  C   UNL     1      -0.510  35.514  61.101  1.00  0.00     0.017 C 
ATOM     14  C   UNL     1      -2.333  35.193  62.747  1.00  0.00    -0.064 C 
ATOM     15  C   UNL     1      -1.028  33.768  64.307  1.00  0.00     0.032 C 
ATOM     16  C   UNL     1      -1.901  34.975  64.033  1.00  0.00    -0.064 C 
ATOM     17  C   UNL     1      -3.469  36.191  62.456  1.00  0.00     0.032 C 
ATOM     18  C   UNL     1      -2.495  35.778  65.208  1.00  0.00    -0.008 C 
ATOM     19  C   UNL     1      -3.860  37.175  63.580  1.00  0.00     0.009 C 
ATOM     20  C   UNL     1      -2.779  37.227  64.664  1.00  0.00     0.009 C 
ATOM     21  C   UNL     1      -1.544  35.879  66.458  1.00  0.00     0.015 C 
ATOM     22  C   UNL     1      -3.771  34.991  65.630  1.00  0.00     0.016 C 
ATOM     23  C   UNL     1      -2.904  38.362  65.756  1.00  0.00     0.005 C 
ATOM     24  C   UNL     1      -0.697  37.150  66.484  1.00  0.00     0.047 C 
ATOM     25  C   UNL     1      -1.561  38.428  66.598  1.00  0.00     0.182 C 
ATOM     26  C   UNL     1      -3.162  39.732  65.069  1.00  0.00     0.015 C 
ATOM     27  C   UNL     1      -4.098  38.129  66.716  1.00  0.00     0.015 C 
BRANCH   7  28
ATOM     28  O   UNL     1      -4.047  32.777  61.452  1.00  0.00    -0.393 OA
ATOM     29  H   UNL     1      -3.608  33.015  62.309  1.00  0.00     0.210 HD
ENDBRANCH   7  28
BRANCH  25  30
ATOM     30  O   UNL     1      -0.760  39.547  66.201  1.00  0.00    -0.462 OA
BRANCH  30  31
ATOM     31  C   UNL     1      -0.335  40.555  67.073  1.00  0.00     0.302 C 
ATOM     32  O   UNL     1       0.732  40.433  67.732  1.00  0.00    -0.253 OA
ATOM     33  C   UNL     1      -1.187  41.763  67.261  1.00  0.00     0.139 C 
ENDBRANCH  30  31
ENDBRANCH  25  30
ENDBRANCH   2   6
ENDBRANCH   1   2
BRANCH   1  34
ATOM     34  C   UNL     1      -2.156  29.911  58.741  1.00  0.00     0.031 C 
BRANCH  34  35
ATOM     35  C   UNL     1      -1.933  28.776  57.760  1.00  0.00    -0.075 C 
ATOM     36  C   UNL     1      -0.963  27.880  58.005  1.00  0.00     0.008 C 
BRANCH  35  37
ATOM     37  C   UNL     1      -2.751  28.681  56.478  1.00  0.00     0.008 C 
ATOM     38  C   UNL     1      -3.791  29.805  56.399  1.00  0.00     0.012 C 
ATOM     39  C   UNL     1      -1.841  28.681  55.244  1.00  0.00     0.012 C 
ENDBRANCH  35  37
ENDBRANCH  34  35
ENDBRANCH   1  34
TORSDOF 9
ENDMDL
MODEL 2
REMARK VINA RESULT:    -2.073      1.333      2.035
REMARK INTER + INTRA:          -3.416
REMARK INTER:                  -4.591
REMARK INTRA:                   1.175
REMARK UNBOUND:                -0.313
REMARK SMILES C=C(CC[C@H](C(=O)[O-])[C@H]1[C@@H](O)C[C@@]2(C)C3=C(CC[C@@]12C)[C@@]1(C)CC[C@@H](OC(C)=O)C(C)(C)[C@@H]1CC3)C(C)C
REMARK SMILES IDX 4 1 5 2 6 3 7 4 8 5 9 6 10 7 19 8 12 9 13 10 18 11 20 12
REMARK SMILES IDX 14 13 15 14 17 15 16 16 35 17 21 18 34 19 33 20 23 21 22 22
REMARK SMILES IDX 30 23 24 24 25 25 31 26 32 27 11 28 26 30 27 31 29 32 28 33
REMARK SMILES IDX 3 34 2 35 1 36 36 37 37 38 38 39
REMARK H PARENT 11 29
REMARK Flexibility Score: inf
ROOT
ATOM      1  C   UNL     1      -2.707  29.785  58.223  1.00  0.00     0.014 C 
ENDROOT
BRANCH   1   2
ATOM      2  C   UNL     1      -1.700  30.388  59.237  1.00  0.00     0.042 C 
BRANCH   2   3
ATOM      3  C   UNL     1      -1.789  29.660  60.560  1.00  0.00     0.045 C 
ATOM      4  O   UNL     1      -2.881  29.594  61.186  1.00  0.00    -0.550 OA
ATOM      5  O   UNL     1      -0.678  28.992  61.060  1.00  0.00    -0.550 OA
ENDBRANCH   2   3
BRANCH   2   6
ATOM      6  C   UNL     1      -1.850  31.955  59.321  1.00  0.00     0.033 C 
ATOM      7  C   UNL     1      -3.262  32.538  59.299  1.00  0.00     0.119 C 
ATOM      8  C   UNL     1      -1.090  32.723  60.457  1.00  0.00    -0.017 C 
ATOM      9  C   UNL     1      -3.003  34.016  59.527  1.00  0.00     0.043 C 
ATOM     10  C   UNL     1      -1.895  34.103  60.623  1.00  0.00    -0.003 C 
ATOM     11  C   UNL     1      -1.105  31.913  61.777  1.00  0.00     0.012 C 
ATOM     12  C   UNL     1       0.397  32.897  60.019  1.00  0.00     0.013 C 
ATOM     13  C   UNL     1      -1.040  35.367  60.347  1.00  0.00     0.017 C 
ATOM     14  C   UNL     1      -2.498  34.312  62.048  1.00  0.00    -0.064 C 
ATOM     15  C   UNL     1      -0.765  32.792  62.971  1.00  0.00     0.032 C 
ATOM     16  C   UNL     1      -1.831  33.851  63.158  1.00  0.00    -0.064 C 
ATOM     17  C   UNL     1      -3.795  35.129  62.193  1.00  0.00     0.032 C 
ATOM     18  C   UNL     1      -2.325  34.204  64.575  1.00  0.00    -0.008 C 
ATOM     19  C   UNL     1      -4.125  35.704  63.587  1.00  0.00     0.009 C 
ATOM     20  C   UNL     1      -2.895  35.669  64.500  1.00  0.00     0.009 C 
ATOM     21  C   UNL     1      -1.201  34.149  65.676  1.00  0.00     0.015 C 
ATOM     22  C   UNL     1      -3.390  33.119  64.913  1.00  0.00     0.016 C 
ATOM     23  C   UNL     1      -2.992  36.443  65.874  1.00  0.00     0.005 C 
ATOM     24  C   UNL     1      -0.547  35.503  65.953  1.00  0.00     0.047 C 
ATOM     25  C   UNL     1      -1.549  36.531  66.528  1.00  0.00     0.182 C 
ATOM     26  C   UNL     1      -3.550  37.875  65.638  1.00  0.00     0.015 C 
ATOM     27  C   UNL     1      -3.964  35.761  66.869  1.00  0.00     0.015 C 
BRANCH   7  28
ATOM     28  O   UNL     1      -4.052  32.042  60.348  1.00  0.00    -0.393 OA
ATOM     29  H   UNL     1      -4.680  32.768  60.601  1.00  0.00     0.210 HD
ENDBRANCH   7  28
BRANCH  25  30
ATOM     30  O   UNL     1      -0.990  37.840  66.366  1.00  0.00    -0.462 OA
BRANCH  30  31
ATOM     31  C   UNL     1      -1.242  38.912  67.228  1.00  0.00     0.302 C 
ATOM     32  O   UNL     1      -2.149  38.842  68.100  1.00  0.00    -0.253 OA
ATOM     33  C   UNL     1      -0.462  40.172  67.071  1.00  0.00     0.139 C 
ENDBRANCH  30  31
ENDBRANCH  25  30
ENDBRANCH   2   6
ENDBRANCH   1   2
BRANCH   1  34
ATOM     34  C   UNL     1      -2.036  28.806  57.240  1.00  0.00     0.031 C 
BRANCH  34  35
ATOM     35  C   UNL     1      -2.583  28.964  55.835  1.00  0.00    -0.075 C 
ATOM     36  C   UNL     1      -3.881  29.270  55.668  1.00  0.00     0.008 C 
BRANCH  35  37
ATOM     37  C   UNL     1      -1.697  28.719  54.620  1.00  0.00     0.008 C 
ATOM     38  C   UNL     1      -0.393  28.017  55.016  1.00  0.00     0.012 C 
ATOM     39  C   UNL     1      -2.447  27.926  53.543  1.00  0.00     0.012 C 
ENDBRANCH  35  37
ENDBRANCH  34  35
ENDBRANCH   1  34
TORSDOF 9
ENDMDL
MODEL 3
REMARK VINA RESULT:    -1.506      2.413     10.083
REMARK INTER + INTRA:          -2.567
REMARK INTER:                  -1.358
REMARK INTRA:                  -1.209
REMARK UNBOUND:                -0.313
REMARK SMILES C=C(CC[C@H](C(=O)[O-])[C@H]1[C@@H](O)C[C@@]2(C)C3=C(CC[C@@]12C)[C@@]1(C)CC[C@@H](OC(C)=O)C(C)(C)[C@@H]1CC3)C(C)C
REMARK SMILES IDX 4 1 5 2 6 3 7 4 8 5 9 6 10 7 19 8 12 9 13 10 18 11 20 12
REMARK SMILES IDX 14 13 15 14 17 15 16 16 35 17 21 18 34 19 33 20 23 21 22 22
REMARK SMILES IDX 30 23 24 24 25 25 31 26 32 27 11 28 26 30 27 31 29 32 28 33
REMARK SMILES IDX 3 34 2 35 1 36 36 37 37 38 38 39
REMARK H PARENT 11 29
REMARK Flexibility Score: inf
ROOT
ATOM      1  C   UNL     1      -2.852  37.717  63.707  1.00  0.00     0.014 C 
ENDROOT
BRANCH   1   2
ATOM      2  C   UNL     1      -3.084  36.212  63.418  1.00  0.00     0.042 C 
BRANCH   2   3
ATOM      3  C   UNL     1      -3.389  35.473  64.702  1.00  0.00     0.045 C 
ATOM      4  O   UNL     1      -4.125  34.449  64.697  1.00  0.00    -0.550 OA
ATOM      5  O   UNL     1      -2.798  35.877  65.893  1.00  0.00    -0.550 OA
ENDBRANCH   2   3
BRANCH   2   6
ATOM      6  C   UNL     1      -1.906  35.611  62.561  1.00  0.00     0.033 C 
ATOM      7  C   UNL     1      -1.002  34.572  63.222  1.00  0.00     0.119 C 
ATOM      8  C   UNL     1      -2.227  35.047  61.133  1.00  0.00    -0.017 C 
ATOM      9  C   UNL     1      -0.105  34.148  62.073  1.00  0.00     0.043 C 
ATOM     10  C   UNL     1      -1.027  34.028  60.819  1.00  0.00    -0.003 C 
ATOM     11  C   UNL     1      -3.592  34.315  61.122  1.00  0.00     0.012 C 
ATOM     12  C   UNL     1      -2.323  36.250  60.143  1.00  0.00     0.013 C 
ATOM     13  C   UNL     1      -0.193  34.404  59.567  1.00  0.00     0.017 C 
ATOM     14  C   UNL     1      -1.497  32.558  60.579  1.00  0.00    -0.064 C 
ATOM     15  C   UNL     1      -3.728  33.414  59.903  1.00  0.00     0.032 C 
ATOM     16  C   UNL     1      -2.697  32.307  59.957  1.00  0.00    -0.064 C 
ATOM     17  C   UNL     1      -0.549  31.404  60.956  1.00  0.00     0.032 C 
ATOM     18  C   UNL     1      -3.089  30.870  59.556  1.00  0.00    -0.008 C 
ATOM     19  C   UNL     1      -0.813  30.025  60.315  1.00  0.00     0.009 C 
ATOM     20  C   UNL     1      -1.761  30.148  59.117  1.00  0.00     0.009 C 
ATOM     21  C   UNL     1      -4.125  30.796  58.374  1.00  0.00     0.015 C 
ATOM     22  C   UNL     1      -3.756  30.265  60.827  1.00  0.00     0.016 C 
ATOM     23  C   UNL     1      -1.939  28.872  58.202  1.00  0.00     0.005 C 
ATOM     24  C   UNL     1      -3.477  30.621  57.001  1.00  0.00     0.047 C 
ATOM     25  C   UNL     1      -2.713  29.282  56.880  1.00  0.00     0.182 C 
ATOM     26  C   UNL     1      -0.547  28.284  57.836  1.00  0.00     0.015 C 
ATOM     27  C   UNL     1      -2.713  27.736  58.917  1.00  0.00     0.015 C 
BRANCH   7  28
ATOM     28  O   UNL     1      -1.724  33.457  63.676  1.00  0.00    -0.393 OA
ATOM     29  H   UNL     1      -1.099  32.687  63.667  1.00  0.00     0.210 HD
ENDBRANCH   7  28
BRANCH  25  30
ATOM     30  O   UNL     1      -1.816  29.378  55.768  1.00  0.00    -0.462 OA
BRANCH  30  31
ATOM     31  C   UNL     1      -2.015  28.733  54.542  1.00  0.00     0.302 C 
ATOM     32  O   UNL     1      -2.790  27.744  54.449  1.00  0.00    -0.253 OA
ATOM     33  C   UNL     1      -1.256  29.194  53.344  1.00  0.00     0.139 C 
ENDBRANCH  30  31
ENDBRANCH  25  30
ENDBRANCH   2   6
ENDBRANCH   1   2
BRANCH   1  34
ATOM     34  C   UNL     1      -4.115  38.565  63.463  1.00  0.00     0.031 C 
BRANCH  34  35
ATOM     35  C   UNL     1      -3.829  39.745  62.554  1.00  0.00    -0.075 C 
ATOM     36  C   UNL     1      -3.530  39.519  61.264  1.00  0.00     0.008 C 
BRANCH  35  37
ATOM     37  C   UNL     1      -3.816  41.167  63.100  1.00  0.00     0.008 C 
ATOM     38  C   UNL     1      -3.876  41.173  64.632  1.00  0.00     0.012 C 
ATOM     39  C   UNL     1      -2.595  41.941  62.590  1.00  0.00     0.012 C 
ENDBRANCH  35  37
ENDBRANCH  34  35
ENDBRANCH   1  34
TORSDOF 9
ENDMDL
MODEL 4
REMARK VINA RESULT:    -1.301      2.470      9.930
REMARK INTER + INTRA:          -2.259
REMARK INTER:                  -1.657
REMARK INTRA:                  -0.602
REMARK UNBOUND:                -0.313
REMARK SMILES C=C(CC[C@H](C(=O)[O-])[C@H]1[C@@H](O)C[C@@]2(C)C3=C(CC[C@@]12C)[C@@]1(C)CC[C@@H](OC(C)=O)C(C)(C)[C@@H]1CC3)C(C)C
REMARK SMILES IDX 4 1 5 2 6 3 7 4 8 5 9 6 10 7 19 8 12 9 13 10 18 11 20 12
REMARK SMILES IDX 14 13 15 14 17 15 16 16 35 17 21 18 34 19 33 20 23 21 22 22
REMARK SMILES IDX 30 23 24 24 25 25 31 26 32 27 11 28 26 30 27 31 29 32 28 33
REMARK SMILES IDX 3 34 2 35 1 36 36 37 37 38 38 39
REMARK H PARENT 11 29
REMARK Flexibility Score: inf
ROOT
ATOM      1  C   UNL     1      -4.051  37.780  62.616  1.00  0.00     0.014 C 
ENDROOT
BRANCH   1   2
ATOM      2  C   UNL     1      -3.530  36.538  63.385  1.00  0.00     0.042 C 
BRANCH   2   3
ATOM      3  C   UNL     1      -3.331  36.871  64.846  1.00  0.00     0.045 C 
ATOM      4  O   UNL     1      -4.125  36.432  65.721  1.00  0.00    -0.550 OA
ATOM      5  O   UNL     1      -2.222  37.608  65.246  1.00  0.00    -0.550 OA
ENDBRANCH   2   3
BRANCH   2   6
ATOM      6  C   UNL     1      -2.279  35.908  62.662  1.00  0.00     0.033 C 
ATOM      7  C   UNL     1      -1.427  34.913  63.451  1.00  0.00     0.119 C 
ATOM      8  C   UNL     1      -2.473  35.269  61.243  1.00  0.00    -0.017 C 
ATOM      9  C   UNL     1      -0.433  34.443  62.405  1.00  0.00     0.043 C 
ATOM     10  C   UNL     1      -1.243  34.249  61.085  1.00  0.00    -0.003 C 
ATOM     11  C   UNL     1      -3.826  34.522  61.153  1.00  0.00     0.012 C 
ATOM     12  C   UNL     1      -2.491  36.420  60.189  1.00  0.00     0.013 C 
ATOM     13  C   UNL     1      -0.307  34.572  59.892  1.00  0.00     0.017 C 
ATOM     14  C   UNL     1      -1.680  32.764  60.881  1.00  0.00    -0.064 C 
ATOM     15  C   UNL     1      -3.851  33.560  59.975  1.00  0.00     0.032 C 
ATOM     16  C   UNL     1      -2.821  32.468  60.174  1.00  0.00    -0.064 C 
ATOM     17  C   UNL     1      -0.760  31.641  61.396  1.00  0.00     0.032 C 
ATOM     18  C   UNL     1      -3.167  31.009  59.815  1.00  0.00    -0.008 C 
ATOM     19  C   UNL     1      -0.959  30.228  60.807  1.00  0.00     0.009 C 
ATOM     20  C   UNL     1      -1.801  30.281  59.528  1.00  0.00     0.009 C 
ATOM     21  C   UNL     1      -4.097  30.864  58.554  1.00  0.00     0.015 C 
ATOM     22  C   UNL     1      -3.937  30.461  61.052  1.00  0.00     0.016 C 
ATOM     23  C   UNL     1      -1.891  28.959  58.667  1.00  0.00     0.005 C 
ATOM     24  C   UNL     1      -3.333  30.628  57.251  1.00  0.00     0.047 C 
ATOM     25  C   UNL     1      -2.552  29.292  57.264  1.00  0.00     0.182 C 
ATOM     26  C   UNL     1      -0.470  28.368  58.452  1.00  0.00     0.015 C 
ATOM     27  C   UNL     1      -2.716  27.851  59.370  1.00  0.00     0.015 C 
BRANCH   7  28
ATOM     28  O   UNL     1      -2.179  33.815  63.898  1.00  0.00    -0.393 OA
ATOM     29  H   UNL     1      -1.535  33.165  64.282  1.00  0.00     0.210 HD
ENDBRANCH   7  28
BRANCH  25  30
ATOM     30  O   UNL     1      -1.563  29.342  56.229  1.00  0.00    -0.462 OA
BRANCH  30  31
ATOM     31  C   UNL     1      -1.669  28.662  55.011  1.00  0.00     0.302 C 
ATOM     32  O   UNL     1      -0.641  28.269  54.398  1.00  0.00    -0.253 OA
ATOM     33  C   UNL     1      -3.016  28.453  54.408  1.00  0.00     0.139 C 
ENDBRANCH  30  31
ENDBRANCH  25  30
ENDBRANCH   2   6
ENDBRANCH   1   2
BRANCH   1  34
ATOM     34  C   UNL     1      -3.972  39.069  63.459  1.00  0.00     0.031 C 
BRANCH  34  35
ATOM     35  C   UNL     1      -3.323  40.201  62.687  1.00  0.00    -0.075 C 
ATOM     36  C   UNL     1      -2.298  40.868  63.244  1.00  0.00     0.008 C 
BRANCH  35  37
ATOM     37  C   UNL     1      -3.857  40.625  61.325  1.00  0.00     0.008 C 
ATOM     38  C   UNL     1      -3.936  42.152  61.211  1.00  0.00     0.012 C 
ATOM     39  C   UNL     1      -3.011  40.029  60.193  1.00  0.00     0.012 C 
ENDBRANCH  35  37
ENDBRANCH  34  35
ENDBRANCH   1  34
TORSDOF 9
ENDMDL
MODEL 5
REMARK VINA RESULT:    -0.659      2.155     10.207
REMARK INTER + INTRA:          -1.299
REMARK INTER:                  -1.201
REMARK INTRA:                  -0.097
REMARK UNBOUND:                -0.313
REMARK SMILES C=C(CC[C@H](C(=O)[O-])[C@H]1[C@@H](O)C[C@@]2(C)C3=C(CC[C@@]12C)[C@@]1(C)CC[C@@H](OC(C)=O)C(C)(C)[C@@H]1CC3)C(C)C
REMARK SMILES IDX 4 1 5 2 6 3 7 4 8 5 9 6 10 7 19 8 12 9 13 10 18 11 20 12
REMARK SMILES IDX 14 13 15 14 17 15 16 16 35 17 21 18 34 19 33 20 23 21 22 22
REMARK SMILES IDX 30 23 24 24 25 25 31 26 32 27 11 28 26 30 27 31 29 32 28 33
REMARK SMILES IDX 3 34 2 35 1 36 36 37 37 38 38 39
REMARK H PARENT 11 29
REMARK Flexibility Score: inf
ROOT
ATOM      1  C   UNL     1      -2.717  37.172  64.886  1.00  0.00     0.014 C 
ENDROOT
BRANCH   1   2
ATOM      2  C   UNL     1      -2.988  35.753  64.323  1.00  0.00     0.042 C 
BRANCH   2   3
ATOM      3  C   UNL     1      -3.253  34.783  65.453  1.00  0.00     0.045 C 
ATOM      4  O   UNL     1      -3.864  33.701  65.244  1.00  0.00    -0.550 OA
ATOM      5  O   UNL     1      -2.755  35.046  66.724  1.00  0.00    -0.550 OA
ENDBRANCH   2   3
BRANCH   2   6
ATOM      6  C   UNL     1      -1.858  35.318  63.314  1.00  0.00     0.033 C 
ATOM      7  C   UNL     1      -0.825  34.300  63.797  1.00  0.00     0.119 C 
ATOM      8  C   UNL     1      -2.273  34.851  61.875  1.00  0.00    -0.017 C 
ATOM      9  C   UNL     1      -0.015  34.044  62.540  1.00  0.00     0.043 C 
ATOM     10  C   UNL     1      -1.040  33.957  61.367  1.00  0.00    -0.003 C 
ATOM     11  C   UNL     1      -3.579  34.019  61.920  1.00  0.00     0.012 C 
ATOM     12  C   UNL     1      -2.545  36.121  61.010  1.00  0.00     0.013 C 
ATOM     13  C   UNL     1      -0.357  34.499  60.085  1.00  0.00     0.017 C 
ATOM     14  C   UNL     1      -1.428  32.480  61.038  1.00  0.00    -0.064 C 
ATOM     15  C   UNL     1      -3.767  33.214  60.643  1.00  0.00     0.032 C 
ATOM     16  C   UNL     1      -2.661  32.189  60.506  1.00  0.00    -0.064 C 
ATOM     17  C   UNL     1      -0.371  31.376  61.226  1.00  0.00     0.032 C 
ATOM     18  C   UNL     1      -2.989  30.764  60.014  1.00  0.00    -0.008 C 
ATOM     19  C   UNL     1      -0.599  30.037  60.490  1.00  0.00     0.009 C 
ATOM     20  C   UNL     1      -1.662  30.186  59.397  1.00  0.00     0.009 C 
ATOM     21  C   UNL     1      -4.125  30.709  58.927  1.00  0.00     0.015 C 
ATOM     22  C   UNL     1      -3.490  30.007  61.280  1.00  0.00     0.016 C 
ATOM     23  C   UNL     1      -1.837  28.981  58.391  1.00  0.00     0.005 C 
ATOM     24  C   UNL     1      -3.600  30.699  57.491  1.00  0.00     0.047 C 
ATOM     25  C   UNL     1      -2.760  29.437  57.184  1.00  0.00     0.182 C 
ATOM     26  C   UNL     1      -0.449  28.534  57.852  1.00  0.00     0.015 C 
ATOM     27  C   UNL     1      -2.459  27.733  59.066  1.00  0.00     0.015 C 
BRANCH   7  28
ATOM     28  O   UNL     1      -1.423  33.100  64.212  1.00  0.00    -0.393 OA
ATOM     29  H   UNL     1      -0.758  32.380  64.055  1.00  0.00     0.210 HD
ENDBRANCH   7  28
BRANCH  25  30
ATOM     30  O   UNL     1      -1.981  29.694  56.009  1.00  0.00    -0.462 OA
BRANCH  30  31
ATOM     31  C   UNL     1      -1.949  28.853  54.891  1.00  0.00     0.302 C 
ATOM     32  O   UNL     1      -2.990  28.268  54.491  1.00  0.00    -0.253 OA
ATOM     33  C   UNL     1      -0.650  28.608  54.201  1.00  0.00     0.139 C 
ENDBRANCH  30  31
ENDBRANCH  25  30
ENDBRANCH   2   6
ENDBRANCH   1   2
BRANCH   1  34
ATOM     34  C   UNL     1      -3.703  37.560  66.005  1.00  0.00     0.031 C 
BRANCH  34  35
ATOM     35  C   UNL     1      -3.251  38.807  66.739  1.00  0.00    -0.075 C 
ATOM     36  C   UNL     1      -3.805  39.104  67.926  1.00  0.00     0.008 C 
BRANCH  35  37
ATOM     37  C   UNL     1      -2.229  39.751  66.119  1.00  0.00     0.008 C 
ATOM     38  C   UNL     1      -2.735  41.198  66.123  1.00  0.00     0.012 C 
ATOM     39  C   UNL     1      -0.874  39.637  66.829  1.00  0.00     0.012 C 
ENDBRANCH  35  37
ENDBRANCH  34  35
ENDBRANCH   1  34
TORSDOF 9
ENDMDL
