MODEL 1
REMARK VINA RESULT:    10.544      0.000      0.000
REMARK INTER + INTRA:          13.520
REMARK INTER:                  13.009
REMARK INTRA:                   0.511
REMARK UNBOUND:                 0.511
REMARK SMILES O=c1c(O)c(-c2cc(O)c(O)c(O)c2)oc2cc(O)cc(O)c12
REMARK SMILES IDX 5 1 3 2 2 3 1 4 23 5 21 6 20 7 18 8 17 9 16 10 15 11 6 12
REMARK SMILES IDX 7 13 8 14 14 15 10 16 12 17 9 18 11 20 13 22 4 24 22 26
REMARK SMILES IDX 19 28
REMARK H PARENT 9 19 11 21 13 23 4 25 22 27 19 29
REMARK Flexibility Score: inf
ROOT
ATOM      1  C   UNL     1     -34.888 -36.107 -35.051  1.00  0.00     0.180 A 
ATOM      2  C   UNL     1     -36.128 -36.081 -34.384  1.00  0.00     0.208 A 
ATOM      3  C   UNL     1     -37.307 -36.092 -35.143  1.00  0.00     0.238 A 
ATOM      4  O   UNL     1     -38.423 -36.080 -34.554  1.00  0.00    -0.285 OA
ATOM      5  C   UNL     1     -37.231 -36.107 -36.551  1.00  0.00     0.111 A 
ATOM      6  C   UNL     1     -38.372 -36.115 -37.388  1.00  0.00     0.134 A 
ATOM      7  C   UNL     1     -38.211 -36.122 -38.783  1.00  0.00     0.093 A 
ATOM      8  C   UNL     1     -36.936 -36.119 -39.352  1.00  0.00     0.123 A 
ATOM      9  C   UNL     1     -35.806 -36.112 -38.530  1.00  0.00     0.094 A 
ATOM     10  C   UNL     1     -35.944 -36.108 -37.140  1.00  0.00     0.146 A 
ATOM     11  O   UNL     1     -34.853 -36.107 -36.381  1.00  0.00    -0.452 OA
ENDROOT
BRANCH   1  12
ATOM     12  C   UNL     1     -33.600 -36.117 -34.320  1.00  0.00     0.029 A 
ATOM     13  C   UNL     1     -33.602 -36.060 -32.917  1.00  0.00     0.062 A 
ATOM     14  C   UNL     1     -32.396 -36.046 -32.203  1.00  0.00     0.162 A 
ATOM     15  C   UNL     1     -32.372 -36.124 -35.003  1.00  0.00     0.062 A 
ATOM     16  C   UNL     1     -31.173 -36.075 -32.893  1.00  0.00     0.200 A 
ATOM     17  C   UNL     1     -31.164 -36.109 -34.292  1.00  0.00     0.162 A 
BRANCH  14  18
ATOM     18  O   UNL     1     -32.411 -36.003 -30.808  1.00  0.00    -0.504 OA
ATOM     19  H   UNL     1     -33.112 -35.475 -30.301  1.00  0.00     0.293 HD
ENDBRANCH  14  18
BRANCH  16  20
ATOM     20  O   UNL     1     -29.961 -36.065 -32.202  1.00  0.00    -0.502 OA
ATOM     21  H   UNL     1     -29.386 -35.233 -32.136  1.00  0.00     0.293 HD
ENDBRANCH  16  20
BRANCH  17  22
ATOM     22  O   UNL     1     -29.947 -36.122 -34.973  1.00  0.00    -0.504 OA
ATOM     23  H   UNL     1     -29.787 -36.737 -35.762  1.00  0.00     0.293 HD
ENDBRANCH  17  22
ENDBRANCH   1  12
BRANCH   2  24
ATOM     24  O   UNL     1     -36.176 -36.016 -32.989  1.00  0.00    -0.502 OA
ATOM     25  H   UNL     1     -36.458 -36.804 -32.418  1.00  0.00     0.293 HD
ENDBRANCH   2  24
BRANCH   6  26
ATOM     26  O   UNL     1     -39.658 -36.116 -36.849  1.00  0.00    -0.507 OA
ATOM     27  H   UNL     1     -39.819 -36.208 -35.853  1.00  0.00     0.293 HD
ENDBRANCH   6  26
BRANCH   8  28
ATOM     28  O   UNL     1     -36.804 -36.124 -40.740  1.00  0.00    -0.508 OA
ATOM     29  H   UNL     1     -37.050 -35.317 -41.299  1.00  0.00     0.293 HD
ENDBRANCH   8  28
TORSDOF 7
ENDMDL
MODEL 2
REMARK VINA RESULT:    11.173     20.750     23.618
REMARK INTER + INTRA:          14.296
REMARK INTER:                  14.412
REMARK INTRA:                  -0.116
REMARK UNBOUND:                 0.511
REMARK SMILES O=c1c(O)c(-c2cc(O)c(O)c(O)c2)oc2cc(O)cc(O)c12
REMARK SMILES IDX 5 1 3 2 2 3 1 4 23 5 21 6 20 7 18 8 17 9 16 10 15 11 6 12
REMARK SMILES IDX 7 13 8 14 14 15 10 16 12 17 9 18 11 20 13 22 4 24 22 26
REMARK SMILES IDX 19 28
REMARK H PARENT 9 19 11 21 13 23 4 25 22 27 19 29
REMARK Flexibility Score: inf
ROOT
ATOM      1  C   UNL     1     -21.120 -20.105 -25.853  1.00  0.00     0.180 A 
ATOM      2  C   UNL     1     -20.942 -19.871 -27.230  1.00  0.00     0.208 A 
ATOM      3  C   UNL     1     -20.596 -20.946 -28.062  1.00  0.00     0.238 A 
ATOM      4  O   UNL     1     -20.445 -20.750 -29.299  1.00  0.00    -0.285 OA
ATOM      5  C   UNL     1     -20.412 -22.228 -27.505  1.00  0.00     0.111 A 
ATOM      6  C   UNL     1     -20.058 -23.364 -28.273  1.00  0.00     0.134 A 
ATOM      7  C   UNL     1     -19.885 -24.605 -27.641  1.00  0.00     0.093 A 
ATOM      8  C   UNL     1     -20.057 -24.731 -26.262  1.00  0.00     0.123 A 
ATOM      9  C   UNL     1     -20.407 -23.614 -25.498  1.00  0.00     0.094 A 
ATOM     10  C   UNL     1     -20.586 -22.370 -26.108  1.00  0.00     0.146 A 
ATOM     11  O   UNL     1     -20.924 -21.325 -25.360  1.00  0.00    -0.452 OA
ENDROOT
BRANCH   1  12
ATOM     12  C   UNL     1     -21.505 -19.027 -24.914  1.00  0.00     0.029 A 
ATOM     13  C   UNL     1     -22.689 -18.307 -25.138  1.00  0.00     0.062 A 
ATOM     14  C   UNL     1     -23.065 -17.267 -24.276  1.00  0.00     0.162 A 
ATOM     15  C   UNL     1     -20.680 -18.669 -23.834  1.00  0.00     0.062 A 
ATOM     16  C   UNL     1     -22.244 -16.930 -23.187  1.00  0.00     0.200 A 
ATOM     17  C   UNL     1     -21.050 -17.628 -22.972  1.00  0.00     0.162 A 
BRANCH  14  18
ATOM     18  O   UNL     1     -24.251 -16.568 -24.500  1.00  0.00    -0.504 OA
ATOM     19  H   UNL     1     -25.148 -16.936 -24.207  1.00  0.00     0.293 HD
ENDBRANCH  14  18
BRANCH  16  20
ATOM     20  O   UNL     1     -22.599 -15.900 -22.314  1.00  0.00    -0.502 OA
ATOM     21  H   UNL     1     -22.800 -14.963 -22.641  1.00  0.00     0.293 HD
ENDBRANCH  16  20
BRANCH  17  22
ATOM     22  O   UNL     1     -20.232 -17.280 -21.898  1.00  0.00    -0.504 OA
ATOM     23  H   UNL     1     -20.555 -17.348 -20.940  1.00  0.00     0.293 HD
ENDBRANCH  17  22
ENDBRANCH   1  12
BRANCH   2  24
ATOM     24  O   UNL     1     -21.082 -18.582 -27.750  1.00  0.00    -0.502 OA
ATOM     25  H   UNL     1     -20.346 -18.125 -28.276  1.00  0.00     0.293 HD
ENDBRANCH   2  24
BRANCH   6  26
ATOM     26  O   UNL     1     -19.877 -23.269 -29.653  1.00  0.00    -0.507 OA
ATOM     27  H   UNL     1     -20.070 -22.411 -30.158  1.00  0.00     0.293 HD
ENDBRANCH   6  26
BRANCH   8  28
ATOM     28  O   UNL     1     -19.878 -25.975 -25.658  1.00  0.00    -0.508 OA
ATOM     29  H   UNL     1     -20.660 -26.589 -25.466  1.00  0.00     0.293 HD
ENDBRANCH   8  28
TORSDOF 7
ENDMDL
MODEL 3
REMARK VINA RESULT:    11.705     21.292     23.696
REMARK INTER + INTRA:          14.953
REMARK INTER:                  14.575
REMARK INTRA:                   0.378
REMARK UNBOUND:                 0.511
REMARK SMILES O=c1c(O)c(-c2cc(O)c(O)c(O)c2)oc2cc(O)cc(O)c12
REMARK SMILES IDX 5 1 3 2 2 3 1 4 23 5 21 6 20 7 18 8 17 9 16 10 15 11 6 12
REMARK SMILES IDX 7 13 8 14 14 15 10 16 12 17 9 18 11 20 13 22 4 24 22 26
REMARK SMILES IDX 19 28
REMARK H PARENT 9 19 11 21 13 23 4 25 22 27 19 29
REMARK Flexibility Score: inf
ROOT
ATOM      1  C   UNL     1     -20.291 -20.027 -26.850  1.00  0.00     0.180 A 
ATOM      2  C   UNL     1     -20.260 -21.433 -26.937  1.00  0.00     0.208 A 
ATOM      3  C   UNL     1     -20.135 -22.032 -28.199  1.00  0.00     0.238 A 
ATOM      4  O   UNL     1     -20.095 -23.290 -28.287  1.00  0.00    -0.285 OA
ATOM      5  C   UNL     1     -20.066 -21.222 -29.352  1.00  0.00     0.111 A 
ATOM      6  C   UNL     1     -19.944 -21.747 -30.661  1.00  0.00     0.134 A 
ATOM      7  C   UNL     1     -19.890 -20.874 -31.758  1.00  0.00     0.093 A 
ATOM      8  C   UNL     1     -19.957 -19.492 -31.572  1.00  0.00     0.123 A 
ATOM      9  C   UNL     1     -20.076 -18.967 -30.282  1.00  0.00     0.094 A 
ATOM     10  C   UNL     1     -20.130 -19.820 -29.175  1.00  0.00     0.146 A 
ATOM     11  O   UNL     1     -20.238 -19.296 -27.959  1.00  0.00    -0.452 OA
ENDROOT
BRANCH   1  12
ATOM     12  C   UNL     1     -20.401 -19.321 -25.553  1.00  0.00     0.029 A 
ATOM     13  C   UNL     1     -20.668 -17.943 -25.538  1.00  0.00     0.062 A 
ATOM     14  C   UNL     1     -20.756 -17.247 -24.325  1.00  0.00     0.162 A 
ATOM     15  C   UNL     1     -20.187 -19.990 -24.336  1.00  0.00     0.062 A 
ATOM     16  C   UNL     1     -20.562 -17.928 -23.112  1.00  0.00     0.200 A 
ATOM     17  C   UNL     1     -20.273 -19.297 -23.120  1.00  0.00     0.162 A 
BRANCH  14  18
ATOM     18  O   UNL     1     -21.036 -15.880 -24.322  1.00  0.00    -0.504 OA
ATOM     19  H   UNL     1     -20.572 -15.242 -24.958  1.00  0.00     0.293 HD
ENDBRANCH  14  18
BRANCH  16  20
ATOM     20  O   UNL     1     -20.648 -17.256 -21.891  1.00  0.00    -0.502 OA
ATOM     21  H   UNL     1     -20.213 -16.353 -21.742  1.00  0.00     0.293 HD
ENDBRANCH  16  20
BRANCH  17  22
ATOM     22  O   UNL     1     -20.066 -19.966 -21.914  1.00  0.00    -0.504 OA
ATOM     23  H   UNL     1     -20.416 -20.904 -21.760  1.00  0.00     0.293 HD
ENDBRANCH  17  22
ENDBRANCH   1  12
BRANCH   2  24
ATOM     24  O   UNL     1     -20.380 -22.213 -25.784  1.00  0.00    -0.502 OA
ATOM     25  H   UNL     1     -19.623 -22.320 -25.120  1.00  0.00     0.293 HD
ENDBRANCH   2  24
BRANCH   6  26
ATOM     26  O   UNL     1     -19.877 -23.123 -30.879  1.00  0.00    -0.507 OA
ATOM     27  H   UNL     1     -19.276 -23.722 -30.325  1.00  0.00     0.293 HD
ENDBRANCH   6  26
BRANCH   8  28
ATOM     28  O   UNL     1     -19.902 -18.646 -32.679  1.00  0.00    -0.508 OA
ATOM     29  H   UNL     1     -19.734 -17.653 -32.580  1.00  0.00     0.293 HD
ENDBRANCH   8  28
TORSDOF 7
ENDMDL
MODEL 4
REMARK VINA RESULT:    12.810     20.661     22.122
REMARK INTER + INTRA:          16.316
REMARK INTER:                  16.161
REMARK INTRA:                   0.155
REMARK UNBOUND:                 0.511
REMARK SMILES O=c1c(O)c(-c2cc(O)c(O)c(O)c2)oc2cc(O)cc(O)c12
REMARK SMILES IDX 5 1 3 2 2 3 1 4 23 5 21 6 20 7 18 8 17 9 16 10 15 11 6 12
REMARK SMILES IDX 7 13 8 14 14 15 10 16 12 17 9 18 11 20 13 22 4 24 22 26
REMARK SMILES IDX 19 28
REMARK H PARENT 9 19 11 21 13 23 4 25 22 27 19 29
REMARK Flexibility Score: inf
ROOT
ATOM      1  C   UNL     1     -24.701 -16.978 -38.496  1.00  0.00     0.180 A 
ATOM      2  C   UNL     1     -24.562 -16.501 -37.179  1.00  0.00     0.208 A 
ATOM      3  C   UNL     1     -25.716 -16.292 -36.408  1.00  0.00     0.238 A 
ATOM      4  O   UNL     1     -25.603 -15.875 -35.223  1.00  0.00    -0.285 OA
ATOM      5  C   UNL     1     -26.985 -16.541 -36.970  1.00  0.00     0.111 A 
ATOM      6  C   UNL     1     -28.196 -16.352 -36.263  1.00  0.00     0.134 A 
ATOM      7  C   UNL     1     -29.420 -16.615 -36.897  1.00  0.00     0.093 A 
ATOM      8  C   UNL     1     -29.456 -17.060 -38.220  1.00  0.00     0.123 A 
ATOM      9  C   UNL     1     -28.263 -17.249 -38.923  1.00  0.00     0.094 A 
ATOM     10  C   UNL     1     -27.033 -16.995 -38.310  1.00  0.00     0.146 A 
ATOM     11  O   UNL     1     -25.914 -17.189 -38.999  1.00  0.00    -0.452 OA
ENDROOT
BRANCH   1  12
ATOM     12  C   UNL     1     -23.531 -17.242 -39.365  1.00  0.00     0.029 A 
ATOM     13  C   UNL     1     -23.532 -18.369 -40.202  1.00  0.00     0.062 A 
ATOM     14  C   UNL     1     -22.428 -18.653 -41.018  1.00  0.00     0.162 A 
ATOM     15  C   UNL     1     -22.393 -16.418 -39.329  1.00  0.00     0.062 A 
ATOM     16  C   UNL     1     -21.303 -17.812 -40.990  1.00  0.00     0.200 A 
ATOM     17  C   UNL     1     -21.286 -16.699 -40.141  1.00  0.00     0.162 A 
BRANCH  14  18
ATOM     18  O   UNL     1     -22.447 -19.768 -41.855  1.00  0.00    -0.504 OA
ATOM     19  H   UNL     1     -23.208 -20.437 -41.832  1.00  0.00     0.293 HD
ENDBRANCH  14  18
BRANCH  16  20
ATOM     20  O   UNL     1     -20.194 -18.072 -41.796  1.00  0.00    -0.502 OA
ATOM     21  H   UNL     1     -20.027 -17.571 -42.660  1.00  0.00     0.293 HD
ENDBRANCH  16  20
BRANCH  17  22
ATOM     22  O   UNL     1     -20.161 -15.876 -40.107  1.00  0.00    -0.504 OA
ATOM     23  H   UNL     1     -20.102 -15.034 -40.668  1.00  0.00     0.293 HD
ENDBRANCH  17  22
ENDBRANCH   1  12
BRANCH   2  24
ATOM     24  O   UNL     1     -23.296 -16.215 -36.661  1.00  0.00    -0.502 OA
ATOM     25  H   UNL     1     -23.052 -15.302 -36.297  1.00  0.00     0.293 HD
ENDBRANCH   2  24
BRANCH   6  26
ATOM     26  O   UNL     1     -28.194 -15.906 -34.941  1.00  0.00    -0.507 OA
ATOM     27  H   UNL     1     -28.439 -14.953 -34.699  1.00  0.00     0.293 HD
ENDBRANCH   6  26
BRANCH   8  28
ATOM     28  O   UNL     1     -30.685 -17.312 -38.827  1.00  0.00    -0.508 OA
ATOM     29  H   UNL     1     -31.481 -16.702 -38.686  1.00  0.00     0.293 HD
ENDBRANCH   8  28
TORSDOF 7
ENDMDL
