MODEL 1
REMARK VINA RESULT:    -5.015      0.000      0.000
REMARK INTER + INTRA:          -5.162
REMARK INTER:                  -5.162
REMARK INTRA:                   0.000
REMARK UNBOUND:                 0.000
REMARK SMILES Cc1cccc(O)c1C
REMARK SMILES IDX 1 1 2 2 8 3 6 4 5 5 4 6 3 7 9 8 7 9
REMARK H PARENT 7 10
REMARK Flexibility Score: inf
ROOT
ATOM      1  C   UNL     1      39.338  17.244  52.524  1.00  0.00     0.045 C 
ATOM      2  C   UNL     1      40.229  16.187  51.925  1.00  0.00    -0.045 A 
ATOM      3  C   UNL     1      40.072  14.806  52.230  1.00  0.00    -0.006 A 
ATOM      4  C   UNL     1      40.946  13.864  51.629  1.00  0.00     0.118 A 
ATOM      5  C   UNL     1      41.946  14.297  50.752  1.00  0.00     0.046 A 
ATOM      6  C   UNL     1      42.094  15.649  50.460  1.00  0.00     0.004 A 
ATOM      7  C   UNL     1      41.244  16.588  51.039  1.00  0.00     0.004 A 
ATOM      8  C   UNL     1      38.998  14.316  53.175  1.00  0.00     0.048 C 
ENDROOT
BRANCH   4   9
ATOM      9  O   UNL     1      40.851  12.493  51.881  1.00  0.00    -0.508 OA
ATOM     10  H   UNL     1      40.683  11.805  51.160  1.00  0.00     0.293 HD
ENDBRANCH   4   9
TORSDOF 1
ENDMDL
MODEL 2
REMARK VINA RESULT:    -4.915      0.743      2.597
REMARK INTER + INTRA:          -5.058
REMARK INTER:                  -5.058
REMARK INTRA:                   0.000
REMARK UNBOUND:                 0.000
REMARK SMILES Cc1cccc(O)c1C
REMARK SMILES IDX 1 1 2 2 8 3 6 4 5 5 4 6 3 7 9 8 7 9
REMARK H PARENT 7 10
REMARK Flexibility Score: inf
ROOT
ATOM      1  C   UNL     1      41.242  17.485  51.215  1.00  0.00     0.045 C 
ATOM      2  C   UNL     1      40.570  16.260  51.777  1.00  0.00    -0.045 A 
ATOM      3  C   UNL     1      41.025  14.945  51.479  1.00  0.00    -0.006 A 
ATOM      4  C   UNL     1      40.344  13.836  52.044  1.00  0.00     0.118 A 
ATOM      5  C   UNL     1      39.242  14.043  52.879  1.00  0.00     0.046 A 
ATOM      6  C   UNL     1      38.802  15.331  53.165  1.00  0.00     0.004 A 
ATOM      7  C   UNL     1      39.458  16.432  52.620  1.00  0.00     0.004 A 
ATOM      8  C   UNL     1      42.215  14.699  50.580  1.00  0.00     0.048 C 
ENDROOT
BRANCH   4   9
ATOM      9  O   UNL     1      40.735  12.517  51.797  1.00  0.00    -0.508 OA
ATOM     10  H   UNL     1      40.339  11.947  51.062  1.00  0.00     0.293 HD
ENDBRANCH   4   9
TORSDOF 1
ENDMDL
MODEL 3
REMARK VINA RESULT:    -4.656     12.045     13.312
REMARK INTER + INTRA:          -4.792
REMARK INTER:                  -4.792
REMARK INTRA:                   0.000
REMARK UNBOUND:                 0.000
REMARK SMILES Cc1cccc(O)c1C
REMARK SMILES IDX 1 1 2 2 8 3 6 4 5 5 4 6 3 7 9 8 7 9
REMARK H PARENT 7 10
REMARK Flexibility Score: inf
ROOT
ATOM      1  C   UNL     1      40.105  24.410  63.427  1.00  0.00     0.045 C 
ATOM      2  C   UNL     1      41.020  23.220  63.298  1.00  0.00    -0.045 A 
ATOM      3  C   UNL     1      40.782  22.183  62.353  1.00  0.00    -0.006 A 
ATOM      4  C   UNL     1      41.685  21.091  62.288  1.00  0.00     0.118 A 
ATOM      5  C   UNL     1      42.789  21.043  63.145  1.00  0.00     0.046 A 
ATOM      6  C   UNL     1      43.014  22.060  64.067  1.00  0.00     0.004 A 
ATOM      7  C   UNL     1      42.139  23.140  64.146  1.00  0.00     0.004 A 
ATOM      8  C   UNL     1      39.596  22.216  61.417  1.00  0.00     0.048 C 
ENDROOT
BRANCH   4   9
ATOM      9  O   UNL     1      41.516  20.038  61.384  1.00  0.00    -0.508 OA
ATOM     10  H   UNL     1      41.681  19.069  61.621  1.00  0.00     0.293 HD
ENDBRANCH   4   9
TORSDOF 1
ENDMDL
MODEL 4
REMARK VINA RESULT:    -4.648      1.622      2.655
REMARK INTER + INTRA:          -4.784
REMARK INTER:                  -4.784
REMARK INTRA:                   0.000
REMARK UNBOUND:                 0.000
REMARK SMILES Cc1cccc(O)c1C
REMARK SMILES IDX 1 1 2 2 8 3 6 4 5 5 4 6 3 7 9 8 7 9
REMARK H PARENT 7 10
REMARK Flexibility Score: inf
ROOT
ATOM      1  C   UNL     1      38.764  16.180  53.058  1.00  0.00     0.045 C 
ATOM      2  C   UNL     1      39.783  15.381  52.287  1.00  0.00    -0.045 A 
ATOM      3  C   UNL     1      40.818  16.003  51.534  1.00  0.00    -0.006 A 
ATOM      4  C   UNL     1      41.743  15.189  50.832  1.00  0.00     0.118 A 
ATOM      5  C   UNL     1      41.630  13.796  50.885  1.00  0.00     0.046 A 
ATOM      6  C   UNL     1      40.614  13.195  51.622  1.00  0.00     0.004 A 
ATOM      7  C   UNL     1      39.697  13.978  52.318  1.00  0.00     0.004 A 
ATOM      8  C   UNL     1      40.958  17.507  51.465  1.00  0.00     0.048 C 
ENDROOT
BRANCH   4   9
ATOM      9  O   UNL     1      42.785  15.729  50.074  1.00  0.00    -0.508 OA
ATOM     10  H   UNL     1      42.751  15.825  49.068  1.00  0.00     0.293 HD
ENDBRANCH   4   9
TORSDOF 1
ENDMDL
MODEL 5
REMARK VINA RESULT:    -4.574      1.488      2.871
REMARK INTER + INTRA:          -4.707
REMARK INTER:                  -4.707
REMARK INTRA:                   0.000
REMARK UNBOUND:                 0.000
REMARK SMILES Cc1cccc(O)c1C
REMARK SMILES IDX 1 1 2 2 8 3 6 4 5 5 4 6 3 7 9 8 7 9
REMARK H PARENT 7 10
REMARK Flexibility Score: inf
ROOT
ATOM      1  C   UNL     1      42.275  15.482  49.893  1.00  0.00     0.045 C 
ATOM      2  C   UNL     1      41.353  15.988  50.971  1.00  0.00    -0.045 A 
ATOM      3  C   UNL     1      40.607  15.106  51.802  1.00  0.00    -0.006 A 
ATOM      4  C   UNL     1      39.757  15.653  52.797  1.00  0.00     0.118 A 
ATOM      5  C   UNL     1      39.660  17.039  52.952  1.00  0.00     0.046 A 
ATOM      6  C   UNL     1      40.392  17.895  52.135  1.00  0.00     0.004 A 
ATOM      7  C   UNL     1      41.232  17.378  51.152  1.00  0.00     0.004 A 
ATOM      8  C   UNL     1      40.697  13.605  51.653  1.00  0.00     0.048 C 
ENDROOT
BRANCH   4   9
ATOM      9  O   UNL     1      38.995  14.849  53.650  1.00  0.00    -0.508 OA
ATOM     10  H   UNL     1      38.799  13.874  53.468  1.00  0.00     0.293 HD
ENDBRANCH   4   9
TORSDOF 1
ENDMDL
MODEL 6
REMARK VINA RESULT:    -4.573     12.213     13.577
REMARK INTER + INTRA:          -4.706
REMARK INTER:                  -4.706
REMARK INTRA:                   0.000
REMARK UNBOUND:                 0.000
REMARK SMILES Cc1cccc(O)c1C
REMARK SMILES IDX 1 1 2 2 8 3 6 4 5 5 4 6 3 7 9 8 7 9
REMARK H PARENT 7 10
REMARK Flexibility Score: inf
ROOT
ATOM      1  C   UNL     1      39.830  20.909  60.920  1.00  0.00     0.045 C 
ATOM      2  C   UNL     1      40.744  21.486  61.969  1.00  0.00    -0.045 A 
ATOM      3  C   UNL     1      40.512  22.762  62.554  1.00  0.00    -0.006 A 
ATOM      4  C   UNL     1      41.415  23.244  63.536  1.00  0.00     0.118 A 
ATOM      5  C   UNL     1      42.515  22.470  63.916  1.00  0.00     0.046 A 
ATOM      6  C   UNL     1      42.737  21.224  63.338  1.00  0.00     0.004 A 
ATOM      7  C   UNL     1      41.861  20.733  62.373  1.00  0.00     0.004 A 
ATOM      8  C   UNL     1      39.328  23.616  62.159  1.00  0.00     0.048 C 
ENDROOT
BRANCH   4   9
ATOM      9  O   UNL     1      41.249  24.486  64.154  1.00  0.00    -0.508 OA
ATOM     10  H   UNL     1      40.403  25.036  64.082  1.00  0.00     0.293 HD
ENDBRANCH   4   9
TORSDOF 1
ENDMDL
MODEL 7
REMARK VINA RESULT:    -4.549      1.728      3.175
REMARK INTER + INTRA:          -4.682
REMARK INTER:                  -4.682
REMARK INTRA:                   0.000
REMARK UNBOUND:                 0.000
REMARK SMILES Cc1cccc(O)c1C
REMARK SMILES IDX 1 1 2 2 8 3 6 4 5 5 4 6 3 7 9 8 7 9
REMARK H PARENT 7 10
REMARK Flexibility Score: inf
ROOT
ATOM      1  C   UNL     1      42.373  15.869  50.001  1.00  0.00     0.045 C 
ATOM      2  C   UNL     1      41.382  15.258  50.957  1.00  0.00    -0.045 A 
ATOM      3  C   UNL     1      40.576  16.053  51.819  1.00  0.00    -0.006 A 
ATOM      4  C   UNL     1      39.664  15.411  52.695  1.00  0.00     0.118 A 
ATOM      5  C   UNL     1      39.566  14.016  52.704  1.00  0.00     0.046 A 
ATOM      6  C   UNL     1      40.358  13.245  51.859  1.00  0.00     0.004 A 
ATOM      7  C   UNL     1      41.259  13.858  50.992  1.00  0.00     0.004 A 
ATOM      8  C   UNL     1      40.666  17.562  51.825  1.00  0.00     0.048 C 
ENDROOT
BRANCH   4   9
ATOM      9  O   UNL     1      38.840  16.127  53.568  1.00  0.00    -0.508 OA
ATOM     10  H   UNL     1      38.334  15.700  54.332  1.00  0.00     0.293 HD
ENDBRANCH   4   9
TORSDOF 1
ENDMDL
MODEL 8
REMARK VINA RESULT:    -4.426     15.820     16.280
REMARK INTER + INTRA:          -4.555
REMARK INTER:                  -4.555
REMARK INTRA:                   0.000
REMARK UNBOUND:                 0.000
REMARK SMILES Cc1cccc(O)c1C
REMARK SMILES IDX 1 1 2 2 8 3 6 4 5 5 4 6 3 7 9 8 7 9
REMARK H PARENT 7 10
REMARK Flexibility Score: inf
ROOT
ATOM      1  C   UNL     1      51.011  17.613  61.595  1.00  0.00     0.045 C 
ATOM      2  C   UNL     1      50.685  18.766  62.509  1.00  0.00    -0.045 A 
ATOM      3  C   UNL     1      51.225  20.067  62.305  1.00  0.00    -0.006 A 
ATOM      4  C   UNL     1      50.876  21.105  63.206  1.00  0.00     0.118 A 
ATOM      5  C   UNL     1      50.014  20.845  64.276  1.00  0.00     0.046 A 
ATOM      6  C   UNL     1      49.492  19.570  64.470  1.00  0.00     0.004 A 
ATOM      7  C   UNL     1      49.823  18.538  63.596  1.00  0.00     0.004 A 
ATOM      8  C   UNL     1      52.157  20.371  61.155  1.00  0.00     0.048 C 
ENDROOT
BRANCH   4   9
ATOM      9  O   UNL     1      51.366  22.407  63.067  1.00  0.00    -0.508 OA
ATOM     10  H   UNL     1      52.350  22.626  62.985  1.00  0.00     0.293 HD
ENDBRANCH   4   9
TORSDOF 1
ENDMDL
MODEL 9
REMARK VINA RESULT:    -4.333      1.606      2.821
REMARK INTER + INTRA:          -4.459
REMARK INTER:                  -4.459
REMARK INTRA:                   0.000
REMARK UNBOUND:                 0.000
REMARK SMILES Cc1cccc(O)c1C
REMARK SMILES IDX 1 1 2 2 8 3 6 4 5 5 4 6 3 7 9 8 7 9
REMARK H PARENT 7 10
REMARK Flexibility Score: inf
ROOT
ATOM      1  C   UNL     1      39.018  14.309  53.054  1.00  0.00     0.045 C 
ATOM      2  C   UNL     1      39.816  15.374  52.348  1.00  0.00    -0.045 A 
ATOM      3  C   UNL     1      40.884  15.055  51.463  1.00  0.00    -0.006 A 
ATOM      4  C   UNL     1      41.593  16.108  50.831  1.00  0.00     0.118 A 
ATOM      5  C   UNL     1      41.241  17.438  51.082  1.00  0.00     0.046 A 
ATOM      6  C   UNL     1      40.196  17.742  51.950  1.00  0.00     0.004 A 
ATOM      7  C   UNL     1      39.489  16.721  52.579  1.00  0.00     0.004 A 
ATOM      8  C   UNL     1      41.281  13.624  51.176  1.00  0.00     0.048 C 
ENDROOT
BRANCH   4   9
ATOM      9  O   UNL     1      42.651  15.871  49.950  1.00  0.00    -0.508 OA
ATOM     10  H   UNL     1      42.644  15.135  49.257  1.00  0.00     0.293 HD
ENDBRANCH   4   9
TORSDOF 1
ENDMDL
