MODEL 1
REMARK VINA RESULT:    -2.434      0.000      0.000
REMARK INTER + INTRA:          -2.434
REMARK INTER:                  -2.434
REMARK INTRA:                   0.000
REMARK UNBOUND:                 0.000
REMARK SMILES CC(=O)[O-]
REMARK SMILES IDX 1 1 2 2 3 3 4 4
REMARK H PARENT
REMARK Flexibility Score: inf
ROOT
ATOM      1  C   UNL     1     122.244 136.600 124.149  1.00  0.00     0.063 C 
ATOM      2  C   UNL     1     122.938 135.359 124.597  1.00  0.00     0.038 C 
ATOM      3  O   UNL     1     124.132 135.410 124.993  1.00  0.00    -0.550 OA
ATOM      4  O   UNL     1     122.285 134.135 124.530  1.00  0.00    -0.550 OA
ENDROOT
TORSDOF 0
ENDMDL
MODEL 2
REMARK VINA RESULT:    -2.392     17.650     18.114
REMARK INTER + INTRA:          -2.392
REMARK INTER:                  -2.392
REMARK INTRA:                   0.000
REMARK UNBOUND:                 0.000
REMARK SMILES CC(=O)[O-]
REMARK SMILES IDX 1 1 2 2 3 3 4 4
REMARK H PARENT
REMARK Flexibility Score: inf
ROOT
ATOM      1  C   UNL     1     133.613 119.254 124.164  1.00  0.00     0.063 C 
ATOM      2  C   UNL     1     132.917 120.508 124.570  1.00  0.00     0.038 C 
ATOM      3  O   UNL     1     131.711 120.474 124.931  1.00  0.00    -0.550 OA
ATOM      4  O   UNL     1     133.583 121.726 124.502  1.00  0.00    -0.550 OA
ENDROOT
TORSDOF 0
ENDMDL
MODEL 3
REMARK VINA RESULT:    -2.363     11.724     12.203
REMARK INTER + INTRA:          -2.363
REMARK INTER:                  -2.363
REMARK INTRA:                   0.000
REMARK UNBOUND:                 0.000
REMARK SMILES CC(=O)[O-]
REMARK SMILES IDX 1 1 2 2 3 3 4 4
REMARK H PARENT
REMARK Flexibility Score: inf
ROOT
ATOM      1  C   UNL     1     126.495 125.131 128.176  1.00  0.00     0.063 C 
ATOM      2  C   UNL     1     127.199 124.349 127.119  1.00  0.00     0.038 C 
ATOM      3  O   UNL     1     127.142 124.717 125.917  1.00  0.00    -0.550 OA
ATOM      4  O   UNL     1     127.877 123.183 127.453  1.00  0.00    -0.550 OA
ENDROOT
TORSDOF 0
ENDMDL
MODEL 4
REMARK VINA RESULT:    -2.354      7.162      7.788
REMARK INTER + INTRA:          -2.354
REMARK INTER:                  -2.354
REMARK INTRA:                   0.000
REMARK UNBOUND:                 0.000
REMARK SMILES CC(=O)[O-]
REMARK SMILES IDX 1 1 2 2 3 3 4 4
REMARK H PARENT
REMARK Flexibility Score: inf
ROOT
ATOM      1  C   UNL     1     129.396 130.683 128.225  1.00  0.00     0.063 C 
ATOM      2  C   UNL     1     128.696 131.466 127.167  1.00  0.00     0.038 C 
ATOM      3  O   UNL     1     128.747 131.093 125.966  1.00  0.00    -0.550 OA
ATOM      4  O   UNL     1     128.028 132.639 127.498  1.00  0.00    -0.550 OA
ENDROOT
TORSDOF 0
ENDMDL
MODEL 5
REMARK VINA RESULT:    -2.351     11.565     12.052
REMARK INTER + INTRA:          -2.351
REMARK INTER:                  -2.351
REMARK INTRA:                   0.000
REMARK UNBOUND:                 0.000
REMARK SMILES CC(=O)[O-]
REMARK SMILES IDX 1 1 2 2 3 3 4 4
REMARK H PARENT
REMARK Flexibility Score: inf
ROOT
ATOM      1  C   UNL     1     134.055 135.545 121.875  1.00  0.00     0.063 C 
ATOM      2  C   UNL     1     134.613 134.284 122.442  1.00  0.00     0.038 C 
ATOM      3  O   UNL     1     134.089 133.176 122.155  1.00  0.00    -0.550 OA
ATOM      4  O   UNL     1     135.679 134.333 123.331  1.00  0.00    -0.550 OA
ENDROOT
TORSDOF 0
ENDMDL
MODEL 6
REMARK VINA RESULT:    -2.327     11.783     12.260
REMARK INTER + INTRA:          -2.327
REMARK INTER:                  -2.327
REMARK INTRA:                   0.000
REMARK UNBOUND:                 0.000
REMARK SMILES CC(=O)[O-]
REMARK SMILES IDX 1 1 2 2 3 3 4 4
REMARK H PARENT
REMARK Flexibility Score: inf
ROOT
ATOM      1  C   UNL     1     126.490 125.011 128.231  1.00  0.00     0.063 C 
ATOM      2  C   UNL     1     127.222 124.252 127.177  1.00  0.00     0.038 C 
ATOM      3  O   UNL     1     127.877 123.221 127.480  1.00  0.00    -0.550 OA
ATOM      4  O   UNL     1     127.225 124.711 125.866  1.00  0.00    -0.550 OA
ENDROOT
TORSDOF 0
ENDMDL
MODEL 7
REMARK VINA RESULT:    -2.304     13.210     13.789
REMARK INTER + INTRA:          -2.304
REMARK INTER:                  -2.304
REMARK INTRA:                   0.000
REMARK UNBOUND:                 0.000
REMARK SMILES CC(=O)[O-]
REMARK SMILES IDX 1 1 2 2 3 3 4 4
REMARK H PARENT
REMARK Flexibility Score: inf
ROOT
ATOM      1  C   UNL     1     128.398 121.975 128.176  1.00  0.00     0.063 C 
ATOM      2  C   UNL     1     127.357 122.987 127.837  1.00  0.00     0.038 C 
ATOM      3  O   UNL     1     126.166 122.816 128.205  1.00  0.00    -0.550 OA
ATOM      4  O   UNL     1     127.690 124.096 127.069  1.00  0.00    -0.550 OA
ENDROOT
TORSDOF 0
ENDMDL
MODEL 8
REMARK VINA RESULT:    -2.297      6.451      7.122
REMARK INTER + INTRA:          -2.297
REMARK INTER:                  -2.297
REMARK INTRA:                   0.000
REMARK UNBOUND:                 0.000
REMARK SMILES CC(=O)[O-]
REMARK SMILES IDX 1 1 2 2 3 3 4 4
REMARK H PARENT
REMARK Flexibility Score: inf
ROOT
ATOM      1  C   UNL     1     127.413 133.922 128.192  1.00  0.00     0.063 C 
ATOM      2  C   UNL     1     128.450 132.895 127.888  1.00  0.00     0.038 C 
ATOM      3  O   UNL     1     128.133 131.833 127.292  1.00  0.00    -0.550 OA
ATOM      4  O   UNL     1     129.761 133.086 128.307  1.00  0.00    -0.550 OA
ENDROOT
TORSDOF 0
ENDMDL
MODEL 9
REMARK VINA RESULT:    -2.243      6.965      7.598
REMARK INTER + INTRA:          -2.243
REMARK INTER:                  -2.243
REMARK INTRA:                   0.000
REMARK UNBOUND:                 0.000
REMARK SMILES CC(=O)[O-]
REMARK SMILES IDX 1 1 2 2 3 3 4 4
REMARK H PARENT
REMARK Flexibility Score: inf
ROOT
ATOM      1  C   UNL     1     129.087 131.043 127.546  1.00  0.00     0.063 C 
ATOM      2  C   UNL     1     128.857 132.481 127.867  1.00  0.00     0.038 C 
ATOM      3  O   UNL     1     129.817 133.207 128.236  1.00  0.00    -0.550 OA
ATOM      4  O   UNL     1     127.574 133.010 127.809  1.00  0.00    -0.550 OA
ENDROOT
TORSDOF 0
ENDMDL
