MODEL 1
REMARK VINA RESULT:    -3.879      0.000      0.000
REMARK INTER + INTRA:          -8.989
REMARK INTER:                  -7.054
REMARK INTRA:                  -1.935
REMARK UNBOUND:                -1.935
REMARK SMILES CCCCCC=CCC=CCCCCCCCC(=O)[O-]
REMARK SMILES IDX 11 1 12 2 13 3 14 4 15 5 16 6 17 7 18 8 19 9 20 10 10 11
REMARK SMILES IDX 9 12 8 13 7 14 6 15 5 16 4 17 3 18 2 19 1 20
REMARK H PARENT
REMARK Flexibility Score: inf
ROOT
ATOM      1  C   UNL     1      60.827  27.557  52.008  1.00  0.00     0.027 C 
ENDROOT
BRANCH   1   2
ATOM      2  C   UNL     1      61.022  26.046  52.211  1.00  0.00     0.004 C 
BRANCH   2   3
ATOM      3  C   UNL     1      59.697  25.274  52.138  1.00  0.00     0.000 C 
BRANCH   3   4
ATOM      4  C   UNL     1      59.385  24.853  50.696  1.00  0.00     0.000 C 
BRANCH   4   5
ATOM      5  C   UNL     1      60.604  24.195  50.038  1.00  0.00     0.000 C 
BRANCH   5   6
ATOM      6  C   UNL     1      60.501  22.666  50.099  1.00  0.00     0.006 C 
BRANCH   6   7
ATOM      7  C   UNL     1      60.937  22.030  48.776  1.00  0.00     0.053 C 
BRANCH   7   8
ATOM      8  C   UNL     1      60.975  20.540  48.900  1.00  0.00     0.041 C 
ATOM      9  O   UNL     1      61.887  19.982  49.564  1.00  0.00    -0.550 OA
ATOM     10  O   UNL     1      60.036  19.763  48.231  1.00  0.00    -0.550 OA
ENDBRANCH   7   8
ENDBRANCH   6   7
ENDBRANCH   5   6
ENDBRANCH   4   5
ENDBRANCH   3   4
ENDBRANCH   2   3
ENDBRANCH   1   2
BRANCH   1  11
ATOM     11  C   UNL     1      61.691  28.119  50.903  1.00  0.00    -0.031 C 
ATOM     12  C   UNL     1      61.277  28.357  49.646  1.00  0.00    -0.027 C 
BRANCH  12  13
ATOM     13  C   UNL     1      59.891  28.058  49.132  1.00  0.00     0.054 C 
BRANCH  13  14
ATOM     14  C   UNL     1      59.007  29.275  49.224  1.00  0.00    -0.027 C 
ATOM     15  C   UNL     1      57.945  29.388  50.043  1.00  0.00    -0.031 C 
BRANCH  15  16
ATOM     16  C   UNL     1      57.505  28.341  51.040  1.00  0.00     0.027 C 
BRANCH  16  17
ATOM     17  C   UNL     1      56.485  27.366  50.432  1.00  0.00     0.004 C 
BRANCH  17  18
ATOM     18  C   UNL     1      55.036  27.736  50.797  1.00  0.00     0.000 C 
BRANCH  18  19
ATOM     19  C   UNL     1      54.033  27.331  49.705  1.00  0.00    -0.003 C 
ATOM     20  C   UNL     1      54.259  25.909  49.190  1.00  0.00     0.004 C 
ENDBRANCH  18  19
ENDBRANCH  17  18
ENDBRANCH  16  17
ENDBRANCH  15  16
ENDBRANCH  13  14
ENDBRANCH  12  13
ENDBRANCH   1  11
TORSDOF 14
ENDMDL
MODEL 2
REMARK VINA RESULT:    -3.864      1.261      1.986
REMARK INTER + INTRA:          -8.961
REMARK INTER:                  -7.665
REMARK INTRA:                  -1.296
REMARK UNBOUND:                -1.935
REMARK SMILES CCCCCC=CCC=CCCCCCCCC(=O)[O-]
REMARK SMILES IDX 11 1 12 2 13 3 14 4 15 5 16 6 17 7 18 8 19 9 20 10 10 11
REMARK SMILES IDX 9 12 8 13 7 14 6 15 5 16 4 17 3 18 2 19 1 20
REMARK H PARENT
REMARK Flexibility Score: inf
ROOT
ATOM      1  C   UNL     1      60.029  25.851  50.847  1.00  0.00     0.027 C 
ENDROOT
BRANCH   1   2
ATOM      2  C   UNL     1      60.436  24.495  50.249  1.00  0.00     0.004 C 
BRANCH   2   3
ATOM      3  C   UNL     1      60.221  23.337  51.233  1.00  0.00     0.000 C 
BRANCH   3   4
ATOM      4  C   UNL     1      60.498  21.986  50.560  1.00  0.00     0.000 C 
BRANCH   4   5
ATOM      5  C   UNL     1      60.857  22.170  49.081  1.00  0.00     0.000 C 
BRANCH   5   6
ATOM      6  C   UNL     1      61.051  20.814  48.391  1.00  0.00     0.006 C 
BRANCH   6   7
ATOM      7  C   UNL     1      59.770  19.977  48.450  1.00  0.00     0.053 C 
BRANCH   7   8
ATOM      8  C   UNL     1      60.084  18.566  48.834  1.00  0.00     0.041 C 
ATOM      9  O   UNL     1      61.059  18.318  49.592  1.00  0.00    -0.550 OA
ATOM     10  O   UNL     1      59.339  17.519  48.306  1.00  0.00    -0.550 OA
ENDBRANCH   7   8
ENDBRANCH   6   7
ENDBRANCH   5   6
ENDBRANCH   4   5
ENDBRANCH   3   4
ENDBRANCH   2   3
ENDBRANCH   1   2
BRANCH   1  11
ATOM     11  C   UNL     1      61.005  26.956  50.519  1.00  0.00    -0.031 C 
ATOM     12  C   UNL     1      60.745  28.002  49.714  1.00  0.00    -0.027 C 
BRANCH  12  13
ATOM     13  C   UNL     1      59.445  28.210  48.978  1.00  0.00     0.054 C 
BRANCH  13  14
ATOM     14  C   UNL     1      58.747  29.456  49.456  1.00  0.00    -0.027 C 
ATOM     15  C   UNL     1      57.740  29.475  50.349  1.00  0.00    -0.031 C 
BRANCH  15  16
ATOM     16  C   UNL     1      57.188  28.259  51.057  1.00  0.00     0.027 C 
BRANCH  16  17
ATOM     17  C   UNL     1      56.124  27.541  50.214  1.00  0.00     0.004 C 
BRANCH  17  18
ATOM     18  C   UNL     1      54.721  27.642  50.839  1.00  0.00     0.000 C 
BRANCH  18  19
ATOM     19  C   UNL     1      53.726  28.385  49.932  1.00  0.00    -0.003 C 
ATOM     20  C   UNL     1      53.440  29.809  50.408  1.00  0.00     0.004 C 
ENDBRANCH  18  19
ENDBRANCH  17  18
ENDBRANCH  16  17
ENDBRANCH  15  16
ENDBRANCH  13  14
ENDBRANCH  12  13
ENDBRANCH   1  11
TORSDOF 14
ENDMDL
MODEL 3
REMARK VINA RESULT:    -3.827      4.410      6.831
REMARK INTER + INTRA:          -8.894
REMARK INTER:                  -5.613
REMARK INTRA:                  -3.281
REMARK UNBOUND:                -1.935
REMARK SMILES CCCCCC=CCC=CCCCCCCCC(=O)[O-]
REMARK SMILES IDX 11 1 12 2 13 3 14 4 15 5 16 6 17 7 18 8 19 9 20 10 10 11
REMARK SMILES IDX 9 12 8 13 7 14 6 15 5 16 4 17 3 18 2 19 1 20
REMARK H PARENT
REMARK Flexibility Score: inf
ROOT
ATOM      1  C   UNL     1      58.060  27.319  52.659  1.00  0.00     0.027 C 
ENDROOT
BRANCH   1   2
ATOM      2  C   UNL     1      56.860  26.693  53.386  1.00  0.00     0.004 C 
BRANCH   2   3
ATOM      3  C   UNL     1      55.865  26.045  52.414  1.00  0.00     0.000 C 
BRANCH   3   4
ATOM      4  C   UNL     1      56.474  25.911  51.012  1.00  0.00     0.000 C 
BRANCH   4   5
ATOM      5  C   UNL     1      55.482  26.362  49.934  1.00  0.00     0.000 C 
BRANCH   5   6
ATOM      6  C   UNL     1      54.231  26.985  50.566  1.00  0.00     0.006 C 
BRANCH   6   7
ATOM      7  C   UNL     1      53.960  28.380  49.996  1.00  0.00     0.053 C 
BRANCH   7   8
ATOM      8  C   UNL     1      54.064  29.413  51.073  1.00  0.00     0.041 C 
ATOM      9  O   UNL     1      54.222  29.066  52.272  1.00  0.00    -0.550 OA
ATOM     10  O   UNL     1      53.922  30.760  50.759  1.00  0.00    -0.550 OA
ENDBRANCH   7   8
ENDBRANCH   6   7
ENDBRANCH   5   6
ENDBRANCH   4   5
ENDBRANCH   3   4
ENDBRANCH   2   3
ENDBRANCH   1   2
BRANCH   1  11
ATOM     11  C   UNL     1      58.118  28.822  52.804  1.00  0.00    -0.031 C 
ATOM     12  C   UNL     1      57.890  29.702  51.812  1.00  0.00    -0.027 C 
BRANCH  12  13
ATOM     13  C   UNL     1      57.581  29.321  50.386  1.00  0.00     0.054 C 
BRANCH  13  14
ATOM     14  C   UNL     1      58.781  29.526  49.499  1.00  0.00    -0.027 C 
ATOM     15  C   UNL     1      59.562  28.537  49.028  1.00  0.00    -0.031 C 
BRANCH  15  16
ATOM     16  C   UNL     1      59.329  27.062  49.263  1.00  0.00     0.027 C 
BRANCH  16  17
ATOM     17  C   UNL     1      60.434  26.439  50.128  1.00  0.00     0.004 C 
BRANCH  17  18
ATOM     18  C   UNL     1      61.638  27.382  50.302  1.00  0.00     0.000 C 
BRANCH  18  19
ATOM     19  C   UNL     1      61.858  27.789  51.768  1.00  0.00    -0.003 C 
ATOM     20  C   UNL     1      61.685  29.289  52.000  1.00  0.00     0.004 C 
ENDBRANCH  18  19
ENDBRANCH  17  18
ENDBRANCH  16  17
ENDBRANCH  15  16
ENDBRANCH  13  14
ENDBRANCH  12  13
ENDBRANCH   1  11
TORSDOF 14
ENDMDL
MODEL 4
REMARK VINA RESULT:    -3.729      1.561      2.817
REMARK INTER + INTRA:          -8.716
REMARK INTER:                  -6.693
REMARK INTRA:                  -2.024
REMARK UNBOUND:                -1.935
REMARK SMILES CCCCCC=CCC=CCCCCCCCC(=O)[O-]
REMARK SMILES IDX 11 1 12 2 13 3 14 4 15 5 16 6 17 7 18 8 19 9 20 10 10 11
REMARK SMILES IDX 9 12 8 13 7 14 6 15 5 16 4 17 3 18 2 19 1 20
REMARK H PARENT
REMARK Flexibility Score: inf
ROOT
ATOM      1  C   UNL     1      59.352  27.209  49.515  1.00  0.00     0.027 C 
ENDROOT
BRANCH   1   2
ATOM      2  C   UNL     1      60.679  26.966  50.252  1.00  0.00     0.004 C 
BRANCH   2   3
ATOM      3  C   UNL     1      60.644  25.691  51.106  1.00  0.00     0.000 C 
BRANCH   3   4
ATOM      4  C   UNL     1      60.001  24.530  50.335  1.00  0.00     0.000 C 
BRANCH   4   5
ATOM      5  C   UNL     1      61.069  23.614  49.726  1.00  0.00     0.000 C 
BRANCH   5   6
ATOM      6  C   UNL     1      60.733  22.139  49.976  1.00  0.00     0.006 C 
BRANCH   6   7
ATOM      7  C   UNL     1      60.690  21.352  48.663  1.00  0.00     0.053 C 
BRANCH   7   8
ATOM      8  C   UNL     1      60.222  19.953  48.907  1.00  0.00     0.041 C 
ATOM      9  O   UNL     1      59.579  19.335  48.019  1.00  0.00    -0.550 OA
ATOM     10  O   UNL     1      60.444  19.351  50.141  1.00  0.00    -0.550 OA
ENDBRANCH   7   8
ENDBRANCH   6   7
ENDBRANCH   5   6
ENDBRANCH   4   5
ENDBRANCH   3   4
ENDBRANCH   2   3
ENDBRANCH   1   2
BRANCH   1  11
ATOM     11  C   UNL     1      59.168  28.648  49.093  1.00  0.00    -0.031 C 
ATOM     12  C   UNL     1      58.399  29.548  49.732  1.00  0.00    -0.027 C 
BRANCH  12  13
ATOM     13  C   UNL     1      57.565  29.245  50.952  1.00  0.00     0.054 C 
BRANCH  13  14
ATOM     14  C   UNL     1      56.096  29.266  50.620  1.00  0.00    -0.027 C 
ATOM     15  C   UNL     1      55.373  28.182  50.280  1.00  0.00    -0.031 C 
BRANCH  15  16
ATOM     16  C   UNL     1      55.903  26.767  50.232  1.00  0.00     0.027 C 
BRANCH  16  17
ATOM     17  C   UNL     1      55.662  26.022  51.554  1.00  0.00     0.004 C 
BRANCH  17  18
ATOM     18  C   UNL     1      56.967  25.486  52.167  1.00  0.00     0.000 C 
BRANCH  18  19
ATOM     19  C   UNL     1      57.649  26.511  53.087  1.00  0.00    -0.003 C 
ATOM     20  C   UNL     1      56.877  26.749  54.385  1.00  0.00     0.004 C 
ENDBRANCH  18  19
ENDBRANCH  17  18
ENDBRANCH  16  17
ENDBRANCH  15  16
ENDBRANCH  13  14
ENDBRANCH  12  13
ENDBRANCH   1  11
TORSDOF 14
ENDMDL
MODEL 5
REMARK VINA RESULT:    -3.688      1.187      2.080
REMARK INTER + INTRA:          -8.642
REMARK INTER:                  -7.002
REMARK INTRA:                  -1.640
REMARK UNBOUND:                -1.935
REMARK SMILES CCCCCC=CCC=CCCCCCCCC(=O)[O-]
REMARK SMILES IDX 11 1 12 2 13 3 14 4 15 5 16 6 17 7 18 8 19 9 20 10 10 11
REMARK SMILES IDX 9 12 8 13 7 14 6 15 5 16 4 17 3 18 2 19 1 20
REMARK H PARENT
REMARK Flexibility Score: inf
ROOT
ATOM      1  C   UNL     1      60.181  27.887  49.440  1.00  0.00     0.027 C 
ENDROOT
BRANCH   1   2
ATOM      2  C   UNL     1      59.626  26.465  49.620  1.00  0.00     0.004 C 
BRANCH   2   3
ATOM      3  C   UNL     1      60.298  25.722  50.783  1.00  0.00     0.000 C 
BRANCH   3   4
ATOM      4  C   UNL     1      59.947  24.228  50.756  1.00  0.00     0.000 C 
BRANCH   4   5
ATOM      5  C   UNL     1      60.798  23.481  49.723  1.00  0.00     0.000 C 
BRANCH   5   6
ATOM      6  C   UNL     1      61.471  22.254  50.350  1.00  0.00     0.006 C 
BRANCH   6   7
ATOM      7  C   UNL     1      61.910  21.255  49.276  1.00  0.00     0.053 C 
BRANCH   7   8
ATOM      8  C   UNL     1      60.905  20.155  49.144  1.00  0.00     0.041 C 
ATOM      9  O   UNL     1      60.083  20.159  48.191  1.00  0.00    -0.550 OA
ATOM     10  O   UNL     1      60.836  19.157  50.109  1.00  0.00    -0.550 OA
ENDBRANCH   7   8
ENDBRANCH   6   7
ENDBRANCH   5   6
ENDBRANCH   4   5
ENDBRANCH   3   4
ENDBRANCH   2   3
ENDBRANCH   1   2
BRANCH   1  11
ATOM     11  C   UNL     1      59.126  28.882  49.018  1.00  0.00    -0.031 C 
ATOM     12  C   UNL     1      58.395  29.635  49.859  1.00  0.00    -0.027 C 
BRANCH  12  13
ATOM     13  C   UNL     1      58.487  29.570  51.363  1.00  0.00     0.054 C 
BRANCH  13  14
ATOM     14  C   UNL     1      57.124  29.684  51.994  1.00  0.00    -0.027 C 
ATOM     15  C   UNL     1      56.256  28.664  52.128  1.00  0.00    -0.031 C 
BRANCH  15  16
ATOM     16  C   UNL     1      56.530  27.234  51.722  1.00  0.00     0.027 C 
BRANCH  16  17
ATOM     17  C   UNL     1      55.980  26.922  50.322  1.00  0.00     0.004 C 
BRANCH  17  18
ATOM     18  C   UNL     1      54.721  27.744  49.994  1.00  0.00     0.000 C 
BRANCH  18  19
ATOM     19  C   UNL     1      53.466  26.867  49.856  1.00  0.00    -0.003 C 
ATOM     20  C   UNL     1      53.675  25.676  48.921  1.00  0.00     0.004 C 
ENDBRANCH  18  19
ENDBRANCH  17  18
ENDBRANCH  16  17
ENDBRANCH  15  16
ENDBRANCH  13  14
ENDBRANCH  12  13
ENDBRANCH   1  11
TORSDOF 14
ENDMDL
MODEL 6
REMARK VINA RESULT:    -3.649      4.094      8.485
REMARK INTER + INTRA:          -8.570
REMARK INTER:                  -5.660
REMARK INTRA:                  -2.910
REMARK UNBOUND:                -1.935
REMARK SMILES CCCCCC=CCC=CCCCCCCCC(=O)[O-]
REMARK SMILES IDX 11 1 12 2 13 3 14 4 15 5 16 6 17 7 18 8 19 9 20 10 10 11
REMARK SMILES IDX 9 12 8 13 7 14 6 15 5 16 4 17 3 18 2 19 1 20
REMARK H PARENT
REMARK Flexibility Score: inf
ROOT
ATOM      1  C   UNL     1      60.606  17.632  49.718  1.00  0.00     0.027 C 
ENDROOT
BRANCH   1   2
ATOM      2  C   UNL     1      61.205  19.016  49.422  1.00  0.00     0.004 C 
BRANCH   2   3
ATOM      3  C   UNL     1      60.178  19.973  48.800  1.00  0.00     0.000 C 
BRANCH   3   4
ATOM      4  C   UNL     1      60.783  21.368  48.591  1.00  0.00     0.000 C 
BRANCH   4   5
ATOM      5  C   UNL     1      61.884  21.651  49.620  1.00  0.00     0.000 C 
BRANCH   5   6
ATOM      6  C   UNL     1      61.545  22.889  50.459  1.00  0.00     0.006 C 
BRANCH   6   7
ATOM      7  C   UNL     1      60.405  23.691  49.825  1.00  0.00     0.053 C 
BRANCH   7   8
ATOM      8  C   UNL     1      59.686  24.488  50.866  1.00  0.00     0.041 C 
ATOM      9  O   UNL     1      59.394  23.968  51.974  1.00  0.00    -0.550 OA
ATOM     10  O   UNL     1      59.282  25.789  50.589  1.00  0.00    -0.550 OA
ENDBRANCH   7   8
ENDBRANCH   6   7
ENDBRANCH   5   6
ENDBRANCH   4   5
ENDBRANCH   3   4
ENDBRANCH   2   3
ENDBRANCH   1   2
BRANCH   1  11
ATOM     11  C   UNL     1      59.594  17.196  48.685  1.00  0.00    -0.031 C 
ATOM     12  C   UNL     1      58.291  16.968  48.929  1.00  0.00    -0.027 C 
BRANCH  12  13
ATOM     13  C   UNL     1      57.645  17.076  50.288  1.00  0.00     0.054 C 
BRANCH  13  14
ATOM     14  C   UNL     1      56.787  18.310  50.382  1.00  0.00    -0.027 C 
ATOM     15  C   UNL     1      56.930  19.272  51.313  1.00  0.00    -0.031 C 
BRANCH  15  16
ATOM     16  C   UNL     1      58.006  19.297  52.374  1.00  0.00     0.027 C 
BRANCH  16  17
ATOM     17  C   UNL     1      58.944  20.503  52.209  1.00  0.00     0.004 C 
BRANCH  17  18
ATOM     18  C   UNL     1      60.351  20.227  52.766  1.00  0.00     0.000 C 
BRANCH  18  19
ATOM     19  C   UNL     1      60.534  18.764  53.204  1.00  0.00    -0.003 C 
ATOM     20  C   UNL     1      61.982  18.288  53.094  1.00  0.00     0.004 C 
ENDBRANCH  18  19
ENDBRANCH  17  18
ENDBRANCH  16  17
ENDBRANCH  15  16
ENDBRANCH  13  14
ENDBRANCH  12  13
ENDBRANCH   1  11
TORSDOF 14
ENDMDL
MODEL 7
REMARK VINA RESULT:    -3.628      3.182      5.281
REMARK INTER + INTRA:          -8.533
REMARK INTER:                  -5.636
REMARK INTRA:                  -2.897
REMARK UNBOUND:                -1.935
REMARK SMILES CCCCCC=CCC=CCCCCCCCC(=O)[O-]
REMARK SMILES IDX 11 1 12 2 13 3 14 4 15 5 16 6 17 7 18 8 19 9 20 10 10 11
REMARK SMILES IDX 9 12 8 13 7 14 6 15 5 16 4 17 3 18 2 19 1 20
REMARK H PARENT
REMARK Flexibility Score: inf
ROOT
ATOM      1  C   UNL     1      56.995  30.537  52.521  1.00  0.00     0.027 C 
ENDROOT
BRANCH   1   2
ATOM      2  C   UNL     1      58.143  29.561  52.222  1.00  0.00     0.004 C 
BRANCH   2   3
ATOM      3  C   UNL     1      59.162  30.148  51.234  1.00  0.00     0.000 C 
BRANCH   3   4
ATOM      4  C   UNL     1      58.923  29.613  49.816  1.00  0.00     0.000 C 
BRANCH   4   5
ATOM      5  C   UNL     1      58.216  28.252  49.852  1.00  0.00     0.000 C 
BRANCH   5   6
ATOM      6  C   UNL     1      59.145  27.139  49.350  1.00  0.00     0.006 C 
BRANCH   6   7
ATOM      7  C   UNL     1      60.031  26.608  50.481  1.00  0.00     0.053 C 
BRANCH   7   8
ATOM      8  C   UNL     1      61.474  26.706  50.103  1.00  0.00     0.041 C 
ATOM      9  O   UNL     1      62.294  25.838  50.501  1.00  0.00    -0.550 OA
ATOM     10  O   UNL     1      61.926  27.792  49.362  1.00  0.00    -0.550 OA
ENDBRANCH   7   8
ENDBRANCH   6   7
ENDBRANCH   5   6
ENDBRANCH   4   5
ENDBRANCH   3   4
ENDBRANCH   2   3
ENDBRANCH   1   2
BRANCH   1  11
ATOM     11  C   UNL     1      55.736  29.842  52.984  1.00  0.00    -0.031 C 
ATOM     12  C   UNL     1      54.787  29.344  52.172  1.00  0.00    -0.027 C 
BRANCH  12  13
ATOM     13  C   UNL     1      54.813  29.441  50.667  1.00  0.00     0.054 C 
BRANCH  13  14
ATOM     14  C   UNL     1      53.690  28.646  50.055  1.00  0.00    -0.027 C 
ATOM     15  C   UNL     1      53.788  27.364  49.656  1.00  0.00    -0.031 C 
BRANCH  15  16
ATOM     16  C   UNL     1      55.019  26.500  49.812  1.00  0.00     0.027 C 
BRANCH  16  17
ATOM     17  C   UNL     1      55.078  25.833  51.195  1.00  0.00     0.004 C 
BRANCH  17  18
ATOM     18  C   UNL     1      56.507  25.798  51.764  1.00  0.00     0.000 C 
BRANCH  18  19
ATOM     19  C   UNL     1      56.571  26.279  53.222  1.00  0.00    -0.003 C 
ATOM     20  C   UNL     1      57.986  26.246  53.797  1.00  0.00     0.004 C 
ENDBRANCH  18  19
ENDBRANCH  17  18
ENDBRANCH  16  17
ENDBRANCH  15  16
ENDBRANCH  13  14
ENDBRANCH  12  13
ENDBRANCH   1  11
TORSDOF 14
ENDMDL
MODEL 8
REMARK VINA RESULT:    -3.628      3.727      5.301
REMARK INTER + INTRA:          -8.532
REMARK INTER:                  -5.494
REMARK INTRA:                  -3.038
REMARK UNBOUND:                -1.935
REMARK SMILES CCCCCC=CCC=CCCCCCCCC(=O)[O-]
REMARK SMILES IDX 11 1 12 2 13 3 14 4 15 5 16 6 17 7 18 8 19 9 20 10 10 11
REMARK SMILES IDX 9 12 8 13 7 14 6 15 5 16 4 17 3 18 2 19 1 20
REMARK H PARENT
REMARK Flexibility Score: inf
ROOT
ATOM      1  C   UNL     1      57.562  28.221  53.430  1.00  0.00     0.027 C 
ENDROOT
BRANCH   1   2
ATOM      2  C   UNL     1      57.012  29.201  52.382  1.00  0.00     0.004 C 
BRANCH   2   3
ATOM      3  C   UNL     1      58.117  29.768  51.480  1.00  0.00     0.000 C 
BRANCH   3   4
ATOM      4  C   UNL     1      57.749  29.617  49.998  1.00  0.00     0.000 C 
BRANCH   4   5
ATOM      5  C   UNL     1      58.952  29.137  49.177  1.00  0.00     0.000 C 
BRANCH   5   6
ATOM      6  C   UNL     1      60.239  29.189  50.009  1.00  0.00     0.006 C 
BRANCH   6   7
ATOM      7  C   UNL     1      61.172  28.026  49.657  1.00  0.00     0.053 C 
BRANCH   7   8
ATOM      8  C   UNL     1      62.567  28.521  49.443  1.00  0.00     0.041 C 
ATOM      9  O   UNL     1      63.411  27.800  48.851  1.00  0.00    -0.550 OA
ATOM     10  O   UNL     1      62.952  29.756  49.952  1.00  0.00    -0.550 OA
ENDBRANCH   7   8
ENDBRANCH   6   7
ENDBRANCH   5   6
ENDBRANCH   4   5
ENDBRANCH   3   4
ENDBRANCH   2   3
ENDBRANCH   1   2
BRANCH   1  11
ATOM     11  C   UNL     1      58.860  27.575  53.008  1.00  0.00    -0.031 C 
ATOM     12  C   UNL     1      58.960  26.443  52.289  1.00  0.00    -0.027 C 
BRANCH  12  13
ATOM     13  C   UNL     1      57.786  25.619  51.825  1.00  0.00     0.054 C 
BRANCH  13  14
ATOM     14  C   UNL     1      57.359  26.020  50.437  1.00  0.00    -0.027 C 
ATOM     15  C   UNL     1      56.086  26.245  50.063  1.00  0.00    -0.031 C 
BRANCH  15  16
ATOM     16  C   UNL     1      54.889  26.189  50.985  1.00  0.00     0.027 C 
BRANCH  16  17
ATOM     17  C   UNL     1      53.752  27.101  50.502  1.00  0.00     0.004 C 
BRANCH  17  18
ATOM     18  C   UNL     1      54.267  28.468  50.016  1.00  0.00     0.000 C 
BRANCH  18  19
ATOM     19  C   UNL     1      53.441  29.639  50.572  1.00  0.00    -0.003 C 
ATOM     20  C   UNL     1      53.342  29.624  52.097  1.00  0.00     0.004 C 
ENDBRANCH  18  19
ENDBRANCH  17  18
ENDBRANCH  16  17
ENDBRANCH  15  16
ENDBRANCH  13  14
ENDBRANCH  12  13
ENDBRANCH   1  11
TORSDOF 14
ENDMDL
MODEL 9
REMARK VINA RESULT:    -3.606      4.060      5.002
REMARK INTER + INTRA:          -8.493
REMARK INTER:                  -6.223
REMARK INTRA:                  -2.270
REMARK UNBOUND:                -1.935
REMARK SMILES CCCCCC=CCC=CCCCCCCCC(=O)[O-]
REMARK SMILES IDX 11 1 12 2 13 3 14 4 15 5 16 6 17 7 18 8 19 9 20 10 10 11
REMARK SMILES IDX 9 12 8 13 7 14 6 15 5 16 4 17 3 18 2 19 1 20
REMARK H PARENT
REMARK Flexibility Score: inf
ROOT
ATOM      1  C   UNL     1      61.316  29.314  52.263  1.00  0.00     0.027 C 
ENDROOT
BRANCH   1   2
ATOM      2  C   UNL     1      62.473  28.335  52.516  1.00  0.00     0.004 C 
BRANCH   2   3
ATOM      3  C   UNL     1      62.136  26.907  52.064  1.00  0.00     0.000 C 
BRANCH   3   4
ATOM      4  C   UNL     1      63.181  26.385  51.069  1.00  0.00     0.000 C 
BRANCH   4   5
ATOM      5  C   UNL     1      62.967  26.989  49.676  1.00  0.00     0.000 C 
BRANCH   5   6
ATOM      6  C   UNL     1      64.225  27.723  49.197  1.00  0.00     0.006 C 
BRANCH   6   7
ATOM      7  C   UNL     1      63.871  28.840  48.210  1.00  0.00     0.053 C 
BRANCH   7   8
ATOM      8  C   UNL     1      65.043  29.158  47.339  1.00  0.00     0.041 C 
ATOM      9  O   UNL     1      65.569  28.261  46.630  1.00  0.00    -0.550 OA
ATOM     10  O   UNL     1      65.597  30.434  47.357  1.00  0.00    -0.550 OA
ENDBRANCH   7   8
ENDBRANCH   6   7
ENDBRANCH   5   6
ENDBRANCH   4   5
ENDBRANCH   3   4
ENDBRANCH   2   3
ENDBRANCH   1   2
BRANCH   1  11
ATOM     11  C   UNL     1      61.550  30.206  51.066  1.00  0.00    -0.031 C 
ATOM     12  C   UNL     1      60.729  30.305  50.005  1.00  0.00    -0.027 C 
BRANCH  12  13
ATOM     13  C   UNL     1      59.463  29.505  49.828  1.00  0.00     0.054 C 
BRANCH  13  14
ATOM     14  C   UNL     1      59.742  28.199  49.132  1.00  0.00    -0.027 C 
ATOM     15  C   UNL     1      59.189  27.019  49.470  1.00  0.00    -0.031 C 
BRANCH  15  16
ATOM     16  C   UNL     1      58.158  26.825  50.559  1.00  0.00     0.027 C 
BRANCH  16  17
ATOM     17  C   UNL     1      56.766  26.529  49.982  1.00  0.00     0.004 C 
BRANCH  17  18
ATOM     18  C   UNL     1      55.757  27.649  50.291  1.00  0.00     0.000 C 
BRANCH  18  19
ATOM     19  C   UNL     1      54.317  27.262  49.917  1.00  0.00    -0.003 C 
ATOM     20  C   UNL     1      54.230  25.907  49.214  1.00  0.00     0.004 C 
ENDBRANCH  18  19
ENDBRANCH  17  18
ENDBRANCH  16  17
ENDBRANCH  15  16
ENDBRANCH  13  14
ENDBRANCH  12  13
ENDBRANCH   1  11
TORSDOF 14
ENDMDL
