MODEL 1
REMARK VINA RESULT:    -2.058      0.000      0.000
REMARK INTER + INTRA:          -2.335
REMARK INTER:                  -2.178
REMARK INTRA:                  -0.157
REMARK UNBOUND:                -0.157
REMARK SMILES C=C(C)[C@H]1CC=C(C)CC1
REMARK SMILES IDX 8 1 7 2 6 3 5 4 4 5 10 6 9 7 2 8 1 9 3 10
REMARK H PARENT
REMARK Flexibility Score: inf
ROOT
ATOM      1  C   UNL     1      -1.003 -12.339  15.247  1.00  0.00     0.039 C 
ATOM      2  C   UNL     1       0.438 -12.766  15.263  1.00  0.00    -0.077 C 
ATOM      3  C   UNL     1       1.133 -12.759  16.414  1.00  0.00    -0.027 C 
ATOM      4  C   UNL     1       2.557 -13.240  16.419  1.00  0.00     0.035 C 
ATOM      5  C   UNL     1       2.677 -14.567  15.632  1.00  0.00     0.018 C 
ATOM      6  C   UNL     1       1.884 -14.567  14.283  1.00  0.00     0.013 C 
ATOM      7  C   UNL     1       1.126 -13.255  14.009  1.00  0.00     0.031 C 
ENDROOT
BRANCH   5   8
ATOM      8  C   UNL     1       4.138 -14.946  15.430  1.00  0.00    -0.077 C 
ATOM      9  C   UNL     1       4.639 -15.125  14.196  1.00  0.00     0.008 C 
ATOM     10  C   UNL     1       5.050 -15.125  16.617  1.00  0.00     0.039 C 
ENDBRANCH   5   8
TORSDOF 1
ENDMDL
MODEL 2
REMARK VINA RESULT:    -1.973      0.479      1.197
REMARK INTER + INTRA:          -2.245
REMARK INTER:                  -2.086
REMARK INTRA:                  -0.159
REMARK UNBOUND:                -0.157
REMARK SMILES C=C(C)[C@H]1CC=C(C)CC1
REMARK SMILES IDX 8 1 7 2 6 3 5 4 4 5 10 6 9 7 2 8 1 9 3 10
REMARK H PARENT
REMARK Flexibility Score: inf
ROOT
ATOM      1  C   UNL     1      -0.773 -12.872  15.244  1.00  0.00     0.039 C 
ATOM      2  C   UNL     1       0.700 -13.170  15.255  1.00  0.00    -0.077 C 
ATOM      3  C   UNL     1       1.427 -12.950  16.364  1.00  0.00    -0.027 C 
ATOM      4  C   UNL     1       2.888 -13.304  16.371  1.00  0.00     0.035 C 
ATOM      5  C   UNL     1       3.100 -14.711  15.763  1.00  0.00     0.018 C 
ATOM      6  C   UNL     1       2.269 -14.960  14.460  1.00  0.00     0.013 C 
ATOM      7  C   UNL     1       1.389 -13.766  14.048  1.00  0.00     0.031 C 
ENDROOT
BRANCH   5   8
ATOM      8  C   UNL     1       4.583 -14.989  15.551  1.00  0.00    -0.077 C 
ATOM      9  C   UNL     1       5.415 -15.120  16.598  1.00  0.00     0.008 C 
ATOM     10  C   UNL     1       5.141 -15.125  14.158  1.00  0.00     0.039 C 
ENDBRANCH   5   8
TORSDOF 1
ENDMDL
MODEL 3
REMARK VINA RESULT:    -0.907      6.264      7.780
REMARK INTER + INTRA:          -1.116
REMARK INTER:                  -0.961
REMARK INTRA:                  -0.156
REMARK UNBOUND:                -0.157
REMARK SMILES C=C(C)[C@H]1CC=C(C)CC1
REMARK SMILES IDX 8 1 7 2 6 3 5 4 4 5 10 6 9 7 2 8 1 9 3 10
REMARK H PARENT
REMARK Flexibility Score: inf
ROOT
ATOM      1  C   UNL     1       3.325 -14.412   4.802  1.00  0.00     0.039 C 
ATOM      2  C   UNL     1       3.241 -14.790   6.254  1.00  0.00    -0.077 C 
ATOM      3  C   UNL     1       4.347 -14.793   7.018  1.00  0.00    -0.027 C 
ATOM      4  C   UNL     1       4.233 -15.123   8.480  1.00  0.00     0.035 C 
ATOM      5  C   UNL     1       3.049 -14.352   9.111  1.00  0.00     0.018 C 
ATOM      6  C   UNL     1       1.755 -14.365   8.231  1.00  0.00     0.013 C 
ATOM      7  C   UNL     1       1.917 -15.125   6.902  1.00  0.00     0.031 C 
ENDROOT
BRANCH   5   8
ATOM      8  C   UNL     1       2.777 -14.845  10.527  1.00  0.00    -0.077 C 
ATOM      9  C   UNL     1       1.520 -15.069  10.948  1.00  0.00     0.008 C 
ATOM     10  C   UNL     1       3.917 -15.094  11.480  1.00  0.00     0.039 C 
ENDBRANCH   5   8
TORSDOF 1
ENDMDL
MODEL 4
REMARK VINA RESULT:    -0.735      2.355      3.580
REMARK INTER + INTRA:          -0.934
REMARK INTER:                  -0.780
REMARK INTRA:                  -0.154
REMARK UNBOUND:                -0.157
REMARK SMILES C=C(C)[C@H]1CC=C(C)CC1
REMARK SMILES IDX 8 1 7 2 6 3 5 4 4 5 10 6 9 7 2 8 1 9 3 10
REMARK H PARENT
REMARK Flexibility Score: inf
ROOT
ATOM      1  C   UNL     1       2.261 -15.089  12.728  1.00  0.00     0.039 C 
ATOM      2  C   UNL     1       3.250 -15.125  13.859  1.00  0.00    -0.077 C 
ATOM      3  C   UNL     1       4.570 -15.121  13.604  1.00  0.00    -0.027 C 
ATOM      4  C   UNL     1       5.543 -15.105  14.750  1.00  0.00     0.035 C 
ATOM      5  C   UNL     1       5.113 -14.053  15.801  1.00  0.00     0.018 C 
ATOM      6  C   UNL     1       3.580 -14.071  16.112  1.00  0.00     0.013 C 
ATOM      7  C   UNL     1       2.795 -15.117  15.300  1.00  0.00     0.031 C 
ENDROOT
BRANCH   5   8
ATOM      8  C   UNL     1       5.950 -14.181  17.067  1.00  0.00    -0.077 C 
ATOM      9  C   UNL     1       6.906 -15.121  17.168  1.00  0.00     0.008 C 
ATOM     10  C   UNL     1       5.720 -13.252  18.230  1.00  0.00     0.039 C 
ENDBRANCH   5   8
TORSDOF 1
ENDMDL
MODEL 5
REMARK VINA RESULT:     0.364      1.364      2.441
REMARK INTER + INTRA:           0.228
REMARK INTER:                   0.388
REMARK INTRA:                  -0.160
REMARK UNBOUND:                -0.157
REMARK SMILES C=C(C)[C@H]1CC=C(C)CC1
REMARK SMILES IDX 8 1 7 2 6 3 5 4 4 5 10 6 9 7 2 8 1 9 3 10
REMARK H PARENT
REMARK Flexibility Score: inf
ROOT
ATOM      1  C   UNL     1      -1.501  -9.955  15.556  1.00  0.00     0.039 C 
ATOM      2  C   UNL     1      -0.459 -10.994  15.252  1.00  0.00    -0.077 C 
ATOM      3  C   UNL     1       0.808 -10.824  15.668  1.00  0.00    -0.027 C 
ATOM      4  C   UNL     1       1.823 -11.899  15.399  1.00  0.00     0.035 C 
ATOM      5  C   UNL     1       1.238 -13.287  15.753  1.00  0.00     0.018 C 
ATOM      6  C   UNL     1      -0.230 -13.493  15.252  1.00  0.00     0.013 C 
ATOM      7  C   UNL     1      -0.813 -12.269  14.521  1.00  0.00     0.031 C 
ENDROOT
BRANCH   5   8
ATOM      8  C   UNL     1       2.162 -14.401  15.274  1.00  0.00    -0.077 C 
ATOM      9  C   UNL     1       3.241 -14.756  15.992  1.00  0.00     0.008 C 
ATOM     10  C   UNL     1       1.877 -15.125  13.985  1.00  0.00     0.039 C 
ENDBRANCH   5   8
TORSDOF 1
ENDMDL
