MODEL 1
REMARK VINA RESULT:    -3.993      0.000      0.000
REMARK INTER + INTRA:          -7.950
REMARK INTER:                  -7.261
REMARK INTRA:                  -0.689
REMARK UNBOUND:                -0.689
REMARK SMILES CCCCCCCCCCCCCC[C@@H](C)C(=O)[O-]
REMARK SMILES IDX 9 1 10 2 11 3 12 4 13 5 14 6 15 7 16 8 17 9 18 10 19 11 8 12
REMARK SMILES IDX 7 13 6 14 5 15 4 16 3 17 2 18 1 19
REMARK H PARENT
REMARK Flexibility Score: inf
ROOT
ATOM      1  C   UNL     1     -33.339 -21.418 -35.305  1.00  0.00     0.000 C 
ENDROOT
BRANCH   1   2
ATOM      2  C   UNL     1     -32.498 -22.511 -34.620  1.00  0.00     0.000 C 
BRANCH   2   3
ATOM      3  C   UNL     1     -31.279 -21.940 -33.879  1.00  0.00     0.000 C 
BRANCH   3   4
ATOM      4  C   UNL     1     -31.414 -20.437 -33.590  1.00  0.00     0.000 C 
BRANCH   4   5
ATOM      5  C   UNL     1     -30.122 -19.875 -32.983  1.00  0.00     0.001 C 
BRANCH   5   6
ATOM      6  C   UNL     1     -29.452 -20.906 -32.062  1.00  0.00     0.009 C 
BRANCH   6   7
ATOM      7  C   UNL     1     -29.929 -20.796 -30.597  1.00  0.00     0.032 C 
ATOM      8  C   UNL     1     -31.218 -19.974 -30.463  1.00  0.00     0.014 C 
BRANCH   7   9
ATOM      9  C   UNL     1     -30.141 -22.170 -30.022  1.00  0.00     0.044 C 
ATOM     10  O   UNL     1     -29.827 -22.418 -28.826  1.00  0.00    -0.550 OA
ATOM     11  O   UNL     1     -30.685 -23.176 -30.810  1.00  0.00    -0.550 OA
ENDBRANCH   7   9
ENDBRANCH   6   7
ENDBRANCH   5   6
ENDBRANCH   4   5
ENDBRANCH   3   4
ENDBRANCH   2   3
ENDBRANCH   1   2
BRANCH   1  12
ATOM     12  C   UNL     1     -33.449 -21.623 -36.824  1.00  0.00     0.000 C 
BRANCH  12  13
ATOM     13  C   UNL     1     -33.334 -23.100 -37.230  1.00  0.00    -0.000 C 
BRANCH  13  14
ATOM     14  C   UNL     1     -31.977 -23.382 -37.894  1.00  0.00    -0.000 C 
BRANCH  14  15
ATOM     15  C   UNL     1     -31.439 -24.790 -37.578  1.00  0.00    -0.000 C 
BRANCH  15  16
ATOM     16  C   UNL     1     -31.866 -25.892 -38.569  1.00  0.00    -0.000 C 
BRANCH  16  17
ATOM     17  C   UNL     1     -33.134 -26.669 -38.174  1.00  0.00    -0.000 C 
BRANCH  17  18
ATOM     18  C   UNL     1     -32.971 -28.189 -38.315  1.00  0.00    -0.003 C 
ATOM     19  C   UNL     1     -31.631 -28.541 -38.954  1.00  0.00     0.004 C 
ENDBRANCH  17  18
ENDBRANCH  16  17
ENDBRANCH  15  16
ENDBRANCH  14  15
ENDBRANCH  13  14
ENDBRANCH  12  13
ENDBRANCH   1  12
TORSDOF 14
ENDMDL
MODEL 2
REMARK VINA RESULT:    -3.513      3.099      8.051
REMARK INTER + INTRA:          -7.077
REMARK INTER:                  -5.432
REMARK INTRA:                  -1.646
REMARK UNBOUND:                -0.689
REMARK SMILES CCCCCCCCCCCCCC[C@@H](C)C(=O)[O-]
REMARK SMILES IDX 9 1 10 2 11 3 12 4 13 5 14 6 15 7 16 8 17 9 18 10 19 11 8 12
REMARK SMILES IDX 7 13 6 14 5 15 4 16 3 17 2 18 1 19
REMARK H PARENT
REMARK Flexibility Score: inf
ROOT
ATOM      1  C   UNL     1     -31.219 -22.326 -33.653  1.00  0.00     0.000 C 
ENDROOT
BRANCH   1   2
ATOM      2  C   UNL     1     -31.842 -22.931 -34.924  1.00  0.00     0.000 C 
BRANCH   2   3
ATOM      3  C   UNL     1     -33.017 -22.098 -35.460  1.00  0.00     0.000 C 
BRANCH   3   4
ATOM      4  C   UNL     1     -33.423 -22.497 -36.887  1.00  0.00     0.000 C 
BRANCH   4   5
ATOM      5  C   UNL     1     -32.187 -22.779 -37.751  1.00  0.00     0.001 C 
BRANCH   5   6
ATOM      6  C   UNL     1     -32.477 -23.878 -38.785  1.00  0.00     0.009 C 
BRANCH   6   7
ATOM      7  C   UNL     1     -31.507 -25.074 -38.673  1.00  0.00     0.032 C 
ATOM      8  C   UNL     1     -30.405 -24.837 -37.632  1.00  0.00     0.014 C 
BRANCH   7   9
ATOM      9  C   UNL     1     -32.271 -26.324 -38.330  1.00  0.00     0.044 C 
ATOM     10  O   UNL     1     -31.929 -27.436 -38.814  1.00  0.00    -0.550 OA
ATOM     11  O   UNL     1     -33.363 -26.257 -37.474  1.00  0.00    -0.550 OA
ENDBRANCH   7   9
ENDBRANCH   6   7
ENDBRANCH   5   6
ENDBRANCH   4   5
ENDBRANCH   3   4
ENDBRANCH   2   3
ENDBRANCH   1   2
BRANCH   1  12
ATOM     12  C   UNL     1     -31.594 -20.848 -33.459  1.00  0.00     0.000 C 
BRANCH  12  13
ATOM     13  C   UNL     1     -30.377 -19.915 -33.536  1.00  0.00    -0.000 C 
BRANCH  13  14
ATOM     14  C   UNL     1     -29.116 -20.613 -33.002  1.00  0.00    -0.000 C 
BRANCH  14  15
ATOM     15  C   UNL     1     -28.485 -19.875 -31.808  1.00  0.00    -0.000 C 
BRANCH  15  16
ATOM     16  C   UNL     1     -29.245 -20.018 -30.473  1.00  0.00    -0.000 C 
BRANCH  16  17
ATOM     17  C   UNL     1     -29.883 -21.397 -30.230  1.00  0.00    -0.000 C 
BRANCH  17  18
ATOM     18  C   UNL     1     -31.211 -21.314 -29.465  1.00  0.00    -0.003 C 
ATOM     19  C   UNL     1     -31.743 -19.884 -29.442  1.00  0.00     0.004 C 
ENDBRANCH  17  18
ENDBRANCH  16  17
ENDBRANCH  15  16
ENDBRANCH  14  15
ENDBRANCH  13  14
ENDBRANCH  12  13
ENDBRANCH   1  12
TORSDOF 14
ENDMDL
MODEL 3
REMARK VINA RESULT:    -3.471      3.329      7.559
REMARK INTER + INTRA:          -7.001
REMARK INTER:                  -5.351
REMARK INTRA:                  -1.650
REMARK UNBOUND:                -0.689
REMARK SMILES CCCCCCCCCCCCCC[C@@H](C)C(=O)[O-]
REMARK SMILES IDX 9 1 10 2 11 3 12 4 13 5 14 6 15 7 16 8 17 9 18 10 19 11 8 12
REMARK SMILES IDX 7 13 6 14 5 15 4 16 3 17 2 18 1 19
REMARK H PARENT
REMARK Flexibility Score: inf
ROOT
ATOM      1  C   UNL     1     -31.044 -21.691 -33.534  1.00  0.00     0.000 C 
ENDROOT
BRANCH   1   2
ATOM      2  C   UNL     1     -31.975 -20.468 -33.449  1.00  0.00     0.000 C 
BRANCH   2   3
ATOM      3  C   UNL     1     -32.622 -20.125 -34.800  1.00  0.00     0.000 C 
BRANCH   3   4
ATOM      4  C   UNL     1     -33.620 -21.196 -35.265  1.00  0.00     0.000 C 
BRANCH   4   5
ATOM      5  C   UNL     1     -34.101 -20.915 -36.694  1.00  0.00     0.001 C 
BRANCH   5   6
ATOM      6  C   UNL     1     -33.523 -21.941 -37.682  1.00  0.00     0.009 C 
BRANCH   6   7
ATOM      7  C   UNL     1     -32.549 -22.933 -37.009  1.00  0.00     0.032 C 
ATOM      8  C   UNL     1     -33.250 -24.217 -36.546  1.00  0.00     0.014 C 
BRANCH   7   9
ATOM      9  C   UNL     1     -31.432 -23.277 -37.956  1.00  0.00     0.044 C 
ATOM     10  O   UNL     1     -31.143 -22.507 -38.912  1.00  0.00    -0.550 OA
ATOM     11  O   UNL     1     -30.709 -24.451 -37.781  1.00  0.00    -0.550 OA
ENDBRANCH   7   9
ENDBRANCH   6   7
ENDBRANCH   5   6
ENDBRANCH   4   5
ENDBRANCH   3   4
ENDBRANCH   2   3
ENDBRANCH   1   2
BRANCH   1  12
ATOM     12  C   UNL     1     -29.560 -21.314 -33.405  1.00  0.00     0.000 C 
BRANCH  12  13
ATOM     13  C   UNL     1     -29.357 -19.902 -32.835  1.00  0.00    -0.000 C 
BRANCH  13  14
ATOM     14  C   UNL     1     -28.185 -19.875 -31.841  1.00  0.00    -0.000 C 
BRANCH  14  15
ATOM     15  C   UNL     1     -28.642 -19.974 -30.375  1.00  0.00    -0.000 C 
BRANCH  15  16
ATOM     16  C   UNL     1     -30.166 -19.875 -30.156  1.00  0.00    -0.000 C 
BRANCH  16  17
ATOM     17  C   UNL     1     -30.850 -21.186 -29.728  1.00  0.00    -0.000 C 
BRANCH  17  18
ATOM     18  C   UNL     1     -29.950 -22.415 -29.909  1.00  0.00    -0.003 C 
ATOM     19  C   UNL     1     -30.748 -23.612 -30.418  1.00  0.00     0.004 C 
ENDBRANCH  17  18
ENDBRANCH  16  17
ENDBRANCH  15  16
ENDBRANCH  14  15
ENDBRANCH  13  14
ENDBRANCH  12  13
ENDBRANCH   1  12
TORSDOF 14
ENDMDL
MODEL 4
REMARK VINA RESULT:    -3.275      3.260      8.290
REMARK INTER + INTRA:          -6.644
REMARK INTER:                  -5.786
REMARK INTRA:                  -0.858
REMARK UNBOUND:                -0.689
REMARK SMILES CCCCCCCCCCCCCC[C@@H](C)C(=O)[O-]
REMARK SMILES IDX 9 1 10 2 11 3 12 4 13 5 14 6 15 7 16 8 17 9 18 10 19 11 8 12
REMARK SMILES IDX 7 13 6 14 5 15 4 16 3 17 2 18 1 19
REMARK H PARENT
REMARK Flexibility Score: inf
ROOT
ATOM      1  C   UNL     1     -32.538 -22.503 -34.888  1.00  0.00     0.000 C 
ENDROOT
BRANCH   1   2
ATOM      2  C   UNL     1     -32.662 -23.647 -35.911  1.00  0.00     0.000 C 
BRANCH   2   3
ATOM      3  C   UNL     1     -32.693 -23.140 -37.362  1.00  0.00     0.000 C 
BRANCH   3   4
ATOM      4  C   UNL     1     -31.427 -23.518 -38.146  1.00  0.00     0.000 C 
BRANCH   4   5
ATOM      5  C   UNL     1     -31.643 -24.807 -38.950  1.00  0.00     0.001 C 
BRANCH   5   6
ATOM      6  C   UNL     1     -31.458 -26.047 -38.062  1.00  0.00     0.009 C 
BRANCH   6   7
ATOM      7  C   UNL     1     -31.853 -27.357 -38.778  1.00  0.00     0.032 C 
ATOM      8  C   UNL     1     -30.890 -28.510 -38.461  1.00  0.00     0.014 C 
BRANCH   7   9
ATOM      9  C   UNL     1     -33.255 -27.748 -38.398  1.00  0.00     0.044 C 
ATOM     10  O   UNL     1     -33.726 -28.864 -38.747  1.00  0.00    -0.550 OA
ATOM     11  O   UNL     1     -34.042 -26.875 -37.656  1.00  0.00    -0.550 OA
ENDBRANCH   7   9
ENDBRANCH   6   7
ENDBRANCH   5   6
ENDBRANCH   4   5
ENDBRANCH   3   4
ENDBRANCH   2   3
ENDBRANCH   1   2
BRANCH   1  12
ATOM     12  C   UNL     1     -33.206 -21.206 -35.369  1.00  0.00     0.000 C 
BRANCH  12  13
ATOM     13  C   UNL     1     -32.794 -19.985 -34.533  1.00  0.00    -0.000 C 
BRANCH  13  14
ATOM     14  C   UNL     1     -31.975 -20.411 -33.305  1.00  0.00    -0.000 C 
BRANCH  14  15
ATOM     15  C   UNL     1     -30.533 -19.875 -33.332  1.00  0.00    -0.000 C 
BRANCH  15  16
ATOM     16  C   UNL     1     -29.722 -20.111 -32.041  1.00  0.00    -0.000 C 
BRANCH  16  17
ATOM     17  C   UNL     1     -29.952 -21.474 -31.365  1.00  0.00    -0.000 C 
BRANCH  17  18
ATOM     18  C   UNL     1     -30.468 -21.347 -29.926  1.00  0.00    -0.003 C 
ATOM     19  C   UNL     1     -31.229 -20.040 -29.727  1.00  0.00     0.004 C 
ENDBRANCH  17  18
ENDBRANCH  16  17
ENDBRANCH  15  16
ENDBRANCH  14  15
ENDBRANCH  13  14
ENDBRANCH  12  13
ENDBRANCH   1  12
TORSDOF 14
ENDMDL
MODEL 5
REMARK VINA RESULT:    -2.894      0.952      1.788
REMARK INTER + INTRA:          -5.951
REMARK INTER:                  -6.699
REMARK INTRA:                   0.748
REMARK UNBOUND:                -0.689
REMARK SMILES CCCCCCCCCCCCCC[C@@H](C)C(=O)[O-]
REMARK SMILES IDX 9 1 10 2 11 3 12 4 13 5 14 6 15 7 16 8 17 9 18 10 19 11 8 12
REMARK SMILES IDX 7 13 6 14 5 15 4 16 3 17 2 18 1 19
REMARK H PARENT
REMARK Flexibility Score: inf
ROOT
ATOM      1  C   UNL     1     -31.780 -21.239 -33.938  1.00  0.00     0.000 C 
ENDROOT
BRANCH   1   2
ATOM      2  C   UNL     1     -30.489 -22.031 -33.661  1.00  0.00     0.000 C 
BRANCH   2   3
ATOM      3  C   UNL     1     -29.257 -21.122 -33.525  1.00  0.00     0.000 C 
BRANCH   3   4
ATOM      4  C   UNL     1     -29.435 -20.044 -32.446  1.00  0.00     0.000 C 
BRANCH   4   5
ATOM      5  C   UNL     1     -28.368 -20.178 -31.352  1.00  0.00     0.001 C 
BRANCH   5   6
ATOM      6  C   UNL     1     -28.957 -19.875 -29.966  1.00  0.00     0.009 C 
BRANCH   6   7
ATOM      7  C   UNL     1     -30.359 -20.492 -29.766  1.00  0.00     0.032 C 
ATOM      8  C   UNL     1     -31.391 -19.930 -30.753  1.00  0.00     0.014 C 
BRANCH   7   9
ATOM      9  C   UNL     1     -30.286 -21.988 -29.905  1.00  0.00     0.044 C 
ATOM     10  O   UNL     1     -30.891 -22.574 -30.844  1.00  0.00    -0.550 OA
ATOM     11  O   UNL     1     -29.547 -22.735 -28.996  1.00  0.00    -0.550 OA
ENDBRANCH   7   9
ENDBRANCH   6   7
ENDBRANCH   5   6
ENDBRANCH   4   5
ENDBRANCH   3   4
ENDBRANCH   2   3
ENDBRANCH   1   2
BRANCH   1  12
ATOM     12  C   UNL     1     -32.652 -21.892 -35.021  1.00  0.00     0.000 C 
BRANCH  12  13
ATOM     13  C   UNL     1     -32.376 -23.395 -35.174  1.00  0.00    -0.000 C 
BRANCH  13  14
ATOM     14  C   UNL     1     -32.548 -23.838 -36.636  1.00  0.00    -0.000 C 
BRANCH  14  15
ATOM     15  C   UNL     1     -31.218 -24.238 -37.299  1.00  0.00    -0.000 C 
BRANCH  15  16
ATOM     16  C   UNL     1     -31.291 -25.472 -38.222  1.00  0.00    -0.000 C 
BRANCH  16  17
ATOM     17  C   UNL     1     -32.595 -26.284 -38.124  1.00  0.00    -0.000 C 
BRANCH  17  18
ATOM     18  C   UNL     1     -32.482 -27.673 -38.766  1.00  0.00    -0.003 C 
ATOM     19  C   UNL     1     -33.787 -28.452 -38.626  1.00  0.00     0.004 C 
ENDBRANCH  17  18
ENDBRANCH  16  17
ENDBRANCH  15  16
ENDBRANCH  14  15
ENDBRANCH  13  14
ENDBRANCH  12  13
ENDBRANCH   1  12
TORSDOF 14
ENDMDL
MODEL 6
REMARK VINA RESULT:    -2.224      3.412      8.025
REMARK INTER + INTRA:          -4.733
REMARK INTER:                  -3.589
REMARK INTRA:                  -1.143
REMARK UNBOUND:                -0.689
REMARK SMILES CCCCCCCCCCCCCC[C@@H](C)C(=O)[O-]
REMARK SMILES IDX 9 1 10 2 11 3 12 4 13 5 14 6 15 7 16 8 17 9 18 10 19 11 8 12
REMARK SMILES IDX 7 13 6 14 5 15 4 16 3 17 2 18 1 19
REMARK H PARENT
REMARK Flexibility Score: inf
ROOT
ATOM      1  C   UNL     1     -29.214 -21.349 -33.399  1.00  0.00     0.000 C 
ENDROOT
BRANCH   1   2
ATOM      2  C   UNL     1     -30.689 -21.704 -33.659  1.00  0.00     0.000 C 
BRANCH   2   3
ATOM      3  C   UNL     1     -30.867 -22.634 -34.870  1.00  0.00     0.000 C 
BRANCH   3   4
ATOM      4  C   UNL     1     -32.340 -22.980 -35.137  1.00  0.00     0.000 C 
BRANCH   4   5
ATOM      5  C   UNL     1     -32.603 -23.141 -36.640  1.00  0.00     0.001 C 
BRANCH   5   6
ATOM      6  C   UNL     1     -32.996 -24.588 -36.978  1.00  0.00     0.009 C 
BRANCH   6   7
ATOM      7  C   UNL     1     -32.227 -25.146 -38.195  1.00  0.00     0.032 C 
ATOM      8  C   UNL     1     -30.771 -24.663 -38.238  1.00  0.00     0.014 C 
BRANCH   7   9
ATOM      9  C   UNL     1     -32.264 -26.650 -38.180  1.00  0.00     0.044 C 
ATOM     10  O   UNL     1     -31.222 -27.318 -38.423  1.00  0.00    -0.550 OA
ATOM     11  O   UNL     1     -33.452 -27.313 -37.896  1.00  0.00    -0.550 OA
ENDBRANCH   7   9
ENDBRANCH   6   7
ENDBRANCH   5   6
ENDBRANCH   4   5
ENDBRANCH   3   4
ENDBRANCH   2   3
ENDBRANCH   1   2
BRANCH   1  12
ATOM     12  C   UNL     1     -29.042 -19.946 -32.798  1.00  0.00     0.000 C 
BRANCH  12  13
ATOM     13  C   UNL     1     -27.931 -19.890 -31.738  1.00  0.00    -0.000 C 
BRANCH  13  14
ATOM     14  C   UNL     1     -28.521 -19.967 -30.321  1.00  0.00    -0.000 C 
BRANCH  14  15
ATOM     15  C   UNL     1     -30.058 -19.875 -30.307  1.00  0.00    -0.000 C 
BRANCH  15  16
ATOM     16  C   UNL     1     -30.791 -21.199 -30.005  1.00  0.00    -0.000 C 
BRANCH  16  17
ATOM     17  C   UNL     1     -29.942 -22.266 -29.292  1.00  0.00    -0.000 C 
BRANCH  17  18
ATOM     18  C   UNL     1     -30.011 -23.638 -29.977  1.00  0.00    -0.003 C 
ATOM     19  C   UNL     1     -30.994 -23.622 -31.144  1.00  0.00     0.004 C 
ENDBRANCH  17  18
ENDBRANCH  16  17
ENDBRANCH  15  16
ENDBRANCH  14  15
ENDBRANCH  13  14
ENDBRANCH  12  13
ENDBRANCH   1  12
TORSDOF 14
ENDMDL
MODEL 7
REMARK VINA RESULT:    -2.201      1.311      2.730
REMARK INTER + INTRA:          -4.692
REMARK INTER:                  -3.287
REMARK INTRA:                  -1.405
REMARK UNBOUND:                -0.689
REMARK SMILES CCCCCCCCCCCCCC[C@@H](C)C(=O)[O-]
REMARK SMILES IDX 9 1 10 2 11 3 12 4 13 5 14 6 15 7 16 8 17 9 18 10 19 11 8 12
REMARK SMILES IDX 7 13 6 14 5 15 4 16 3 17 2 18 1 19
REMARK H PARENT
REMARK Flexibility Score: inf
ROOT
ATOM      1  C   UNL     1     -32.017 -21.622 -33.502  1.00  0.00     0.000 C 
ENDROOT
BRANCH   1   2
ATOM      2  C   UNL     1     -30.584 -22.179 -33.564  1.00  0.00     0.000 C 
BRANCH   2   3
ATOM      3  C   UNL     1     -29.601 -21.204 -34.230  1.00  0.00     0.000 C 
BRANCH   3   4
ATOM      4  C   UNL     1     -28.548 -20.664 -33.250  1.00  0.00     0.000 C 
BRANCH   4   5
ATOM      5  C   UNL     1     -29.210 -19.875 -32.113  1.00  0.00     0.001 C 
BRANCH   5   6
ATOM      6  C   UNL     1     -28.721 -20.369 -30.742  1.00  0.00     0.009 C 
BRANCH   6   7
ATOM      7  C   UNL     1     -29.881 -20.726 -29.788  1.00  0.00     0.032 C 
ATOM      8  C   UNL     1     -31.222 -20.145 -30.255  1.00  0.00     0.014 C 
BRANCH   7   9
ATOM      9  C   UNL     1     -29.993 -22.220 -29.654  1.00  0.00     0.044 C 
ATOM     10  O   UNL     1     -30.470 -22.913 -30.593  1.00  0.00    -0.550 OA
ATOM     11  O   UNL     1     -29.569 -22.846 -28.488  1.00  0.00    -0.550 OA
ENDBRANCH   7   9
ENDBRANCH   6   7
ENDBRANCH   5   6
ENDBRANCH   4   5
ENDBRANCH   3   4
ENDBRANCH   2   3
ENDBRANCH   1   2
BRANCH   1  12
ATOM     12  C   UNL     1     -32.099 -20.152 -33.941  1.00  0.00     0.000 C 
BRANCH  12  13
ATOM     13  C   UNL     1     -33.290 -19.878 -34.871  1.00  0.00    -0.000 C 
BRANCH  13  14
ATOM     14  C   UNL     1     -33.844 -21.189 -35.453  1.00  0.00    -0.000 C 
BRANCH  14  15
ATOM     15  C   UNL     1     -33.167 -21.589 -36.776  1.00  0.00    -0.000 C 
BRANCH  15  16
ATOM     16  C   UNL     1     -33.532 -22.993 -37.301  1.00  0.00    -0.000 C 
BRANCH  16  17
ATOM     17  C   UNL     1     -32.648 -24.137 -36.774  1.00  0.00    -0.000 C 
BRANCH  17  18
ATOM     18  C   UNL     1     -31.375 -24.339 -37.607  1.00  0.00    -0.003 C 
ATOM     19  C   UNL     1     -31.193 -25.806 -37.986  1.00  0.00     0.004 C 
ENDBRANCH  17  18
ENDBRANCH  16  17
ENDBRANCH  15  16
ENDBRANCH  14  15
ENDBRANCH  13  14
ENDBRANCH  12  13
ENDBRANCH   1  12
TORSDOF 14
ENDMDL
MODEL 8
REMARK VINA RESULT:    -1.176      1.516      2.061
REMARK INTER + INTRA:          -2.827
REMARK INTER:                  -3.799
REMARK INTRA:                   0.972
REMARK UNBOUND:                -0.689
REMARK SMILES CCCCCCCCCCCCCC[C@@H](C)C(=O)[O-]
REMARK SMILES IDX 9 1 10 2 11 3 12 4 13 5 14 6 15 7 16 8 17 9 18 10 19 11 8 12
REMARK SMILES IDX 7 13 6 14 5 15 4 16 3 17 2 18 1 19
REMARK H PARENT
REMARK Flexibility Score: inf
ROOT
ATOM      1  C   UNL     1     -31.624 -22.864 -34.815  1.00  0.00     0.000 C 
ENDROOT
BRANCH   1   2
ATOM      2  C   UNL     1     -31.712 -21.383 -35.224  1.00  0.00     0.000 C 
BRANCH   2   3
ATOM      3  C   UNL     1     -32.451 -20.526 -34.184  1.00  0.00     0.000 C 
BRANCH   3   4
ATOM      4  C   UNL     1     -31.499 -19.885 -33.163  1.00  0.00     0.000 C 
BRANCH   4   5
ATOM      5  C   UNL     1     -31.566 -20.614 -31.815  1.00  0.00     0.001 C 
BRANCH   5   6
ATOM      6  C   UNL     1     -30.371 -21.565 -31.643  1.00  0.00     0.009 C 
BRANCH   6   7
ATOM      7  C   UNL     1     -29.019 -20.885 -31.949  1.00  0.00     0.032 C 
ATOM      8  C   UNL     1     -29.119 -19.878 -33.102  1.00  0.00     0.014 C 
BRANCH   7   9
ATOM      9  C   UNL     1     -28.500 -20.196 -30.717  1.00  0.00     0.044 C 
ATOM     10  O   UNL     1     -27.284 -19.875 -30.627  1.00  0.00    -0.550 OA
ATOM     11  O   UNL     1     -29.363 -19.910 -29.666  1.00  0.00    -0.550 OA
ENDBRANCH   7   9
ENDBRANCH   6   7
ENDBRANCH   5   6
ENDBRANCH   4   5
ENDBRANCH   3   4
ENDBRANCH   2   3
ENDBRANCH   1   2
BRANCH   1  12
ATOM     12  C   UNL     1     -32.793 -23.699 -35.360  1.00  0.00     0.000 C 
BRANCH  12  13
ATOM     13  C   UNL     1     -33.327 -23.163 -36.697  1.00  0.00    -0.000 C 
BRANCH  13  14
ATOM     14  C   UNL     1     -32.356 -23.484 -37.844  1.00  0.00    -0.000 C 
BRANCH  14  15
ATOM     15  C   UNL     1     -31.230 -24.445 -37.423  1.00  0.00    -0.000 C 
BRANCH  15  16
ATOM     16  C   UNL     1     -31.207 -25.795 -38.170  1.00  0.00    -0.000 C 
BRANCH  16  17
ATOM     17  C   UNL     1     -32.584 -26.313 -38.623  1.00  0.00    -0.000 C 
BRANCH  17  18
ATOM     18  C   UNL     1     -32.987 -27.622 -37.929  1.00  0.00    -0.003 C 
ATOM     19  C   UNL     1     -33.509 -28.641 -38.937  1.00  0.00     0.004 C 
ENDBRANCH  17  18
ENDBRANCH  16  17
ENDBRANCH  15  16
ENDBRANCH  14  15
ENDBRANCH  13  14
ENDBRANCH  12  13
ENDBRANCH   1  12
TORSDOF 14
ENDMDL
