MODEL 1
REMARK VINA RESULT:    -3.562      0.000      0.000
REMARK INTER + INTRA:          -4.348
REMARK INTER:                  -4.291
REMARK INTRA:                  -0.058
REMARK UNBOUND:                -0.058
REMARK SMILES CC[C@H](C)[C@@H]([NH3+])C(=O)[O-]
REMARK SMILES IDX 3 1 4 2 5 3 6 4 7 8 8 9 9 10 2 11 1 12
REMARK H PARENT 6 5 6 6 6 7
REMARK Flexibility Score: inf
ROOT
ATOM      1  C   UNL     1      -5.388   2.420 -21.960  1.00  0.00     0.050 C 
ATOM      2  C   UNL     1      -5.867   1.448 -20.866  1.00  0.00     0.014 C 
ENDROOT
BRANCH   1   3
ATOM      3  C   UNL     1      -4.180   3.301 -21.505  1.00  0.00     0.230 C 
BRANCH   3   4
ATOM      4  N   UNL     1      -3.605   2.869 -20.220  1.00  0.00    -0.350 N 
ATOM      5  H   UNL     1      -4.305   2.350 -19.644  1.00  0.00     0.345 HD
ATOM      6  H   UNL     1      -2.788   2.241 -20.398  1.00  0.00     0.345 HD
ATOM      7  H   UNL     1      -3.253   3.693 -19.684  1.00  0.00     0.345 HD
ENDBRANCH   3   4
BRANCH   3   8
ATOM      8  C   UNL     1      -3.116   3.357 -22.574  1.00  0.00     0.099 C 
ATOM      9  O   UNL     1      -3.298   4.062 -23.602  1.00  0.00    -0.544 OA
ATOM     10  O   UNL     1      -1.954   2.602 -22.461  1.00  0.00    -0.544 OA
ENDBRANCH   3   8
ENDBRANCH   1   3
BRANCH   1  11
ATOM     11  C   UNL     1      -6.597   3.238 -22.482  1.00  0.00     0.006 C 
ATOM     12  C   UNL     1      -7.668   2.380 -23.156  1.00  0.00     0.004 C 
ENDBRANCH   1  11
TORSDOF 4
ENDMDL
MODEL 2
REMARK VINA RESULT:    -3.555      0.100      1.081
REMARK INTER + INTRA:          -4.340
REMARK INTER:                  -4.281
REMARK INTRA:                  -0.059
REMARK UNBOUND:                -0.058
REMARK SMILES CC[C@H](C)[C@@H]([NH3+])C(=O)[O-]
REMARK SMILES IDX 3 1 4 2 5 3 6 4 7 8 8 9 9 10 2 11 1 12
REMARK H PARENT 6 5 6 6 6 7
REMARK Flexibility Score: inf
ROOT
ATOM      1  C   UNL     1      -5.421   2.442 -22.016  1.00  0.00     0.050 C 
ATOM      2  C   UNL     1      -5.900   1.458 -20.932  1.00  0.00     0.014 C 
ENDROOT
BRANCH   1   3
ATOM      3  C   UNL     1      -4.218   3.325 -21.547  1.00  0.00     0.230 C 
BRANCH   3   4
ATOM      4  N   UNL     1      -3.666   2.902 -20.250  1.00  0.00    -0.350 N 
ATOM      5  H   UNL     1      -4.424   2.688 -19.564  1.00  0.00     0.345 HD
ATOM      6  H   UNL     1      -3.084   2.043 -20.382  1.00  0.00     0.345 HD
ATOM      7  H   UNL     1      -3.042   3.644 -19.861  1.00  0.00     0.345 HD
ENDBRANCH   3   4
BRANCH   3   8
ATOM      8  C   UNL     1      -3.137   3.371 -22.599  1.00  0.00     0.099 C 
ATOM      9  O   UNL     1      -2.068   2.727 -22.428  1.00  0.00    -0.544 OA
ATOM     10  O   UNL     1      -3.287   4.155 -23.738  1.00  0.00    -0.544 OA
ENDBRANCH   3   8
ENDBRANCH   1   3
BRANCH   1  11
ATOM     11  C   UNL     1      -6.631   3.259 -22.535  1.00  0.00     0.006 C 
ATOM     12  C   UNL     1      -7.689   2.404 -23.234  1.00  0.00     0.004 C 
ENDBRANCH   1  11
TORSDOF 4
ENDMDL
MODEL 3
REMARK VINA RESULT:    -3.541      7.362      8.389
REMARK INTER + INTRA:          -4.323
REMARK INTER:                  -4.254
REMARK INTRA:                  -0.069
REMARK UNBOUND:                -0.058
REMARK SMILES CC[C@H](C)[C@@H]([NH3+])C(=O)[O-]
REMARK SMILES IDX 3 1 4 2 5 3 6 4 7 8 8 9 9 10 2 11 1 12
REMARK H PARENT 6 5 6 6 6 7
REMARK Flexibility Score: inf
ROOT
ATOM      1  C   UNL     1       2.438   0.189 -23.961  1.00  0.00     0.050 C 
ATOM      2  C   UNL     1       1.474   1.048 -24.800  1.00  0.00     0.014 C 
ENDROOT
BRANCH   1   3
ATOM      3  C   UNL     1       1.911  -0.076 -22.513  1.00  0.00     0.230 C 
BRANCH   3   4
ATOM      4  N   UNL     1       0.584   0.510 -22.267  1.00  0.00    -0.350 N 
ATOM      5  H   UNL     1      -0.090   0.262 -23.025  1.00  0.00     0.345 HD
ATOM      6  H   UNL     1       0.209   0.153 -21.358  1.00  0.00     0.345 HD
ATOM      7  H   UNL     1       0.654   1.549 -22.187  1.00  0.00     0.345 HD
ENDBRANCH   3   4
BRANCH   3   8
ATOM      8  C   UNL     1       1.910  -1.553 -22.199  1.00  0.00     0.099 C 
ATOM      9  O   UNL     1       2.622  -2.339 -22.878  1.00  0.00    -0.544 OA
ATOM     10  O   UNL     1       1.094  -2.065 -21.196  1.00  0.00    -0.544 OA
ENDBRANCH   3   8
ENDBRANCH   1   3
BRANCH   1  11
ATOM     11  C   UNL     1       3.854   0.817 -24.005  1.00  0.00     0.006 C 
ATOM     12  C   UNL     1       4.019   1.871 -25.102  1.00  0.00     0.004 C 
ENDBRANCH   1  11
TORSDOF 4
ENDMDL
MODEL 4
REMARK VINA RESULT:    -3.391      2.432      3.062
REMARK INTER + INTRA:          -4.143
REMARK INTER:                  -4.052
REMARK INTRA:                  -0.091
REMARK UNBOUND:                -0.058
REMARK SMILES CC[C@H](C)[C@@H]([NH3+])C(=O)[O-]
REMARK SMILES IDX 3 1 4 2 5 3 6 4 7 8 8 9 9 10 2 11 1 12
REMARK H PARENT 6 5 6 6 6 7
REMARK Flexibility Score: inf
ROOT
ATOM      1  C   UNL     1      -4.894   4.074 -22.670  1.00  0.00     0.050 C 
ATOM      2  C   UNL     1      -4.292   4.355 -24.060  1.00  0.00     0.014 C 
ENDROOT
BRANCH   1   3
ATOM      3  C   UNL     1      -4.254   2.830 -21.971  1.00  0.00     0.230 C 
BRANCH   3   4
ATOM      4  N   UNL     1      -2.867   3.065 -21.536  1.00  0.00    -0.350 N 
ATOM      5  H   UNL     1      -2.745   2.859 -20.519  1.00  0.00     0.345 HD
ATOM      6  H   UNL     1      -2.222   2.447 -22.081  1.00  0.00     0.345 HD
ATOM      7  H   UNL     1      -2.587   4.052 -21.729  1.00  0.00     0.345 HD
ENDBRANCH   3   4
BRANCH   3   8
ATOM      8  C   UNL     1      -5.103   2.361 -20.815  1.00  0.00     0.099 C 
ATOM      9  O   UNL     1      -5.072   2.983 -19.720  1.00  0.00    -0.544 OA
ATOM     10  O   UNL     1      -5.888   1.218 -20.928  1.00  0.00    -0.544 OA
ENDBRANCH   3   8
ENDBRANCH   1   3
BRANCH   1  11
ATOM     11  C   UNL     1      -6.437   3.999 -22.786  1.00  0.00     0.006 C 
ATOM     12  C   UNL     1      -7.155   5.181 -22.133  1.00  0.00     0.004 C 
ENDBRANCH   1  11
TORSDOF 4
ENDMDL
MODEL 5
REMARK VINA RESULT:    -3.329      2.722      3.790
REMARK INTER + INTRA:          -4.068
REMARK INTER:                  -3.995
REMARK INTRA:                  -0.072
REMARK UNBOUND:                -0.058
REMARK SMILES CC[C@H](C)[C@@H]([NH3+])C(=O)[O-]
REMARK SMILES IDX 3 1 4 2 5 3 6 4 7 8 8 9 9 10 2 11 1 12
REMARK H PARENT 6 5 6 6 6 7
REMARK Flexibility Score: inf
ROOT
ATOM      1  C   UNL     1      -5.126   2.791 -21.264  1.00  0.00     0.050 C 
ATOM      2  C   UNL     1      -3.668   2.637 -21.738  1.00  0.00     0.014 C 
ENDROOT
BRANCH   1   3
ATOM      3  C   UNL     1      -5.970   3.727 -22.189  1.00  0.00     0.230 C 
BRANCH   3   4
ATOM      4  N   UNL     1      -5.141   4.624 -23.010  1.00  0.00    -0.350 N 
ATOM      5  H   UNL     1      -4.689   5.365 -22.429  1.00  0.00     0.345 HD
ATOM      6  H   UNL     1      -4.392   4.070 -23.485  1.00  0.00     0.345 HD
ATOM      7  H   UNL     1      -5.718   5.070 -23.758  1.00  0.00     0.345 HD
ENDBRANCH   3   4
BRANCH   3   8
ATOM      8  C   UNL     1      -6.911   2.927 -23.056  1.00  0.00     0.099 C 
ATOM      9  O   UNL     1      -7.371   1.831 -22.637  1.00  0.00    -0.544 OA
ATOM     10  O   UNL     1      -7.243   3.362 -24.335  1.00  0.00    -0.544 OA
ENDBRANCH   3   8
ENDBRANCH   1   3
BRANCH   1  11
ATOM     11  C   UNL     1      -5.137   3.211 -19.773  1.00  0.00     0.006 C 
ATOM     12  C   UNL     1      -5.103   2.027 -18.806  1.00  0.00     0.004 C 
ENDBRANCH   1  11
TORSDOF 4
ENDMDL
MODEL 6
REMARK VINA RESULT:    -3.309      2.305      2.925
REMARK INTER + INTRA:          -4.044
REMARK INTER:                  -3.920
REMARK INTRA:                  -0.124
REMARK UNBOUND:                -0.058
REMARK SMILES CC[C@H](C)[C@@H]([NH3+])C(=O)[O-]
REMARK SMILES IDX 3 1 4 2 5 3 6 4 7 8 8 9 9 10 2 11 1 12
REMARK H PARENT 6 5 6 6 6 7
REMARK Flexibility Score: inf
ROOT
ATOM      1  C   UNL     1      -6.852   4.103 -22.369  1.00  0.00     0.050 C 
ATOM      2  C   UNL     1      -6.647   5.629 -22.368  1.00  0.00     0.014 C 
ENDROOT
BRANCH   1   3
ATOM      3  C   UNL     1      -5.517   3.311 -22.558  1.00  0.00     0.230 C 
BRANCH   3   4
ATOM      4  N   UNL     1      -4.390   4.169 -22.958  1.00  0.00    -0.350 N 
ATOM      5  H   UNL     1      -3.632   4.162 -22.240  1.00  0.00     0.345 HD
ATOM      6  H   UNL     1      -3.995   3.825 -23.863  1.00  0.00     0.345 HD
ATOM      7  H   UNL     1      -4.716   5.149 -23.113  1.00  0.00     0.345 HD
ENDBRANCH   3   4
BRANCH   3   8
ATOM      8  C   UNL     1      -5.175   2.522 -21.317  1.00  0.00     0.099 C 
ATOM      9  O   UNL     1      -5.774   1.441 -21.076  1.00  0.00    -0.544 OA
ATOM     10  O   UNL     1      -4.236   2.999 -20.409  1.00  0.00    -0.544 OA
ENDBRANCH   3   8
ENDBRANCH   1   3
BRANCH   1  11
ATOM     11  C   UNL     1      -7.948   3.735 -23.401  1.00  0.00     0.006 C 
ATOM     12  C   UNL     1      -8.116   2.228 -23.600  1.00  0.00     0.004 C 
ENDBRANCH   1  11
TORSDOF 4
ENDMDL
MODEL 7
REMARK VINA RESULT:    -3.265      2.985      4.208
REMARK INTER + INTRA:          -3.991
REMARK INTER:                  -3.841
REMARK INTRA:                  -0.150
REMARK UNBOUND:                -0.058
REMARK SMILES CC[C@H](C)[C@@H]([NH3+])C(=O)[O-]
REMARK SMILES IDX 3 1 4 2 5 3 6 4 7 8 8 9 9 10 2 11 1 12
REMARK H PARENT 6 5 6 6 6 7
REMARK Flexibility Score: inf
ROOT
ATOM      1  C   UNL     1      -2.616   4.028 -24.148  1.00  0.00     0.050 C 
ATOM      2  C   UNL     1      -4.094   4.214 -23.757  1.00  0.00     0.014 C 
ENDROOT
BRANCH   1   3
ATOM      3  C   UNL     1      -1.792   3.262 -23.062  1.00  0.00     0.230 C 
BRANCH   3   4
ATOM      4  N   UNL     1      -2.552   3.023 -21.825  1.00  0.00    -0.350 N 
ATOM      5  H   UNL     1      -2.022   2.414 -21.163  1.00  0.00     0.345 HD
ATOM      6  H   UNL     1      -2.748   3.936 -21.354  1.00  0.00     0.345 HD
ATOM      7  H   UNL     1      -3.474   2.582 -22.043  1.00  0.00     0.345 HD
ENDBRANCH   3   4
BRANCH   3   8
ATOM      8  C   UNL     1      -1.244   1.968 -23.612  1.00  0.00     0.099 C 
ATOM      9  O   UNL     1      -0.851   1.911 -24.807  1.00  0.00    -0.544 OA
ATOM     10  O   UNL     1      -1.209   0.820 -22.827  1.00  0.00    -0.544 OA
ENDBRANCH   3   8
ENDBRANCH   1   3
BRANCH   1  11
ATOM     11  C   UNL     1      -2.014   5.402 -24.536  1.00  0.00     0.006 C 
ATOM     12  C   UNL     1      -0.617   5.640 -23.959  1.00  0.00     0.004 C 
ENDBRANCH   1  11
TORSDOF 4
ENDMDL
MODEL 8
REMARK VINA RESULT:    -3.177      2.274      3.839
REMARK INTER + INTRA:          -3.885
REMARK INTER:                  -3.869
REMARK INTRA:                  -0.016
REMARK UNBOUND:                -0.058
REMARK SMILES CC[C@H](C)[C@@H]([NH3+])C(=O)[O-]
REMARK SMILES IDX 3 1 4 2 5 3 6 4 7 8 8 9 9 10 2 11 1 12
REMARK H PARENT 6 5 6 6 6 7
REMARK Flexibility Score: inf
ROOT
ATOM      1  C   UNL     1      -3.273   2.731 -22.785  1.00  0.00     0.050 C 
ATOM      2  C   UNL     1      -3.547   4.098 -23.438  1.00  0.00     0.014 C 
ENDROOT
BRANCH   1   3
ATOM      3  C   UNL     1      -4.160   2.471 -21.524  1.00  0.00     0.230 C 
BRANCH   3   4
ATOM      4  N   UNL     1      -3.533   2.932 -20.275  1.00  0.00    -0.350 N 
ATOM      5  H   UNL     1      -2.639   2.426 -20.087  1.00  0.00     0.345 HD
ATOM      6  H   UNL     1      -3.328   3.955 -20.345  1.00  0.00     0.345 HD
ATOM      7  H   UNL     1      -4.185   2.800 -19.470  1.00  0.00     0.345 HD
ENDBRANCH   3   4
BRANCH   3   8
ATOM      8  C   UNL     1      -5.531   3.080 -21.691  1.00  0.00     0.099 C 
ATOM      9  O   UNL     1      -5.840   4.115 -21.044  1.00  0.00    -0.544 OA
ATOM     10  O   UNL     1      -6.477   2.484 -22.517  1.00  0.00    -0.544 OA
ENDBRANCH   3   8
ENDBRANCH   1   3
BRANCH   1  11
ATOM     11  C   UNL     1      -1.753   2.587 -22.521  1.00  0.00     0.006 C 
ATOM     12  C   UNL     1      -1.154   1.300 -23.092  1.00  0.00     0.004 C 
ENDBRANCH   1  11
TORSDOF 4
ENDMDL
MODEL 9
REMARK VINA RESULT:    -3.166      2.282      3.434
REMARK INTER + INTRA:          -3.872
REMARK INTER:                  -3.738
REMARK INTRA:                  -0.134
REMARK UNBOUND:                -0.058
REMARK SMILES CC[C@H](C)[C@@H]([NH3+])C(=O)[O-]
REMARK SMILES IDX 3 1 4 2 5 3 6 4 7 8 8 9 9 10 2 11 1 12
REMARK H PARENT 6 5 6 6 6 7
REMARK Flexibility Score: inf
ROOT
ATOM      1  C   UNL     1      -3.350   3.851 -22.856  1.00  0.00     0.050 C 
ATOM      2  C   UNL     1      -1.889   3.389 -23.011  1.00  0.00     0.014 C 
ENDROOT
BRANCH   1   3
ATOM      3  C   UNL     1      -4.179   2.932 -21.901  1.00  0.00     0.230 C 
BRANCH   3   4
ATOM      4  N   UNL     1      -3.679   2.939 -20.517  1.00  0.00    -0.350 N 
ATOM      5  H   UNL     1      -2.818   3.524 -20.425  1.00  0.00     0.345 HD
ATOM      6  H   UNL     1      -4.414   3.326 -19.882  1.00  0.00     0.345 HD
ATOM      7  H   UNL     1      -3.475   1.966 -20.198  1.00  0.00     0.345 HD
ENDBRANCH   3   4
BRANCH   3   8
ATOM      8  C   UNL     1      -5.645   3.291 -21.941  1.00  0.00     0.099 C 
ATOM      9  O   UNL     1      -6.036   4.384 -21.452  1.00  0.00    -0.544 OA
ATOM     10  O   UNL     1      -6.579   2.407 -22.471  1.00  0.00    -0.544 OA
ENDBRANCH   3   8
ENDBRANCH   1   3
BRANCH   1  11
ATOM     11  C   UNL     1      -3.982   4.027 -24.260  1.00  0.00     0.006 C 
ATOM     12  C   UNL     1      -4.256   5.487 -24.626  1.00  0.00     0.004 C 
ENDBRANCH   1  11
TORSDOF 4
ENDMDL
