MODEL 1
REMARK VINA RESULT:    -1.325      0.000      0.000
REMARK INTER + INTRA:          -2.290
REMARK INTER:                  -1.674
REMARK INTRA:                  -0.616
REMARK UNBOUND:                -0.616
REMARK SMILES O=C(C=Cc1ccc(O)cc1)c1ccc(O)cc1O
REMARK SMILES IDX 4 1 3 2 5 3 6 4 7 5 8 6 11 7 10 8 9 9 2 11 1 12 12 13 18 14
REMARK SMILES IDX 13 15 17 16 14 17 15 18 19 19 16 21
REMARK H PARENT 9 10 19 20 16 22
REMARK Flexibility Score: inf
ROOT
ATOM      1  C   UNL     1      21.152   8.017  -5.060  1.00  0.00     0.012 C 
ATOM      2  C   UNL     1      20.487   6.906  -4.712  1.00  0.00     0.053 C 
ENDROOT
BRANCH   1   3
ATOM      3  C   UNL     1      20.845   8.814  -6.274  1.00  0.00    -0.025 A 
ATOM      4  C   UNL     1      21.688   8.828  -7.405  1.00  0.00     0.012 A 
ATOM      5  C   UNL     1      21.360   9.605  -8.520  1.00  0.00     0.047 A 
ATOM      6  C   UNL     1      20.199  10.384  -8.523  1.00  0.00     0.115 A 
ATOM      7  C   UNL     1      19.689   9.612  -6.281  1.00  0.00     0.012 A 
ATOM      8  C   UNL     1      19.365  10.387  -7.398  1.00  0.00     0.047 A 
BRANCH   6   9
ATOM      9  O   UNL     1      19.887  11.151  -9.642  1.00  0.00    -0.508 OA
ATOM     10  H   UNL     1      19.110  11.801  -9.638  1.00  0.00     0.293 HD
ENDBRANCH   6   9
ENDBRANCH   1   3
BRANCH   2  11
ATOM     11  C   UNL     1      20.818   6.142  -3.490  1.00  0.00     0.189 C 
ATOM     12  O   UNL     1      22.013   5.820  -3.246  1.00  0.00    -0.289 OA
BRANCH  11  13
ATOM     13  C   UNL     1      19.755   5.770  -2.529  1.00  0.00     0.064 A 
ATOM     14  C   UNL     1      19.770   6.220  -1.186  1.00  0.00     0.130 A 
ATOM     15  C   UNL     1      18.678   4.982  -2.973  1.00  0.00     0.020 A 
ATOM     16  C   UNL     1      18.704   5.902  -0.335  1.00  0.00     0.093 A 
ATOM     17  C   UNL     1      17.629   4.660  -2.110  1.00  0.00     0.047 A 
ATOM     18  C   UNL     1      17.635   5.124  -0.791  1.00  0.00     0.119 A 
BRANCH  14  19
ATOM     19  O   UNL     1      20.833   6.954  -0.657  1.00  0.00    -0.507 OA
ATOM     20  H   UNL     1      21.598   6.534  -0.146  1.00  0.00     0.293 HD
ENDBRANCH  14  19
BRANCH  18  21
ATOM     21  O   UNL     1      16.591   4.815   0.077  1.00  0.00    -0.508 OA
ATOM     22  H   UNL     1      16.424   3.865   0.387  1.00  0.00     0.293 HD
ENDBRANCH  18  21
ENDBRANCH  11  13
ENDBRANCH   2  11
TORSDOF 6
ENDMDL
MODEL 2
REMARK VINA RESULT:    -0.080      1.240      2.185
REMARK INTER + INTRA:          -0.717
REMARK INTER:                  -0.170
REMARK INTRA:                  -0.546
REMARK UNBOUND:                -0.616
REMARK SMILES O=C(C=Cc1ccc(O)cc1)c1ccc(O)cc1O
REMARK SMILES IDX 4 1 3 2 5 3 6 4 7 5 8 6 11 7 10 8 9 9 2 11 1 12 12 13 18 14
REMARK SMILES IDX 13 15 17 16 14 17 15 18 19 19 16 21
REMARK H PARENT 9 10 19 20 16 22
REMARK Flexibility Score: inf
ROOT
ATOM      1  C   UNL     1      20.879   8.125  -5.103  1.00  0.00     0.012 C 
ATOM      2  C   UNL     1      21.207   6.829  -5.195  1.00  0.00     0.053 C 
ENDROOT
BRANCH   1   3
ATOM      3  C   UNL     1      20.597   8.989  -6.276  1.00  0.00    -0.025 A 
ATOM      4  C   UNL     1      19.546   9.929  -6.291  1.00  0.00     0.012 A 
ATOM      5  C   UNL     1      19.314  10.712  -7.427  1.00  0.00     0.047 A 
ATOM      6  C   UNL     1      20.116  10.564  -8.562  1.00  0.00     0.115 A 
ATOM      7  C   UNL     1      21.387   8.838  -7.428  1.00  0.00     0.012 A 
ATOM      8  C   UNL     1      21.152   9.623  -8.561  1.00  0.00     0.047 A 
BRANCH   6   9
ATOM      9  O   UNL     1      19.872  11.352  -9.684  1.00  0.00    -0.508 OA
ATOM     10  H   UNL     1      18.977  11.803  -9.830  1.00  0.00     0.293 HD
ENDBRANCH   6   9
ENDBRANCH   1   3
BRANCH   2  11
ATOM     11  C   UNL     1      21.475   5.998  -4.001  1.00  0.00     0.189 C 
ATOM     12  O   UNL     1      22.389   5.129  -4.024  1.00  0.00    -0.289 OA
BRANCH  11  13
ATOM     13  C   UNL     1      20.692   6.197  -2.761  1.00  0.00     0.064 A 
ATOM     14  C   UNL     1      19.469   5.521  -2.531  1.00  0.00     0.130 A 
ATOM     15  C   UNL     1      21.197   7.051  -1.764  1.00  0.00     0.020 A 
ATOM     16  C   UNL     1      18.802   5.686  -1.311  1.00  0.00     0.093 A 
ATOM     17  C   UNL     1      20.515   7.218  -0.557  1.00  0.00     0.047 A 
ATOM     18  C   UNL     1      19.318   6.532  -0.325  1.00  0.00     0.119 A 
BRANCH  14  19
ATOM     19  O   UNL     1      18.875   4.705  -3.496  1.00  0.00    -0.507 OA
ATOM     20  H   UNL     1      18.871   3.695  -3.443  1.00  0.00     0.293 HD
ENDBRANCH  14  19
BRANCH  18  21
ATOM     21  O   UNL     1      18.632   6.685   0.878  1.00  0.00    -0.508 OA
ATOM     22  H   UNL     1      18.447   5.895   1.485  1.00  0.00     0.293 HD
ENDBRANCH  18  21
ENDBRANCH  11  13
ENDBRANCH   2  11
TORSDOF 6
ENDMDL
MODEL 3
REMARK VINA RESULT:     0.047      1.365      7.617
REMARK INTER + INTRA:          -0.556
REMARK INTER:                  -0.063
REMARK INTRA:                  -0.494
REMARK UNBOUND:                -0.616
REMARK SMILES O=C(C=Cc1ccc(O)cc1)c1ccc(O)cc1O
REMARK SMILES IDX 4 1 3 2 5 3 6 4 7 5 8 6 11 7 10 8 9 9 2 11 1 12 12 13 18 14
REMARK SMILES IDX 13 15 17 16 14 17 15 18 19 19 16 21
REMARK H PARENT 9 10 19 20 16 22
REMARK Flexibility Score: inf
ROOT
ATOM      1  C   UNL     1      20.908   6.502  -3.908  1.00  0.00     0.012 C 
ATOM      2  C   UNL     1      20.498   7.393  -4.822  1.00  0.00     0.053 C 
ENDROOT
BRANCH   1   3
ATOM      3  C   UNL     1      20.061   6.022  -2.787  1.00  0.00    -0.025 A 
ATOM      4  C   UNL     1      20.408   6.222  -1.435  1.00  0.00     0.012 A 
ATOM      5  C   UNL     1      19.582   5.740  -0.415  1.00  0.00     0.047 A 
ATOM      6  C   UNL     1      18.408   5.047  -0.725  1.00  0.00     0.115 A 
ATOM      7  C   UNL     1      18.888   5.311  -3.087  1.00  0.00     0.012 A 
ATOM      8  C   UNL     1      18.064   4.831  -2.065  1.00  0.00     0.047 A 
BRANCH   6   9
ATOM      9  O   UNL     1      17.595   4.575   0.303  1.00  0.00    -0.508 OA
ATOM     10  H   UNL     1      16.848   5.140   0.689  1.00  0.00     0.293 HD
ENDBRANCH   6   9
ENDBRANCH   1   3
BRANCH   2  11
ATOM     11  C   UNL     1      21.369   7.842  -5.929  1.00  0.00     0.189 C 
ATOM     12  O   UNL     1      22.509   7.326  -6.089  1.00  0.00    -0.289 OA
BRANCH  11  13
ATOM     13  C   UNL     1      20.902   8.881  -6.874  1.00  0.00     0.064 A 
ATOM     14  C   UNL     1      21.705   9.326  -7.954  1.00  0.00     0.130 A 
ATOM     15  C   UNL     1      19.609   9.412  -6.721  1.00  0.00     0.020 A 
ATOM     16  C   UNL     1      21.190  10.257  -8.864  1.00  0.00     0.093 A 
ATOM     17  C   UNL     1      19.114  10.351  -7.628  1.00  0.00     0.047 A 
ATOM     18  C   UNL     1      19.901  10.772  -8.705  1.00  0.00     0.119 A 
BRANCH  14  19
ATOM     19  O   UNL     1      23.019   8.890  -8.136  1.00  0.00    -0.507 OA
ATOM     20  H   UNL     1      23.788   9.185  -7.549  1.00  0.00     0.293 HD
ENDBRANCH  14  19
BRANCH  18  21
ATOM     21  O   UNL     1      19.415  11.703  -9.620  1.00  0.00    -0.508 OA
ATOM     22  H   UNL     1      19.107  12.622  -9.326  1.00  0.00     0.293 HD
ENDBRANCH  18  21
ENDBRANCH  11  13
ENDBRANCH   2  11
TORSDOF 6
ENDMDL
MODEL 4
REMARK VINA RESULT:     0.417      1.956      7.864
REMARK INTER + INTRA:          -0.089
REMARK INTER:                   0.517
REMARK INTRA:                  -0.606
REMARK UNBOUND:                -0.616
REMARK SMILES O=C(C=Cc1ccc(O)cc1)c1ccc(O)cc1O
REMARK SMILES IDX 4 1 3 2 5 3 6 4 7 5 8 6 11 7 10 8 9 9 2 11 1 12 12 13 18 14
REMARK SMILES IDX 13 15 17 16 14 17 15 18 19 19 16 21
REMARK H PARENT 9 10 19 20 16 22
REMARK Flexibility Score: inf
ROOT
ATOM      1  C   UNL     1      21.326   7.812  -5.332  1.00  0.00     0.012 C 
ATOM      2  C   UNL     1      20.895   8.938  -5.919  1.00  0.00     0.053 C 
ENDROOT
BRANCH   1   3
ATOM      3  C   UNL     1      21.028   7.452  -3.923  1.00  0.00    -0.025 A 
ATOM      4  C   UNL     1      21.007   8.407  -2.885  1.00  0.00     0.012 A 
ATOM      5  C   UNL     1      20.732   8.015  -1.571  1.00  0.00     0.047 A 
ATOM      6  C   UNL     1      20.486   6.672  -1.271  1.00  0.00     0.115 A 
ATOM      7  C   UNL     1      20.796   6.103  -3.608  1.00  0.00     0.012 A 
ATOM      8  C   UNL     1      20.521   5.716  -2.293  1.00  0.00     0.047 A 
BRANCH   6   9
ATOM      9  O   UNL     1      20.213   6.298   0.042  1.00  0.00    -0.508 OA
ATOM     10  H   UNL     1      20.750   5.577   0.510  1.00  0.00     0.293 HD
ENDBRANCH   6   9
ENDBRANCH   1   3
BRANCH   2  11
ATOM     11  C   UNL     1      21.206   9.259  -7.329  1.00  0.00     0.189 C 
ATOM     12  O   UNL     1      22.248   8.796  -7.870  1.00  0.00    -0.289 OA
BRANCH  11  13
ATOM     13  C   UNL     1      20.287  10.102  -8.125  1.00  0.00     0.064 A 
ATOM     14  C   UNL     1      20.741  10.873  -9.224  1.00  0.00     0.130 A 
ATOM     15  C   UNL     1      18.917  10.109  -7.807  1.00  0.00     0.020 A 
ATOM     16  C   UNL     1      19.821  11.598  -9.991  1.00  0.00     0.093 A 
ATOM     17  C   UNL     1      18.013  10.848  -8.571  1.00  0.00     0.047 A 
ATOM     18  C   UNL     1      18.460  11.590  -9.669  1.00  0.00     0.119 A 
BRANCH  14  19
ATOM     19  O   UNL     1      22.093  10.965  -9.563  1.00  0.00    -0.507 OA
ATOM     20  H   UNL     1      22.744  10.198  -9.461  1.00  0.00     0.293 HD
ENDBRANCH  14  19
BRANCH  18  21
ATOM     21  O   UNL     1      17.566  12.325 -10.443  1.00  0.00    -0.508 OA
ATOM     22  H   UNL     1      17.531  12.223 -11.450  1.00  0.00     0.293 HD
ENDBRANCH  18  21
ENDBRANCH  11  13
ENDBRANCH   2  11
TORSDOF 6
ENDMDL
MODEL 5
REMARK VINA RESULT:     0.785      4.389      7.939
REMARK INTER + INTRA:           0.375
REMARK INTER:                   0.915
REMARK INTRA:                  -0.539
REMARK UNBOUND:                -0.616
REMARK SMILES O=C(C=Cc1ccc(O)cc1)c1ccc(O)cc1O
REMARK SMILES IDX 4 1 3 2 5 3 6 4 7 5 8 6 11 7 10 8 9 9 2 11 1 12 12 13 18 14
REMARK SMILES IDX 13 15 17 16 14 17 15 18 19 19 16 21
REMARK H PARENT 9 10 19 20 16 22
REMARK Flexibility Score: inf
ROOT
ATOM      1  C   UNL     1      19.518  13.799 -10.249  1.00  0.00     0.012 C 
ATOM      2  C   UNL     1      19.409  12.490  -9.980  1.00  0.00     0.053 C 
ENDROOT
BRANCH   1   3
ATOM      3  C   UNL     1      18.355  14.692 -10.479  1.00  0.00    -0.025 A 
ATOM      4  C   UNL     1      18.425  16.089 -10.299  1.00  0.00     0.012 A 
ATOM      5  C   UNL     1      17.297  16.887 -10.519  1.00  0.00     0.047 A 
ATOM      6  C   UNL     1      16.087  16.307 -10.909  1.00  0.00     0.115 A 
ATOM      7  C   UNL     1      17.130  14.118 -10.857  1.00  0.00     0.012 A 
ATOM      8  C   UNL     1      16.005  14.919 -11.076  1.00  0.00     0.047 A 
BRANCH   6   9
ATOM      9  O   UNL     1      14.974  17.115 -11.125  1.00  0.00    -0.508 OA
ATOM     10  H   UNL     1      14.176  16.787 -11.656  1.00  0.00     0.293 HD
ENDBRANCH   6   9
ENDBRANCH   1   3
BRANCH   2  11
ATOM     11  C   UNL     1      20.592  11.633  -9.749  1.00  0.00     0.189 C 
ATOM     12  O   UNL     1      21.637  11.796 -10.436  1.00  0.00    -0.289 OA
BRANCH  11  13
ATOM     13  C   UNL     1      20.570  10.596  -8.694  1.00  0.00     0.064 A 
ATOM     14  C   UNL     1      21.638   9.681  -8.521  1.00  0.00     0.130 A 
ATOM     15  C   UNL     1      19.476  10.542  -7.812  1.00  0.00     0.020 A 
ATOM     16  C   UNL     1      21.604   8.766  -7.462  1.00  0.00     0.093 A 
ATOM     17  C   UNL     1      19.448   9.614  -6.769  1.00  0.00     0.047 A 
ATOM     18  C   UNL     1      20.514   8.727  -6.587  1.00  0.00     0.119 A 
BRANCH  14  19
ATOM     19  O   UNL     1      22.728   9.634  -9.393  1.00  0.00    -0.507 OA
ATOM     20  H   UNL     1      23.171  10.460  -9.772  1.00  0.00     0.293 HD
ENDBRANCH  14  19
BRANCH  18  21
ATOM     21  O   UNL     1      20.500   7.802  -5.546  1.00  0.00    -0.508 OA
ATOM     22  H   UNL     1      19.690   7.690  -4.949  1.00  0.00     0.293 HD
ENDBRANCH  18  21
ENDBRANCH  11  13
ENDBRANCH   2  11
TORSDOF 6
ENDMDL
MODEL 6
REMARK VINA RESULT:     1.083      2.210      7.947
REMARK INTER + INTRA:           0.752
REMARK INTER:                   0.806
REMARK INTRA:                  -0.054
REMARK UNBOUND:                -0.616
REMARK SMILES O=C(C=Cc1ccc(O)cc1)c1ccc(O)cc1O
REMARK SMILES IDX 4 1 3 2 5 3 6 4 7 5 8 6 11 7 10 8 9 9 2 11 1 12 12 13 18 14
REMARK SMILES IDX 13 15 17 16 14 17 15 18 19 19 16 21
REMARK H PARENT 9 10 19 20 16 22
REMARK Flexibility Score: inf
ROOT
ATOM      1  C   UNL     1      21.441   8.031  -6.104  1.00  0.00     0.012 C 
ATOM      2  C   UNL     1      20.898   9.125  -6.658  1.00  0.00     0.053 C 
ENDROOT
BRANCH   1   3
ATOM      3  C   UNL     1      21.239   7.640  -4.686  1.00  0.00    -0.025 A 
ATOM      4  C   UNL     1      21.169   6.293  -4.274  1.00  0.00     0.012 A 
ATOM      5  C   UNL     1      20.967   5.976  -2.927  1.00  0.00     0.047 A 
ATOM      6  C   UNL     1      20.822   6.991  -1.976  1.00  0.00     0.115 A 
ATOM      7  C   UNL     1      21.077   8.652  -3.725  1.00  0.00     0.012 A 
ATOM      8  C   UNL     1      20.875   8.331  -2.379  1.00  0.00     0.047 A 
BRANCH   6   9
ATOM      9  O   UNL     1      20.622   6.658  -0.639  1.00  0.00    -0.508 OA
ATOM     10  H   UNL     1      19.831   7.016  -0.117  1.00  0.00     0.293 HD
ENDBRANCH   6   9
ENDBRANCH   1   3
BRANCH   2  11
ATOM     11  C   UNL     1      21.116   9.478  -8.077  1.00  0.00     0.189 C 
ATOM     12  O   UNL     1      22.037   8.921  -8.735  1.00  0.00    -0.289 OA
BRANCH  11  13
ATOM     13  C   UNL     1      20.242  10.468  -8.745  1.00  0.00     0.064 A 
ATOM     14  C   UNL     1      18.846  10.515  -8.505  1.00  0.00     0.130 A 
ATOM     15  C   UNL     1      20.818  11.414  -9.611  1.00  0.00     0.020 A 
ATOM     16  C   UNL     1      18.073  11.517  -9.104  1.00  0.00     0.093 A 
ATOM     17  C   UNL     1      20.032  12.399 -10.213  1.00  0.00     0.047 A 
ATOM     18  C   UNL     1      18.658  12.457  -9.957  1.00  0.00     0.119 A 
BRANCH  14  19
ATOM     19  O   UNL     1      18.194   9.574  -7.706  1.00  0.00    -0.507 OA
ATOM     20  H   UNL     1      18.260   8.576  -7.858  1.00  0.00     0.293 HD
ENDBRANCH  14  19
BRANCH  18  21
ATOM     21  O   UNL     1      17.865  13.439 -10.546  1.00  0.00    -0.508 OA
ATOM     22  H   UNL     1      18.236  14.355 -10.768  1.00  0.00     0.293 HD
ENDBRANCH  18  21
ENDBRANCH  11  13
ENDBRANCH   2  11
TORSDOF 6
ENDMDL
