MODEL 1
REMARK VINA RESULT:    -3.589      0.000      0.000
REMARK INTER + INTRA:          -4.248
REMARK INTER:                  -4.219
REMARK INTRA:                  -0.029
REMARK UNBOUND:                -0.029
REMARK SMILES CCCCC(=O)[O-]
REMARK SMILES IDX 4 1 5 2 6 3 7 4 3 5 2 6 1 7
REMARK H PARENT
REMARK Flexibility Score: inf
ROOT
ATOM      1  C   UNL     1      14.629  33.491  13.432  1.00  0.00     0.053 C 
ENDROOT
BRANCH   1   2
ATOM      2  C   UNL     1      13.796  34.719  13.614  1.00  0.00     0.041 C 
ATOM      3  O   UNL     1      12.936  34.773  14.533  1.00  0.00    -0.550 OA
ATOM      4  O   UNL     1      14.001  35.826  12.799  1.00  0.00    -0.550 OA
ENDBRANCH   1   2
BRANCH   1   5
ATOM      5  C   UNL     1      13.875  32.450  12.596  1.00  0.00     0.006 C 
BRANCH   5   6
ATOM      6  C   UNL     1      14.687  31.163  12.382  1.00  0.00    -0.003 C 
ATOM      7  C   UNL     1      16.118  31.274  12.904  1.00  0.00     0.004 C 
ENDBRANCH   5   6
ENDBRANCH   1   5
TORSDOF 3
ENDMDL
MODEL 2
REMARK VINA RESULT:    -3.570     15.056     15.827
REMARK INTER + INTRA:          -4.226
REMARK INTER:                  -4.102
REMARK INTRA:                  -0.124
REMARK UNBOUND:                -0.029
REMARK SMILES CCCCC(=O)[O-]
REMARK SMILES IDX 4 1 5 2 6 3 7 4 3 5 2 6 1 7
REMARK H PARENT
REMARK Flexibility Score: inf
ROOT
ATOM      1  C   UNL     1       4.191  44.955  12.095  1.00  0.00     0.053 C 
ENDROOT
BRANCH   1   2
ATOM      2  C   UNL     1       4.002  46.019  11.060  1.00  0.00     0.041 C 
ATOM      3  O   UNL     1       5.001  46.597  10.555  1.00  0.00    -0.550 OA
ATOM      4  O   UNL     1       2.725  46.338  10.617  1.00  0.00    -0.550 OA
ENDBRANCH   1   2
BRANCH   1   5
ATOM      5  C   UNL     1       3.500  43.656  11.660  1.00  0.00     0.006 C 
BRANCH   5   6
ATOM      6  C   UNL     1       4.009  43.140  10.306  1.00  0.00    -0.003 C 
ATOM      7  C   UNL     1       2.885  42.938   9.290  1.00  0.00     0.004 C 
ENDBRANCH   5   6
ENDBRANCH   1   5
TORSDOF 3
ENDMDL
MODEL 3
REMARK VINA RESULT:    -3.540     15.178     15.927
REMARK INTER + INTRA:          -4.190
REMARK INTER:                  -4.056
REMARK INTRA:                  -0.134
REMARK UNBOUND:                -0.029
REMARK SMILES CCCCC(=O)[O-]
REMARK SMILES IDX 4 1 5 2 6 3 7 4 3 5 2 6 1 7
REMARK H PARENT
REMARK Flexibility Score: inf
ROOT
ATOM      1  C   UNL     1       4.208  45.130  11.930  1.00  0.00     0.053 C 
ENDROOT
BRANCH   1   2
ATOM      2  C   UNL     1       3.893  46.159  10.891  1.00  0.00     0.041 C 
ATOM      3  O   UNL     1       2.698  46.477  10.655  1.00  0.00    -0.550 OA
ATOM      4  O   UNL     1       4.923  46.804  10.218  1.00  0.00    -0.550 OA
ENDBRANCH   1   2
BRANCH   1   5
ATOM      5  C   UNL     1       3.509  43.805  11.600  1.00  0.00     0.006 C 
BRANCH   5   6
ATOM      6  C   UNL     1       3.988  43.198  10.272  1.00  0.00    -0.003 C 
ATOM      7  C   UNL     1       2.843  42.944   9.292  1.00  0.00     0.004 C 
ENDBRANCH   5   6
ENDBRANCH   1   5
TORSDOF 3
ENDMDL
MODEL 4
REMARK VINA RESULT:    -3.527      2.807      3.963
REMARK INTER + INTRA:          -4.175
REMARK INTER:                  -4.159
REMARK INTRA:                  -0.016
REMARK UNBOUND:                -0.029
REMARK SMILES CCCCC(=O)[O-]
REMARK SMILES IDX 4 1 5 2 6 3 7 4 3 5 2 6 1 7
REMARK H PARENT
REMARK Flexibility Score: inf
ROOT
ATOM      1  C   UNL     1      15.384  33.052  13.652  1.00  0.00     0.053 C 
ENDROOT
BRANCH   1   2
ATOM      2  C   UNL     1      15.666  31.603  13.411  1.00  0.00     0.041 C 
ATOM      3  O   UNL     1      16.186  30.898  14.317  1.00  0.00    -0.550 OA
ATOM      4  O   UNL     1      15.310  31.017  12.203  1.00  0.00    -0.550 OA
ENDBRANCH   1   2
BRANCH   1   5
ATOM      5  C   UNL     1      13.948  33.395  13.236  1.00  0.00     0.006 C 
BRANCH   5   6
ATOM      6  C   UNL     1      13.442  34.697  13.876  1.00  0.00    -0.003 C 
ATOM      7  C   UNL     1      13.696  35.923  13.000  1.00  0.00     0.004 C 
ENDBRANCH   5   6
ENDBRANCH   1   5
TORSDOF 3
ENDMDL
MODEL 5
REMARK VINA RESULT:    -3.508     15.858     16.672
REMARK INTER + INTRA:          -4.153
REMARK INTER:                  -4.117
REMARK INTRA:                  -0.036
REMARK UNBOUND:                -0.029
REMARK SMILES CCCCC(=O)[O-]
REMARK SMILES IDX 4 1 5 2 6 3 7 4 3 5 2 6 1 7
REMARK H PARENT
REMARK Flexibility Score: inf
ROOT
ATOM      1  C   UNL     1       4.175  45.853   9.676  1.00  0.00     0.053 C 
ENDROOT
BRANCH   1   2
ATOM      2  C   UNL     1       4.845  47.143   9.321  1.00  0.00     0.041 C 
ATOM      3  O   UNL     1       5.962  47.436   9.824  1.00  0.00    -0.550 OA
ATOM      4  O   UNL     1       4.260  47.999   8.396  1.00  0.00    -0.550 OA
ENDBRANCH   1   2
BRANCH   1   5
ATOM      5  C   UNL     1       3.542  45.944  11.070  1.00  0.00     0.006 C 
BRANCH   5   6
ATOM      6  C   UNL     1       3.994  44.808  11.999  1.00  0.00    -0.003 C 
ATOM      7  C   UNL     1       2.903  43.763  12.229  1.00  0.00     0.004 C 
ENDBRANCH   5   6
ENDBRANCH   1   5
TORSDOF 3
ENDMDL
MODEL 6
REMARK VINA RESULT:    -3.501     15.627     16.368
REMARK INTER + INTRA:          -4.144
REMARK INTER:                  -4.127
REMARK INTRA:                  -0.017
REMARK UNBOUND:                -0.029
REMARK SMILES CCCCC(=O)[O-]
REMARK SMILES IDX 4 1 5 2 6 3 7 4 3 5 2 6 1 7
REMARK H PARENT
REMARK Flexibility Score: inf
ROOT
ATOM      1  C   UNL     1       4.050  46.186   9.671  1.00  0.00     0.053 C 
ENDROOT
BRANCH   1   2
ATOM      2  C   UNL     1       4.024  44.832  10.307  1.00  0.00     0.041 C 
ATOM      3  O   UNL     1       3.863  44.719  11.551  1.00  0.00    -0.550 OA
ATOM      4  O   UNL     1       4.127  43.692   9.520  1.00  0.00    -0.550 OA
ENDBRANCH   1   2
BRANCH   1   5
ATOM      5  C   UNL     1       5.204  47.022  10.238  1.00  0.00     0.006 C 
BRANCH   5   6
ATOM      6  C   UNL     1       6.025  47.717   9.140  1.00  0.00    -0.003 C 
ATOM      7  C   UNL     1       7.457  48.023   9.577  1.00  0.00     0.004 C 
ENDBRANCH   5   6
ENDBRANCH   1   5
TORSDOF 3
ENDMDL
MODEL 7
REMARK VINA RESULT:    -3.482     15.629     16.766
REMARK INTER + INTRA:          -4.122
REMARK INTER:                  -4.107
REMARK INTRA:                  -0.015
REMARK UNBOUND:                -0.029
REMARK SMILES CCCCC(=O)[O-]
REMARK SMILES IDX 4 1 5 2 6 3 7 4 3 5 2 6 1 7
REMARK H PARENT
REMARK Flexibility Score: inf
ROOT
ATOM      1  C   UNL     1       4.450  46.081   9.563  1.00  0.00     0.053 C 
ENDROOT
BRANCH   1   2
ATOM      2  C   UNL     1       5.114  47.352   9.138  1.00  0.00     0.041 C 
ATOM      3  O   UNL     1       4.495  48.182   8.421  1.00  0.00    -0.550 OA
ATOM      4  O   UNL     1       6.400  47.644   9.574  1.00  0.00    -0.550 OA
ENDBRANCH   1   2
BRANCH   1   5
ATOM      5  C   UNL     1       3.884  46.221  10.982  1.00  0.00     0.006 C 
BRANCH   5   6
ATOM      6  C   UNL     1       3.030  45.014  11.399  1.00  0.00    -0.003 C 
ATOM      7  C   UNL     1       3.732  44.116  12.416  1.00  0.00     0.004 C 
ENDBRANCH   5   6
ENDBRANCH   1   5
TORSDOF 3
ENDMDL
MODEL 8
REMARK VINA RESULT:    -3.448     15.023     16.098
REMARK INTER + INTRA:          -4.082
REMARK INTER:                  -4.009
REMARK INTRA:                  -0.072
REMARK UNBOUND:                -0.029
REMARK SMILES CCCCC(=O)[O-]
REMARK SMILES IDX 4 1 5 2 6 3 7 4 3 5 2 6 1 7
REMARK H PARENT
REMARK Flexibility Score: inf
ROOT
ATOM      1  C   UNL     1       4.075  45.005  11.754  1.00  0.00     0.053 C 
ENDROOT
BRANCH   1   2
ATOM      2  C   UNL     1       3.455  43.756  11.212  1.00  0.00     0.041 C 
ATOM      3  O   UNL     1       2.220  43.551  11.347  1.00  0.00    -0.550 OA
ATOM      4  O   UNL     1       4.233  42.840  10.516  1.00  0.00    -0.550 OA
ENDBRANCH   1   2
BRANCH   1   5
ATOM      5  C   UNL     1       3.674  46.216  10.901  1.00  0.00     0.006 C 
BRANCH   5   6
ATOM      6  C   UNL     1       4.393  46.246   9.544  1.00  0.00    -0.003 C 
ATOM      7  C   UNL     1       5.467  47.331   9.469  1.00  0.00     0.004 C 
ENDBRANCH   5   6
ENDBRANCH   1   5
TORSDOF 3
ENDMDL
MODEL 9
REMARK VINA RESULT:    -3.242     15.701     16.727
REMARK INTER + INTRA:          -3.840
REMARK INTER:                  -3.777
REMARK INTRA:                  -0.062
REMARK UNBOUND:                -0.029
REMARK SMILES CCCCC(=O)[O-]
REMARK SMILES IDX 4 1 5 2 6 3 7 4 3 5 2 6 1 7
REMARK H PARENT
REMARK Flexibility Score: inf
ROOT
ATOM      1  C   UNL     1       1.449  44.609  10.973  1.00  0.00     0.053 C 
ENDROOT
BRANCH   1   2
ATOM      2  C   UNL     1       1.440  44.363   9.498  1.00  0.00     0.041 C 
ATOM      3  O   UNL     1       2.116  43.420   9.008  1.00  0.00    -0.550 OA
ATOM      4  O   UNL     1       0.647  45.145   8.668  1.00  0.00    -0.550 OA
ENDBRANCH   1   2
BRANCH   1   5
ATOM      5  C   UNL     1       2.223  43.500  11.697  1.00  0.00     0.006 C 
BRANCH   5   6
ATOM      6  C   UNL     1       3.453  44.032  12.449  1.00  0.00    -0.003 C 
ATOM      7  C   UNL     1       4.156  45.165  11.704  1.00  0.00     0.004 C 
ENDBRANCH   5   6
ENDBRANCH   1   5
TORSDOF 3
ENDMDL
