MODEL 1
REMARK VINA RESULT:    -4.581      0.000      0.000
REMARK INTER + INTRA:          -7.597
REMARK INTER:                  -6.723
REMARK INTRA:                  -0.874
REMARK UNBOUND:                -0.874
REMARK SMILES O=C([O-])CCCCCCCC(=O)[O-]
REMARK SMILES IDX 7 1 6 2 5 3 4 4 2 5 1 6 3 7 8 8 9 9 10 10 11 11 12 12 13 13
REMARK H PARENT
REMARK Flexibility Score: inf
ROOT
ATOM      1  C   UNL     1       1.690   8.544  12.344  1.00  0.00     0.000 C 
ENDROOT
BRANCH   1   2
ATOM      2  C   UNL     1       1.213   9.233  11.056  1.00  0.00     0.000 C 
BRANCH   2   3
ATOM      3  C   UNL     1       2.276   9.211   9.942  1.00  0.00     0.006 C 
BRANCH   3   4
ATOM      4  C   UNL     1       1.837   8.362   8.741  1.00  0.00     0.053 C 
BRANCH   4   5
ATOM      5  C   UNL     1       2.597   7.074   8.666  1.00  0.00     0.041 C 
ATOM      6  O   UNL     1       3.399   6.754   9.582  1.00  0.00    -0.550 OA
ATOM      7  O   UNL     1       2.393   6.208   7.599  1.00  0.00    -0.550 OA
ENDBRANCH   4   5
ENDBRANCH   3   4
ENDBRANCH   2   3
ENDBRANCH   1   2
BRANCH   1   8
ATOM      8  C   UNL     1       0.742   7.419  12.796  1.00  0.00     0.000 C 
BRANCH   8   9
ATOM      9  C   UNL     1       0.699   6.249  11.800  1.00  0.00     0.006 C 
BRANCH   9  10
ATOM     10  C   UNL     1      -0.727   5.917  11.337  1.00  0.00     0.053 C 
BRANCH  10  11
ATOM     11  C   UNL     1      -0.807   5.928   9.844  1.00  0.00     0.041 C 
ATOM     12  O   UNL     1      -0.300   4.989   9.175  1.00  0.00    -0.550 OA
ATOM     13  O   UNL     1      -1.483   6.951   9.191  1.00  0.00    -0.550 OA
ENDBRANCH  10  11
ENDBRANCH   9  10
ENDBRANCH   8   9
ENDBRANCH   1   8
TORSDOF 8
ENDMDL
MODEL 2
REMARK VINA RESULT:    -4.505      0.961      3.800
REMARK INTER + INTRA:          -7.485
REMARK INTER:                  -6.691
REMARK INTRA:                  -0.793
REMARK UNBOUND:                -0.874
REMARK SMILES O=C([O-])CCCCCCCC(=O)[O-]
REMARK SMILES IDX 7 1 6 2 5 3 4 4 2 5 1 6 3 7 8 8 9 9 10 10 11 11 12 12 13 13
REMARK H PARENT
REMARK Flexibility Score: inf
ROOT
ATOM      1  C   UNL     1       1.627   8.339  12.283  1.00  0.00     0.000 C 
ENDROOT
BRANCH   1   2
ATOM      2  C   UNL     1       0.578   7.349  12.816  1.00  0.00     0.000 C 
BRANCH   2   3
ATOM      3  C   UNL     1       0.483   6.070  11.965  1.00  0.00     0.006 C 
BRANCH   3   4
ATOM      4  C   UNL     1      -0.913   5.884  11.356  1.00  0.00     0.053 C 
BRANCH   4   5
ATOM      5  C   UNL     1      -0.874   5.920   9.859  1.00  0.00     0.041 C 
ATOM      6  O   UNL     1      -0.463   4.923   9.210  1.00  0.00    -0.550 OA
ATOM      7  O   UNL     1      -1.326   7.044   9.179  1.00  0.00    -0.550 OA
ENDBRANCH   4   5
ENDBRANCH   3   4
ENDBRANCH   2   3
ENDBRANCH   1   2
BRANCH   1   8
ATOM      8  C   UNL     1       1.149   9.084  11.025  1.00  0.00     0.000 C 
BRANCH   8   9
ATOM      9  C   UNL     1       2.197   9.073   9.900  1.00  0.00     0.006 C 
BRANCH   9  10
ATOM     10  C   UNL     1       2.416   7.675   9.306  1.00  0.00     0.053 C 
BRANCH  10  11
ATOM     11  C   UNL     1       2.179   7.692   7.829  1.00  0.00     0.041 C 
ATOM     12  O   UNL     1       2.522   8.693   7.144  1.00  0.00    -0.550 OA
ATOM     13  O   UNL     1       1.626   6.584   7.200  1.00  0.00    -0.550 OA
ENDBRANCH  10  11
ENDBRANCH   9  10
ENDBRANCH   8   9
ENDBRANCH   1   8
TORSDOF 8
ENDMDL
MODEL 3
REMARK VINA RESULT:    -4.504      5.148      7.269
REMARK INTER + INTRA:          -7.484
REMARK INTER:                  -6.870
REMARK INTRA:                  -0.614
REMARK UNBOUND:                -0.874
REMARK SMILES O=C([O-])CCCCCCCC(=O)[O-]
REMARK SMILES IDX 7 1 6 2 5 3 4 4 2 5 1 6 3 7 8 8 9 9 10 10 11 11 12 12 13 13
REMARK H PARENT
REMARK Flexibility Score: inf
ROOT
ATOM      1  C   UNL     1       8.644   6.057   7.706  1.00  0.00     0.000 C 
ENDROOT
BRANCH   1   2
ATOM      2  C   UNL     1       7.718   4.958   8.253  1.00  0.00     0.000 C 
BRANCH   2   3
ATOM      3  C   UNL     1       6.658   4.511   7.229  1.00  0.00     0.006 C 
BRANCH   3   4
ATOM      4  C   UNL     1       5.423   3.901   7.905  1.00  0.00     0.053 C 
BRANCH   4   5
ATOM      5  C   UNL     1       4.202   4.742   7.690  1.00  0.00     0.041 C 
ATOM      6  O   UNL     1       4.164   5.927   8.113  1.00  0.00    -0.550 OA
ATOM      7  O   UNL     1       3.119   4.227   6.990  1.00  0.00    -0.550 OA
ENDBRANCH   4   5
ENDBRANCH   3   4
ENDBRANCH   2   3
ENDBRANCH   1   2
BRANCH   1   8
ATOM      8  C   UNL     1       7.878   7.337   7.326  1.00  0.00     0.000 C 
BRANCH   8   9
ATOM      9  C   UNL     1       8.079   7.728   5.853  1.00  0.00     0.006 C 
BRANCH   9  10
ATOM     10  C   UNL     1       7.002   8.696   5.344  1.00  0.00     0.053 C 
BRANCH  10  11
ATOM     11  C   UNL     1       5.638   8.143   5.606  1.00  0.00     0.041 C 
ATOM     12  O   UNL     1       5.264   7.083   5.038  1.00  0.00    -0.550 OA
ATOM     13  O   UNL     1       4.796   8.771   6.515  1.00  0.00    -0.550 OA
ENDBRANCH  10  11
ENDBRANCH   9  10
ENDBRANCH   8   9
ENDBRANCH   1   8
TORSDOF 8
ENDMDL
MODEL 4
REMARK VINA RESULT:    -4.450      1.845      3.802
REMARK INTER + INTRA:          -7.405
REMARK INTER:                  -6.737
REMARK INTRA:                  -0.667
REMARK UNBOUND:                -0.874
REMARK SMILES O=C([O-])CCCCCCCC(=O)[O-]
REMARK SMILES IDX 7 1 6 2 5 3 4 4 2 5 1 6 3 7 8 8 9 9 10 10 11 11 12 12 13 13
REMARK H PARENT
REMARK Flexibility Score: inf
ROOT
ATOM      1  C   UNL     1       0.539   6.582  12.378  1.00  0.00     0.000 C 
ENDROOT
BRANCH   1   2
ATOM      2  C   UNL     1      -0.538   6.200  11.350  1.00  0.00     0.000 C 
BRANCH   2   3
ATOM      3  C   UNL     1      -0.309   4.806  10.739  1.00  0.00     0.006 C 
BRANCH   3   4
ATOM      4  C   UNL     1       0.246   4.885   9.311  1.00  0.00     0.053 C 
BRANCH   4   5
ATOM      5  C   UNL     1       1.661   4.397   9.238  1.00  0.00     0.041 C 
ATOM      6  O   UNL     1       1.967   3.448   8.469  1.00  0.00    -0.550 OA
ATOM      7  O   UNL     1       2.649   5.016   9.994  1.00  0.00    -0.550 OA
ENDBRANCH   4   5
ENDBRANCH   3   4
ENDBRANCH   2   3
ENDBRANCH   1   2
BRANCH   1   8
ATOM      8  C   UNL     1       1.170   7.956  12.087  1.00  0.00     0.000 C 
BRANCH   8   9
ATOM      9  C   UNL     1       0.960   8.404  10.631  1.00  0.00     0.006 C 
BRANCH   9  10
ATOM     10  C   UNL     1       2.115   9.267  10.105  1.00  0.00     0.053 C 
BRANCH  10  11
ATOM     11  C   UNL     1       2.280   9.074   8.631  1.00  0.00     0.041 C 
ATOM     12  O   UNL     1       2.714  10.014   7.913  1.00  0.00    -0.550 OA
ATOM     13  O   UNL     1       2.000   7.841   8.055  1.00  0.00    -0.550 OA
ENDBRANCH  10  11
ENDBRANCH   9  10
ENDBRANCH   8   9
ENDBRANCH   1   8
TORSDOF 8
ENDMDL
MODEL 5
REMARK VINA RESULT:    -4.411      1.781      2.261
REMARK INTER + INTRA:          -7.348
REMARK INTER:                  -6.662
REMARK INTRA:                  -0.686
REMARK UNBOUND:                -0.874
REMARK SMILES O=C([O-])CCCCCCCC(=O)[O-]
REMARK SMILES IDX 7 1 6 2 5 3 4 4 2 5 1 6 3 7 8 8 9 9 10 10 11 11 12 12 13 13
REMARK H PARENT
REMARK Flexibility Score: inf
ROOT
ATOM      1  C   UNL     1       1.223   8.040  12.091  1.00  0.00     0.000 C 
ENDROOT
BRANCH   1   2
ATOM      2  C   UNL     1       0.933   8.830  10.804  1.00  0.00     0.000 C 
BRANCH   2   3
ATOM      3  C   UNL     1       2.203   9.440  10.184  1.00  0.00     0.006 C 
BRANCH   3   4
ATOM      4  C   UNL     1       2.826   8.522   9.124  1.00  0.00     0.053 C 
BRANCH   4   5
ATOM      5  C   UNL     1       2.634   9.063   7.740  1.00  0.00     0.041 C 
ATOM      6  O   UNL     1       2.580  10.306   7.546  1.00  0.00    -0.550 OA
ATOM      7  O   UNL     1       2.550   8.195   6.659  1.00  0.00    -0.550 OA
ENDBRANCH   4   5
ENDBRANCH   3   4
ENDBRANCH   2   3
ENDBRANCH   1   2
BRANCH   1   8
ATOM      8  C   UNL     1       0.582   6.641  12.080  1.00  0.00     0.000 C 
BRANCH   8   9
ATOM      9  C   UNL     1      -0.042   6.289  10.720  1.00  0.00     0.006 C 
BRANCH   9  10
ATOM     10  C   UNL     1       0.392   4.908  10.208  1.00  0.00     0.053 C 
BRANCH  10  11
ATOM     11  C   UNL     1       1.649   5.022   9.404  1.00  0.00     0.041 C 
ATOM     12  O   UNL     1       2.771   4.890   9.960  1.00  0.00    -0.550 OA
ATOM     13  O   UNL     1       1.580   5.224   8.031  1.00  0.00    -0.550 OA
ENDBRANCH  10  11
ENDBRANCH   9  10
ENDBRANCH   8   9
ENDBRANCH   1   8
TORSDOF 8
ENDMDL
MODEL 6
REMARK VINA RESULT:    -4.395      4.617      6.093
REMARK INTER + INTRA:          -7.325
REMARK INTER:                  -6.829
REMARK INTRA:                  -0.496
REMARK UNBOUND:                -0.874
REMARK SMILES O=C([O-])CCCCCCCC(=O)[O-]
REMARK SMILES IDX 7 1 6 2 5 3 4 4 2 5 1 6 3 7 8 8 9 9 10 10 11 11 12 12 13 13
REMARK H PARENT
REMARK Flexibility Score: inf
ROOT
ATOM      1  C   UNL     1       7.300   4.365   7.610  1.00  0.00     0.000 C 
ENDROOT
BRANCH   1   2
ATOM      2  C   UNL     1       8.049   5.480   8.359  1.00  0.00     0.000 C 
BRANCH   2   3
ATOM      3  C   UNL     1       8.292   6.723   7.485  1.00  0.00     0.006 C 
BRANCH   3   4
ATOM      4  C   UNL     1       6.981   7.338   6.977  1.00  0.00     0.053 C 
BRANCH   4   5
ATOM      5  C   UNL     1       7.195   8.158   5.742  1.00  0.00     0.041 C 
ATOM      6  O   UNL     1       8.346   8.269   5.244  1.00  0.00    -0.550 OA
ATOM      7  O   UNL     1       6.115   8.772   5.121  1.00  0.00    -0.550 OA
ENDBRANCH   4   5
ENDBRANCH   3   4
ENDBRANCH   2   3
ENDBRANCH   1   2
BRANCH   1   8
ATOM      8  C   UNL     1       6.021   3.921   8.341  1.00  0.00     0.000 C 
BRANCH   8   9
ATOM      9  C   UNL     1       4.742   4.328   7.591  1.00  0.00     0.006 C 
BRANCH   9  10
ATOM     10  C   UNL     1       3.776   5.140   8.464  1.00  0.00     0.053 C 
BRANCH  10  11
ATOM     11  C   UNL     1       2.364   4.714   8.215  1.00  0.00     0.041 C 
ATOM     12  O   UNL     1       2.024   3.514   8.390  1.00  0.00    -0.550 OA
ATOM     13  O   UNL     1       1.412   5.652   7.837  1.00  0.00    -0.550 OA
ENDBRANCH  10  11
ENDBRANCH   9  10
ENDBRANCH   8   9
ENDBRANCH   1   8
TORSDOF 8
ENDMDL
MODEL 7
REMARK VINA RESULT:    -4.383      4.008      6.701
REMARK INTER + INTRA:          -7.307
REMARK INTER:                  -6.468
REMARK INTRA:                  -0.839
REMARK UNBOUND:                -0.874
REMARK SMILES O=C([O-])CCCCCCCC(=O)[O-]
REMARK SMILES IDX 7 1 6 2 5 3 4 4 2 5 1 6 3 7 8 8 9 9 10 10 11 11 12 12 13 13
REMARK H PARENT
REMARK Flexibility Score: inf
ROOT
ATOM      1  C   UNL     1       6.566   4.463   7.213  1.00  0.00     0.000 C 
ENDROOT
BRANCH   1   2
ATOM      2  C   UNL     1       5.232   4.234   7.943  1.00  0.00     0.000 C 
BRANCH   2   3
ATOM      3  C   UNL     1       4.024   4.777   7.157  1.00  0.00     0.006 C 
BRANCH   3   4
ATOM      4  C   UNL     1       3.451   6.052   7.788  1.00  0.00     0.053 C 
BRANCH   4   5
ATOM      5  C   UNL     1       2.216   6.515   7.077  1.00  0.00     0.041 C 
ATOM      6  O   UNL     1       1.077   6.185   7.502  1.00  0.00    -0.550 OA
ATOM      7  O   UNL     1       2.322   7.341   5.965  1.00  0.00    -0.550 OA
ENDBRANCH   4   5
ENDBRANCH   3   4
ENDBRANCH   2   3
ENDBRANCH   1   2
BRANCH   1   8
ATOM      8  C   UNL     1       7.462   5.486   7.932  1.00  0.00     0.000 C 
BRANCH   8   9
ATOM      9  C   UNL     1       7.095   6.938   7.584  1.00  0.00     0.006 C 
BRANCH   9  10
ATOM     10  C   UNL     1       7.235   7.242   6.086  1.00  0.00     0.053 C 
BRANCH  10  11
ATOM     11  C   UNL     1       5.945   7.760   5.536  1.00  0.00     0.041 C 
ATOM     12  O   UNL     1       5.368   7.154   4.595  1.00  0.00    -0.550 OA
ATOM     13  O   UNL     1       5.352   8.886   6.095  1.00  0.00    -0.550 OA
ENDBRANCH  10  11
ENDBRANCH   9  10
ENDBRANCH   8   9
ENDBRANCH   1   8
TORSDOF 8
ENDMDL
MODEL 8
REMARK VINA RESULT:    -4.351      4.654      6.484
REMARK INTER + INTRA:          -7.260
REMARK INTER:                  -6.320
REMARK INTRA:                  -0.940
REMARK UNBOUND:                -0.874
REMARK SMILES O=C([O-])CCCCCCCC(=O)[O-]
REMARK SMILES IDX 7 1 6 2 5 3 4 4 2 5 1 6 3 7 8 8 9 9 10 10 11 11 12 12 13 13
REMARK H PARENT
REMARK Flexibility Score: inf
ROOT
ATOM      1  C   UNL     1       6.944   5.221   8.304  1.00  0.00     0.000 C 
ENDROOT
BRANCH   1   2
ATOM      2  C   UNL     1       8.185   5.851   7.650  1.00  0.00     0.000 C 
BRANCH   2   3
ATOM      3  C   UNL     1       7.975   7.331   7.284  1.00  0.00     0.006 C 
BRANCH   3   4
ATOM      4  C   UNL     1       8.138   7.582   5.779  1.00  0.00     0.053 C 
BRANCH   4   5
ATOM      5  C   UNL     1       6.813   7.659   5.084  1.00  0.00     0.041 C 
ATOM      6  O   UNL     1       6.330   6.640   4.523  1.00  0.00    -0.550 OA
ATOM      7  O   UNL     1       6.095   8.848   5.085  1.00  0.00    -0.550 OA
ENDBRANCH   4   5
ENDBRANCH   3   4
ENDBRANCH   2   3
ENDBRANCH   1   2
BRANCH   1   8
ATOM      8  C   UNL     1       6.034   4.516   7.283  1.00  0.00     0.000 C 
BRANCH   8   9
ATOM      9  C   UNL     1       4.603   5.078   7.283  1.00  0.00     0.006 C 
BRANCH   9  10
ATOM     10  C   UNL     1       4.480   6.388   8.074  1.00  0.00     0.053 C 
BRANCH  10  11
ATOM     11  C   UNL     1       3.777   7.426   7.259  1.00  0.00     0.041 C 
ATOM     12  O   UNL     1       3.698   8.612   7.675  1.00  0.00    -0.550 OA
ATOM     13  O   UNL     1       3.252   7.096   6.016  1.00  0.00    -0.550 OA
ENDBRANCH  10  11
ENDBRANCH   9  10
ENDBRANCH   8   9
ENDBRANCH   1   8
TORSDOF 8
ENDMDL
MODEL 9
REMARK VINA RESULT:    -4.328      1.458      1.923
REMARK INTER + INTRA:          -7.225
REMARK INTER:                  -6.566
REMARK INTRA:                  -0.659
REMARK UNBOUND:                -0.874
REMARK SMILES O=C([O-])CCCCCCCC(=O)[O-]
REMARK SMILES IDX 7 1 6 2 5 3 4 4 2 5 1 6 3 7 8 8 9 9 10 10 11 11 12 12 13 13
REMARK H PARENT
REMARK Flexibility Score: inf
ROOT
ATOM      1  C   UNL     1       1.243   8.867  11.365  1.00  0.00     0.000 C 
ENDROOT
BRANCH   1   2
ATOM      2  C   UNL     1       1.990   9.607  10.244  1.00  0.00     0.000 C 
BRANCH   2   3
ATOM      3  C   UNL     1       2.696   8.649   9.267  1.00  0.00     0.006 C 
BRANCH   3   4
ATOM      4  C   UNL     1       2.345   8.953   7.805  1.00  0.00     0.053 C 
BRANCH   4   5
ATOM      5  C   UNL     1       3.149   8.117   6.857  1.00  0.00     0.041 C 
ATOM      6  O   UNL     1       2.574   7.360   6.032  1.00  0.00    -0.550 OA
ATOM      7  O   UNL     1       4.536   8.203   6.860  1.00  0.00    -0.550 OA
ENDBRANCH   4   5
ENDBRANCH   3   4
ENDBRANCH   2   3
ENDBRANCH   1   2
BRANCH   1   8
ATOM      8  C   UNL     1       1.475   7.346  11.322  1.00  0.00     0.000 C 
BRANCH   8   9
ATOM      9  C   UNL     1       0.195   6.546  11.612  1.00  0.00     0.006 C 
BRANCH   9  10
ATOM     10  C   UNL     1      -0.130   5.528  10.511  1.00  0.00     0.053 C 
BRANCH  10  11
ATOM     11  C   UNL     1      -0.477   6.230   9.237  1.00  0.00     0.041 C 
ATOM     12  O   UNL     1      -1.454   7.024   9.196  1.00  0.00    -0.550 OA
ATOM     13  O   UNL     1       0.309   6.046   8.106  1.00  0.00    -0.550 OA
ENDBRANCH  10  11
ENDBRANCH   9  10
ENDBRANCH   8   9
ENDBRANCH   1   8
TORSDOF 8
ENDMDL
