MODEL 1
REMARK VINA RESULT:    -4.310      0.000      0.000
REMARK INTER + INTRA:          -7.182
REMARK INTER:                  -6.325
REMARK INTRA:                  -0.857
REMARK UNBOUND:                -0.857
REMARK SMILES CCCOC(=O)c1ccccc1C(=O)OCCC
REMARK SMILES IDX 7 1 8 2 9 3 10 4 11 5 12 6 5 7 6 8 4 9 3 10 2 11 1 12 13 13
REMARK SMILES IDX 14 14 15 15 16 16 17 17 18 18
REMARK H PARENT
REMARK Flexibility Score: inf
ROOT
ATOM      1  C   UNL     1       0.264  -4.826  -4.821  1.00  0.00     0.074 A 
ATOM      2  C   UNL     1       0.622  -6.180  -4.700  1.00  0.00     0.016 A 
ATOM      3  C   UNL     1      -0.247  -7.189  -5.118  1.00  0.00     0.001 A 
ATOM      4  C   UNL     1      -1.485  -6.862  -5.665  1.00  0.00     0.001 A 
ATOM      5  C   UNL     1      -1.871  -5.525  -5.773  1.00  0.00     0.016 A 
ATOM      6  C   UNL     1      -1.021  -4.492  -5.337  1.00  0.00     0.074 A 
ENDROOT
BRANCH   1   7
ATOM      7  C   UNL     1       1.278  -3.807  -4.464  1.00  0.00     0.339 C 
ATOM      8  O   UNL     1       1.989  -3.274  -5.359  1.00  0.00    -0.246 OA
BRANCH   7   9
ATOM      9  O   UNL     1       1.482  -3.484  -3.119  1.00  0.00    -0.462 OA
BRANCH   9  10
ATOM     10  C   UNL     1       2.607  -3.948  -2.379  1.00  0.00     0.233 C 
BRANCH  10  11
ATOM     11  C   UNL     1       2.309  -3.842  -0.884  1.00  0.00     0.038 C 
ATOM     12  C   UNL     1       1.354  -2.689  -0.591  1.00  0.00     0.007 C 
ENDBRANCH  10  11
ENDBRANCH   9  10
ENDBRANCH   7   9
ENDBRANCH   1   7
BRANCH   6  13
ATOM     13  C   UNL     1      -1.540  -3.108  -5.376  1.00  0.00     0.339 C 
ATOM     14  O   UNL     1      -1.971  -2.556  -4.326  1.00  0.00    -0.246 OA
BRANCH  13  15
ATOM     15  O   UNL     1      -1.607  -2.433  -6.600  1.00  0.00    -0.462 OA
BRANCH  15  16
ATOM     16  C   UNL     1      -2.784  -1.772  -7.052  1.00  0.00     0.233 C 
BRANCH  16  17
ATOM     17  C   UNL     1      -3.903  -2.790  -7.274  1.00  0.00     0.038 C 
ATOM     18  C   UNL     1      -5.112  -2.504  -6.386  1.00  0.00     0.007 C 
ENDBRANCH  16  17
ENDBRANCH  15  16
ENDBRANCH  13  15
ENDBRANCH   6  13
TORSDOF 8
ENDMDL
MODEL 2
REMARK VINA RESULT:    -4.263      0.217      5.548
REMARK INTER + INTRA:          -7.114
REMARK INTER:                  -6.304
REMARK INTRA:                  -0.810
REMARK UNBOUND:                -0.857
REMARK SMILES CCCOC(=O)c1ccccc1C(=O)OCCC
REMARK SMILES IDX 7 1 8 2 9 3 10 4 11 5 12 6 5 7 6 8 4 9 3 10 2 11 1 12 13 13
REMARK SMILES IDX 14 14 15 15 16 16 17 17 18 18
REMARK H PARENT
REMARK Flexibility Score: inf
ROOT
ATOM      1  C   UNL     1      -1.211  -4.468  -5.437  1.00  0.00     0.074 A 
ATOM      2  C   UNL     1      -2.054  -5.500  -5.885  1.00  0.00     0.016 A 
ATOM      3  C   UNL     1      -1.669  -6.837  -5.773  1.00  0.00     0.001 A 
ATOM      4  C   UNL     1      -0.438  -7.164  -5.211  1.00  0.00     0.001 A 
ATOM      5  C   UNL     1       0.426  -6.155  -4.781  1.00  0.00     0.016 A 
ATOM      6  C   UNL     1       0.068  -4.800  -4.906  1.00  0.00     0.074 A 
ENDROOT
BRANCH   1   7
ATOM      7  C   UNL     1      -1.729  -3.082  -5.482  1.00  0.00     0.339 C 
ATOM      8  O   UNL     1      -2.150  -2.524  -4.432  1.00  0.00    -0.246 OA
BRANCH   7   9
ATOM      9  O   UNL     1      -1.806  -2.416  -6.710  1.00  0.00    -0.462 OA
BRANCH   9  10
ATOM     10  C   UNL     1      -2.998  -1.789  -7.172  1.00  0.00     0.233 C 
BRANCH  10  11
ATOM     11  C   UNL     1      -4.096  -2.840  -7.326  1.00  0.00     0.038 C 
ATOM     12  C   UNL     1      -5.317  -2.493  -6.479  1.00  0.00     0.007 C 
ENDBRANCH  10  11
ENDBRANCH   9  10
ENDBRANCH   7   9
ENDBRANCH   1   7
BRANCH   6  13
ATOM     13  C   UNL     1       1.076  -3.783  -4.535  1.00  0.00     0.339 C 
ATOM     14  O   UNL     1       1.795  -3.242  -5.420  1.00  0.00    -0.246 OA
BRANCH  13  15
ATOM     15  O   UNL     1       1.272  -3.468  -3.186  1.00  0.00    -0.462 OA
BRANCH  15  16
ATOM     16  C   UNL     1       2.469  -3.788  -2.485  1.00  0.00     0.233 C 
BRANCH  16  17
ATOM     17  C   UNL     1       2.190  -3.874  -0.985  1.00  0.00     0.038 C 
ATOM     18  C   UNL     1       1.529  -2.603  -0.458  1.00  0.00     0.007 C 
ENDBRANCH  16  17
ENDBRANCH  15  16
ENDBRANCH  13  15
ENDBRANCH   6  13
TORSDOF 8
ENDMDL
MODEL 3
REMARK VINA RESULT:    -4.164      1.372      5.242
REMARK INTER + INTRA:          -6.968
REMARK INTER:                  -5.925
REMARK INTRA:                  -1.043
REMARK UNBOUND:                -0.857
REMARK SMILES CCCOC(=O)c1ccccc1C(=O)OCCC
REMARK SMILES IDX 7 1 8 2 9 3 10 4 11 5 12 6 5 7 6 8 4 9 3 10 2 11 1 12 13 13
REMARK SMILES IDX 14 14 15 15 16 16 17 17 18 18
REMARK H PARENT
REMARK Flexibility Score: inf
ROOT
ATOM      1  C   UNL     1      -0.943  -4.406  -5.261  1.00  0.00     0.074 A 
ATOM      2  C   UNL     1      -1.924  -5.320  -5.685  1.00  0.00     0.016 A 
ATOM      3  C   UNL     1      -1.678  -6.694  -5.661  1.00  0.00     0.001 A 
ATOM      4  C   UNL     1      -0.450  -7.176  -5.213  1.00  0.00     0.001 A 
ATOM      5  C   UNL     1       0.546  -6.286  -4.810  1.00  0.00     0.016 A 
ATOM      6  C   UNL     1       0.328  -4.896  -4.847  1.00  0.00     0.074 A 
ENDROOT
BRANCH   1   7
ATOM      7  C   UNL     1      -1.311  -2.973  -5.205  1.00  0.00     0.339 C 
ATOM      8  O   UNL     1      -2.257  -2.586  -4.466  1.00  0.00    -0.246 OA
BRANCH   7   9
ATOM      9  O   UNL     1      -0.641  -2.059  -6.024  1.00  0.00    -0.462 OA
BRANCH   9  10
ATOM     10  C   UNL     1      -0.788  -2.044  -7.441  1.00  0.00     0.233 C 
BRANCH  10  11
ATOM     11  C   UNL     1       0.544  -2.413  -8.092  1.00  0.00     0.038 C 
ATOM     12  C   UNL     1       0.578  -3.887  -8.485  1.00  0.00     0.007 C 
ENDBRANCH  10  11
ENDBRANCH   9  10
ENDBRANCH   7   9
ENDBRANCH   1   7
BRANCH   6  13
ATOM     13  C   UNL     1       1.465  -4.010  -4.515  1.00  0.00     0.339 C 
ATOM     14  O   UNL     1       2.376  -3.793  -5.361  1.00  0.00    -0.246 OA
BRANCH  13  15
ATOM     15  O   UNL     1       1.556  -3.461  -3.231  1.00  0.00    -0.462 OA
BRANCH  15  16
ATOM     16  C   UNL     1       2.418  -3.988  -2.227  1.00  0.00     0.233 C 
BRANCH  16  17
ATOM     17  C   UNL     1       2.590  -2.971  -1.099  1.00  0.00     0.038 C 
ATOM     18  C   UNL     1       1.266  -2.675  -0.397  1.00  0.00     0.007 C 
ENDBRANCH  16  17
ENDBRANCH  15  16
ENDBRANCH  13  15
ENDBRANCH   6  13
TORSDOF 8
ENDMDL
MODEL 4
REMARK VINA RESULT:    -4.102      1.991      5.118
REMARK INTER + INTRA:          -6.877
REMARK INTER:                  -5.258
REMARK INTRA:                  -1.619
REMARK UNBOUND:                -0.857
REMARK SMILES CCCOC(=O)c1ccccc1C(=O)OCCC
REMARK SMILES IDX 7 1 8 2 9 3 10 4 11 5 12 6 5 7 6 8 4 9 3 10 2 11 1 12 13 13
REMARK SMILES IDX 14 14 15 15 16 16 17 17 18 18
REMARK H PARENT
REMARK Flexibility Score: inf
ROOT
ATOM      1  C   UNL     1      -1.794  -4.769  -5.589  1.00  0.00     0.074 A 
ATOM      2  C   UNL     1      -2.256  -6.010  -6.060  1.00  0.00     0.016 A 
ATOM      3  C   UNL     1      -1.456  -7.151  -5.971  1.00  0.00     0.001 A 
ATOM      4  C   UNL     1      -0.184  -7.069  -5.408  1.00  0.00     0.001 A 
ATOM      5  C   UNL     1       0.304  -5.842  -4.956  1.00  0.00     0.016 A 
ATOM      6  C   UNL     1      -0.477  -4.676  -5.057  1.00  0.00     0.074 A 
ENDROOT
BRANCH   1   7
ATOM      7  C   UNL     1      -2.737  -3.627  -5.611  1.00  0.00     0.339 C 
ATOM      8  O   UNL     1      -3.401  -3.328  -4.581  1.00  0.00    -0.246 OA
BRANCH   7   9
ATOM      9  O   UNL     1      -2.930  -2.918  -6.801  1.00  0.00    -0.462 OA
BRANCH   9  10
ATOM     10  C   UNL     1      -4.044  -3.144  -7.659  1.00  0.00     0.233 C 
BRANCH  10  11
ATOM     11  C   UNL     1      -3.544  -3.596  -9.030  1.00  0.00     0.038 C 
ATOM     12  C   UNL     1      -3.759  -5.093  -9.230  1.00  0.00     0.007 C 
ENDBRANCH  10  11
ENDBRANCH   9  10
ENDBRANCH   7   9
ENDBRANCH   1   7
BRANCH   6  13
ATOM     13  C   UNL     1       0.145  -3.392  -4.662  1.00  0.00     0.339 C 
ATOM     14  O   UNL     1       0.376  -3.141  -3.448  1.00  0.00    -0.246 OA
BRANCH  13  15
ATOM     15  O   UNL     1       0.420  -2.432  -5.642  1.00  0.00    -0.462 OA
BRANCH  15  16
ATOM     16  C   UNL     1       1.201  -2.712  -6.798  1.00  0.00     0.233 C 
BRANCH  16  17
ATOM     17  C   UNL     1       0.312  -2.724  -8.041  1.00  0.00     0.038 C 
ATOM     18  C   UNL     1       0.188  -4.126  -8.635  1.00  0.00     0.007 C 
ENDBRANCH  16  17
ENDBRANCH  15  16
ENDBRANCH  13  15
ENDBRANCH   6  13
TORSDOF 8
ENDMDL
MODEL 5
REMARK VINA RESULT:    -4.055      2.240      6.341
REMARK INTER + INTRA:          -6.808
REMARK INTER:                  -5.554
REMARK INTRA:                  -1.254
REMARK UNBOUND:                -0.857
REMARK SMILES CCCOC(=O)c1ccccc1C(=O)OCCC
REMARK SMILES IDX 7 1 8 2 9 3 10 4 11 5 12 6 5 7 6 8 4 9 3 10 2 11 1 12 13 13
REMARK SMILES IDX 14 14 15 15 16 16 17 17 18 18
REMARK H PARENT
REMARK Flexibility Score: inf
ROOT
ATOM      1  C   UNL     1       2.295  -4.659  -2.577  1.00  0.00     0.074 A 
ATOM      2  C   UNL     1       2.555  -6.004  -2.893  1.00  0.00     0.016 A 
ATOM      3  C   UNL     1       2.793  -6.941  -1.886  1.00  0.00     0.001 A 
ATOM      4  C   UNL     1       2.773  -6.550  -0.550  1.00  0.00     0.001 A 
ATOM      5  C   UNL     1       2.540  -5.215  -0.214  1.00  0.00     0.016 A 
ATOM      6  C   UNL     1       2.321  -4.250  -1.214  1.00  0.00     0.074 A 
ENDROOT
BRANCH   1   7
ATOM      7  C   UNL     1       1.939  -3.745  -3.687  1.00  0.00     0.339 C 
ATOM      8  O   UNL     1       2.838  -3.272  -4.435  1.00  0.00    -0.246 OA
BRANCH   7   9
ATOM      9  O   UNL     1       0.605  -3.363  -3.862  1.00  0.00    -0.462 OA
BRANCH   9  10
ATOM     10  C   UNL     1      -0.131  -3.663  -5.044  1.00  0.00     0.233 C 
BRANCH  10  11
ATOM     11  C   UNL     1      -0.294  -5.177  -5.169  1.00  0.00     0.038 C 
ATOM     12  C   UNL     1      -1.747  -5.556  -5.441  1.00  0.00     0.007 C 
ENDBRANCH  10  11
ENDBRANCH   9  10
ENDBRANCH   7   9
ENDBRANCH   1   7
BRANCH   6  13
ATOM     13  C   UNL     1       2.194  -2.837  -0.793  1.00  0.00     0.339 C 
ATOM     14  O   UNL     1       1.071  -2.262  -0.814  1.00  0.00    -0.246 OA
BRANCH  13  15
ATOM     15  O   UNL     1       3.340  -2.122  -0.429  1.00  0.00    -0.462 OA
BRANCH  15  16
ATOM     16  C   UNL     1       4.396  -1.843  -1.342  1.00  0.00     0.233 C 
BRANCH  16  17
ATOM     17  C   UNL     1       5.649  -2.625  -0.948  1.00  0.00     0.038 C 
ATOM     18  C   UNL     1       5.877  -3.827  -1.861  1.00  0.00     0.007 C 
ENDBRANCH  16  17
ENDBRANCH  15  16
ENDBRANCH  13  15
ENDBRANCH   6  13
TORSDOF 8
ENDMDL
MODEL 6
REMARK VINA RESULT:    -4.047      2.010      3.328
REMARK INTER + INTRA:          -6.797
REMARK INTER:                  -5.367
REMARK INTRA:                  -1.430
REMARK UNBOUND:                -0.857
REMARK SMILES CCCOC(=O)c1ccccc1C(=O)OCCC
REMARK SMILES IDX 7 1 8 2 9 3 10 4 11 5 12 6 5 7 6 8 4 9 3 10 2 11 1 12 13 13
REMARK SMILES IDX 14 14 15 15 16 16 17 17 18 18
REMARK H PARENT
REMARK Flexibility Score: inf
ROOT
ATOM      1  C   UNL     1      -0.488  -4.673  -5.104  1.00  0.00     0.074 A 
ATOM      2  C   UNL     1       0.320  -5.820  -5.017  1.00  0.00     0.016 A 
ATOM      3  C   UNL     1      -0.141  -7.056  -5.474  1.00  0.00     0.001 A 
ATOM      4  C   UNL     1      -1.414  -7.164  -6.027  1.00  0.00     0.001 A 
ATOM      5  C   UNL     1      -2.243  -6.043  -6.102  1.00  0.00     0.016 A 
ATOM      6  C   UNL     1      -1.807  -4.793  -5.626  1.00  0.00     0.074 A 
ENDROOT
BRANCH   1   7
ATOM      7  C   UNL     1       0.106  -3.376  -4.705  1.00  0.00     0.339 C 
ATOM      8  O   UNL     1       0.389  -3.150  -3.497  1.00  0.00    -0.246 OA
BRANCH   7   9
ATOM      9  O   UNL     1       0.297  -2.382  -5.669  1.00  0.00    -0.462 OA
BRANCH   9  10
ATOM     10  C   UNL     1       1.025  -2.606  -6.872  1.00  0.00     0.233 C 
BRANCH  10  11
ATOM     11  C   UNL     1       0.080  -2.491  -8.067  1.00  0.00     0.038 C 
ATOM     12  C   UNL     1      -0.116  -3.841  -8.750  1.00  0.00     0.007 C 
ENDBRANCH  10  11
ENDBRANCH   9  10
ENDBRANCH   7   9
ENDBRANCH   1   7
BRANCH   6  13
ATOM     13  C   UNL     1      -2.777  -3.676  -5.633  1.00  0.00     0.339 C 
ATOM     14  O   UNL     1      -3.290  -3.268  -4.555  1.00  0.00    -0.246 OA
BRANCH  13  15
ATOM     15  O   UNL     1      -3.169  -3.113  -6.853  1.00  0.00    -0.462 OA
BRANCH  15  16
ATOM     16  C   UNL     1      -4.532  -2.883  -7.193  1.00  0.00     0.233 C 
BRANCH  16  17
ATOM     17  C   UNL     1      -4.785  -3.290  -8.644  1.00  0.00     0.038 C 
ATOM     18  C   UNL     1      -3.840  -4.402  -9.094  1.00  0.00     0.007 C 
ENDBRANCH  16  17
ENDBRANCH  15  16
ENDBRANCH  13  15
ENDBRANCH   6  13
TORSDOF 8
ENDMDL
MODEL 7
REMARK VINA RESULT:    -3.876      1.819      2.832
REMARK INTER + INTRA:          -6.545
REMARK INTER:                  -5.176
REMARK INTRA:                  -1.369
REMARK UNBOUND:                -0.857
REMARK SMILES CCCOC(=O)c1ccccc1C(=O)OCCC
REMARK SMILES IDX 7 1 8 2 9 3 10 4 11 5 12 6 5 7 6 8 4 9 3 10 2 11 1 12 13 13
REMARK SMILES IDX 14 14 15 15 16 16 17 17 18 18
REMARK H PARENT
REMARK Flexibility Score: inf
ROOT
ATOM      1  C   UNL     1      -1.654  -4.344  -5.977  1.00  0.00     0.074 A 
ATOM      2  C   UNL     1      -1.850  -5.576  -5.329  1.00  0.00     0.016 A 
ATOM      3  C   UNL     1      -2.143  -6.729  -6.060  1.00  0.00     0.001 A 
ATOM      4  C   UNL     1      -2.243  -6.669  -7.448  1.00  0.00     0.001 A 
ATOM      5  C   UNL     1      -2.076  -5.452  -8.110  1.00  0.00     0.016 A 
ATOM      6  C   UNL     1      -1.803  -4.273  -7.391  1.00  0.00     0.074 A 
ENDROOT
BRANCH   1   7
ATOM      7  C   UNL     1      -1.236  -3.188  -5.152  1.00  0.00     0.339 C 
ATOM      8  O   UNL     1      -2.077  -2.577  -4.437  1.00  0.00    -0.246 OA
BRANCH   7   9
ATOM      9  O   UNL     1       0.088  -2.741  -5.216  1.00  0.00    -0.462 OA
BRANCH   9  10
ATOM     10  C   UNL     1       1.189  -3.623  -5.411  1.00  0.00     0.233 C 
BRANCH  10  11
ATOM     11  C   UNL     1       1.553  -4.282  -4.082  1.00  0.00     0.038 C 
ATOM     12  C   UNL     1       1.659  -5.797  -4.226  1.00  0.00     0.007 C 
ENDBRANCH  10  11
ENDBRANCH   9  10
ENDBRANCH   7   9
ENDBRANCH   1   7
BRANCH   6  13
ATOM     13  C   UNL     1      -1.750  -3.002  -8.146  1.00  0.00     0.339 C 
ATOM     14  O   UNL     1      -0.649  -2.553  -8.566  1.00  0.00    -0.246 OA
BRANCH  13  15
ATOM     15  O   UNL     1      -2.926  -2.266  -8.337  1.00  0.00    -0.462 OA
BRANCH  15  16
ATOM     16  C   UNL     1      -3.286  -1.162  -7.514  1.00  0.00     0.233 C 
BRANCH  16  17
ATOM     17  C   UNL     1      -4.760  -1.260  -7.122  1.00  0.00     0.038 C 
ATOM     18  C   UNL     1      -5.043  -2.510  -6.291  1.00  0.00     0.007 C 
ENDBRANCH  16  17
ENDBRANCH  15  16
ENDBRANCH  13  15
ENDBRANCH   6  13
TORSDOF 8
ENDMDL
MODEL 8
REMARK VINA RESULT:    -3.809      9.056     10.887
REMARK INTER + INTRA:          -6.448
REMARK INTER:                  -4.922
REMARK INTRA:                  -1.526
REMARK UNBOUND:                -0.857
REMARK SMILES CCCOC(=O)c1ccccc1C(=O)OCCC
REMARK SMILES IDX 7 1 8 2 9 3 10 4 11 5 12 6 5 7 6 8 4 9 3 10 2 11 1 12 13 13
REMARK SMILES IDX 14 14 15 15 16 16 17 17 18 18
REMARK H PARENT
REMARK Flexibility Score: inf
ROOT
ATOM      1  C   UNL     1      -3.135   6.317  -2.427  1.00  0.00     0.074 A 
ATOM      2  C   UNL     1      -4.348   6.982  -2.679  1.00  0.00     0.016 A 
ATOM      3  C   UNL     1      -5.568   6.400  -2.330  1.00  0.00     0.001 A 
ATOM      4  C   UNL     1      -5.595   5.147  -1.723  1.00  0.00     0.001 A 
ATOM      5  C   UNL     1      -4.404   4.459  -1.484  1.00  0.00     0.016 A 
ATOM      6  C   UNL     1      -3.165   5.016  -1.849  1.00  0.00     0.074 A 
ENDROOT
BRANCH   1   7
ATOM      7  C   UNL     1      -1.876   7.040  -2.718  1.00  0.00     0.339 C 
ATOM      8  O   UNL     1      -1.413   7.066  -3.892  1.00  0.00    -0.246 OA
BRANCH   7   9
ATOM      9  O   UNL     1      -1.172   7.645  -1.672  1.00  0.00    -0.462 OA
BRANCH   9  10
ATOM     10  C   UNL     1      -1.710   8.714  -0.900  1.00  0.00     0.233 C 
BRANCH  10  11
ATOM     11  C   UNL     1      -2.103   8.193   0.481  1.00  0.00     0.038 C 
ATOM     12  C   UNL     1      -3.605   8.326   0.716  1.00  0.00     0.007 C 
ENDBRANCH  10  11
ENDBRANCH   9  10
ENDBRANCH   7   9
ENDBRANCH   1   7
BRANCH   6  13
ATOM     13  C   UNL     1      -1.955   4.184  -1.671  1.00  0.00     0.339 C 
ATOM     14  O   UNL     1      -1.178   4.385  -0.697  1.00  0.00    -0.246 OA
BRANCH  13  15
ATOM     15  O   UNL     1      -1.643   3.210  -2.626  1.00  0.00    -0.462 OA
BRANCH  15  16
ATOM     16  C   UNL     1      -1.963   3.354  -4.005  1.00  0.00     0.233 C 
BRANCH  16  17
ATOM     17  C   UNL     1      -3.029   2.334  -4.404  1.00  0.00     0.038 C 
ATOM     18  C   UNL     1      -4.340   3.011  -4.802  1.00  0.00     0.007 C 
ENDBRANCH  16  17
ENDBRANCH  15  16
ENDBRANCH  13  15
ENDBRANCH   6  13
TORSDOF 8
ENDMDL
MODEL 9
REMARK VINA RESULT:    -3.806      9.188     10.908
REMARK INTER + INTRA:          -6.443
REMARK INTER:                  -4.694
REMARK INTRA:                  -1.749
REMARK UNBOUND:                -0.857
REMARK SMILES CCCOC(=O)c1ccccc1C(=O)OCCC
REMARK SMILES IDX 7 1 8 2 9 3 10 4 11 5 12 6 5 7 6 8 4 9 3 10 2 11 1 12 13 13
REMARK SMILES IDX 14 14 15 15 16 16 17 17 18 18
REMARK H PARENT
REMARK Flexibility Score: inf
ROOT
ATOM      1  C   UNL     1       6.584   1.779  -0.659  1.00  0.00     0.074 A 
ATOM      2  C   UNL     1       5.623   0.754  -0.722  1.00  0.00     0.016 A 
ATOM      3  C   UNL     1       5.733  -0.272  -1.661  1.00  0.00     0.001 A 
ATOM      4  C   UNL     1       6.805  -0.292  -2.550  1.00  0.00     0.001 A 
ATOM      5  C   UNL     1       7.758   0.727  -2.521  1.00  0.00     0.016 A 
ATOM      6  C   UNL     1       7.653   1.784  -1.598  1.00  0.00     0.074 A 
ENDROOT
BRANCH   1   7
ATOM      7  C   UNL     1       6.466   2.771   0.435  1.00  0.00     0.339 C 
ATOM      8  O   UNL     1       5.626   3.709   0.356  1.00  0.00    -0.246 OA
BRANCH   7   9
ATOM      9  O   UNL     1       7.333   2.694   1.529  1.00  0.00    -0.462 OA
BRANCH   9  10
ATOM     10  C   UNL     1       7.615   1.471   2.202  1.00  0.00     0.233 C 
BRANCH  10  11
ATOM     11  C   UNL     1       9.015   0.994   1.819  1.00  0.00     0.038 C 
ATOM     12  C   UNL     1       8.967  -0.373   1.143  1.00  0.00     0.007 C 
ENDBRANCH  10  11
ENDBRANCH   9  10
ENDBRANCH   7   9
ENDBRANCH   1   7
BRANCH   6  13
ATOM     13  C   UNL     1       8.633   2.888  -1.698  1.00  0.00     0.339 C 
ATOM     14  O   UNL     1       9.776   2.778  -1.175  1.00  0.00    -0.246 OA
BRANCH  13  15
ATOM     15  O   UNL     1       8.262   4.082  -2.327  1.00  0.00    -0.462 OA
BRANCH  15  16
ATOM     16  C   UNL     1       7.445   4.118  -3.491  1.00  0.00     0.233 C 
BRANCH  16  17
ATOM     17  C   UNL     1       6.097   4.762  -3.166  1.00  0.00     0.038 C 
ATOM     18  C   UNL     1       4.947   3.766  -3.298  1.00  0.00     0.007 C 
ENDBRANCH  16  17
ENDBRANCH  15  16
ENDBRANCH  13  15
ENDBRANCH   6  13
TORSDOF 8
ENDMDL
