MODEL 1
REMARK VINA RESULT:    -5.523      0.000      0.000
REMARK INTER + INTRA:          -7.629
REMARK INTER:                  -7.137
REMARK INTRA:                  -0.492
REMARK UNBOUND:                -0.492
REMARK SMILES CO[C@@]1(CO)O[C@@H](CO)[C@H](O)[C@H]1O
REMARK SMILES IDX 3 1 12 2 10 3 7 4 6 5 2 6 1 7 4 8 5 9 13 11 11 13 8 15 9 16
REMARK H PARENT 5 10 13 12 11 14 9 17
REMARK Flexibility Score: inf
ROOT
ATOM      1  C   UNL     1      -4.382   8.109  22.967  1.00  0.00     0.221 C 
ATOM      2  C   UNL     1      -3.511   8.765  21.884  1.00  0.00     0.207 C 
ATOM      3  C   UNL     1      -2.226   7.992  21.999  1.00  0.00     0.180 C 
ATOM      4  C   UNL     1      -2.188   7.666  23.490  1.00  0.00     0.179 C 
ATOM      5  O   UNL     1      -3.509   7.661  23.993  1.00  0.00    -0.337 OA
ENDROOT
BRANCH   1   6
ATOM      6  O   UNL     1      -5.096   7.022  22.378  1.00  0.00    -0.349 OA
ATOM      7  C   UNL     1      -6.496   7.216  22.378  1.00  0.00     0.198 C 
ENDBRANCH   1   6
BRANCH   1   8
ATOM      8  C   UNL     1      -5.369   9.142  23.549  1.00  0.00     0.224 C 
BRANCH   8   9
ATOM      9  O   UNL     1      -5.157  10.399  22.966  1.00  0.00    -0.391 OA
ATOM     10  H   UNL     1      -5.149  11.052  23.712  1.00  0.00     0.210 HD
ENDBRANCH   8   9
ENDBRANCH   1   8
BRANCH   2  11
ATOM     11  O   UNL     1      -4.079   8.631  20.605  1.00  0.00    -0.385 OA
ATOM     12  H   UNL     1      -3.579   9.246  20.009  1.00  0.00     0.211 HD
ENDBRANCH   2  11
BRANCH   3  13
ATOM     13  O   UNL     1      -1.120   8.775  21.631  1.00  0.00    -0.387 OA
ATOM     14  H   UNL     1      -1.469   9.493  21.041  1.00  0.00     0.211 HD
ENDBRANCH   3  13
BRANCH   4  15
ATOM     15  C   UNL     1      -1.520   6.315  23.775  1.00  0.00     0.191 C 
BRANCH  15  16
ATOM     16  O   UNL     1      -0.791   5.875  22.661  1.00  0.00    -0.394 OA
ATOM     17  H   UNL     1      -0.190   6.621  22.402  1.00  0.00     0.210 HD
ENDBRANCH  15  16
ENDBRANCH   4  15
TORSDOF 7
ENDMDL
MODEL 2
REMARK VINA RESULT:    -5.405      1.467      2.740
REMARK INTER + INTRA:          -7.477
REMARK INTER:                  -6.886
REMARK INTRA:                  -0.591
REMARK UNBOUND:                -0.492
REMARK SMILES CO[C@@]1(CO)O[C@@H](CO)[C@H](O)[C@H]1O
REMARK SMILES IDX 3 1 12 2 10 3 7 4 6 5 2 6 1 7 4 8 5 9 13 11 11 13 8 15 9 16
REMARK H PARENT 5 10 13 12 11 14 9 17
REMARK Flexibility Score: inf
ROOT
ATOM      1  C   UNL     1      -5.419   8.150  22.181  1.00  0.00     0.221 C 
ATOM      2  C   UNL     1      -5.249   8.681  23.612  1.00  0.00     0.207 C 
ATOM      3  C   UNL     1      -3.762   8.583  23.812  1.00  0.00     0.180 C 
ATOM      4  C   UNL     1      -3.412   7.359  22.972  1.00  0.00     0.179 C 
ATOM      5  O   UNL     1      -4.385   7.202  21.959  1.00  0.00    -0.337 OA
ENDROOT
BRANCH   1   6
ATOM      6  O   UNL     1      -5.323   9.249  21.274  1.00  0.00    -0.349 OA
ATOM      7  C   UNL     1      -4.958   8.856  19.966  1.00  0.00     0.198 C 
ENDBRANCH   1   6
BRANCH   1   8
ATOM      8  C   UNL     1      -6.790   7.456  22.033  1.00  0.00     0.224 C 
BRANCH   8   9
ATOM      9  O   UNL     1      -7.576   7.690  23.169  1.00  0.00    -0.391 OA
ATOM     10  H   UNL     1      -7.027   8.251  23.775  1.00  0.00     0.210 HD
ENDBRANCH   8   9
ENDBRANCH   1   8
BRANCH   2  11
ATOM     11  O   UNL     1      -5.699  10.007  23.734  1.00  0.00    -0.385 OA
ATOM     12  H   UNL     1      -6.668   9.958  23.940  1.00  0.00     0.211 HD
ENDBRANCH   2  11
BRANCH   3  13
ATOM     13  O   UNL     1      -3.438   8.372  25.162  1.00  0.00    -0.387 OA
ATOM     14  H   UNL     1      -2.495   8.062  25.180  1.00  0.00     0.211 HD
ENDBRANCH   3  13
BRANCH   4  15
ATOM     15  C   UNL     1      -2.018   7.465  22.339  1.00  0.00     0.191 C 
BRANCH  15  16
ATOM     16  O   UNL     1      -1.033   7.608  23.326  1.00  0.00    -0.394 OA
ATOM     17  H   UNL     1      -1.104   6.813  23.916  1.00  0.00     0.210 HD
ENDBRANCH  15  16
ENDBRANCH   4  15
TORSDOF 7
ENDMDL
MODEL 3
REMARK VINA RESULT:    -5.125      1.568      2.667
REMARK INTER + INTRA:          -7.116
REMARK INTER:                  -6.776
REMARK INTRA:                  -0.339
REMARK UNBOUND:                -0.492
REMARK SMILES CO[C@@]1(CO)O[C@@H](CO)[C@H](O)[C@H]1O
REMARK SMILES IDX 3 1 12 2 10 3 7 4 6 5 2 6 1 7 4 8 5 9 13 11 11 13 8 15 9 16
REMARK H PARENT 5 10 13 12 11 14 9 17
REMARK Flexibility Score: inf
ROOT
ATOM      1  C   UNL     1      -4.387   8.469  22.129  1.00  0.00     0.221 C 
ATOM      2  C   UNL     1      -2.901   8.102  22.258  1.00  0.00     0.207 C 
ATOM      3  C   UNL     1      -2.791   7.729  23.711  1.00  0.00     0.180 C 
ATOM      4  C   UNL     1      -3.826   8.650  24.350  1.00  0.00     0.179 C 
ATOM      5  O   UNL     1      -4.802   8.986  23.385  1.00  0.00    -0.337 OA
ENDROOT
BRANCH   1   6
ATOM      6  O   UNL     1      -5.117   7.292  21.782  1.00  0.00    -0.349 OA
ATOM      7  C   UNL     1      -6.512   7.435  21.957  1.00  0.00     0.198 C 
ENDBRANCH   1   6
BRANCH   1   8
ATOM      8  C   UNL     1      -4.573   9.550  21.044  1.00  0.00     0.224 C 
BRANCH   8   9
ATOM      9  O   UNL     1      -4.481   8.977  19.768  1.00  0.00    -0.391 OA
ATOM     10  H   UNL     1      -4.045   8.095  19.891  1.00  0.00     0.210 HD
ENDBRANCH   8   9
ENDBRANCH   1   8
BRANCH   2  11
ATOM     11  O   UNL     1      -2.554   7.026  21.422  1.00  0.00    -0.385 OA
ATOM     12  H   UNL     1      -2.811   7.290  20.501  1.00  0.00     0.211 HD
ENDBRANCH   2  11
BRANCH   3  13
ATOM     13  O   UNL     1      -1.508   7.995  24.214  1.00  0.00    -0.387 OA
ATOM     14  H   UNL     1      -0.900   7.329  23.800  1.00  0.00     0.211 HD
ENDBRANCH   3  13
BRANCH   4  15
ATOM     15  C   UNL     1      -4.503   8.009  25.570  1.00  0.00     0.191 C 
BRANCH  15  16
ATOM     16  O   UNL     1      -5.559   7.177  25.173  1.00  0.00    -0.394 OA
ATOM     17  H   UNL     1      -5.717   7.358  24.210  1.00  0.00     0.210 HD
ENDBRANCH  15  16
ENDBRANCH   4  15
TORSDOF 7
ENDMDL
MODEL 4
REMARK VINA RESULT:    -5.037      1.909      4.432
REMARK INTER + INTRA:          -7.002
REMARK INTER:                  -6.397
REMARK INTRA:                  -0.605
REMARK UNBOUND:                -0.492
REMARK SMILES CO[C@@]1(CO)O[C@@H](CO)[C@H](O)[C@H]1O
REMARK SMILES IDX 3 1 12 2 10 3 7 4 6 5 2 6 1 7 4 8 5 9 13 11 11 13 8 15 9 16
REMARK H PARENT 5 10 13 12 11 14 9 17
REMARK Flexibility Score: inf
ROOT
ATOM      1  C   UNL     1      -4.468   8.052  22.209  1.00  0.00     0.221 C 
ATOM      2  C   UNL     1      -4.983   8.288  20.781  1.00  0.00     0.207 C 
ATOM      3  C   UNL     1      -6.463   8.449  21.001  1.00  0.00     0.180 C 
ATOM      4  C   UNL     1      -6.705   7.528  22.193  1.00  0.00     0.179 C 
ATOM      5  O   UNL     1      -5.505   7.400  22.927  1.00  0.00    -0.337 OA
ENDROOT
BRANCH   1   6
ATOM      6  O   UNL     1      -4.144   9.316  22.789  1.00  0.00    -0.349 OA
ATOM      7  C   UNL     1      -4.234   9.315  24.200  1.00  0.00     0.198 C 
ENDBRANCH   1   6
BRANCH   1   8
ATOM      8  C   UNL     1      -3.219   7.146  22.177  1.00  0.00     0.224 C 
BRANCH   8   9
ATOM      9  O   UNL     1      -2.170   7.789  21.506  1.00  0.00    -0.391 OA
ATOM     10  H   UNL     1      -1.921   8.569  22.065  1.00  0.00     0.210 HD
ENDBRANCH   8   9
ENDBRANCH   1   8
BRANCH   2  11
ATOM     11  O   UNL     1      -4.419   9.439  20.205  1.00  0.00    -0.385 OA
ATOM     12  H   UNL     1      -3.442   9.279  20.153  1.00  0.00     0.211 HD
ENDBRANCH   2  11
BRANCH   3  13
ATOM     13  O   UNL     1      -7.198   8.024  19.883  1.00  0.00    -0.387 OA
ATOM     14  H   UNL     1      -7.444   7.078  20.052  1.00  0.00     0.211 HD
ENDBRANCH   3  13
BRANCH   4  15
ATOM     15  C   UNL     1      -7.822   8.044  23.111  1.00  0.00     0.191 C 
BRANCH  15  16
ATOM     16  O   UNL     1      -8.832   8.666  22.365  1.00  0.00    -0.394 OA
ATOM     17  H   UNL     1      -8.379   9.282  21.731  1.00  0.00     0.210 HD
ENDBRANCH  15  16
ENDBRANCH   4  15
TORSDOF 7
ENDMDL
MODEL 5
REMARK VINA RESULT:    -5.005      1.837      2.358
REMARK INTER + INTRA:          -6.960
REMARK INTER:                  -6.475
REMARK INTRA:                  -0.485
REMARK UNBOUND:                -0.492
REMARK SMILES CO[C@@]1(CO)O[C@@H](CO)[C@H](O)[C@H]1O
REMARK SMILES IDX 3 1 12 2 10 3 7 4 6 5 2 6 1 7 4 8 5 9 13 11 11 13 8 15 9 16
REMARK H PARENT 5 10 13 12 11 14 9 17
REMARK Flexibility Score: inf
ROOT
ATOM      1  C   UNL     1      -5.974   9.490  21.774  1.00  0.00     0.221 C 
ATOM      2  C   UNL     1      -4.666   9.490  20.969  1.00  0.00     0.207 C 
ATOM      3  C   UNL     1      -3.797   8.565  21.777  1.00  0.00     0.180 C 
ATOM      4  C   UNL     1      -4.295   8.825  23.195  1.00  0.00     0.179 C 
ATOM      5  O   UNL     1      -5.629   9.290  23.136  1.00  0.00    -0.337 OA
ENDROOT
BRANCH   1   6
ATOM      6  O   UNL     1      -6.808   8.439  21.286  1.00  0.00    -0.349 OA
ATOM      7  C   UNL     1      -8.181   8.776  21.290  1.00  0.00     0.198 C 
ENDBRANCH   1   6
BRANCH   1   8
ATOM      8  C   UNL     1      -6.688  10.850  21.621  1.00  0.00     0.224 C 
BRANCH   8   9
ATOM      9  O   UNL     1      -5.795  11.815  21.136  1.00  0.00    -0.391 OA
ATOM     10  H   UNL     1      -5.076  11.316  20.668  1.00  0.00     0.210 HD
ENDBRANCH   8   9
ENDBRANCH   1   8
BRANCH   2  11
ATOM     11  O   UNL     1      -4.856   9.007  19.662  1.00  0.00    -0.385 OA
ATOM     12  H   UNL     1      -3.989   8.620  19.375  1.00  0.00     0.211 HD
ENDBRANCH   2  11
BRANCH   3  13
ATOM     13  O   UNL     1      -2.439   8.899  21.655  1.00  0.00    -0.387 OA
ATOM     14  H   UNL     1      -2.369   9.869  21.853  1.00  0.00     0.211 HD
ENDBRANCH   3  13
BRANCH   4  15
ATOM     15  C   UNL     1      -4.221   7.573  24.079  1.00  0.00     0.191 C 
BRANCH  15  16
ATOM     16  O   UNL     1      -2.914   7.068  24.118  1.00  0.00    -0.394 OA
ATOM     17  H   UNL     1      -2.402   7.652  24.736  1.00  0.00     0.210 HD
ENDBRANCH  15  16
ENDBRANCH   4  15
TORSDOF 7
ENDMDL
MODEL 6
REMARK VINA RESULT:    -4.879      1.956      4.795
REMARK INTER + INTRA:          -6.797
REMARK INTER:                  -6.440
REMARK INTRA:                  -0.357
REMARK UNBOUND:                -0.492
REMARK SMILES CO[C@@]1(CO)O[C@@H](CO)[C@H](O)[C@H]1O
REMARK SMILES IDX 3 1 12 2 10 3 7 4 6 5 2 6 1 7 4 8 5 9 13 11 11 13 8 15 9 16
REMARK H PARENT 5 10 13 12 11 14 9 17
REMARK Flexibility Score: inf
ROOT
ATOM      1  C   UNL     1      -4.851   8.550  22.953  1.00  0.00     0.221 C 
ATOM      2  C   UNL     1      -5.966   7.559  23.320  1.00  0.00     0.207 C 
ATOM      3  C   UNL     1      -7.192   8.249  22.786  1.00  0.00     0.180 C 
ATOM      4  C   UNL     1      -6.829   9.719  22.970  1.00  0.00     0.179 C 
ATOM      5  O   UNL     1      -5.422   9.850  22.972  1.00  0.00    -0.337 OA
ENDROOT
BRANCH   1   6
ATOM      6  O   UNL     1      -4.355   8.216  21.657  1.00  0.00    -0.349 OA
ATOM      7  C   UNL     1      -4.091   9.351  20.857  1.00  0.00     0.198 C 
ENDBRANCH   1   6
BRANCH   1   8
ATOM      8  C   UNL     1      -3.714   8.475  23.994  1.00  0.00     0.224 C 
BRANCH   8   9
ATOM      9  O   UNL     1      -3.521   7.149  24.406  1.00  0.00    -0.391 OA
ATOM     10  H   UNL     1      -3.429   7.177  25.393  1.00  0.00     0.210 HD
ENDBRANCH   8   9
ENDBRANCH   1   8
BRANCH   2  11
ATOM     11  O   UNL     1      -5.774   6.307  22.711  1.00  0.00    -0.385 OA
ATOM     12  H   UNL     1      -5.222   5.770  23.337  1.00  0.00     0.211 HD
ENDBRANCH   2  11
BRANCH   3  13
ATOM     13  O   UNL     1      -8.334   7.918  23.532  1.00  0.00    -0.387 OA
ATOM     14  H   UNL     1      -9.115   8.216  22.998  1.00  0.00     0.211 HD
ENDBRANCH   3  13
BRANCH   4  15
ATOM     15  C   UNL     1      -7.431  10.610  21.875  1.00  0.00     0.191 C 
BRANCH  15  16
ATOM     16  O   UNL     1      -6.569  11.672  21.568  1.00  0.00    -0.394 OA
ATOM     17  H   UNL     1      -6.401  11.629  20.591  1.00  0.00     0.210 HD
ENDBRANCH  15  16
ENDBRANCH   4  15
TORSDOF 7
ENDMDL
MODEL 7
REMARK VINA RESULT:    -4.825      1.698      3.965
REMARK INTER + INTRA:          -6.728
REMARK INTER:                  -6.396
REMARK INTRA:                  -0.331
REMARK UNBOUND:                -0.492
REMARK SMILES CO[C@@]1(CO)O[C@@H](CO)[C@H](O)[C@H]1O
REMARK SMILES IDX 3 1 12 2 10 3 7 4 6 5 2 6 1 7 4 8 5 9 13 11 11 13 8 15 9 16
REMARK H PARENT 5 10 13 12 11 14 9 17
REMARK Flexibility Score: inf
ROOT
ATOM      1  C   UNL     1      -4.529   8.100  23.267  1.00  0.00     0.221 C 
ATOM      2  C   UNL     1      -5.949   7.643  22.899  1.00  0.00     0.207 C 
ATOM      3  C   UNL     1      -6.197   8.384  21.614  1.00  0.00     0.180 C 
ATOM      4  C   UNL     1      -5.404   9.669  21.834  1.00  0.00     0.179 C 
ATOM      5  O   UNL     1      -4.367   9.416  22.760  1.00  0.00    -0.337 OA
ENDROOT
BRANCH   1   6
ATOM      6  O   UNL     1      -3.594   7.195  22.677  1.00  0.00    -0.349 OA
ATOM      7  C   UNL     1      -2.312   7.764  22.500  1.00  0.00     0.198 C 
ENDBRANCH   1   6
BRANCH   1   8
ATOM      8  C   UNL     1      -4.359   8.116  24.800  1.00  0.00     0.224 C 
BRANCH   8   9
ATOM      9  O   UNL     1      -4.443   9.429  25.284  1.00  0.00    -0.391 OA
ATOM     10  H   UNL     1      -3.866   9.979  24.694  1.00  0.00     0.210 HD
ENDBRANCH   8   9
ENDBRANCH   1   8
BRANCH   2  11
ATOM     11  O   UNL     1      -6.018   6.252  22.713  1.00  0.00    -0.385 OA
ATOM     12  H   UNL     1      -5.609   5.839  23.516  1.00  0.00     0.211 HD
ENDBRANCH   2  11
BRANCH   3  13
ATOM     13  O   UNL     1      -7.562   8.664  21.438  1.00  0.00    -0.387 OA
ATOM     14  H   UNL     1      -7.945   8.777  22.347  1.00  0.00     0.211 HD
ENDBRANCH   3  13
BRANCH   4  15
ATOM     15  C   UNL     1      -4.811  10.220  20.530  1.00  0.00     0.191 C 
BRANCH  15  16
ATOM     16  O   UNL     1      -4.599   9.188  19.605  1.00  0.00    -0.394 OA
ATOM     17  H   UNL     1      -3.649   8.916  19.697  1.00  0.00     0.210 HD
ENDBRANCH  15  16
ENDBRANCH   4  15
TORSDOF 7
ENDMDL
MODEL 8
REMARK VINA RESULT:    -4.743      9.056     10.626
REMARK INTER + INTRA:          -6.622
REMARK INTER:                  -6.030
REMARK INTRA:                  -0.592
REMARK UNBOUND:                -0.492
REMARK SMILES CO[C@@]1(CO)O[C@@H](CO)[C@H](O)[C@H]1O
REMARK SMILES IDX 3 1 12 2 10 3 7 4 6 5 2 6 1 7 4 8 5 9 13 11 11 13 8 15 9 16
REMARK H PARENT 5 10 13 12 11 14 9 17
REMARK Flexibility Score: inf
ROOT
ATOM      1  C   UNL     1       0.237  16.578  24.872  1.00  0.00     0.221 C 
ATOM      2  C   UNL     1       0.215  18.100  24.664  1.00  0.00     0.207 C 
ATOM      3  C   UNL     1      -1.255  18.377  24.508  1.00  0.00     0.180 C 
ATOM      4  C   UNL     1      -1.745  17.099  23.834  1.00  0.00     0.179 C 
ATOM      5  O   UNL     1      -0.868  16.041  24.160  1.00  0.00    -0.337 OA
ENDROOT
BRANCH   1   6
ATOM      6  O   UNL     1       0.137  16.309  26.271  1.00  0.00    -0.349 OA
ATOM      7  C   UNL     1      -0.310  14.998  26.551  1.00  0.00     0.198 C 
ENDBRANCH   1   6
BRANCH   1   8
ATOM      8  C   UNL     1       1.547  15.986  24.309  1.00  0.00     0.224 C 
BRANCH   8   9
ATOM      9  O   UNL     1       2.650  16.508  24.997  1.00  0.00    -0.391 OA
ATOM     10  H   UNL     1       3.448  16.042  24.635  1.00  0.00     0.210 HD
ENDBRANCH   8   9
ENDBRANCH   1   8
BRANCH   2  11
ATOM     11  O   UNL     1       0.755  18.785  25.766  1.00  0.00    -0.385 OA
ATOM     12  H   UNL     1       0.127  18.645  26.521  1.00  0.00     0.211 HD
ENDBRANCH   2  11
BRANCH   3  13
ATOM     13  O   UNL     1      -1.483  19.493  23.688  1.00  0.00    -0.387 OA
ATOM     14  H   UNL     1      -1.878  20.194  24.269  1.00  0.00     0.211 HD
ENDBRANCH   3  13
BRANCH   4  15
ATOM     15  C   UNL     1      -3.176  16.732  24.250  1.00  0.00     0.191 C 
BRANCH  15  16
ATOM     16  O   UNL     1      -3.707  17.700  25.115  1.00  0.00    -0.394 OA
ATOM     17  H   UNL     1      -4.167  17.208  25.844  1.00  0.00     0.210 HD
ENDBRANCH  15  16
ENDBRANCH   4  15
TORSDOF 7
ENDMDL
