MODEL 1
REMARK VINA RESULT:    -4.023      0.000      0.000
REMARK INTER + INTRA:          -6.541
REMARK INTER:                  -6.140
REMARK INTRA:                  -0.401
REMARK UNBOUND:                -0.401
REMARK SMILES O=C([O-])CCCCCCCCC(=O)[O-]
REMARK SMILES IDX 7 1 6 2 5 3 4 4 2 5 1 6 3 7 8 8 9 9 10 10 11 11 12 12 13 13
REMARK SMILES IDX 14 14
REMARK H PARENT
REMARK Flexibility Score: inf
ROOT
ATOM      1  C   UNL     1     -16.369   5.641  30.334  1.00  0.00     0.000 C 
ENDROOT
BRANCH   1   2
ATOM      2  C   UNL     1     -15.996   7.134  30.429  1.00  0.00     0.000 C 
BRANCH   2   3
ATOM      3  C   UNL     1     -14.987   7.632  29.377  1.00  0.00     0.006 C 
BRANCH   3   4
ATOM      4  C   UNL     1     -13.725   6.756  29.258  1.00  0.00     0.053 C 
BRANCH   4   5
ATOM      5  C   UNL     1     -12.540   7.519  28.745  1.00  0.00     0.041 C 
ATOM      6  O   UNL     1     -11.485   6.911  28.425  1.00  0.00    -0.550 OA
ATOM      7  O   UNL     1     -12.588   8.905  28.655  1.00  0.00    -0.550 OA
ENDBRANCH   4   5
ENDBRANCH   3   4
ENDBRANCH   2   3
ENDBRANCH   1   2
BRANCH   1   8
ATOM      8  C   UNL     1     -16.437   4.896  31.679  1.00  0.00     0.000 C 
BRANCH   8   9
ATOM      9  C   UNL     1     -15.138   4.148  32.015  1.00  0.00     0.000 C 
BRANCH   9  10
ATOM     10  C   UNL     1     -15.250   3.434  33.368  1.00  0.00     0.006 C 
BRANCH  10  11
ATOM     11  C   UNL     1     -16.686   2.965  33.624  1.00  0.00     0.053 C 
BRANCH  11  12
ATOM     12  C   UNL     1     -16.694   1.560  34.138  1.00  0.00     0.041 C 
ATOM     13  O   UNL     1     -16.269   1.307  35.296  1.00  0.00    -0.550 OA
ATOM     14  O   UNL     1     -17.125   0.523  33.321  1.00  0.00    -0.550 OA
ENDBRANCH  11  12
ENDBRANCH  10  11
ENDBRANCH   9  10
ENDBRANCH   8   9
ENDBRANCH   1   8
TORSDOF 9
ENDMDL
MODEL 2
REMARK VINA RESULT:    -3.988      0.744      7.506
REMARK INTER + INTRA:          -6.487
REMARK INTER:                  -6.150
REMARK INTRA:                  -0.337
REMARK UNBOUND:                -0.401
REMARK SMILES O=C([O-])CCCCCCCCC(=O)[O-]
REMARK SMILES IDX 7 1 6 2 5 3 4 4 2 5 1 6 3 7 8 8 9 9 10 10 11 11 12 12 13 13
REMARK SMILES IDX 14 14
REMARK H PARENT
REMARK Flexibility Score: inf
ROOT
ATOM      1  C   UNL     1     -16.194   5.201  30.839  1.00  0.00     0.000 C 
ENDROOT
BRANCH   1   2
ATOM      2  C   UNL     1     -16.936   4.639  32.068  1.00  0.00     0.000 C 
BRANCH   2   3
ATOM      3  C   UNL     1     -16.228   3.479  32.793  1.00  0.00     0.006 C 
BRANCH   3   4
ATOM      4  C   UNL     1     -17.105   2.766  33.840  1.00  0.00     0.053 C 
BRANCH   4   5
ATOM      5  C   UNL     1     -16.605   1.394  34.175  1.00  0.00     0.041 C 
ATOM      6  O   UNL     1     -16.118   1.156  35.312  1.00  0.00    -0.550 OA
ATOM      7  O   UNL     1     -16.642   0.385  33.220  1.00  0.00    -0.550 OA
ENDBRANCH   4   5
ENDBRANCH   3   4
ENDBRANCH   2   3
ENDBRANCH   1   2
BRANCH   1   8
ATOM      8  C   UNL     1     -16.348   6.717  30.619  1.00  0.00     0.000 C 
BRANCH   8   9
ATOM      9  C   UNL     1     -15.219   7.315  29.766  1.00  0.00     0.000 C 
BRANCH   9  10
ATOM     10  C   UNL     1     -14.185   6.244  29.397  1.00  0.00     0.006 C 
BRANCH  10  11
ATOM     11  C   UNL     1     -13.389   6.653  28.154  1.00  0.00     0.053 C 
BRANCH  11  12
ATOM     12  C   UNL     1     -12.350   7.669  28.508  1.00  0.00     0.041 C 
ATOM     13  O   UNL     1     -11.414   7.370  29.296  1.00  0.00    -0.550 OA
ATOM     14  O   UNL     1     -12.442   8.962  28.009  1.00  0.00    -0.550 OA
ENDBRANCH  11  12
ENDBRANCH  10  11
ENDBRANCH   9  10
ENDBRANCH   8   9
ENDBRANCH   1   8
TORSDOF 9
ENDMDL
MODEL 3
REMARK VINA RESULT:    -3.939      1.375      7.289
REMARK INTER + INTRA:          -6.411
REMARK INTER:                  -6.021
REMARK INTRA:                  -0.391
REMARK UNBOUND:                -0.401
REMARK SMILES O=C([O-])CCCCCCCCC(=O)[O-]
REMARK SMILES IDX 7 1 6 2 5 3 4 4 2 5 1 6 3 7 8 8 9 9 10 10 11 11 12 12 13 13
REMARK SMILES IDX 14 14
REMARK H PARENT
REMARK Flexibility Score: inf
ROOT
ATOM      1  C   UNL     1     -16.378   6.637  30.500  1.00  0.00     0.000 C 
ENDROOT
BRANCH   1   2
ATOM      2  C   UNL     1     -16.359   5.522  31.564  1.00  0.00     0.000 C 
BRANCH   2   3
ATOM      3  C   UNL     1     -15.635   4.227  31.151  1.00  0.00     0.006 C 
BRANCH   3   4
ATOM      4  C   UNL     1     -14.749   3.625  32.259  1.00  0.00     0.053 C 
BRANCH   4   5
ATOM      5  C   UNL     1     -15.506   2.699  33.164  1.00  0.00     0.041 C 
ATOM      6  O   UNL     1     -15.985   3.124  34.248  1.00  0.00    -0.550 OA
ATOM      7  O   UNL     1     -15.650   1.359  32.828  1.00  0.00    -0.550 OA
ENDBRANCH   4   5
ENDBRANCH   3   4
ENDBRANCH   2   3
ENDBRANCH   1   2
BRANCH   1   8
ATOM      8  C   UNL     1     -15.039   6.875  29.778  1.00  0.00     0.000 C 
BRANCH   8   9
ATOM      9  C   UNL     1     -14.871   8.322  29.291  1.00  0.00     0.000 C 
BRANCH   9  10
ATOM     10  C   UNL     1     -13.839   8.403  28.159  1.00  0.00     0.006 C 
BRANCH  10  11
ATOM     11  C   UNL     1     -12.570   9.125  28.623  1.00  0.00     0.053 C 
BRANCH  11  12
ATOM     12  C   UNL     1     -11.406   8.187  28.627  1.00  0.00     0.041 C 
ATOM     13  O   UNL     1     -10.401   8.422  27.906  1.00  0.00    -0.550 OA
ATOM     14  O   UNL     1     -11.449   7.027  29.390  1.00  0.00    -0.550 OA
ENDBRANCH  11  12
ENDBRANCH  10  11
ENDBRANCH   9  10
ENDBRANCH   8   9
ENDBRANCH   1   8
TORSDOF 9
ENDMDL
MODEL 4
REMARK VINA RESULT:    -3.936      3.227      4.804
REMARK INTER + INTRA:          -6.407
REMARK INTER:                  -5.772
REMARK INTRA:                  -0.635
REMARK UNBOUND:                -0.401
REMARK SMILES O=C([O-])CCCCCCCCC(=O)[O-]
REMARK SMILES IDX 7 1 6 2 5 3 4 4 2 5 1 6 3 7 8 8 9 9 10 10 11 11 12 12 13 13
REMARK SMILES IDX 14 14
REMARK H PARENT
REMARK Flexibility Score: inf
ROOT
ATOM      1  C   UNL     1     -12.811   8.306  27.564  1.00  0.00     0.000 C 
ENDROOT
BRANCH   1   2
ATOM      2  C   UNL     1     -11.833   8.838  28.630  1.00  0.00     0.000 C 
BRANCH   2   3
ATOM      3  C   UNL     1     -10.963   7.771  29.320  1.00  0.00     0.006 C 
BRANCH   3   4
ATOM      4  C   UNL     1     -11.475   6.330  29.133  1.00  0.00     0.053 C 
BRANCH   4   5
ATOM      5  C   UNL     1     -10.863   5.369  30.108  1.00  0.00     0.041 C 
ATOM      6  O   UNL     1     -10.710   5.699  31.313  1.00  0.00    -0.550 OA
ATOM      7  O   UNL     1     -10.427   4.122  29.677  1.00  0.00    -0.550 OA
ENDBRANCH   4   5
ENDBRANCH   3   4
ENDBRANCH   2   3
ENDBRANCH   1   2
BRANCH   1   8
ATOM      8  C   UNL     1     -14.267   8.781  27.717  1.00  0.00     0.000 C 
BRANCH   8   9
ATOM      9  C   UNL     1     -14.811   8.596  29.141  1.00  0.00     0.000 C 
BRANCH   9  10
ATOM     10  C   UNL     1     -15.096   7.116  29.431  1.00  0.00     0.006 C 
BRANCH  10  11
ATOM     11  C   UNL     1     -16.158   6.965  30.524  1.00  0.00     0.053 C 
BRANCH  11  12
ATOM     12  C   UNL     1     -16.484   5.522  30.741  1.00  0.00     0.041 C 
ATOM     13  O   UNL     1     -16.482   5.040  31.905  1.00  0.00    -0.550 OA
ATOM     14  O   UNL     1     -16.744   4.696  29.656  1.00  0.00    -0.550 OA
ENDBRANCH  11  12
ENDBRANCH  10  11
ENDBRANCH   9  10
ENDBRANCH   8   9
ENDBRANCH   1   8
TORSDOF 9
ENDMDL
MODEL 5
REMARK VINA RESULT:    -3.934      1.755      2.466
REMARK INTER + INTRA:          -6.404
REMARK INTER:                  -5.775
REMARK INTRA:                  -0.629
REMARK UNBOUND:                -0.401
REMARK SMILES O=C([O-])CCCCCCCCC(=O)[O-]
REMARK SMILES IDX 7 1 6 2 5 3 4 4 2 5 1 6 3 7 8 8 9 9 10 10 11 11 12 12 13 13
REMARK SMILES IDX 14 14
REMARK H PARENT
REMARK Flexibility Score: inf
ROOT
ATOM      1  C   UNL     1     -13.620   3.916  30.682  1.00  0.00     0.000 C 
ENDROOT
BRANCH   1   2
ATOM      2  C   UNL     1     -12.700   5.147  30.551  1.00  0.00     0.000 C 
BRANCH   2   3
ATOM      3  C   UNL     1     -13.044   6.108  29.397  1.00  0.00     0.006 C 
BRANCH   3   4
ATOM      4  C   UNL     1     -14.545   6.166  29.057  1.00  0.00     0.053 C 
BRANCH   4   5
ATOM      5  C   UNL     1     -15.251   7.292  29.750  1.00  0.00     0.041 C 
ATOM      6  O   UNL     1     -16.073   7.053  30.674  1.00  0.00    -0.550 OA
ATOM      7  O   UNL     1     -15.029   8.605  29.353  1.00  0.00    -0.550 OA
ENDBRANCH   4   5
ENDBRANCH   3   4
ENDBRANCH   2   3
ENDBRANCH   1   2
BRANCH   1   8
ATOM      8  C   UNL     1     -14.427   3.840  31.990  1.00  0.00     0.000 C 
BRANCH   8   9
ATOM      9  C   UNL     1     -15.918   3.554  31.757  1.00  0.00     0.000 C 
BRANCH   9  10
ATOM     10  C   UNL     1     -16.671   3.442  33.089  1.00  0.00     0.006 C 
BRANCH  10  11
ATOM     11  C   UNL     1     -15.758   2.895  34.191  1.00  0.00     0.053 C 
BRANCH  11  12
ATOM     12  C   UNL     1     -16.093   1.468  34.487  1.00  0.00     0.041 C 
ATOM     13  O   UNL     1     -16.380   1.115  35.662  1.00  0.00    -0.550 OA
ATOM     14  O   UNL     1     -16.041   0.516  33.477  1.00  0.00    -0.550 OA
ENDBRANCH  11  12
ENDBRANCH  10  11
ENDBRANCH   9  10
ENDBRANCH   8   9
ENDBRANCH   1   8
TORSDOF 9
ENDMDL
MODEL 6
REMARK VINA RESULT:    -3.919      2.029      2.946
REMARK INTER + INTRA:          -6.382
REMARK INTER:                  -5.848
REMARK INTRA:                  -0.534
REMARK UNBOUND:                -0.401
REMARK SMILES O=C([O-])CCCCCCCCC(=O)[O-]
REMARK SMILES IDX 7 1 6 2 5 3 4 4 2 5 1 6 3 7 8 8 9 9 10 10 11 11 12 12 13 13
REMARK SMILES IDX 14 14
REMARK H PARENT
REMARK Flexibility Score: inf
ROOT
ATOM      1  C   UNL     1     -14.420   6.821  29.343  1.00  0.00     0.000 C 
ENDROOT
BRANCH   1   2
ATOM      2  C   UNL     1     -13.972   7.742  28.191  1.00  0.00     0.000 C 
BRANCH   2   3
ATOM      3  C   UNL     1     -13.231   9.024  28.619  1.00  0.00     0.006 C 
BRANCH   3   4
ATOM      4  C   UNL     1     -11.739   9.041  28.237  1.00  0.00     0.053 C 
BRANCH   4   5
ATOM      5  C   UNL     1     -10.873   8.374  29.263  1.00  0.00     0.041 C 
ATOM      6  O   UNL     1     -10.691   7.128  29.227  1.00  0.00    -0.550 OA
ATOM      7  O   UNL     1     -10.296   9.122  30.282  1.00  0.00    -0.550 OA
ENDBRANCH   4   5
ENDBRANCH   3   4
ENDBRANCH   2   3
ENDBRANCH   1   2
BRANCH   1   8
ATOM      8  C   UNL     1     -15.659   7.301  30.120  1.00  0.00     0.000 C 
BRANCH   8   9
ATOM      9  C   UNL     1     -16.366   6.167  30.877  1.00  0.00     0.000 C 
BRANCH   9  10
ATOM     10  C   UNL     1     -16.074   4.808  30.227  1.00  0.00     0.006 C 
BRANCH  10  11
ATOM     11  C   UNL     1     -16.294   3.664  31.221  1.00  0.00     0.053 C 
BRANCH  11  12
ATOM     12  C   UNL     1     -15.182   3.620  32.221  1.00  0.00     0.041 C 
ATOM     13  O   UNL     1     -15.439   3.512  33.449  1.00  0.00    -0.550 OA
ATOM     14  O   UNL     1     -13.864   3.746  31.803  1.00  0.00    -0.550 OA
ENDBRANCH  11  12
ENDBRANCH  10  11
ENDBRANCH   9  10
ENDBRANCH   8   9
ENDBRANCH   1   8
TORSDOF 9
ENDMDL
MODEL 7
REMARK VINA RESULT:    -3.849     22.655     24.408
REMARK INTER + INTRA:          -6.275
REMARK INTER:                  -5.446
REMARK INTRA:                  -0.829
REMARK UNBOUND:                -0.401
REMARK SMILES O=C([O-])CCCCCCCCC(=O)[O-]
REMARK SMILES IDX 7 1 6 2 5 3 4 4 2 5 1 6 3 7 8 8 9 9 10 10 11 11 12 12 13 13
REMARK SMILES IDX 14 14
REMARK H PARENT
REMARK Flexibility Score: inf
ROOT
ATOM      1  C   UNL     1       2.030  -6.653  21.353  1.00  0.00     0.000 C 
ENDROOT
BRANCH   1   2
ATOM      2  C   UNL     1       1.103  -5.538  20.829  1.00  0.00     0.000 C 
BRANCH   2   3
ATOM      3  C   UNL     1       0.886  -5.521  19.304  1.00  0.00     0.006 C 
BRANCH   3   4
ATOM      4  C   UNL     1      -0.540  -5.909  18.870  1.00  0.00     0.053 C 
BRANCH   4   5
ATOM      5  C   UNL     1      -0.562  -7.093  17.951  1.00  0.00     0.041 C 
ATOM      6  O   UNL     1       0.438  -7.358  17.234  1.00  0.00    -0.550 OA
ATOM      7  O   UNL     1      -1.702  -7.883  17.858  1.00  0.00    -0.550 OA
ENDBRANCH   4   5
ENDBRANCH   3   4
ENDBRANCH   2   3
ENDBRANCH   1   2
BRANCH   1   8
ATOM      8  C   UNL     1       1.333  -7.989  21.666  1.00  0.00     0.000 C 
BRANCH   8   9
ATOM      9  C   UNL     1       2.086  -9.203  21.101  1.00  0.00     0.000 C 
BRANCH   9  10
ATOM     10  C   UNL     1       2.406  -9.007  19.614  1.00  0.00     0.006 C 
BRANCH  10  11
ATOM     11  C   UNL     1       2.587 -10.354  18.908  1.00  0.00     0.053 C 
BRANCH  11  12
ATOM     12  C   UNL     1       1.464 -10.599  17.951  1.00  0.00     0.041 C 
ATOM     13  O   UNL     1       1.702 -10.769  16.726  1.00  0.00    -0.550 OA
ATOM     14  O   UNL     1       0.151 -10.592  18.402  1.00  0.00    -0.550 OA
ENDBRANCH  11  12
ENDBRANCH  10  11
ENDBRANCH   9  10
ENDBRANCH   8   9
ENDBRANCH   1   8
TORSDOF 9
ENDMDL
MODEL 8
REMARK VINA RESULT:    -3.790      2.074      2.724
REMARK INTER + INTRA:          -6.185
REMARK INTER:                  -5.343
REMARK INTRA:                  -0.841
REMARK UNBOUND:                -0.401
REMARK SMILES O=C([O-])CCCCCCCCC(=O)[O-]
REMARK SMILES IDX 7 1 6 2 5 3 4 4 2 5 1 6 3 7 8 8 9 9 10 10 11 11 12 12 13 13
REMARK SMILES IDX 14 14
REMARK H PARENT
REMARK Flexibility Score: inf
ROOT
ATOM      1  C   UNL     1     -15.581   7.305  30.097  1.00  0.00     0.000 C 
ENDROOT
BRANCH   1   2
ATOM      2  C   UNL     1     -14.678   6.801  28.954  1.00  0.00     0.000 C 
BRANCH   2   3
ATOM      3  C   UNL     1     -13.197   6.590  29.326  1.00  0.00     0.006 C 
BRANCH   3   4
ATOM      4  C   UNL     1     -12.788   5.110  29.452  1.00  0.00     0.053 C 
BRANCH   4   5
ATOM      5  C   UNL     1     -12.190   4.788  30.788  1.00  0.00     0.041 C 
ATOM      6  O   UNL     1     -11.198   5.438  31.212  1.00  0.00    -0.550 OA
ATOM      7  O   UNL     1     -12.704   3.746  31.550  1.00  0.00    -0.550 OA
ENDBRANCH   4   5
ENDBRANCH   3   4
ENDBRANCH   2   3
ENDBRANCH   1   2
BRANCH   1   8
ATOM      8  C   UNL     1     -16.359   6.209  30.848  1.00  0.00     0.000 C 
BRANCH   8   9
ATOM      9  C   UNL     1     -16.498   4.912  30.037  1.00  0.00     0.000 C 
BRANCH   9  10
ATOM     10  C   UNL     1     -16.138   3.690  30.891  1.00  0.00     0.006 C 
BRANCH  10  11
ATOM     11  C   UNL     1     -16.432   3.949  32.372  1.00  0.00     0.053 C 
BRANCH  11  12
ATOM     12  C   UNL     1     -15.760   2.921  33.226  1.00  0.00     0.041 C 
ATOM     13  O   UNL     1     -15.581   3.137  34.454  1.00  0.00    -0.550 OA
ATOM     14  O   UNL     1     -15.286   1.746  32.659  1.00  0.00    -0.550 OA
ENDBRANCH  11  12
ENDBRANCH  10  11
ENDBRANCH   9  10
ENDBRANCH   8   9
ENDBRANCH   1   8
TORSDOF 9
ENDMDL
MODEL 9
REMARK VINA RESULT:    -3.467      1.861      7.263
REMARK INTER + INTRA:          -5.692
REMARK INTER:                  -5.339
REMARK INTRA:                  -0.354
REMARK UNBOUND:                -0.401
REMARK SMILES O=C([O-])CCCCCCCCC(=O)[O-]
REMARK SMILES IDX 7 1 6 2 5 3 4 4 2 5 1 6 3 7 8 8 9 9 10 10 11 11 12 12 13 13
REMARK SMILES IDX 14 14
REMARK H PARENT
REMARK Flexibility Score: inf
ROOT
ATOM      1  C   UNL     1     -14.836   7.243  29.544  1.00  0.00     0.000 C 
ENDROOT
BRANCH   1   2
ATOM      2  C   UNL     1     -16.044   6.862  30.423  1.00  0.00     0.000 C 
BRANCH   2   3
ATOM      3  C   UNL     1     -16.256   5.351  30.636  1.00  0.00     0.006 C 
BRANCH   3   4
ATOM      4  C   UNL     1     -17.004   5.001  31.936  1.00  0.00     0.053 C 
BRANCH   4   5
ATOM      5  C   UNL     1     -16.364   3.871  32.684  1.00  0.00     0.041 C 
ATOM      6  O   UNL     1     -17.076   3.006  33.258  1.00  0.00    -0.550 OA
ATOM      7  O   UNL     1     -14.980   3.794  32.781  1.00  0.00    -0.550 OA
ENDBRANCH   4   5
ENDBRANCH   3   4
ENDBRANCH   2   3
ENDBRANCH   1   2
BRANCH   1   8
ATOM      8  C   UNL     1     -14.815   8.704  29.058  1.00  0.00     0.000 C 
BRANCH   8   9
ATOM      9  C   UNL     1     -13.771   8.954  27.960  1.00  0.00     0.000 C 
BRANCH   9  10
ATOM     10  C   UNL     1     -12.654   7.904  28.016  1.00  0.00     0.006 C 
BRANCH  10  11
ATOM     11  C   UNL     1     -11.281   8.569  28.149  1.00  0.00     0.053 C 
BRANCH  11  12
ATOM     12  C   UNL     1     -10.627   8.166  29.433  1.00  0.00     0.041 C 
ATOM     13  O   UNL     1     -10.652   6.963  29.806  1.00  0.00    -0.550 OA
ATOM     14  O   UNL     1     -10.033   9.125  30.242  1.00  0.00    -0.550 OA
ENDBRANCH  11  12
ENDBRANCH  10  11
ENDBRANCH   9  10
ENDBRANCH   8   9
ENDBRANCH   1   8
TORSDOF 9
ENDMDL
