MODEL 1
REMARK VINA RESULT:    -4.974      0.000      0.000
REMARK INTER + INTRA:         -15.754
REMARK INTER:                 -13.116
REMARK INTRA:                  -2.638
REMARK UNBOUND:                -2.638
REMARK SMILES CCCCCCCCCCCCCCCCCCCCCCCCCCCCCC(=O)[O-]
REMARK SMILES IDX 16 1 17 2 18 3 19 4 20 5 21 6 22 7 23 8 24 9 25 10 26 11
REMARK SMILES IDX 27 12 28 13 29 14 30 15 31 16 32 17 15 18 14 19 13 20 12 21
REMARK SMILES IDX 11 22 10 23 9 24 8 25 7 26 6 27 5 28 4 29 3 30 2 31 1 32
REMARK H PARENT
REMARK Flexibility Score: inf
ROOT
ATOM      1  C   UNL     1      -5.896  -6.641  28.218  1.00  0.00     0.000 C 
ENDROOT
BRANCH   1   2
ATOM      2  C   UNL     1      -5.461  -5.164  28.206  1.00  0.00     0.000 C 
BRANCH   2   3
ATOM      3  C   UNL     1      -5.241  -4.613  29.633  1.00  0.00     0.000 C 
BRANCH   3   4
ATOM      4  C   UNL     1      -5.157  -3.079  29.695  1.00  0.00     0.000 C 
BRANCH   4   5
ATOM      5  C   UNL     1      -5.436  -2.414  28.338  1.00  0.00     0.000 C 
BRANCH   5   6
ATOM      6  C   UNL     1      -4.736  -1.052  28.192  1.00  0.00     0.000 C 
BRANCH   6   7
ATOM      7  C   UNL     1      -5.393   0.049  29.047  1.00  0.00     0.000 C 
BRANCH   7   8
ATOM      8  C   UNL     1      -4.368   1.010  29.677  1.00  0.00     0.000 C 
BRANCH   8   9
ATOM      9  C   UNL     1      -2.894   0.599  29.498  1.00  0.00     0.000 C 
BRANCH   9  10
ATOM     10  C   UNL     1      -1.964   1.802  29.262  1.00  0.00     0.000 C 
BRANCH  10  11
ATOM     11  C   UNL     1      -1.188   1.708  27.933  1.00  0.00     0.000 C 
BRANCH  11  12
ATOM     12  C   UNL     1      -1.198   0.318  27.269  1.00  0.00     0.000 C 
BRANCH  12  13
ATOM     13  C   UNL     1       0.145  -0.423  27.410  1.00  0.00     0.006 C 
BRANCH  13  14
ATOM     14  C   UNL     1      -0.008  -1.937  27.215  1.00  0.00     0.053 C 
BRANCH  14  15
ATOM     15  C   UNL     1      -0.439  -2.621  28.477  1.00  0.00     0.041 C 
ATOM     16  O   UNL     1       0.417  -2.958  29.341  1.00  0.00    -0.550 OA
ATOM     17  O   UNL     1      -1.782  -2.899  28.695  1.00  0.00    -0.550 OA
ENDBRANCH  14  15
ENDBRANCH  13  14
ENDBRANCH  12  13
ENDBRANCH  11  12
ENDBRANCH  10  11
ENDBRANCH   9  10
ENDBRANCH   8   9
ENDBRANCH   7   8
ENDBRANCH   6   7
ENDBRANCH   5   6
ENDBRANCH   4   5
ENDBRANCH   3   4
ENDBRANCH   2   3
ENDBRANCH   1   2
BRANCH   1  18
ATOM     18  C   UNL     1      -5.776  -7.279  29.620  1.00  0.00     0.000 C 
BRANCH  18  19
ATOM     19  C   UNL     1      -6.397  -8.685  29.719  1.00  0.00     0.000 C 
BRANCH  19  20
ATOM     20  C   UNL     1      -5.390  -9.847  29.654  1.00  0.00     0.000 C 
BRANCH  20  21
ATOM     21  C   UNL     1      -5.025 -10.308  28.229  1.00  0.00     0.000 C 
BRANCH  21  22
ATOM     22  C   UNL     1      -3.945 -11.408  28.152  1.00  0.00     0.000 C 
BRANCH  22  23
ATOM     23  C   UNL     1      -3.742 -12.038  26.761  1.00  0.00     0.000 C 
BRANCH  23  24
ATOM     24  C   UNL     1      -2.324 -12.597  26.558  1.00  0.00    -0.000 C 
BRANCH  24  25
ATOM     25  C   UNL     1      -1.274 -11.908  27.447  1.00  0.00    -0.000 C 
BRANCH  25  26
ATOM     26  C   UNL     1      -0.166 -11.183  26.653  1.00  0.00    -0.000 C 
BRANCH  26  27
ATOM     27  C   UNL     1       0.323 -12.016  25.455  1.00  0.00    -0.000 C 
BRANCH  27  28
ATOM     28  C   UNL     1       0.142 -11.287  24.114  1.00  0.00    -0.000 C 
BRANCH  28  29
ATOM     29  C   UNL     1      -0.235 -12.240  22.969  1.00  0.00    -0.000 C 
BRANCH  29  30
ATOM     30  C   UNL     1      -0.794 -13.562  23.514  1.00  0.00    -0.000 C 
BRANCH  30  31
ATOM     31  C   UNL     1      -2.140 -13.940  22.874  1.00  0.00    -0.003 C 
ATOM     32  C   UNL     1      -3.203 -12.856  23.049  1.00  0.00     0.004 C 
ENDBRANCH  30  31
ENDBRANCH  29  30
ENDBRANCH  28  29
ENDBRANCH  27  28
ENDBRANCH  26  27
ENDBRANCH  25  26
ENDBRANCH  24  25
ENDBRANCH  23  24
ENDBRANCH  22  23
ENDBRANCH  21  22
ENDBRANCH  20  21
ENDBRANCH  19  20
ENDBRANCH  18  19
ENDBRANCH   1  18
TORSDOF 28
ENDMDL
MODEL 2
REMARK VINA RESULT:    -4.878      1.214      3.318
REMARK INTER + INTRA:         -15.500
REMARK INTER:                 -12.762
REMARK INTRA:                  -2.738
REMARK UNBOUND:                -2.638
REMARK SMILES CCCCCCCCCCCCCCCCCCCCCCCCCCCCCC(=O)[O-]
REMARK SMILES IDX 16 1 17 2 18 3 19 4 20 5 21 6 22 7 23 8 24 9 25 10 26 11
REMARK SMILES IDX 27 12 28 13 29 14 30 15 31 16 32 17 15 18 14 19 13 20 12 21
REMARK SMILES IDX 11 22 10 23 9 24 8 25 7 26 6 27 5 28 4 29 3 30 2 31 1 32
REMARK H PARENT
REMARK Flexibility Score: inf
ROOT
ATOM      1  C   UNL     1      -5.433  -9.682  28.866  1.00  0.00     0.000 C 
ENDROOT
BRANCH   1   2
ATOM      2  C   UNL     1      -6.251  -8.767  29.795  1.00  0.00     0.000 C 
BRANCH   2   3
ATOM      3  C   UNL     1      -5.841  -7.283  29.654  1.00  0.00     0.000 C 
BRANCH   3   4
ATOM      4  C   UNL     1      -5.975  -6.740  28.221  1.00  0.00     0.000 C 
BRANCH   4   5
ATOM      5  C   UNL     1      -5.689  -5.233  28.129  1.00  0.00     0.000 C 
BRANCH   5   6
ATOM      6  C   UNL     1      -5.071  -4.670  29.420  1.00  0.00     0.000 C 
BRANCH   6   7
ATOM      7  C   UNL     1      -5.322  -3.159  29.590  1.00  0.00     0.000 C 
BRANCH   7   8
ATOM      8  C   UNL     1      -5.159  -2.373  28.276  1.00  0.00     0.000 C 
BRANCH   8   9
ATOM      9  C   UNL     1      -5.039  -0.847  28.441  1.00  0.00     0.000 C 
BRANCH   9  10
ATOM     10  C   UNL     1      -3.664  -0.410  28.979  1.00  0.00     0.000 C 
BRANCH  10  11
ATOM     11  C   UNL     1      -2.495  -1.182  28.335  1.00  0.00     0.000 C 
BRANCH  11  12
ATOM     12  C   UNL     1      -1.804  -0.459  27.163  1.00  0.00     0.000 C 
BRANCH  12  13
ATOM     13  C   UNL     1      -0.313  -0.179  27.426  1.00  0.00     0.006 C 
BRANCH  13  14
ATOM     14  C   UNL     1       0.197  -0.896  28.682  1.00  0.00     0.053 C 
BRANCH  14  15
ATOM     15  C   UNL     1       0.939  -2.153  28.345  1.00  0.00     0.041 C 
ATOM     16  O   UNL     1       1.653  -2.209  27.307  1.00  0.00    -0.550 OA
ATOM     17  O   UNL     1       0.833  -3.267  29.168  1.00  0.00    -0.550 OA
ENDBRANCH  14  15
ENDBRANCH  13  14
ENDBRANCH  12  13
ENDBRANCH  11  12
ENDBRANCH  10  11
ENDBRANCH   9  10
ENDBRANCH   8   9
ENDBRANCH   7   8
ENDBRANCH   6   7
ENDBRANCH   5   6
ENDBRANCH   4   5
ENDBRANCH   3   4
ENDBRANCH   2   3
ENDBRANCH   1   2
BRANCH   1  18
ATOM     18  C   UNL     1      -4.669 -10.778  29.642  1.00  0.00     0.000 C 
BRANCH  18  19
ATOM     19  C   UNL     1      -3.893 -11.755  28.737  1.00  0.00     0.000 C 
BRANCH  19  20
ATOM     20  C   UNL     1      -3.823 -11.349  27.253  1.00  0.00     0.000 C 
BRANCH  20  21
ATOM     21  C   UNL     1      -4.628 -12.252  26.298  1.00  0.00     0.000 C 
BRANCH  21  22
ATOM     22  C   UNL     1      -3.893 -12.654  25.001  1.00  0.00     0.000 C 
BRANCH  22  23
ATOM     23  C   UNL     1      -3.513 -14.142  24.890  1.00  0.00     0.000 C 
BRANCH  23  24
ATOM     24  C   UNL     1      -3.053 -14.539  23.478  1.00  0.00    -0.000 C 
BRANCH  24  25
ATOM     25  C   UNL     1      -2.599 -13.336  22.633  1.00  0.00    -0.000 C 
BRANCH  25  26
ATOM     26  C   UNL     1      -1.235 -13.542  21.939  1.00  0.00    -0.000 C 
BRANCH  26  27
ATOM     27  C   UNL     1      -0.245 -12.410  22.266  1.00  0.00    -0.000 C 
BRANCH  27  28
ATOM     28  C   UNL     1      -0.508 -11.771  23.640  1.00  0.00    -0.000 C 
BRANCH  28  29
ATOM     29  C   UNL     1       0.649 -11.992  24.625  1.00  0.00    -0.000 C 
BRANCH  29  30
ATOM     30  C   UNL     1       0.345 -13.155  25.580  1.00  0.00    -0.000 C 
BRANCH  30  31
ATOM     31  C   UNL     1      -0.638 -12.760  26.695  1.00  0.00    -0.003 C 
ATOM     32  C   UNL     1      -0.046 -11.747  27.674  1.00  0.00     0.004 C 
ENDBRANCH  30  31
ENDBRANCH  29  30
ENDBRANCH  28  29
ENDBRANCH  27  28
ENDBRANCH  26  27
ENDBRANCH  25  26
ENDBRANCH  24  25
ENDBRANCH  23  24
ENDBRANCH  22  23
ENDBRANCH  21  22
ENDBRANCH  20  21
ENDBRANCH  19  20
ENDBRANCH  18  19
ENDBRANCH   1  18
TORSDOF 28
ENDMDL
MODEL 3
REMARK VINA RESULT:    -4.876      1.181      2.142
REMARK INTER + INTRA:         -15.494
REMARK INTER:                 -13.450
REMARK INTRA:                  -2.045
REMARK UNBOUND:                -2.638
REMARK SMILES CCCCCCCCCCCCCCCCCCCCCCCCCCCCCC(=O)[O-]
REMARK SMILES IDX 16 1 17 2 18 3 19 4 20 5 21 6 22 7 23 8 24 9 25 10 26 11
REMARK SMILES IDX 27 12 28 13 29 14 30 15 31 16 32 17 15 18 14 19 13 20 12 21
REMARK SMILES IDX 11 22 10 23 9 24 8 25 7 26 6 27 5 28 4 29 3 30 2 31 1 32
REMARK H PARENT
REMARK Flexibility Score: inf
ROOT
ATOM      1  C   UNL     1      -6.118  -7.216  28.635  1.00  0.00     0.000 C 
ENDROOT
BRANCH   1   2
ATOM      2  C   UNL     1      -5.407  -6.028  29.308  1.00  0.00     0.000 C 
BRANCH   2   3
ATOM      3  C   UNL     1      -4.949  -4.970  28.279  1.00  0.00     0.000 C 
BRANCH   3   4
ATOM      4  C   UNL     1      -5.883  -3.751  28.190  1.00  0.00     0.000 C 
BRANCH   4   5
ATOM      5  C   UNL     1      -5.398  -2.569  29.044  1.00  0.00     0.000 C 
BRANCH   5   6
ATOM      6  C   UNL     1      -4.789  -1.439  28.196  1.00  0.00     0.000 C 
BRANCH   6   7
ATOM      7  C   UNL     1      -4.602  -0.132  28.991  1.00  0.00     0.000 C 
BRANCH   7   8
ATOM      8  C   UNL     1      -3.129   0.159  29.326  1.00  0.00     0.000 C 
BRANCH   8   9
ATOM      9  C   UNL     1      -2.776   1.652  29.473  1.00  0.00     0.000 C 
BRANCH   9  10
ATOM     10  C   UNL     1      -1.486   2.037  28.727  1.00  0.00     0.000 C 
BRANCH  10  11
ATOM     11  C   UNL     1      -1.107   1.031  27.622  1.00  0.00     0.000 C 
BRANCH  11  12
ATOM     12  C   UNL     1       0.398   0.728  27.505  1.00  0.00     0.000 C 
BRANCH  12  13
ATOM     13  C   UNL     1       0.724  -0.769  27.660  1.00  0.00     0.006 C 
BRANCH  13  14
ATOM     14  C   UNL     1      -0.514  -1.653  27.459  1.00  0.00     0.053 C 
BRANCH  14  15
ATOM     15  C   UNL     1      -0.626  -2.705  28.519  1.00  0.00     0.041 C 
ATOM     16  O   UNL     1      -1.739  -3.247  28.762  1.00  0.00    -0.550 OA
ATOM     17  O   UNL     1       0.495  -3.081  29.250  1.00  0.00    -0.550 OA
ENDBRANCH  14  15
ENDBRANCH  13  14
ENDBRANCH  12  13
ENDBRANCH  11  12
ENDBRANCH  10  11
ENDBRANCH   9  10
ENDBRANCH   8   9
ENDBRANCH   7   8
ENDBRANCH   6   7
ENDBRANCH   5   6
ENDBRANCH   4   5
ENDBRANCH   3   4
ENDBRANCH   2   3
ENDBRANCH   1   2
BRANCH   1  18
ATOM     18  C   UNL     1      -6.213  -8.449  29.562  1.00  0.00     0.000 C 
BRANCH  18  19
ATOM     19  C   UNL     1      -5.457  -9.683  29.034  1.00  0.00     0.000 C 
BRANCH  19  20
ATOM     20  C   UNL     1      -4.867 -10.599  30.122  1.00  0.00     0.000 C 
BRANCH  20  21
ATOM     21  C   UNL     1      -4.117 -11.836  29.590  1.00  0.00     0.000 C 
BRANCH  21  22
ATOM     22  C   UNL     1      -2.675 -11.571  29.107  1.00  0.00     0.000 C 
BRANCH  22  23
ATOM     23  C   UNL     1      -2.431 -11.787  27.602  1.00  0.00     0.000 C 
BRANCH  23  24
ATOM     24  C   UNL     1      -3.600 -12.499  26.902  1.00  0.00    -0.000 C 
BRANCH  24  25
ATOM     25  C   UNL     1      -4.332 -11.599  25.891  1.00  0.00    -0.000 C 
BRANCH  25  26
ATOM     26  C   UNL     1      -3.832 -11.760  24.439  1.00  0.00    -0.000 C 
BRANCH  26  27
ATOM     27  C   UNL     1      -2.956 -13.014  24.267  1.00  0.00    -0.000 C 
BRANCH  27  28
ATOM     28  C   UNL     1      -1.602 -12.706  23.608  1.00  0.00    -0.000 C 
BRANCH  28  29
ATOM     29  C   UNL     1      -1.503 -13.253  22.176  1.00  0.00    -0.000 C 
BRANCH  29  30
ATOM     30  C   UNL     1      -0.039 -13.350  21.724  1.00  0.00    -0.000 C 
BRANCH  30  31
ATOM     31  C   UNL     1       0.568 -11.976  21.395  1.00  0.00    -0.003 C 
ATOM     32  C   UNL     1       1.915 -12.080  20.680  1.00  0.00     0.004 C 
ENDBRANCH  30  31
ENDBRANCH  29  30
ENDBRANCH  28  29
ENDBRANCH  27  28
ENDBRANCH  26  27
ENDBRANCH  25  26
ENDBRANCH  24  25
ENDBRANCH  23  24
ENDBRANCH  22  23
ENDBRANCH  21  22
ENDBRANCH  20  21
ENDBRANCH  19  20
ENDBRANCH  18  19
ENDBRANCH   1  18
TORSDOF 28
ENDMDL
MODEL 4
REMARK VINA RESULT:    -4.797      1.271      3.431
REMARK INTER + INTRA:         -15.288
REMARK INTER:                 -12.837
REMARK INTRA:                  -2.451
REMARK UNBOUND:                -2.638
REMARK SMILES CCCCCCCCCCCCCCCCCCCCCCCCCCCCCC(=O)[O-]
REMARK SMILES IDX 16 1 17 2 18 3 19 4 20 5 21 6 22 7 23 8 24 9 25 10 26 11
REMARK SMILES IDX 27 12 28 13 29 14 30 15 31 16 32 17 15 18 14 19 13 20 12 21
REMARK SMILES IDX 11 22 10 23 9 24 8 25 7 26 6 27 5 28 4 29 3 30 2 31 1 32
REMARK H PARENT
REMARK Flexibility Score: inf
ROOT
ATOM      1  C   UNL     1      -5.139 -10.202  28.030  1.00  0.00     0.000 C 
ENDROOT
BRANCH   1   2
ATOM      2  C   UNL     1      -5.327  -9.843  29.514  1.00  0.00     0.000 C 
BRANCH   2   3
ATOM      3  C   UNL     1      -6.243  -8.612  29.701  1.00  0.00     0.000 C 
BRANCH   3   4
ATOM      4  C   UNL     1      -6.029  -7.518  28.640  1.00  0.00     0.000 C 
BRANCH   4   5
ATOM      5  C   UNL     1      -5.625  -6.168  29.253  1.00  0.00     0.000 C 
BRANCH   5   6
ATOM      6  C   UNL     1      -5.124  -5.167  28.198  1.00  0.00     0.000 C 
BRANCH   6   7
ATOM      7  C   UNL     1      -5.858  -3.814  28.266  1.00  0.00     0.000 C 
BRANCH   7   8
ATOM      8  C   UNL     1      -5.261  -2.860  29.316  1.00  0.00     0.000 C 
BRANCH   8   9
ATOM      9  C   UNL     1      -5.297  -1.368  28.936  1.00  0.00     0.000 C 
BRANCH   9  10
ATOM     10  C   UNL     1      -3.911  -0.702  28.999  1.00  0.00     0.000 C 
BRANCH  10  11
ATOM     11  C   UNL     1      -3.230  -0.600  27.619  1.00  0.00     0.000 C 
BRANCH  11  12
ATOM     12  C   UNL     1      -1.809  -0.006  27.636  1.00  0.00     0.000 C 
BRANCH  12  13
ATOM     13  C   UNL     1      -0.800  -0.841  26.826  1.00  0.00     0.006 C 
BRANCH  13  14
ATOM     14  C   UNL     1       0.505  -1.079  27.596  1.00  0.00     0.053 C 
BRANCH  14  15
ATOM     15  C   UNL     1       0.315  -2.039  28.730  1.00  0.00     0.041 C 
ATOM     16  O   UNL     1      -0.612  -2.893  28.691  1.00  0.00    -0.550 OA
ATOM     17  O   UNL     1       1.154  -1.985  29.837  1.00  0.00    -0.550 OA
ENDBRANCH  14  15
ENDBRANCH  13  14
ENDBRANCH  12  13
ENDBRANCH  11  12
ENDBRANCH  10  11
ENDBRANCH   9  10
ENDBRANCH   8   9
ENDBRANCH   7   8
ENDBRANCH   6   7
ENDBRANCH   5   6
ENDBRANCH   4   5
ENDBRANCH   3   4
ENDBRANCH   2   3
ENDBRANCH   1   2
BRANCH   1  18
ATOM     18  C   UNL     1      -4.033 -11.260  27.814  1.00  0.00     0.000 C 
BRANCH  18  19
ATOM     19  C   UNL     1      -3.426 -11.800  29.123  1.00  0.00     0.000 C 
BRANCH  19  20
ATOM     20  C   UNL     1      -1.915 -11.554  29.289  1.00  0.00     0.000 C 
BRANCH  20  21
ATOM     21  C   UNL     1      -1.022 -12.329  28.300  1.00  0.00     0.000 C 
BRANCH  21  22
ATOM     22  C   UNL     1      -0.465 -11.495  27.126  1.00  0.00     0.000 C 
BRANCH  22  23
ATOM     23  C   UNL     1       1.061 -11.566  26.930  1.00  0.00     0.000 C 
BRANCH  23  24
ATOM     24  C   UNL     1       1.613 -10.401  26.093  1.00  0.00    -0.000 C 
BRANCH  24  25
ATOM     25  C   UNL     1       1.882 -10.788  24.628  1.00  0.00    -0.000 C 
BRANCH  25  26
ATOM     26  C   UNL     1       2.101 -12.302  24.415  1.00  0.00    -0.000 C 
BRANCH  26  27
ATOM     27  C   UNL     1       0.994 -12.928  23.548  1.00  0.00    -0.000 C 
BRANCH  27  28
ATOM     28  C   UNL     1      -0.259 -12.042  23.456  1.00  0.00    -0.000 C 
BRANCH  28  29
ATOM     29  C   UNL     1      -1.532 -12.848  23.156  1.00  0.00    -0.000 C 
BRANCH  29  30
ATOM     30  C   UNL     1      -2.635 -12.534  24.177  1.00  0.00    -0.000 C 
BRANCH  30  31
ATOM     31  C   UNL     1      -2.742 -13.606  25.275  1.00  0.00    -0.003 C 
ATOM     32  C   UNL     1      -4.168 -14.124  25.458  1.00  0.00     0.004 C 
ENDBRANCH  30  31
ENDBRANCH  29  30
ENDBRANCH  28  29
ENDBRANCH  27  28
ENDBRANCH  26  27
ENDBRANCH  25  26
ENDBRANCH  24  25
ENDBRANCH  23  24
ENDBRANCH  22  23
ENDBRANCH  21  22
ENDBRANCH  20  21
ENDBRANCH  19  20
ENDBRANCH  18  19
ENDBRANCH   1  18
TORSDOF 28
ENDMDL
MODEL 5
REMARK VINA RESULT:    -4.791      2.917     11.205
REMARK INTER + INTRA:         -15.270
REMARK INTER:                 -12.494
REMARK INTRA:                  -2.777
REMARK UNBOUND:                -2.638
REMARK SMILES CCCCCCCCCCCCCCCCCCCCCCCCCCCCCC(=O)[O-]
REMARK SMILES IDX 16 1 17 2 18 3 19 4 20 5 21 6 22 7 23 8 24 9 25 10 26 11
REMARK SMILES IDX 27 12 28 13 29 14 30 15 31 16 32 17 15 18 14 19 13 20 12 21
REMARK SMILES IDX 11 22 10 23 9 24 8 25 7 26 6 27 5 28 4 29 3 30 2 31 1 32
REMARK H PARENT
REMARK Flexibility Score: inf
ROOT
ATOM      1  C   UNL     1      -5.350  -5.105  28.289  1.00  0.00     0.000 C 
ENDROOT
BRANCH   1   2
ATOM      2  C   UNL     1      -5.912  -6.537  28.272  1.00  0.00     0.000 C 
BRANCH   2   3
ATOM      3  C   UNL     1      -5.726  -7.249  29.632  1.00  0.00     0.000 C 
BRANCH   3   4
ATOM      4  C   UNL     1      -6.029  -8.756  29.585  1.00  0.00     0.000 C 
BRANCH   4   5
ATOM      5  C   UNL     1      -5.696  -9.386  28.224  1.00  0.00     0.000 C 
BRANCH   5   6
ATOM      6  C   UNL     1      -4.777 -10.613  28.350  1.00  0.00     0.000 C 
BRANCH   6   7
ATOM      7  C   UNL     1      -4.500 -11.291  26.994  1.00  0.00     0.000 C 
BRANCH   7   8
ATOM      8  C   UNL     1      -3.150 -12.031  26.958  1.00  0.00     0.000 C 
BRANCH   8   9
ATOM      9  C   UNL     1      -2.502 -12.270  28.334  1.00  0.00     0.000 C 
BRANCH   9  10
ATOM     10  C   UNL     1      -1.096 -11.653  28.448  1.00  0.00     0.000 C 
BRANCH  10  11
ATOM     11  C   UNL     1      -0.404 -11.479  27.081  1.00  0.00     0.000 C 
BRANCH  11  12
ATOM     12  C   UNL     1       0.378 -12.710  26.587  1.00  0.00     0.000 C 
BRANCH  12  13
ATOM     13  C   UNL     1       0.063 -13.074  25.124  1.00  0.00     0.006 C 
BRANCH  13  14
ATOM     14  C   UNL     1      -0.326 -11.844  24.294  1.00  0.00     0.053 C 
BRANCH  14  15
ATOM     15  C   UNL     1       0.698 -11.532  23.246  1.00  0.00     0.041 C 
ATOM     16  O   UNL     1       0.346 -11.349  22.048  1.00  0.00    -0.550 OA
ATOM     17  O   UNL     1       2.043 -11.456  23.586  1.00  0.00    -0.550 OA
ENDBRANCH  14  15
ENDBRANCH  13  14
ENDBRANCH  12  13
ENDBRANCH  11  12
ENDBRANCH  10  11
ENDBRANCH   9  10
ENDBRANCH   8   9
ENDBRANCH   7   8
ENDBRANCH   6   7
ENDBRANCH   5   6
ENDBRANCH   4   5
ENDBRANCH   3   4
ENDBRANCH   2   3
ENDBRANCH   1   2
BRANCH   1  18
ATOM     18  C   UNL     1      -5.711  -4.344  29.585  1.00  0.00     0.000 C 
BRANCH  18  19
ATOM     19  C   UNL     1      -5.075  -2.944  29.683  1.00  0.00     0.000 C 
BRANCH  19  20
ATOM     20  C   UNL     1      -5.258  -2.059  28.436  1.00  0.00     0.000 C 
BRANCH  20  21
ATOM     21  C   UNL     1      -4.956  -0.564  28.655  1.00  0.00     0.000 C 
BRANCH  21  22
ATOM     22  C   UNL     1      -3.488  -0.235  29.000  1.00  0.00     0.000 C 
BRANCH  22  23
ATOM     23  C   UNL     1      -2.435  -1.160  28.358  1.00  0.00     0.000 C 
BRANCH  23  24
ATOM     24  C   UNL     1      -1.783  -0.548  27.108  1.00  0.00    -0.000 C 
BRANCH  24  25
ATOM     25  C   UNL     1      -0.464  -1.239  26.720  1.00  0.00    -0.000 C 
BRANCH  25  26
ATOM     26  C   UNL     1       0.465  -1.525  27.919  1.00  0.00    -0.000 C 
BRANCH  26  27
ATOM     27  C   UNL     1       1.348  -0.313  28.266  1.00  0.00    -0.000 C 
BRANCH  27  28
ATOM     28  C   UNL     1       1.216   0.116  29.736  1.00  0.00    -0.000 C 
BRANCH  28  29
ATOM     29  C   UNL     1      -0.039   0.962  29.995  1.00  0.00    -0.000 C 
BRANCH  29  30
ATOM     30  C   UNL     1       0.129   2.382  29.437  1.00  0.00    -0.000 C 
BRANCH  30  31
ATOM     31  C   UNL     1      -0.948   2.737  28.398  1.00  0.00    -0.003 C 
ATOM     32  C   UNL     1      -0.408   2.760  26.969  1.00  0.00     0.004 C 
ENDBRANCH  30  31
ENDBRANCH  29  30
ENDBRANCH  28  29
ENDBRANCH  27  28
ENDBRANCH  26  27
ENDBRANCH  25  26
ENDBRANCH  24  25
ENDBRANCH  23  24
ENDBRANCH  22  23
ENDBRANCH  21  22
ENDBRANCH  20  21
ENDBRANCH  19  20
ENDBRANCH  18  19
ENDBRANCH   1  18
TORSDOF 28
ENDMDL
MODEL 6
REMARK VINA RESULT:    -4.765      4.065     12.123
REMARK INTER + INTRA:         -15.203
REMARK INTER:                 -12.542
REMARK INTRA:                  -2.661
REMARK UNBOUND:                -2.638
REMARK SMILES CCCCCCCCCCCCCCCCCCCCCCCCCCCCCC(=O)[O-]
REMARK SMILES IDX 16 1 17 2 18 3 19 4 20 5 21 6 22 7 23 8 24 9 25 10 26 11
REMARK SMILES IDX 27 12 28 13 29 14 30 15 31 16 32 17 15 18 14 19 13 20 12 21
REMARK SMILES IDX 11 22 10 23 9 24 8 25 7 26 6 27 5 28 4 29 3 30 2 31 1 32
REMARK H PARENT
REMARK Flexibility Score: inf
ROOT
ATOM      1  C   UNL     1      -5.722  -9.629  28.518  1.00  0.00     0.000 C 
ENDROOT
BRANCH   1   2
ATOM      2  C   UNL     1      -4.757 -10.589  29.236  1.00  0.00     0.000 C 
BRANCH   2   3
ATOM      3  C   UNL     1      -3.845 -11.344  28.243  1.00  0.00     0.000 C 
BRANCH   3   4
ATOM      4  C   UNL     1      -4.392 -11.376  26.806  1.00  0.00     0.000 C 
BRANCH   4   5
ATOM      5  C   UNL     1      -4.753 -12.795  26.339  1.00  0.00     0.000 C 
BRANCH   5   6
ATOM      6  C   UNL     1      -3.933 -13.240  25.116  1.00  0.00     0.000 C 
BRANCH   6   7
ATOM      7  C   UNL     1      -2.679 -14.047  25.502  1.00  0.00     0.000 C 
BRANCH   7   8
ATOM      8  C   UNL     1      -1.372 -13.262  25.288  1.00  0.00     0.000 C 
BRANCH   8   9
ATOM      9  C   UNL     1      -1.460 -12.115  24.264  1.00  0.00     0.000 C 
BRANCH   9  10
ATOM     10  C   UNL     1      -0.678 -12.407  22.971  1.00  0.00     0.000 C 
BRANCH  10  11
ATOM     11  C   UNL     1      -0.521 -13.915  22.691  1.00  0.00     0.000 C 
BRANCH  11  12
ATOM     12  C   UNL     1      -1.303 -14.435  21.471  1.00  0.00     0.000 C 
BRANCH  12  13
ATOM     13  C   UNL     1      -2.718 -14.927  21.830  1.00  0.00     0.006 C 
BRANCH  13  14
ATOM     14  C   UNL     1      -3.800 -13.915  21.434  1.00  0.00     0.053 C 
BRANCH  14  15
ATOM     15  C   UNL     1      -4.522 -14.329  20.188  1.00  0.00     0.041 C 
ATOM     16  O   UNL     1      -5.743 -14.644  20.237  1.00  0.00    -0.550 OA
ATOM     17  O   UNL     1      -3.847 -14.381  18.975  1.00  0.00    -0.550 OA
ENDBRANCH  14  15
ENDBRANCH  13  14
ENDBRANCH  12  13
ENDBRANCH  11  12
ENDBRANCH  10  11
ENDBRANCH   9  10
ENDBRANCH   8   9
ENDBRANCH   7   8
ENDBRANCH   6   7
ENDBRANCH   5   6
ENDBRANCH   4   5
ENDBRANCH   3   4
ENDBRANCH   2   3
ENDBRANCH   1   2
BRANCH   1  18
ATOM     18  C   UNL     1      -6.116  -8.421  29.397  1.00  0.00     0.000 C 
BRANCH  18  19
ATOM     19  C   UNL     1      -6.111  -7.076  28.645  1.00  0.00     0.000 C 
BRANCH  19  20
ATOM     20  C   UNL     1      -5.389  -5.928  29.373  1.00  0.00     0.000 C 
BRANCH  20  21
ATOM     21  C   UNL     1      -4.821  -4.833  28.449  1.00  0.00     0.000 C 
BRANCH  21  22
ATOM     22  C   UNL     1      -4.675  -3.439  29.095  1.00  0.00     0.000 C 
BRANCH  22  23
ATOM     23  C   UNL     1      -5.770  -2.421  28.726  1.00  0.00     0.000 C 
BRANCH  23  24
ATOM     24  C   UNL     1      -5.362  -0.969  29.022  1.00  0.00    -0.000 C 
BRANCH  24  25
ATOM     25  C   UNL     1      -3.841  -0.747  28.956  1.00  0.00    -0.000 C 
BRANCH  25  26
ATOM     26  C   UNL     1      -3.393   0.645  29.452  1.00  0.00    -0.000 C 
BRANCH  26  27
ATOM     27  C   UNL     1      -1.863   0.804  29.418  1.00  0.00    -0.000 C 
BRANCH  27  28
ATOM     28  C   UNL     1      -1.369   1.511  28.146  1.00  0.00    -0.000 C 
BRANCH  28  29
ATOM     29  C   UNL     1      -0.248   0.736  27.436  1.00  0.00    -0.000 C 
BRANCH  29  30
ATOM     30  C   UNL     1      -0.797  -0.525  26.754  1.00  0.00    -0.000 C 
BRANCH  30  31
ATOM     31  C   UNL     1      -0.059  -1.801  27.194  1.00  0.00    -0.003 C 
ATOM     32  C   UNL     1      -0.747  -2.509  28.361  1.00  0.00     0.004 C 
ENDBRANCH  30  31
ENDBRANCH  29  30
ENDBRANCH  28  29
ENDBRANCH  27  28
ENDBRANCH  26  27
ENDBRANCH  25  26
ENDBRANCH  24  25
ENDBRANCH  23  24
ENDBRANCH  22  23
ENDBRANCH  21  22
ENDBRANCH  20  21
ENDBRANCH  19  20
ENDBRANCH  18  19
ENDBRANCH   1  18
TORSDOF 28
ENDMDL
MODEL 7
REMARK VINA RESULT:    -4.765      1.169      3.495
REMARK INTER + INTRA:         -15.202
REMARK INTER:                 -11.864
REMARK INTRA:                  -3.338
REMARK UNBOUND:                -2.638
REMARK SMILES CCCCCCCCCCCCCCCCCCCCCCCCCCCCCC(=O)[O-]
REMARK SMILES IDX 16 1 17 2 18 3 19 4 20 5 21 6 22 7 23 8 24 9 25 10 26 11
REMARK SMILES IDX 27 12 28 13 29 14 30 15 31 16 32 17 15 18 14 19 13 20 12 21
REMARK SMILES IDX 11 22 10 23 9 24 8 25 7 26 6 27 5 28 4 29 3 30 2 31 1 32
REMARK H PARENT
REMARK Flexibility Score: inf
ROOT
ATOM      1  C   UNL     1      -4.283 -11.307  28.460  1.00  0.00     0.000 C 
ENDROOT
BRANCH   1   2
ATOM      2  C   UNL     1      -4.986 -10.289  29.377  1.00  0.00     0.000 C 
BRANCH   2   3
ATOM      3  C   UNL     1      -5.870  -9.305  28.578  1.00  0.00     0.000 C 
BRANCH   3   4
ATOM      4  C   UNL     1      -6.146  -7.985  29.318  1.00  0.00     0.000 C 
BRANCH   4   5
ATOM      5  C   UNL     1      -5.884  -6.749  28.444  1.00  0.00     0.000 C 
BRANCH   5   6
ATOM      6  C   UNL     1      -5.489  -5.514  29.272  1.00  0.00     0.000 C 
BRANCH   6   7
ATOM      7  C   UNL     1      -4.451  -4.626  28.558  1.00  0.00     0.000 C 
BRANCH   7   8
ATOM      8  C   UNL     1      -4.369  -3.207  29.149  1.00  0.00     0.000 C 
BRANCH   8   9
ATOM      9  C   UNL     1      -5.441  -2.226  28.638  1.00  0.00     0.000 C 
BRANCH   9  10
ATOM     10  C   UNL     1      -4.860  -0.853  28.253  1.00  0.00     0.000 C 
BRANCH  10  11
ATOM     11  C   UNL     1      -3.817  -0.338  29.265  1.00  0.00     0.000 C 
BRANCH  11  12
ATOM     12  C   UNL     1      -2.421  -0.061  28.677  1.00  0.00     0.000 C 
BRANCH  12  13
ATOM     13  C   UNL     1      -2.246  -0.627  27.256  1.00  0.00     0.006 C 
BRANCH  13  14
ATOM     14  C   UNL     1      -0.793  -0.537  26.772  1.00  0.00     0.053 C 
BRANCH  14  15
ATOM     15  C   UNL     1       0.050  -1.642  27.330  1.00  0.00     0.041 C 
ATOM     16  O   UNL     1       1.304  -1.614  27.195  1.00  0.00    -0.550 OA
ATOM     17  O   UNL     1      -0.547  -2.712  27.986  1.00  0.00    -0.550 OA
ENDBRANCH  14  15
ENDBRANCH  13  14
ENDBRANCH  12  13
ENDBRANCH  11  12
ENDBRANCH  10  11
ENDBRANCH   9  10
ENDBRANCH   8   9
ENDBRANCH   7   8
ENDBRANCH   6   7
ENDBRANCH   5   6
ENDBRANCH   4   5
ENDBRANCH   3   4
ENDBRANCH   2   3
ENDBRANCH   1   2
BRANCH   1  18
ATOM     18  C   UNL     1      -4.528 -11.018  26.962  1.00  0.00     0.000 C 
BRANCH  18  19
ATOM     19  C   UNL     1      -3.886 -12.052  26.017  1.00  0.00     0.000 C 
BRANCH  19  20
ATOM     20  C   UNL     1      -3.957 -13.511  26.505  1.00  0.00     0.000 C 
BRANCH  20  21
ATOM     21  C   UNL     1      -2.589 -14.180  26.740  1.00  0.00     0.000 C 
BRANCH  21  22
ATOM     22  C   UNL     1      -2.097 -14.170  28.204  1.00  0.00     0.000 C 
BRANCH  22  23
ATOM     23  C   UNL     1      -0.731 -13.496  28.438  1.00  0.00     0.000 C 
BRANCH  23  24
ATOM     24  C   UNL     1      -0.810 -11.962  28.420  1.00  0.00    -0.000 C 
BRANCH  24  25
ATOM     25  C   UNL     1      -0.193 -11.343  27.153  1.00  0.00    -0.000 C 
BRANCH  25  26
ATOM     26  C   UNL     1       0.940 -12.191  26.535  1.00  0.00    -0.000 C 
BRANCH  26  27
ATOM     27  C   UNL     1       0.594 -12.666  25.113  1.00  0.00    -0.000 C 
BRANCH  27  28
ATOM     28  C   UNL     1      -0.058 -11.564  24.262  1.00  0.00    -0.000 C 
BRANCH  28  29
ATOM     29  C   UNL     1      -0.914 -12.128  23.119  1.00  0.00    -0.000 C 
BRANCH  29  30
ATOM     30  C   UNL     1      -0.834 -13.661  23.075  1.00  0.00    -0.000 C 
BRANCH  30  31
ATOM     31  C   UNL     1      -2.220 -14.324  23.143  1.00  0.00    -0.003 C 
ATOM     32  C   UNL     1      -3.327 -13.440  22.572  1.00  0.00     0.004 C 
ENDBRANCH  30  31
ENDBRANCH  29  30
ENDBRANCH  28  29
ENDBRANCH  27  28
ENDBRANCH  26  27
ENDBRANCH  25  26
ENDBRANCH  24  25
ENDBRANCH  23  24
ENDBRANCH  22  23
ENDBRANCH  21  22
ENDBRANCH  20  21
ENDBRANCH  19  20
ENDBRANCH  18  19
ENDBRANCH   1  18
TORSDOF 28
ENDMDL
MODEL 8
REMARK VINA RESULT:    -4.756      2.887     11.598
REMARK INTER + INTRA:         -15.180
REMARK INTER:                 -12.806
REMARK INTRA:                  -2.374
REMARK UNBOUND:                -2.638
REMARK SMILES CCCCCCCCCCCCCCCCCCCCCCCCCCCCCC(=O)[O-]
REMARK SMILES IDX 16 1 17 2 18 3 19 4 20 5 21 6 22 7 23 8 24 9 25 10 26 11
REMARK SMILES IDX 27 12 28 13 29 14 30 15 31 16 32 17 15 18 14 19 13 20 12 21
REMARK SMILES IDX 11 22 10 23 9 24 8 25 7 26 6 27 5 28 4 29 3 30 2 31 1 32
REMARK H PARENT
REMARK Flexibility Score: inf
ROOT
ATOM      1  C   UNL     1      -4.862  -4.657  28.293  1.00  0.00     0.000 C 
ENDROOT
BRANCH   1   2
ATOM      2  C   UNL     1      -5.381  -5.711  29.288  1.00  0.00     0.000 C 
BRANCH   2   3
ATOM      3  C   UNL     1      -6.083  -6.887  28.573  1.00  0.00     0.000 C 
BRANCH   3   4
ATOM      4  C   UNL     1      -6.074  -8.195  29.383  1.00  0.00     0.000 C 
BRANCH   4   5
ATOM      5  C   UNL     1      -5.715  -9.420  28.528  1.00  0.00     0.000 C 
BRANCH   5   6
ATOM      6  C   UNL     1      -4.828 -10.426  29.281  1.00  0.00     0.000 C 
BRANCH   6   7
ATOM      7  C   UNL     1      -4.083 -11.387  28.336  1.00  0.00     0.000 C 
BRANCH   7   8
ATOM      8  C   UNL     1      -4.515 -11.237  26.866  1.00  0.00     0.000 C 
BRANCH   8   9
ATOM      9  C   UNL     1      -4.310 -12.492  25.996  1.00  0.00     0.000 C 
BRANCH   9  10
ATOM     10  C   UNL     1      -3.636 -12.180  24.648  1.00  0.00     0.000 C 
BRANCH  10  11
ATOM     11  C   UNL     1      -3.206 -13.449  23.884  1.00  0.00     0.000 C 
BRANCH  11  12
ATOM     12  C   UNL     1      -2.814 -13.221  22.412  1.00  0.00     0.000 C 
BRANCH  12  13
ATOM     13  C   UNL     1      -1.313 -13.442  22.150  1.00  0.00     0.006 C 
BRANCH  13  14
ATOM     14  C   UNL     1      -0.451 -13.048  23.356  1.00  0.00     0.053 C 
BRANCH  14  15
ATOM     15  C   UNL     1       0.226 -11.728  23.149  1.00  0.00     0.041 C 
ATOM     16  O   UNL     1       0.467 -11.313  21.983  1.00  0.00    -0.550 OA
ATOM     17  O   UNL     1       0.604 -10.959  24.244  1.00  0.00    -0.550 OA
ENDBRANCH  14  15
ENDBRANCH  13  14
ENDBRANCH  12  13
ENDBRANCH  11  12
ENDBRANCH  10  11
ENDBRANCH   9  10
ENDBRANCH   8   9
ENDBRANCH   7   8
ENDBRANCH   6   7
ENDBRANCH   5   6
ENDBRANCH   4   5
ENDBRANCH   3   4
ENDBRANCH   2   3
ENDBRANCH   1   2
BRANCH   1  18
ATOM     18  C   UNL     1      -5.764  -3.403  28.239  1.00  0.00     0.000 C 
BRANCH  18  19
ATOM     19  C   UNL     1      -5.333  -2.285  29.208  1.00  0.00     0.000 C 
BRANCH  19  20
ATOM     20  C   UNL     1      -5.016  -0.934  28.542  1.00  0.00     0.000 C 
BRANCH  20  21
ATOM     21  C   UNL     1      -3.841  -0.162  29.174  1.00  0.00     0.000 C 
BRANCH  21  22
ATOM     22  C   UNL     1      -2.440  -0.576  28.674  1.00  0.00     0.000 C 
BRANCH  22  23
ATOM     23  C   UNL     1      -2.263  -0.597  27.144  1.00  0.00     0.000 C 
BRANCH  23  24
ATOM     24  C   UNL     1      -0.815  -0.877  26.713  1.00  0.00    -0.000 C 
BRANCH  24  25
ATOM     25  C   UNL     1      -0.020  -1.677  27.760  1.00  0.00    -0.000 C 
BRANCH  25  26
ATOM     26  C   UNL     1       1.298  -0.999  28.192  1.00  0.00    -0.000 C 
BRANCH  26  27
ATOM     27  C   UNL     1       1.175  -0.326  29.571  1.00  0.00    -0.000 C 
BRANCH  27  28
ATOM     28  C   UNL     1       1.391   1.195  29.509  1.00  0.00    -0.000 C 
BRANCH  28  29
ATOM     29  C   UNL     1       1.536   1.714  28.071  1.00  0.00    -0.000 C 
BRANCH  29  30
ATOM     30  C   UNL     1       0.658   2.953  27.842  1.00  0.00    -0.000 C 
BRANCH  30  31
ATOM     31  C   UNL     1      -0.842   2.615  27.822  1.00  0.00    -0.003 C 
ATOM     32  C   UNL     1      -1.581   3.130  29.057  1.00  0.00     0.004 C 
ENDBRANCH  30  31
ENDBRANCH  29  30
ENDBRANCH  28  29
ENDBRANCH  27  28
ENDBRANCH  26  27
ENDBRANCH  25  26
ENDBRANCH  24  25
ENDBRANCH  23  24
ENDBRANCH  22  23
ENDBRANCH  21  22
ENDBRANCH  20  21
ENDBRANCH  19  20
ENDBRANCH  18  19
ENDBRANCH   1  18
TORSDOF 28
ENDMDL
MODEL 9
REMARK VINA RESULT:    -4.723      1.499      4.538
REMARK INTER + INTRA:         -15.091
REMARK INTER:                 -12.028
REMARK INTRA:                  -3.063
REMARK UNBOUND:                -2.638
REMARK SMILES CCCCCCCCCCCCCCCCCCCCCCCCCCCCCC(=O)[O-]
REMARK SMILES IDX 16 1 17 2 18 3 19 4 20 5 21 6 22 7 23 8 24 9 25 10 26 11
REMARK SMILES IDX 27 12 28 13 29 14 30 15 31 16 32 17 15 18 14 19 13 20 12 21
REMARK SMILES IDX 11 22 10 23 9 24 8 25 7 26 6 27 5 28 4 29 3 30 2 31 1 32
REMARK H PARENT
REMARK Flexibility Score: inf
ROOT
ATOM      1  C   UNL     1      -3.823 -11.811  29.538  1.00  0.00     0.000 C 
ENDROOT
BRANCH   1   2
ATOM      2  C   UNL     1      -4.677 -10.665  30.109  1.00  0.00     0.000 C 
BRANCH   2   3
ATOM      3  C   UNL     1      -5.369  -9.848  28.994  1.00  0.00     0.000 C 
BRANCH   3   4
ATOM      4  C   UNL     1      -6.138  -8.622  29.515  1.00  0.00     0.000 C 
BRANCH   4   5
ATOM      5  C   UNL     1      -6.076  -7.429  28.548  1.00  0.00     0.000 C 
BRANCH   5   6
ATOM      6  C   UNL     1      -5.759  -6.105  29.264  1.00  0.00     0.000 C 
BRANCH   6   7
ATOM      7  C   UNL     1      -5.378  -4.977  28.287  1.00  0.00     0.000 C 
BRANCH   7   8
ATOM      8  C   UNL     1      -4.151  -4.170  28.751  1.00  0.00     0.000 C 
BRANCH   8   9
ATOM      9  C   UNL     1      -4.468  -2.966  29.657  1.00  0.00     0.000 C 
BRANCH   9  10
ATOM     10  C   UNL     1      -5.442  -1.968  29.006  1.00  0.00     0.000 C 
BRANCH  10  11
ATOM     11  C   UNL     1      -4.727  -0.761  28.367  1.00  0.00     0.000 C 
BRANCH  11  12
ATOM     12  C   UNL     1      -3.279  -0.537  28.839  1.00  0.00     0.000 C 
BRANCH  12  13
ATOM     13  C   UNL     1      -2.239  -0.811  27.737  1.00  0.00     0.006 C 
BRANCH  13  14
ATOM     14  C   UNL     1      -0.999  -1.533  28.279  1.00  0.00     0.053 C 
BRANCH  14  15
ATOM     15  C   UNL     1       0.241  -1.152  27.530  1.00  0.00     0.041 C 
ATOM     16  O   UNL     1       0.659  -1.874  26.585  1.00  0.00    -0.550 OA
ATOM     17  O   UNL     1       0.944  -0.006  27.882  1.00  0.00    -0.550 OA
ENDBRANCH  14  15
ENDBRANCH  13  14
ENDBRANCH  12  13
ENDBRANCH  11  12
ENDBRANCH  10  11
ENDBRANCH   9  10
ENDBRANCH   8   9
ENDBRANCH   7   8
ENDBRANCH   6   7
ENDBRANCH   5   6
ENDBRANCH   4   5
ENDBRANCH   3   4
ENDBRANCH   2   3
ENDBRANCH   1   2
BRANCH   1  18
ATOM     18  C   UNL     1      -2.332 -11.427  29.408  1.00  0.00     0.000 C 
BRANCH  18  19
ATOM     19  C   UNL     1      -1.724 -11.752  28.029  1.00  0.00     0.000 C 
BRANCH  19  20
ATOM     20  C   UNL     1      -0.613 -12.817  28.044  1.00  0.00     0.000 C 
BRANCH  20  21
ATOM     21  C   UNL     1       0.780 -12.303  27.632  1.00  0.00     0.000 C 
BRANCH  21  22
ATOM     22  C   UNL     1       0.779 -11.017  26.777  1.00  0.00     0.000 C 
BRANCH  22  23
ATOM     23  C   UNL     1       1.818 -10.978  25.640  1.00  0.00     0.000 C 
BRANCH  23  24
ATOM     24  C   UNL     1       1.179 -11.030  24.244  1.00  0.00    -0.000 C 
BRANCH  24  25
ATOM     25  C   UNL     1      -0.247 -11.610  24.256  1.00  0.00    -0.000 C 
BRANCH  25  26
ATOM     26  C   UNL     1      -0.597 -12.426  22.993  1.00  0.00    -0.000 C 
BRANCH  26  27
ATOM     27  C   UNL     1      -0.972 -13.880  23.332  1.00  0.00    -0.000 C 
BRANCH  27  28
ATOM     28  C   UNL     1      -1.604 -14.019  24.726  1.00  0.00    -0.000 C 
BRANCH  28  29
ATOM     29  C   UNL     1      -3.140 -14.007  24.683  1.00  0.00    -0.000 C 
BRANCH  29  30
ATOM     30  C   UNL     1      -3.729 -13.885  26.095  1.00  0.00    -0.000 C 
BRANCH  30  31
ATOM     31  C   UNL     1      -4.892 -12.880  26.162  1.00  0.00    -0.003 C 
ATOM     32  C   UNL     1      -4.479 -11.469  25.743  1.00  0.00     0.004 C 
ENDBRANCH  30  31
ENDBRANCH  29  30
ENDBRANCH  28  29
ENDBRANCH  27  28
ENDBRANCH  26  27
ENDBRANCH  25  26
ENDBRANCH  24  25
ENDBRANCH  23  24
ENDBRANCH  22  23
ENDBRANCH  21  22
ENDBRANCH  20  21
ENDBRANCH  19  20
ENDBRANCH  18  19
ENDBRANCH   1  18
TORSDOF 28
ENDMDL
