MODEL 1
REMARK VINA RESULT:    -3.920      0.000      0.000
REMARK INTER + INTRA:          -6.730
REMARK INTER:                  -5.639
REMARK INTRA:                  -1.091
REMARK UNBOUND:                -1.091
REMARK SMILES O=C(CO)[C@H](O)[C@@H](O)[C@H](O)CO
REMARK SMILES IDX 7 1 9 2 11 3 12 4 10 6 5 8 2 9 1 10 3 11 4 12 6 14 8 16
REMARK H PARENT 12 5 10 7 4 13 6 15 8 17
REMARK Flexibility Score: inf
ROOT
ATOM      1  C   UNL     1     100.098 -67.897  -0.333  1.00  0.00     0.181 C 
ENDROOT
BRANCH   1   2
ATOM      2  C   UNL     1      98.803 -68.755  -0.503  1.00  0.00     0.171 C 
BRANCH   2   3
ATOM      3  C   UNL     1      98.369 -68.965  -1.968  1.00  0.00     0.190 C 
BRANCH   3   4
ATOM      4  O   UNL     1      99.479 -69.038  -2.824  1.00  0.00    -0.394 OA
ATOM      5  H   UNL     1      99.280 -68.460  -3.606  1.00  0.00     0.210 HD
ENDBRANCH   3   4
ENDBRANCH   2   3
BRANCH   2   6
ATOM      6  O   UNL     1      98.956 -70.005   0.126  1.00  0.00    -0.388 OA
ATOM      7  H   UNL     1      98.081 -70.472   0.084  1.00  0.00     0.211 HD
ENDBRANCH   2   6
ENDBRANCH   1   2
BRANCH   1   8
ATOM      8  C   UNL     1     100.185 -67.078   0.983  1.00  0.00     0.214 C 
BRANCH   8   9
ATOM      9  C   UNL     1     100.702 -67.891   2.156  1.00  0.00     0.189 C 
ATOM     10  O   UNL     1     101.868 -68.260   2.154  1.00  0.00    -0.294 OA
BRANCH   9  11
ATOM     11  C   UNL     1      99.829 -68.190   3.351  1.00  0.00     0.234 C 
BRANCH  11  12
ATOM     12  O   UNL     1      98.729 -68.982   2.990  1.00  0.00    -0.388 OA
ATOM     13  H   UNL     1      99.096 -69.802   2.565  1.00  0.00     0.211 HD
ENDBRANCH  11  12
ENDBRANCH   9  11
ENDBRANCH   8   9
BRANCH   8  14
ATOM     14  O   UNL     1      98.934 -66.507   1.274  1.00  0.00    -0.382 OA
ATOM     15  H   UNL     1      98.316 -66.775   0.545  1.00  0.00     0.211 HD
ENDBRANCH   8  14
ENDBRANCH   1   8
BRANCH   1  16
ATOM     16  O   UNL     1     101.246 -68.702  -0.471  1.00  0.00    -0.387 OA
ATOM     17  H   UNL     1     101.363 -69.216   0.370  1.00  0.00     0.211 HD
ENDBRANCH   1  16
TORSDOF 10
ENDMDL
MODEL 2
REMARK VINA RESULT:    -3.912      1.263      1.913
REMARK INTER + INTRA:          -6.719
REMARK INTER:                  -6.004
REMARK INTRA:                  -0.715
REMARK UNBOUND:                -1.091
REMARK SMILES O=C(CO)[C@H](O)[C@@H](O)[C@H](O)CO
REMARK SMILES IDX 7 1 9 2 11 3 12 4 10 6 5 8 2 9 1 10 3 11 4 12 6 14 8 16
REMARK H PARENT 12 5 10 7 4 13 6 15 8 17
REMARK Flexibility Score: inf
ROOT
ATOM      1  C   UNL     1      99.954 -68.056  -0.759  1.00  0.00     0.181 C 
ENDROOT
BRANCH   1   2
ATOM      2  C   UNL     1      99.303 -68.069  -2.180  1.00  0.00     0.171 C 
BRANCH   2   3
ATOM      3  C   UNL     1     100.285 -67.763  -3.329  1.00  0.00     0.190 C 
BRANCH   3   4
ATOM      4  O   UNL     1     100.987 -68.913  -3.723  1.00  0.00    -0.394 OA
ATOM      5  H   UNL     1     101.330 -69.340  -2.896  1.00  0.00     0.210 HD
ENDBRANCH   3   4
ENDBRANCH   2   3
BRANCH   2   6
ATOM      6  O   UNL     1      98.670 -69.303  -2.418  1.00  0.00    -0.388 OA
ATOM      7  H   UNL     1      98.408 -69.326  -3.376  1.00  0.00     0.211 HD
ENDBRANCH   2   6
ENDBRANCH   1   2
BRANCH   1   8
ATOM      8  C   UNL     1      99.079 -68.651   0.377  1.00  0.00     0.214 C 
BRANCH   8   9
ATOM      9  C   UNL     1      99.607 -68.329   1.764  1.00  0.00     0.189 C 
ATOM     10  O   UNL     1     100.803 -68.125   1.911  1.00  0.00    -0.294 OA
BRANCH   9  11
ATOM     11  C   UNL     1      98.678 -68.190   2.947  1.00  0.00     0.234 C 
BRANCH  11  12
ATOM     12  O   UNL     1      98.998 -69.112   3.954  1.00  0.00    -0.388 OA
ATOM     13  H   UNL     1      99.778 -69.633   3.626  1.00  0.00     0.211 HD
ENDBRANCH  11  12
ENDBRANCH   9  11
ENDBRANCH   8   9
BRANCH   8  14
ATOM     14  O   UNL     1      98.938 -70.037   0.197  1.00  0.00    -0.382 OA
ATOM     15  H   UNL     1      99.182 -70.234  -0.744  1.00  0.00     0.211 HD
ENDBRANCH   8  14
ENDBRANCH   1   8
BRANCH   1  16
ATOM     16  O   UNL     1     101.206 -68.699  -0.783  1.00  0.00    -0.387 OA
ATOM     17  H   UNL     1     101.909 -68.005  -0.680  1.00  0.00     0.211 HD
ENDBRANCH   1  16
TORSDOF 10
ENDMDL
MODEL 3
REMARK VINA RESULT:    -3.702      1.271      4.699
REMARK INTER + INTRA:          -6.415
REMARK INTER:                  -5.470
REMARK INTRA:                  -0.945
REMARK UNBOUND:                -1.091
REMARK SMILES O=C(CO)[C@H](O)[C@@H](O)[C@H](O)CO
REMARK SMILES IDX 7 1 9 2 11 3 12 4 10 6 5 8 2 9 1 10 3 11 4 12 6 14 8 16
REMARK H PARENT 12 5 10 7 4 13 6 15 8 17
REMARK Flexibility Score: inf
ROOT
ATOM      1  C   UNL     1      99.215 -68.402   0.211  1.00  0.00     0.181 C 
ENDROOT
BRANCH   1   2
ATOM      2  C   UNL     1      99.734 -67.825   1.568  1.00  0.00     0.171 C 
BRANCH   2   3
ATOM      3  C   UNL     1      98.733 -67.950   2.734  1.00  0.00     0.190 C 
BRANCH   3   4
ATOM      4  O   UNL     1      98.760 -69.235   3.297  1.00  0.00    -0.394 OA
ATOM      5  H   UNL     1      99.478 -69.739   2.834  1.00  0.00     0.210 HD
ENDBRANCH   3   4
ENDBRANCH   2   3
BRANCH   2   6
ATOM      6  O   UNL     1     100.951 -68.435   1.926  1.00  0.00    -0.388 OA
ATOM      7  H   UNL     1     100.750 -69.129   2.608  1.00  0.00     0.211 HD
ENDBRANCH   2   6
ENDBRANCH   1   2
BRANCH   1   8
ATOM      8  C   UNL     1     100.042 -68.003  -1.041  1.00  0.00     0.214 C 
BRANCH   8   9
ATOM      9  C   UNL     1      99.314 -68.271  -2.346  1.00  0.00     0.189 C 
ATOM     10  O   UNL     1      98.210 -68.796  -2.312  1.00  0.00    -0.294 OA
BRANCH   9  11
ATOM     11  C   UNL     1      99.892 -67.839  -3.672  1.00  0.00     0.234 C 
BRANCH  11  12
ATOM     12  O   UNL     1     100.990 -68.634  -4.030  1.00  0.00    -0.388 OA
ATOM     13  H   UNL     1     101.492 -68.819  -3.192  1.00  0.00     0.211 HD
ENDBRANCH  11  12
ENDBRANCH   9  11
ENDBRANCH   8   9
BRANCH   8  14
ATOM     14  O   UNL     1     101.289 -68.650  -1.015  1.00  0.00    -0.382 OA
ATOM     15  H   UNL     1     101.261 -69.308  -0.273  1.00  0.00     0.211 HD
ENDBRANCH   8  14
ENDBRANCH   1   8
BRANCH   1  16
ATOM     16  O   UNL     1      99.100 -69.804   0.281  1.00  0.00    -0.387 OA
ATOM     17  H   UNL     1      98.172 -70.048   0.025  1.00  0.00     0.211 HD
ENDBRANCH   1  16
TORSDOF 10
ENDMDL
MODEL 4
REMARK VINA RESULT:    -3.624      2.206      4.932
REMARK INTER + INTRA:          -6.304
REMARK INTER:                  -4.884
REMARK INTRA:                  -1.420
REMARK UNBOUND:                -1.091
REMARK SMILES O=C(CO)[C@H](O)[C@@H](O)[C@H](O)CO
REMARK SMILES IDX 7 1 9 2 11 3 12 4 10 6 5 8 2 9 1 10 3 11 4 12 6 14 8 16
REMARK H PARENT 12 5 10 7 4 13 6 15 8 17
REMARK Flexibility Score: inf
ROOT
ATOM      1  C   UNL     1      98.865 -68.024  -1.867  1.00  0.00     0.181 C 
ENDROOT
BRANCH   1   2
ATOM      2  C   UNL     1      99.696 -68.061  -0.544  1.00  0.00     0.171 C 
BRANCH   2   3
ATOM      3  C   UNL     1      99.028 -68.848   0.602  1.00  0.00     0.190 C 
BRANCH   3   4
ATOM      4  O   UNL     1      98.795 -70.183   0.238  1.00  0.00    -0.394 OA
ATOM      5  H   UNL     1      99.407 -70.389  -0.515  1.00  0.00     0.210 HD
ENDBRANCH   3   4
ENDBRANCH   2   3
BRANCH   2   6
ATOM      6  O   UNL     1     100.980 -68.583  -0.786  1.00  0.00    -0.388 OA
ATOM      7  H   UNL     1     101.404 -68.760   0.094  1.00  0.00     0.211 HD
ENDBRANCH   2   6
ENDBRANCH   1   2
BRANCH   1   8
ATOM      8  C   UNL     1      99.242 -66.889  -2.857  1.00  0.00     0.214 C 
BRANCH   8   9
ATOM      9  C   UNL     1      99.670 -67.406  -4.219  1.00  0.00     0.189 C 
ATOM     10  O   UNL     1      98.814 -67.628  -5.064  1.00  0.00    -0.294 OA
BRANCH   9  11
ATOM     11  C   UNL     1     101.127 -67.584  -4.571  1.00  0.00     0.234 C 
BRANCH  11  12
ATOM     12  O   UNL     1     101.817 -68.254  -3.549  1.00  0.00    -0.388 OA
ATOM     13  H   UNL     1     102.033 -67.574  -2.858  1.00  0.00     0.211 HD
ENDBRANCH  11  12
ENDBRANCH   9  11
ENDBRANCH   8   9
BRANCH   8  14
ATOM     14  O   UNL     1     100.236 -66.072  -2.291  1.00  0.00    -0.382 OA
ATOM     15  H   UNL     1     101.103 -66.357  -2.678  1.00  0.00     0.211 HD
ENDBRANCH   8  14
ENDBRANCH   1   8
BRANCH   1  16
ATOM     16  O   UNL     1      98.922 -69.269  -2.522  1.00  0.00    -0.387 OA
ATOM     17  H   UNL     1      98.495 -69.945  -1.935  1.00  0.00     0.211 HD
ENDBRANCH   1  16
TORSDOF 10
ENDMDL
MODEL 5
REMARK VINA RESULT:    -3.606      2.146      4.870
REMARK INTER + INTRA:          -6.279
REMARK INTER:                  -5.042
REMARK INTRA:                  -1.236
REMARK UNBOUND:                -1.091
REMARK SMILES O=C(CO)[C@H](O)[C@@H](O)[C@H](O)CO
REMARK SMILES IDX 7 1 9 2 11 3 12 4 10 6 5 8 2 9 1 10 3 11 4 12 6 14 8 16
REMARK H PARENT 12 5 10 7 4 13 6 15 8 17
REMARK Flexibility Score: inf
ROOT
ATOM      1  C   UNL     1      99.702 -67.065  -1.306  1.00  0.00     0.181 C 
ENDROOT
BRANCH   1   2
ATOM      2  C   UNL     1     100.413 -67.797  -0.123  1.00  0.00     0.171 C 
BRANCH   2   3
ATOM      3  C   UNL     1      99.459 -68.569   0.810  1.00  0.00     0.190 C 
BRANCH   3   4
ATOM      4  O   UNL     1      98.999 -69.751   0.208  1.00  0.00    -0.394 OA
ATOM      5  H   UNL     1      99.742 -70.407   0.254  1.00  0.00     0.210 HD
ENDBRANCH   3   4
ENDBRANCH   2   3
BRANCH   2   6
ATOM      6  O   UNL     1     101.403 -68.671  -0.611  1.00  0.00    -0.388 OA
ATOM      7  H   UNL     1     101.465 -69.436   0.019  1.00  0.00     0.211 HD
ENDBRANCH   2   6
ENDBRANCH   1   2
BRANCH   1   8
ATOM      8  C   UNL     1      99.855 -67.742  -2.694  1.00  0.00     0.214 C 
BRANCH   8   9
ATOM      9  C   UNL     1      99.359 -66.874  -3.837  1.00  0.00     0.189 C 
ATOM     10  O   UNL     1     100.084 -65.989  -4.268  1.00  0.00    -0.294 OA
BRANCH   9  11
ATOM     11  C   UNL     1      98.024 -67.128  -4.495  1.00  0.00     0.234 C 
BRANCH  11  12
ATOM     12  O   UNL     1      96.982 -67.102  -3.556  1.00  0.00    -0.388 OA
ATOM     13  H   UNL     1      96.445 -67.925  -3.703  1.00  0.00     0.211 HD
ENDBRANCH  11  12
ENDBRANCH   9  11
ENDBRANCH   8   9
BRANCH   8  14
ATOM     14  O   UNL     1      99.212 -68.991  -2.690  1.00  0.00    -0.382 OA
ATOM     15  H   UNL     1      98.281 -68.838  -2.383  1.00  0.00     0.211 HD
ENDBRANCH   8  14
ENDBRANCH   1   8
BRANCH   1  16
ATOM     16  O   UNL     1      98.338 -66.869  -1.018  1.00  0.00    -0.387 OA
ATOM     17  H   UNL     1      97.970 -67.726  -0.680  1.00  0.00     0.211 HD
ENDBRANCH   1  16
TORSDOF 10
ENDMDL
MODEL 6
REMARK VINA RESULT:    -3.585      1.497      2.348
REMARK INTER + INTRA:          -6.248
REMARK INTER:                  -5.193
REMARK INTRA:                  -1.055
REMARK UNBOUND:                -1.091
REMARK SMILES O=C(CO)[C@H](O)[C@@H](O)[C@H](O)CO
REMARK SMILES IDX 7 1 9 2 11 3 12 4 10 6 5 8 2 9 1 10 3 11 4 12 6 14 8 16
REMARK H PARENT 12 5 10 7 4 13 6 15 8 17
REMARK Flexibility Score: inf
ROOT
ATOM      1  C   UNL     1      98.677 -67.766  -0.963  1.00  0.00     0.181 C 
ENDROOT
BRANCH   1   2
ATOM      2  C   UNL     1      98.757 -68.562  -2.306  1.00  0.00     0.171 C 
BRANCH   2   3
ATOM      3  C   UNL     1      98.139 -67.829  -3.514  1.00  0.00     0.190 C 
BRANCH   3   4
ATOM      4  O   UNL     1      97.172 -66.897  -3.108  1.00  0.00    -0.394 OA
ATOM      5  H   UNL     1      96.686 -66.610  -3.923  1.00  0.00     0.210 HD
ENDBRANCH   3   4
ENDBRANCH   2   3
BRANCH   2   6
ATOM      6  O   UNL     1     100.091 -68.903  -2.595  1.00  0.00    -0.388 OA
ATOM      7  H   UNL     1     100.231 -69.842  -2.302  1.00  0.00     0.211 HD
ENDBRANCH   2   6
ENDBRANCH   1   2
BRANCH   1   8
ATOM      8  C   UNL     1      99.106 -68.555   0.303  1.00  0.00     0.214 C 
BRANCH   8   9
ATOM      9  C   UNL     1     100.473 -68.149   0.823  1.00  0.00     0.189 C 
ATOM     10  O   UNL     1     101.438 -68.221   0.074  1.00  0.00    -0.294 OA
BRANCH   9  11
ATOM     11  C   UNL     1     100.653 -67.594   2.215  1.00  0.00     0.234 C 
BRANCH  11  12
ATOM     12  O   UNL     1     100.314 -68.547   3.188  1.00  0.00    -0.388 OA
ATOM     13  H   UNL     1     100.639 -69.424   2.853  1.00  0.00     0.211 HD
ENDBRANCH  11  12
ENDBRANCH   9  11
ENDBRANCH   8   9
BRANCH   8  14
ATOM     14  O   UNL     1      99.050 -69.935   0.048  1.00  0.00    -0.382 OA
ATOM     15  H   UNL     1      98.094 -70.198   0.076  1.00  0.00     0.211 HD
ENDBRANCH   8  14
ENDBRANCH   1   8
BRANCH   1  16
ATOM     16  O   UNL     1      99.415 -66.570  -1.053  1.00  0.00    -0.387 OA
ATOM     17  H   UNL     1      99.728 -66.472  -1.990  1.00  0.00     0.211 HD
ENDBRANCH   1  16
TORSDOF 10
ENDMDL
MODEL 7
REMARK VINA RESULT:    -3.563      1.334      4.367
REMARK INTER + INTRA:          -6.216
REMARK INTER:                  -5.571
REMARK INTRA:                  -0.646
REMARK UNBOUND:                -1.091
REMARK SMILES O=C(CO)[C@H](O)[C@@H](O)[C@H](O)CO
REMARK SMILES IDX 7 1 9 2 11 3 12 4 10 6 5 8 2 9 1 10 3 11 4 12 6 14 8 16
REMARK H PARENT 12 5 10 7 4 13 6 15 8 17
REMARK Flexibility Score: inf
ROOT
ATOM      1  C   UNL     1      99.265 -68.288   0.514  1.00  0.00     0.181 C 
ENDROOT
BRANCH   1   2
ATOM      2  C   UNL     1      99.585 -67.974   2.012  1.00  0.00     0.171 C 
BRANCH   2   3
ATOM      3  C   UNL     1      98.540 -68.514   3.009  1.00  0.00     0.190 C 
BRANCH   3   4
ATOM      4  O   UNL     1      99.148 -69.242   4.043  1.00  0.00    -0.394 OA
ATOM      5  H   UNL     1      98.527 -69.977   4.284  1.00  0.00     0.210 HD
ENDBRANCH   3   4
ENDBRANCH   2   3
BRANCH   2   6
ATOM      6  O   UNL     1     100.859 -68.464   2.354  1.00  0.00    -0.388 OA
ATOM      7  H   UNL     1     100.732 -69.334   2.817  1.00  0.00     0.211 HD
ENDBRANCH   2   6
ENDBRANCH   1   2
BRANCH   1   8
ATOM      8  C   UNL     1     100.267 -67.700  -0.516  1.00  0.00     0.214 C 
BRANCH   8   9
ATOM      9  C   UNL     1      99.590 -67.159  -1.763  1.00  0.00     0.189 C 
ATOM     10  O   UNL     1      99.945 -66.078  -2.209  1.00  0.00    -0.294 OA
BRANCH   9  11
ATOM     11  C   UNL     1      98.542 -67.959  -2.498  1.00  0.00     0.234 C 
BRANCH  11  12
ATOM     12  O   UNL     1      98.974 -69.274  -2.726  1.00  0.00    -0.388 OA
ATOM     13  H   UNL     1      98.411 -69.862  -2.156  1.00  0.00     0.211 HD
ENDBRANCH  11  12
ENDBRANCH   9  11
ENDBRANCH   8   9
BRANCH   8  14
ATOM     14  O   UNL     1     101.236 -68.663  -0.843  1.00  0.00    -0.382 OA
ATOM     15  H   UNL     1     102.003 -68.179  -1.247  1.00  0.00     0.211 HD
ENDBRANCH   8  14
ENDBRANCH   1   8
BRANCH   1  16
ATOM     16  O   UNL     1      99.136 -69.676   0.316  1.00  0.00    -0.387 OA
ATOM     17  H   UNL     1      99.205 -70.120   1.201  1.00  0.00     0.211 HD
ENDBRANCH   1  16
TORSDOF 10
ENDMDL
MODEL 8
REMARK VINA RESULT:    -3.525      2.630      4.189
REMARK INTER + INTRA:          -6.162
REMARK INTER:                  -5.115
REMARK INTRA:                  -1.047
REMARK UNBOUND:                -1.091
REMARK SMILES O=C(CO)[C@H](O)[C@@H](O)[C@H](O)CO
REMARK SMILES IDX 7 1 9 2 11 3 12 4 10 6 5 8 2 9 1 10 3 11 4 12 6 14 8 16
REMARK H PARENT 12 5 10 7 4 13 6 15 8 17
REMARK Flexibility Score: inf
ROOT
ATOM      1  C   UNL     1      97.729 -67.671  -2.843  1.00  0.00     0.181 C 
ENDROOT
BRANCH   1   2
ATOM      2  C   UNL     1      98.164 -66.967  -4.169  1.00  0.00     0.171 C 
BRANCH   2   3
ATOM      3  C   UNL     1      97.033 -66.194  -4.877  1.00  0.00     0.190 C 
BRANCH   3   4
ATOM      4  O   UNL     1      96.575 -65.125  -4.092  1.00  0.00    -0.394 OA
ATOM      5  H   UNL     1      97.361 -64.553  -3.894  1.00  0.00     0.210 HD
ENDBRANCH   3   4
ENDBRANCH   2   3
BRANCH   2   6
ATOM      6  O   UNL     1      99.248 -66.101  -3.930  1.00  0.00    -0.388 OA
ATOM      7  H   UNL     1      99.054 -65.243  -4.393  1.00  0.00     0.211 HD
ENDBRANCH   2   6
ENDBRANCH   1   2
BRANCH   1   8
ATOM      8  C   UNL     1      98.791 -68.610  -2.210  1.00  0.00     0.214 C 
BRANCH   8   9
ATOM      9  C   UNL     1      99.401 -68.046  -0.939  1.00  0.00     0.189 C 
ATOM     10  O   UNL     1     100.026 -66.997  -0.996  1.00  0.00    -0.294 OA
BRANCH   9  11
ATOM     11  C   UNL     1      99.191 -68.715   0.398  1.00  0.00     0.234 C 
BRANCH  11  12
ATOM     12  O   UNL     1      98.876 -70.073   0.242  1.00  0.00    -0.388 OA
ATOM     13  H   UNL     1      99.722 -70.536   0.001  1.00  0.00     0.211 HD
ENDBRANCH  11  12
ENDBRANCH   9  11
ENDBRANCH   8   9
BRANCH   8  14
ATOM     14  O   UNL     1      99.784 -68.915  -3.156  1.00  0.00    -0.382 OA
ATOM     15  H   UNL     1      99.450 -68.609  -4.038  1.00  0.00     0.211 HD
ENDBRANCH   8  14
ENDBRANCH   1   8
BRANCH   1  16
ATOM     16  O   UNL     1      97.305 -66.721  -1.894  1.00  0.00    -0.387 OA
ATOM     17  H   UNL     1      97.061 -65.891  -2.380  1.00  0.00     0.211 HD
ENDBRANCH   1  16
TORSDOF 10
ENDMDL
MODEL 9
REMARK VINA RESULT:    -3.471      1.314      4.403
REMARK INTER + INTRA:          -6.084
REMARK INTER:                  -5.086
REMARK INTRA:                  -0.998
REMARK UNBOUND:                -1.091
REMARK SMILES O=C(CO)[C@H](O)[C@@H](O)[C@H](O)CO
REMARK SMILES IDX 7 1 9 2 11 3 12 4 10 6 5 8 2 9 1 10 3 11 4 12 6 14 8 16
REMARK H PARENT 12 5 10 7 4 13 6 15 8 17
REMARK Flexibility Score: inf
ROOT
ATOM      1  C   UNL     1      99.407 -68.020   0.539  1.00  0.00     0.181 C 
ENDROOT
BRANCH   1   2
ATOM      2  C   UNL     1     100.330 -67.696   1.758  1.00  0.00     0.171 C 
BRANCH   2   3
ATOM      3  C   UNL     1      99.786 -68.192   3.113  1.00  0.00     0.190 C 
BRANCH   3   4
ATOM      4  O   UNL     1      98.643 -68.989   2.945  1.00  0.00    -0.394 OA
ATOM      5  H   UNL     1      98.108 -68.906   3.776  1.00  0.00     0.210 HD
ENDBRANCH   3   4
ENDBRANCH   2   3
BRANCH   2   6
ATOM      6  O   UNL     1     101.620 -68.219   1.549  1.00  0.00    -0.388 OA
ATOM      7  H   UNL     1     101.555 -68.903   0.831  1.00  0.00     0.211 HD
ENDBRANCH   2   6
ENDBRANCH   1   2
BRANCH   1   8
ATOM      8  C   UNL     1      99.686 -67.189  -0.743  1.00  0.00     0.214 C 
BRANCH   8   9
ATOM      9  C   UNL     1      98.495 -67.132  -1.685  1.00  0.00     0.189 C 
ATOM     10  O   UNL     1      97.600 -66.331  -1.460  1.00  0.00    -0.294 OA
BRANCH   9  11
ATOM     11  C   UNL     1      98.431 -67.992  -2.924  1.00  0.00     0.234 C 
BRANCH  11  12
ATOM     12  O   UNL     1      98.851 -69.303  -2.654  1.00  0.00    -0.388 OA
ATOM     13  H   UNL     1      98.028 -69.845  -2.528  1.00  0.00     0.211 HD
ENDBRANCH  11  12
ENDBRANCH   9  11
ENDBRANCH   8   9
BRANCH   8  14
ATOM     14  O   UNL     1     100.825 -67.687  -1.398  1.00  0.00    -0.382 OA
ATOM     15  H   UNL     1     101.609 -67.208  -1.022  1.00  0.00     0.211 HD
ENDBRANCH   8  14
ENDBRANCH   1   8
BRANCH   1  16
ATOM     16  O   UNL     1      99.451 -69.394   0.236  1.00  0.00    -0.387 OA
ATOM     17  H   UNL     1      98.788 -69.856   0.812  1.00  0.00     0.211 HD
ENDBRANCH   1  16
TORSDOF 10
ENDMDL
