MODEL 1
REMARK VINA RESULT:    -5.037      0.000      0.000
REMARK INTER + INTRA:          -8.052
REMARK INTER:                  -7.393
REMARK INTRA:                  -0.659
REMARK UNBOUND:                -0.659
REMARK SMILES O=C([O-])CCCCCCCC(=O)[O-]
REMARK SMILES IDX 7 1 6 2 5 3 4 4 2 5 1 6 3 7 8 8 9 9 10 10 11 11 12 12 13 13
REMARK H PARENT
REMARK Flexibility Score: inf
ROOT
ATOM      1  C   UNL     1     -97.127 -60.805 -64.450  1.00  0.00     0.000 C 
ENDROOT
BRANCH   1   2
ATOM      2  C   UNL     1     -98.088 -61.891 -63.940  1.00  0.00     0.000 C 
BRANCH   2   3
ATOM      3  C   UNL     1     -99.251 -62.153 -64.909  1.00  0.00     0.006 C 
BRANCH   3   4
ATOM      4  C   UNL     1    -100.501 -61.377 -64.486  1.00  0.00     0.053 C 
BRANCH   4   5
ATOM      5  C   UNL     1    -101.123 -60.700 -65.667  1.00  0.00     0.041 C 
ATOM      6  O   UNL     1    -101.826 -59.668 -65.509  1.00  0.00    -0.550 OA
ATOM      7  O   UNL     1    -100.967 -61.238 -66.938  1.00  0.00    -0.550 OA
ENDBRANCH   4   5
ENDBRANCH   3   4
ENDBRANCH   2   3
ENDBRANCH   1   2
BRANCH   1   8
ATOM      8  C   UNL     1     -96.227 -61.303 -65.595  1.00  0.00     0.000 C 
BRANCH   8   9
ATOM      9  C   UNL     1     -96.223 -60.351 -66.805  1.00  0.00     0.006 C 
BRANCH   9  10
ATOM     10  C   UNL     1     -97.611 -60.109 -67.421  1.00  0.00     0.053 C 
BRANCH  10  11
ATOM     11  C   UNL     1     -98.131 -58.740 -67.110  1.00  0.00     0.041 C 
ATOM     12  O   UNL     1     -99.296 -58.411 -67.460  1.00  0.00    -0.550 OA
ATOM     13  O   UNL     1     -97.319 -57.815 -66.466  1.00  0.00    -0.550 OA
ENDBRANCH  10  11
ENDBRANCH   9  10
ENDBRANCH   8   9
ENDBRANCH   1   8
TORSDOF 8
ENDMDL
MODEL 2
REMARK VINA RESULT:    -4.975      0.508      3.743
REMARK INTER + INTRA:          -7.961
REMARK INTER:                  -7.233
REMARK INTRA:                  -0.728
REMARK UNBOUND:                -0.659
REMARK SMILES O=C([O-])CCCCCCCC(=O)[O-]
REMARK SMILES IDX 7 1 6 2 5 3 4 4 2 5 1 6 3 7 8 8 9 9 10 10 11 11 12 12 13 13
REMARK H PARENT
REMARK Flexibility Score: inf
ROOT
ATOM      1  C   UNL     1     -97.012 -60.947 -64.487  1.00  0.00     0.000 C 
ENDROOT
BRANCH   1   2
ATOM      2  C   UNL     1     -96.084 -61.297 -65.662  1.00  0.00     0.000 C 
BRANCH   2   3
ATOM      3  C   UNL     1     -96.113 -60.237 -66.773  1.00  0.00     0.006 C 
BRANCH   3   4
ATOM      4  C   UNL     1     -97.523 -60.086 -67.350  1.00  0.00     0.053 C 
BRANCH   4   5
ATOM      5  C   UNL     1     -98.065 -58.722 -67.059  1.00  0.00     0.041 C 
ATOM      6  O   UNL     1     -99.206 -58.391 -67.475  1.00  0.00    -0.550 OA
ATOM      7  O   UNL     1     -97.290 -57.798 -66.370  1.00  0.00    -0.550 OA
ENDBRANCH   4   5
ENDBRANCH   3   4
ENDBRANCH   2   3
ENDBRANCH   1   2
BRANCH   1   8
ATOM      8  C   UNL     1     -97.947 -62.109 -64.107  1.00  0.00     0.000 C 
BRANCH   8   9
ATOM      9  C   UNL     1     -99.435 -61.763 -64.304  1.00  0.00     0.006 C 
BRANCH   9  10
ATOM     10  C   UNL     1     -99.998 -62.163 -65.676  1.00  0.00     0.053 C 
BRANCH  10  11
ATOM     11  C   UNL     1    -100.914 -61.118 -66.234  1.00  0.00     0.041 C 
ATOM     12  O   UNL     1    -101.198 -61.114 -67.461  1.00  0.00    -0.550 OA
ATOM     13  O   UNL     1    -101.427 -60.128 -65.406  1.00  0.00    -0.550 OA
ENDBRANCH  10  11
ENDBRANCH   9  10
ENDBRANCH   8   9
ENDBRANCH   1   8
TORSDOF 8
ENDMDL
MODEL 3
REMARK VINA RESULT:    -4.844      1.954      4.296
REMARK INTER + INTRA:          -7.769
REMARK INTER:                  -7.067
REMARK INTRA:                  -0.702
REMARK UNBOUND:                -0.659
REMARK SMILES O=C([O-])CCCCCCCC(=O)[O-]
REMARK SMILES IDX 7 1 6 2 5 3 4 4 2 5 1 6 3 7 8 8 9 9 10 10 11 11 12 12 13 13
REMARK H PARENT
REMARK Flexibility Score: inf
ROOT
ATOM      1  C   UNL     1     -98.666 -61.738 -64.054  1.00  0.00     0.000 C 
ENDROOT
BRANCH   1   2
ATOM      2  C   UNL     1     -97.324 -61.723 -64.803  1.00  0.00     0.000 C 
BRANCH   2   3
ATOM      3  C   UNL     1     -96.782 -60.302 -65.017  1.00  0.00     0.006 C 
BRANCH   3   4
ATOM      4  C   UNL     1     -96.575 -60.012 -66.505  1.00  0.00     0.053 C 
BRANCH   4   5
ATOM      5  C   UNL     1     -95.510 -60.900 -67.069  1.00  0.00     0.041 C 
ATOM      6  O   UNL     1     -95.744 -61.601 -68.089  1.00  0.00    -0.550 OA
ATOM      7  O   UNL     1     -94.275 -60.991 -66.440  1.00  0.00    -0.550 OA
ENDBRANCH   4   5
ENDBRANCH   3   4
ENDBRANCH   2   3
ENDBRANCH   1   2
BRANCH   1   8
ATOM      8  C   UNL     1     -99.777 -62.453 -64.844  1.00  0.00     0.000 C 
BRANCH   8   9
ATOM      9  C   UNL     1     -99.671 -62.220 -66.362  1.00  0.00     0.006 C 
BRANCH   9  10
ATOM     10  C   UNL     1    -100.816 -61.381 -66.952  1.00  0.00     0.053 C 
BRANCH  10  11
ATOM     11  C   UNL     1    -100.861 -60.003 -66.367  1.00  0.00     0.041 C 
ATOM     12  O   UNL     1     -99.993 -59.150 -66.690  1.00  0.00    -0.550 OA
ATOM     13  O   UNL     1    -101.841 -59.671 -65.440  1.00  0.00    -0.550 OA
ENDBRANCH  10  11
ENDBRANCH   9  10
ENDBRANCH   8   9
ENDBRANCH   1   8
TORSDOF 8
ENDMDL
MODEL 4
REMARK VINA RESULT:    -4.822      1.920      3.238
REMARK INTER + INTRA:          -7.736
REMARK INTER:                  -6.882
REMARK INTRA:                  -0.854
REMARK UNBOUND:                -0.659
REMARK SMILES O=C([O-])CCCCCCCC(=O)[O-]
REMARK SMILES IDX 7 1 6 2 5 3 4 4 2 5 1 6 3 7 8 8 9 9 10 10 11 11 12 12 13 13
REMARK H PARENT
REMARK Flexibility Score: inf
ROOT
ATOM      1  C   UNL     1     -97.654 -60.471 -68.298  1.00  0.00     0.000 C 
ENDROOT
BRANCH   1   2
ATOM      2  C   UNL     1     -97.879 -59.204 -67.457  1.00  0.00     0.000 C 
BRANCH   2   3
ATOM      3  C   UNL     1     -99.248 -59.191 -66.762  1.00  0.00     0.006 C 
BRANCH   3   4
ATOM      4  C   UNL     1     -99.792 -60.613 -66.598  1.00  0.00     0.053 C 
BRANCH   4   5
ATOM      5  C   UNL     1    -100.802 -60.664 -65.496  1.00  0.00     0.041 C 
ATOM      6  O   UNL     1    -100.604 -61.392 -64.487  1.00  0.00    -0.550 OA
ATOM      7  O   UNL     1    -101.987 -59.946 -65.604  1.00  0.00    -0.550 OA
ENDBRANCH   4   5
ENDBRANCH   3   4
ENDBRANCH   2   3
ENDBRANCH   1   2
BRANCH   1   8
ATOM      8  C   UNL     1     -96.306 -61.149 -67.996  1.00  0.00     0.000 C 
BRANCH   8   9
ATOM      9  C   UNL     1     -95.727 -60.739 -66.630  1.00  0.00     0.006 C 
BRANCH   9  10
ATOM     10  C   UNL     1     -95.853 -61.818 -65.543  1.00  0.00     0.053 C 
BRANCH  10  11
ATOM     11  C   UNL     1     -96.815 -61.421 -64.466  1.00  0.00     0.041 C 
ATOM     12  O   UNL     1     -97.485 -62.298 -63.859  1.00  0.00    -0.550 OA
ATOM     13  O   UNL     1     -96.999 -60.079 -64.156  1.00  0.00    -0.550 OA
ENDBRANCH  10  11
ENDBRANCH   9  10
ENDBRANCH   8   9
ENDBRANCH   1   8
TORSDOF 8
ENDMDL
MODEL 5
REMARK VINA RESULT:    -4.790      1.768      4.105
REMARK INTER + INTRA:          -7.689
REMARK INTER:                  -7.059
REMARK INTRA:                  -0.631
REMARK UNBOUND:                -0.659
REMARK SMILES O=C([O-])CCCCCCCC(=O)[O-]
REMARK SMILES IDX 7 1 6 2 5 3 4 4 2 5 1 6 3 7 8 8 9 9 10 10 11 11 12 12 13 13
REMARK H PARENT
REMARK Flexibility Score: inf
ROOT
ATOM      1  C   UNL     1     -97.508 -60.535 -68.202  1.00  0.00     0.000 C 
ENDROOT
BRANCH   1   2
ATOM      2  C   UNL     1     -96.143 -61.177 -67.906  1.00  0.00     0.000 C 
BRANCH   2   3
ATOM      3  C   UNL     1     -95.577 -60.760 -66.540  1.00  0.00     0.006 C 
BRANCH   3   4
ATOM      4  C   UNL     1     -95.879 -61.818 -65.476  1.00  0.00     0.053 C 
BRANCH   4   5
ATOM      5  C   UNL     1     -96.914 -61.318 -64.518  1.00  0.00     0.041 C 
ATOM      6  O   UNL     1     -96.969 -60.095 -64.225  1.00  0.00    -0.550 OA
ATOM      7  O   UNL     1     -97.787 -62.211 -63.910  1.00  0.00    -0.550 OA
ENDBRANCH   4   5
ENDBRANCH   3   4
ENDBRANCH   2   3
ENDBRANCH   1   2
BRANCH   1   8
ATOM      8  C   UNL     1     -97.712 -59.207 -67.451  1.00  0.00     0.000 C 
BRANCH   8   9
ATOM      9  C   UNL     1     -99.141 -59.048 -66.902  1.00  0.00     0.006 C 
BRANCH   9  10
ATOM     10  C   UNL     1     -99.722 -60.326 -66.276  1.00  0.00     0.053 C 
BRANCH  10  11
ATOM     11  C   UNL     1    -101.190 -60.462 -66.538  1.00  0.00     0.041 C 
ATOM     12  O   UNL     1    -101.597 -61.023 -67.589  1.00  0.00    -0.550 OA
ATOM     13  O   UNL     1    -102.110 -59.938 -65.637  1.00  0.00    -0.550 OA
ENDBRANCH  10  11
ENDBRANCH   9  10
ENDBRANCH   8   9
ENDBRANCH   1   8
TORSDOF 8
ENDMDL
MODEL 6
REMARK VINA RESULT:    -4.786      2.186      2.737
REMARK INTER + INTRA:          -7.684
REMARK INTER:                  -6.875
REMARK INTRA:                  -0.808
REMARK UNBOUND:                -0.659
REMARK SMILES O=C([O-])CCCCCCCC(=O)[O-]
REMARK SMILES IDX 7 1 6 2 5 3 4 4 2 5 1 6 3 7 8 8 9 9 10 10 11 11 12 12 13 13
REMARK H PARENT
REMARK Flexibility Score: inf
ROOT
ATOM      1  C   UNL     1     -97.546 -61.694 -64.837  1.00  0.00     0.000 C 
ENDROOT
BRANCH   1   2
ATOM      2  C   UNL     1     -98.904 -61.725 -64.117  1.00  0.00     0.000 C 
BRANCH   2   3
ATOM      3  C   UNL     1    -100.004 -62.391 -64.958  1.00  0.00     0.006 C 
BRANCH   3   4
ATOM      4  C   UNL     1    -100.161 -61.688 -66.309  1.00  0.00     0.053 C 
BRANCH   4   5
ATOM      5  C   UNL     1    -100.686 -60.300 -66.119  1.00  0.00     0.041 C 
ATOM      6  O   UNL     1    -100.080 -59.319 -66.625  1.00  0.00    -0.550 OA
ATOM      7  O   UNL     1    -101.817 -60.084 -65.343  1.00  0.00    -0.550 OA
ENDBRANCH   4   5
ENDBRANCH   3   4
ENDBRANCH   2   3
ENDBRANCH   1   2
BRANCH   1   8
ATOM      8  C   UNL     1     -96.942 -60.279 -64.897  1.00  0.00     0.000 C 
BRANCH   8   9
ATOM      9  C   UNL     1     -96.604 -59.838 -66.333  1.00  0.00     0.006 C 
BRANCH   9  10
ATOM     10  C   UNL     1     -96.621 -60.979 -67.363  1.00  0.00     0.053 C 
BRANCH  10  11
ATOM     11  C   UNL     1     -95.241 -61.349 -67.814  1.00  0.00     0.041 C 
ATOM     12  O   UNL     1     -94.245 -61.075 -67.095  1.00  0.00    -0.550 OA
ATOM     13  O   UNL     1     -95.052 -61.966 -69.045  1.00  0.00    -0.550 OA
ENDBRANCH  10  11
ENDBRANCH   9  10
ENDBRANCH   8   9
ENDBRANCH   1   8
TORSDOF 8
ENDMDL
MODEL 7
REMARK VINA RESULT:    -4.785      2.490      3.902
REMARK INTER + INTRA:          -7.681
REMARK INTER:                  -7.144
REMARK INTRA:                  -0.537
REMARK UNBOUND:                -0.659
REMARK SMILES O=C([O-])CCCCCCCC(=O)[O-]
REMARK SMILES IDX 7 1 6 2 5 3 4 4 2 5 1 6 3 7 8 8 9 9 10 10 11 11 12 12 13 13
REMARK H PARENT
REMARK Flexibility Score: inf
ROOT
ATOM      1  C   UNL     1     -98.819 -62.027 -65.064  1.00  0.00     0.000 C 
ENDROOT
BRANCH   1   2
ATOM      2  C   UNL     1    -100.042 -61.112 -65.244  1.00  0.00     0.000 C 
BRANCH   2   3
ATOM      3  C   UNL     1    -100.242 -60.673 -66.702  1.00  0.00     0.006 C 
BRANCH   3   4
ATOM      4  C   UNL     1     -99.999 -59.170 -66.860  1.00  0.00     0.053 C 
BRANCH   4   5
ATOM      5  C   UNL     1     -98.564 -58.903 -67.192  1.00  0.00     0.041 C 
ATOM      6  O   UNL     1     -97.926 -59.698 -67.931  1.00  0.00    -0.550 OA
ATOM      7  O   UNL     1     -97.918 -57.802 -66.645  1.00  0.00    -0.550 OA
ENDBRANCH   4   5
ENDBRANCH   3   4
ENDBRANCH   2   3
ENDBRANCH   1   2
BRANCH   1   8
ATOM      8  C   UNL     1     -97.602 -61.280 -64.489  1.00  0.00     0.000 C 
BRANCH   8   9
ATOM      9  C   UNL     1     -96.263 -61.877 -64.957  1.00  0.00     0.006 C 
BRANCH   9  10
ATOM     10  C   UNL     1     -95.499 -61.000 -65.962  1.00  0.00     0.053 C 
BRANCH  10  11
ATOM     11  C   UNL     1     -94.190 -61.610 -66.359  1.00  0.00     0.041 C 
ATOM     12  O   UNL     1     -94.072 -62.861 -66.433  1.00  0.00    -0.550 OA
ATOM     13  O   UNL     1     -93.092 -60.799 -66.615  1.00  0.00    -0.550 OA
ENDBRANCH  10  11
ENDBRANCH   9  10
ENDBRANCH   8   9
ENDBRANCH   1   8
TORSDOF 8
ENDMDL
MODEL 8
REMARK VINA RESULT:    -4.783      1.924      4.092
REMARK INTER + INTRA:          -7.679
REMARK INTER:                  -6.912
REMARK INTRA:                  -0.767
REMARK UNBOUND:                -0.659
REMARK SMILES O=C([O-])CCCCCCCC(=O)[O-]
REMARK SMILES IDX 7 1 6 2 5 3 4 4 2 5 1 6 3 7 8 8 9 9 10 10 11 11 12 12 13 13
REMARK H PARENT
REMARK Flexibility Score: inf
ROOT
ATOM      1  C   UNL     1     -96.996 -60.748 -65.050  1.00  0.00     0.000 C 
ENDROOT
BRANCH   1   2
ATOM      2  C   UNL     1     -95.691 -61.317 -65.629  1.00  0.00     0.000 C 
BRANCH   2   3
ATOM      3  C   UNL     1     -95.661 -61.282 -67.164  1.00  0.00     0.006 C 
BRANCH   3   4
ATOM      4  C   UNL     1     -96.948 -60.670 -67.723  1.00  0.00     0.053 C 
BRANCH   4   5
ATOM      5  C   UNL     1     -97.242 -61.219 -69.084  1.00  0.00     0.041 C 
ATOM      6  O   UNL     1     -98.034 -62.188 -69.219  1.00  0.00    -0.550 OA
ATOM      7  O   UNL     1     -96.602 -60.693 -70.199  1.00  0.00    -0.550 OA
ENDBRANCH   4   5
ENDBRANCH   3   4
ENDBRANCH   2   3
ENDBRANCH   1   2
BRANCH   1   8
ATOM      8  C   UNL     1     -97.740 -61.761 -64.161  1.00  0.00     0.000 C 
BRANCH   8   9
ATOM      9  C   UNL     1     -99.260 -61.763 -64.406  1.00  0.00     0.006 C 
BRANCH   9  10
ATOM     10  C   UNL     1     -99.680 -62.377 -65.751  1.00  0.00     0.053 C 
BRANCH  10  11
ATOM     11  C   UNL     1    -100.393 -61.388 -66.621  1.00  0.00     0.041 C 
ATOM     12  O   UNL     1    -100.983 -61.772 -67.665  1.00  0.00    -0.550 OA
ATOM     13  O   UNL     1    -100.376 -60.036 -66.298  1.00  0.00    -0.550 OA
ENDBRANCH  10  11
ENDBRANCH   9  10
ENDBRANCH   8   9
ENDBRANCH   1   8
TORSDOF 8
ENDMDL
MODEL 9
REMARK VINA RESULT:    -4.665      2.275      2.588
REMARK INTER + INTRA:          -7.506
REMARK INTER:                  -6.768
REMARK INTRA:                  -0.738
REMARK UNBOUND:                -0.659
REMARK SMILES O=C([O-])CCCCCCCC(=O)[O-]
REMARK SMILES IDX 7 1 6 2 5 3 4 4 2 5 1 6 3 7 8 8 9 9 10 10 11 11 12 12 13 13
REMARK H PARENT
REMARK Flexibility Score: inf
ROOT
ATOM      1  C   UNL     1     -96.998 -60.403 -64.498  1.00  0.00     0.000 C 
ENDROOT
BRANCH   1   2
ATOM      2  C   UNL     1     -97.635 -61.801 -64.447  1.00  0.00     0.000 C 
BRANCH   2   3
ATOM      3  C   UNL     1     -99.170 -61.751 -64.417  1.00  0.00     0.006 C 
BRANCH   3   4
ATOM      4  C   UNL     1     -99.762 -62.350 -65.694  1.00  0.00     0.053 C 
BRANCH   4   5
ATOM      5  C   UNL     1    -100.528 -61.313 -66.454  1.00  0.00     0.041 C 
ATOM      6  O   UNL     1    -101.124 -61.619 -67.520  1.00  0.00    -0.550 OA
ATOM      7  O   UNL     1    -100.543 -59.997 -66.011  1.00  0.00    -0.550 OA
ENDBRANCH   4   5
ENDBRANCH   3   4
ENDBRANCH   2   3
ENDBRANCH   1   2
BRANCH   1   8
ATOM      8  C   UNL     1     -97.023 -59.794 -65.911  1.00  0.00     0.000 C 
BRANCH   8   9
ATOM      9  C   UNL     1     -96.386 -60.716 -66.967  1.00  0.00     0.006 C 
BRANCH   9  10
ATOM     10  C   UNL     1     -97.284 -60.997 -68.182  1.00  0.00     0.053 C 
BRANCH  10  11
ATOM     11  C   UNL     1     -96.487 -61.364 -69.396  1.00  0.00     0.041 C 
ATOM     12  O   UNL     1     -97.026 -61.354 -70.534  1.00  0.00    -0.550 OA
ATOM     13  O   UNL     1     -95.159 -61.751 -69.267  1.00  0.00    -0.550 OA
ENDBRANCH  10  11
ENDBRANCH   9  10
ENDBRANCH   8   9
ENDBRANCH   1   8
TORSDOF 8
ENDMDL
