MODEL 1
REMARK VINA RESULT:    -7.871      0.000      0.000
REMARK INTER + INTRA:          -9.539
REMARK INTER:                  -9.251
REMARK INTRA:                  -0.287
REMARK UNBOUND:                -0.287
REMARK SMILES O=c1c(O)c(-c2ccc(O)cc2)oc2cc(O)cc(O)c12
REMARK SMILES IDX 5 1 3 2 2 3 1 4 21 5 19 6 18 7 16 8 15 9 14 10 13 11 6 12
REMARK SMILES IDX 7 13 8 14 9 15 12 16 11 17 10 18 4 20 20 22 17 24
REMARK H PARENT 10 19 4 21 20 23 17 25
REMARK Flexibility Score: inf
ROOT
ATOM      1  C   UNL     1     -22.297 -26.205 -19.202  1.00  0.00     0.180 A 
ATOM      2  C   UNL     1     -22.649 -24.875 -18.918  1.00  0.00     0.208 A 
ATOM      3  C   UNL     1     -23.131 -24.062 -19.956  1.00  0.00     0.238 A 
ATOM      4  O   UNL     1     -23.393 -22.857 -19.707  1.00  0.00    -0.285 OA
ATOM      5  C   UNL     1     -23.274 -24.594 -21.260  1.00  0.00     0.111 A 
ATOM      6  C   UNL     1     -23.792 -23.874 -22.378  1.00  0.00     0.134 A 
ATOM      7  C   UNL     1     -23.764 -24.460 -23.650  1.00  0.00     0.093 A 
ATOM      8  C   UNL     1     -23.299 -25.764 -23.833  1.00  0.00     0.123 A 
ATOM      9  C   UNL     1     -22.847 -26.496 -22.738  1.00  0.00     0.094 A 
ATOM     10  C   UNL     1     -22.827 -25.927 -21.463  1.00  0.00     0.146 A 
ATOM     11  O   UNL     1     -22.379 -26.657 -20.448  1.00  0.00    -0.452 OA
ENDROOT
BRANCH   1  12
ATOM     12  C   UNL     1     -21.803 -27.130 -18.156  1.00  0.00     0.021 A 
ATOM     13  C   UNL     1     -20.436 -27.202 -17.826  1.00  0.00     0.016 A 
ATOM     14  C   UNL     1     -19.998 -28.066 -16.818  1.00  0.00     0.047 A 
ATOM     15  C   UNL     1     -20.917 -28.856 -16.117  1.00  0.00     0.115 A 
ATOM     16  C   UNL     1     -22.720 -27.911 -17.435  1.00  0.00     0.016 A 
ATOM     17  C   UNL     1     -22.278 -28.775 -16.427  1.00  0.00     0.047 A 
BRANCH  15  18
ATOM     18  O   UNL     1     -20.491 -29.721 -15.112  1.00  0.00    -0.508 OA
ATOM     19  H   UNL     1     -20.261 -30.688 -15.309  1.00  0.00     0.293 HD
ENDBRANCH  15  18
ENDBRANCH   1  12
BRANCH   2  20
ATOM     20  O   UNL     1     -22.479 -24.363 -17.629  1.00  0.00    -0.502 OA
ATOM     21  H   UNL     1     -21.565 -24.218 -17.217  1.00  0.00     0.293 HD
ENDBRANCH   2  20
BRANCH   6  22
ATOM     22  O   UNL     1     -24.364 -22.602 -22.289  1.00  0.00    -0.507 OA
ATOM     23  H   UNL     1     -24.398 -21.932 -23.042  1.00  0.00     0.293 HD
ENDBRANCH   6  22
BRANCH   8  24
ATOM     24  O   UNL     1     -23.290 -26.345 -25.099  1.00  0.00    -0.508 OA
ATOM     25  H   UNL     1     -22.718 -25.973 -25.848  1.00  0.00     0.293 HD
ENDBRANCH   8  24
TORSDOF 5
ENDMDL
MODEL 2
REMARK VINA RESULT:    -7.852      0.108      1.062
REMARK INTER + INTRA:          -9.516
REMARK INTER:                  -9.225
REMARK INTRA:                  -0.291
REMARK UNBOUND:                -0.287
REMARK SMILES O=c1c(O)c(-c2ccc(O)cc2)oc2cc(O)cc(O)c12
REMARK SMILES IDX 5 1 3 2 2 3 1 4 21 5 19 6 18 7 16 8 15 9 14 10 13 11 6 12
REMARK SMILES IDX 7 13 8 14 9 15 12 16 11 17 10 18 4 20 20 22 17 24
REMARK H PARENT 10 19 4 21 20 23 17 25
REMARK Flexibility Score: inf
ROOT
ATOM      1  C   UNL     1     -22.327 -26.252 -19.121  1.00  0.00     0.180 A 
ATOM      2  C   UNL     1     -22.661 -24.911 -18.869  1.00  0.00     0.208 A 
ATOM      3  C   UNL     1     -23.129 -24.116 -19.927  1.00  0.00     0.238 A 
ATOM      4  O   UNL     1     -23.374 -22.901 -19.708  1.00  0.00    -0.285 OA
ATOM      5  C   UNL     1     -23.274 -24.676 -21.220  1.00  0.00     0.111 A 
ATOM      6  C   UNL     1     -23.779 -23.974 -22.356  1.00  0.00     0.134 A 
ATOM      7  C   UNL     1     -23.756 -24.590 -23.613  1.00  0.00     0.093 A 
ATOM      8  C   UNL     1     -23.308 -25.905 -23.764  1.00  0.00     0.123 A 
ATOM      9  C   UNL     1     -22.870 -26.618 -22.651  1.00  0.00     0.094 A 
ATOM     10  C   UNL     1     -22.847 -26.019 -21.390  1.00  0.00     0.146 A 
ATOM     11  O   UNL     1     -22.411 -26.732 -20.357  1.00  0.00    -0.452 OA
ENDROOT
BRANCH   1  12
ATOM     12  C   UNL     1     -21.850 -27.160 -18.052  1.00  0.00     0.021 A 
ATOM     13  C   UNL     1     -22.739 -27.985 -17.340  1.00  0.00     0.016 A 
ATOM     14  C   UNL     1     -22.262 -28.851 -16.351  1.00  0.00     0.047 A 
ATOM     15  C   UNL     1     -20.891 -28.915 -16.072  1.00  0.00     0.115 A 
ATOM     16  C   UNL     1     -20.475 -27.245 -17.780  1.00  0.00     0.016 A 
ATOM     17  C   UNL     1     -20.000 -28.111 -16.790  1.00  0.00     0.047 A 
BRANCH  15  18
ATOM     18  O   UNL     1     -20.404 -29.773 -15.088  1.00  0.00    -0.508 OA
ATOM     19  H   UNL     1     -19.828 -30.573 -15.323  1.00  0.00     0.293 HD
ENDBRANCH  15  18
ENDBRANCH   1  12
BRANCH   2  20
ATOM     20  O   UNL     1     -22.488 -24.371 -17.592  1.00  0.00    -0.502 OA
ATOM     21  H   UNL     1     -21.796 -24.724 -16.942  1.00  0.00     0.293 HD
ENDBRANCH   2  20
BRANCH   6  22
ATOM     22  O   UNL     1     -24.334 -22.694 -22.298  1.00  0.00    -0.507 OA
ATOM     23  H   UNL     1     -23.802 -21.836 -22.281  1.00  0.00     0.293 HD
ENDBRANCH   6  22
BRANCH   8  24
ATOM     24  O   UNL     1     -23.304 -26.515 -25.016  1.00  0.00    -0.508 OA
ATOM     25  H   UNL     1     -22.539 -27.110 -25.313  1.00  0.00     0.293 HD
ENDBRANCH   8  24
TORSDOF 5
ENDMDL
MODEL 3
REMARK VINA RESULT:    -7.596      1.650      3.347
REMARK INTER + INTRA:          -9.215
REMARK INTER:                  -8.924
REMARK INTRA:                  -0.291
REMARK UNBOUND:                -0.287
REMARK SMILES O=c1c(O)c(-c2ccc(O)cc2)oc2cc(O)cc(O)c12
REMARK SMILES IDX 5 1 3 2 2 3 1 4 21 5 19 6 18 7 16 8 15 9 14 10 13 11 6 12
REMARK SMILES IDX 7 13 8 14 9 15 12 16 11 17 10 18 4 20 20 22 17 24
REMARK H PARENT 10 19 4 21 20 23 17 25
REMARK Flexibility Score: inf
ROOT
ATOM      1  C   UNL     1     -21.906 -25.701 -19.307  1.00  0.00     0.180 A 
ATOM      2  C   UNL     1     -21.923 -25.978 -20.685  1.00  0.00     0.208 A 
ATOM      3  C   UNL     1     -22.165 -24.929 -21.586  1.00  0.00     0.238 A 
ATOM      4  O   UNL     1     -22.233 -25.192 -22.815  1.00  0.00    -0.285 OA
ATOM      5  C   UNL     1     -22.370 -23.615 -21.101  1.00  0.00     0.111 A 
ATOM      6  C   UNL     1     -22.582 -22.470 -21.926  1.00  0.00     0.134 A 
ATOM      7  C   UNL     1     -22.903 -21.242 -21.333  1.00  0.00     0.093 A 
ATOM      8  C   UNL     1     -22.955 -21.104 -19.944  1.00  0.00     0.123 A 
ATOM      9  C   UNL     1     -22.690 -22.202 -19.130  1.00  0.00     0.094 A 
ATOM     10  C   UNL     1     -22.402 -23.448 -19.691  1.00  0.00     0.146 A 
ATOM     11  O   UNL     1     -22.166 -24.472 -18.878  1.00  0.00    -0.452 OA
ENDROOT
BRANCH   1  12
ATOM     12  C   UNL     1     -21.634 -26.749 -18.296  1.00  0.00     0.021 A 
ATOM     13  C   UNL     1     -20.333 -26.980 -17.812  1.00  0.00     0.016 A 
ATOM     14  C   UNL     1     -20.104 -27.959 -16.840  1.00  0.00     0.047 A 
ATOM     15  C   UNL     1     -21.172 -28.708 -16.329  1.00  0.00     0.115 A 
ATOM     16  C   UNL     1     -22.701 -27.491 -17.764  1.00  0.00     0.016 A 
ATOM     17  C   UNL     1     -22.470 -28.470 -16.792  1.00  0.00     0.047 A 
BRANCH  15  18
ATOM     18  O   UNL     1     -20.956 -29.687 -15.362  1.00  0.00    -0.508 OA
ATOM     19  H   UNL     1     -21.300 -30.632 -15.481  1.00  0.00     0.293 HD
ENDBRANCH  15  18
ENDBRANCH   1  12
BRANCH   2  20
ATOM     20  O   UNL     1     -21.741 -27.286 -21.142  1.00  0.00    -0.502 OA
ATOM     21  H   UNL     1     -22.318 -28.056 -20.827  1.00  0.00     0.293 HD
ENDBRANCH   2  20
BRANCH   6  22
ATOM     22  O   UNL     1     -22.463 -22.478 -23.318  1.00  0.00    -0.507 OA
ATOM     23  H   UNL     1     -21.683 -22.867 -23.827  1.00  0.00     0.293 HD
ENDBRANCH   6  22
BRANCH   8  24
ATOM     24  O   UNL     1     -23.260 -19.875 -19.362  1.00  0.00    -0.508 OA
ATOM     25  H   UNL     1     -24.171 -19.691 -18.960  1.00  0.00     0.293 HD
ENDBRANCH   8  24
TORSDOF 5
ENDMDL
MODEL 4
REMARK VINA RESULT:    -7.533      2.263      6.812
REMARK INTER + INTRA:          -9.142
REMARK INTER:                  -8.869
REMARK INTRA:                  -0.273
REMARK UNBOUND:                -0.287
REMARK SMILES O=c1c(O)c(-c2ccc(O)cc2)oc2cc(O)cc(O)c12
REMARK SMILES IDX 5 1 3 2 2 3 1 4 21 5 19 6 18 7 16 8 15 9 14 10 13 11 6 12
REMARK SMILES IDX 7 13 8 14 9 15 12 16 11 17 10 18 4 20 20 22 17 24
REMARK H PARENT 10 19 4 21 20 23 17 25
REMARK Flexibility Score: inf
ROOT
ATOM      1  C   UNL     1     -24.240 -25.002 -20.707  1.00  0.00     0.180 A 
ATOM      2  C   UNL     1     -25.188 -25.015 -19.670  1.00  0.00     0.208 A 
ATOM      3  C   UNL     1     -24.941 -25.798 -18.531  1.00  0.00     0.238 A 
ATOM      4  O   UNL     1     -25.817 -25.848 -17.630  1.00  0.00    -0.285 OA
ATOM      5  C   UNL     1     -23.741 -26.544 -18.436  1.00  0.00     0.111 A 
ATOM      6  C   UNL     1     -23.367 -27.339 -17.311  1.00  0.00     0.134 A 
ATOM      7  C   UNL     1     -22.219 -28.137 -17.381  1.00  0.00     0.093 A 
ATOM      8  C   UNL     1     -21.396 -28.119 -18.509  1.00  0.00     0.123 A 
ATOM      9  C   UNL     1     -21.720 -27.301 -19.588  1.00  0.00     0.094 A 
ATOM     10  C   UNL     1     -22.878 -26.521 -19.564  1.00  0.00     0.146 A 
ATOM     11  O   UNL     1     -23.156 -25.763 -20.618  1.00  0.00    -0.452 OA
ENDROOT
BRANCH   1  12
ATOM     12  C   UNL     1     -24.420 -24.183 -21.928  1.00  0.00     0.021 A 
ATOM     13  C   UNL     1     -25.199 -24.637 -23.008  1.00  0.00     0.016 A 
ATOM     14  C   UNL     1     -25.373 -23.835 -24.140  1.00  0.00     0.047 A 
ATOM     15  C   UNL     1     -24.785 -22.565 -24.202  1.00  0.00     0.115 A 
ATOM     16  C   UNL     1     -23.851 -22.900 -21.990  1.00  0.00     0.016 A 
ATOM     17  C   UNL     1     -24.026 -22.100 -23.123  1.00  0.00     0.047 A 
BRANCH  15  18
ATOM     18  O   UNL     1     -24.951 -21.758 -25.325  1.00  0.00    -0.508 OA
ATOM     19  H   UNL     1     -24.774 -20.761 -25.290  1.00  0.00     0.293 HD
ENDBRANCH  15  18
ENDBRANCH   1  12
BRANCH   2  20
ATOM     20  O   UNL     1     -26.376 -24.289 -19.793  1.00  0.00    -0.502 OA
ATOM     21  H   UNL     1     -26.814 -23.824 -19.007  1.00  0.00     0.293 HD
ENDBRANCH   2  20
BRANCH   6  22
ATOM     22  O   UNL     1     -24.068 -27.358 -16.102  1.00  0.00    -0.507 OA
ATOM     23  H   UNL     1     -23.889 -27.998 -15.343  1.00  0.00     0.293 HD
ENDBRANCH   6  22
BRANCH   8  24
ATOM     24  O   UNL     1     -20.247 -28.905 -18.564  1.00  0.00    -0.508 OA
ATOM     25  H   UNL     1     -19.726 -29.140 -17.727  1.00  0.00     0.293 HD
ENDBRANCH   8  24
TORSDOF 5
ENDMDL
MODEL 5
REMARK VINA RESULT:    -7.524      2.960      6.995
REMARK INTER + INTRA:          -9.131
REMARK INTER:                  -8.882
REMARK INTRA:                  -0.249
REMARK UNBOUND:                -0.287
REMARK SMILES O=c1c(O)c(-c2ccc(O)cc2)oc2cc(O)cc(O)c12
REMARK SMILES IDX 5 1 3 2 2 3 1 4 21 5 19 6 18 7 16 8 15 9 14 10 13 11 6 12
REMARK SMILES IDX 7 13 8 14 9 15 12 16 11 17 10 18 4 20 20 22 17 24
REMARK H PARENT 10 19 4 21 20 23 17 25
REMARK Flexibility Score: inf
ROOT
ATOM      1  C   UNL     1     -24.660 -26.941 -22.426  1.00  0.00     0.180 A 
ATOM      2  C   UNL     1     -23.377 -26.412 -22.649  1.00  0.00     0.208 A 
ATOM      3  C   UNL     1     -22.626 -25.965 -21.551  1.00  0.00     0.238 A 
ATOM      4  O   UNL     1     -21.500 -25.443 -21.761  1.00  0.00    -0.285 OA
ATOM      5  C   UNL     1     -23.158 -26.069 -20.243  1.00  0.00     0.111 A 
ATOM      6  C   UNL     1     -22.467 -25.686 -19.054  1.00  0.00     0.134 A 
ATOM      7  C   UNL     1     -23.141 -25.712 -17.826  1.00  0.00     0.093 A 
ATOM      8  C   UNL     1     -24.457 -26.168 -17.736  1.00  0.00     0.123 A 
ATOM      9  C   UNL     1     -25.120 -26.600 -18.882  1.00  0.00     0.094 A 
ATOM     10  C   UNL     1     -24.487 -26.553 -20.126  1.00  0.00     0.146 A 
ATOM     11  O   UNL     1     -25.158 -26.965 -21.196  1.00  0.00    -0.452 OA
ENDROOT
BRANCH   1  12
ATOM     12  C   UNL     1     -25.503 -27.454 -23.530  1.00  0.00     0.021 A 
ATOM     13  C   UNL     1     -26.204 -26.582 -24.384  1.00  0.00     0.016 A 
ATOM     14  C   UNL     1     -26.975 -27.090 -25.435  1.00  0.00     0.047 A 
ATOM     15  C   UNL     1     -27.043 -28.471 -25.656  1.00  0.00     0.115 A 
ATOM     16  C   UNL     1     -25.560 -28.836 -23.772  1.00  0.00     0.016 A 
ATOM     17  C   UNL     1     -26.332 -29.341 -24.824  1.00  0.00     0.047 A 
BRANCH  15  18
ATOM     18  O   UNL     1     -27.808 -28.988 -26.699  1.00  0.00    -0.508 OA
ATOM     19  H   UNL     1     -27.509 -29.805 -27.219  1.00  0.00     0.293 HD
ENDBRANCH  15  18
ENDBRANCH   1  12
BRANCH   2  20
ATOM     20  O   UNL     1     -22.880 -26.297 -23.950  1.00  0.00    -0.502 OA
ATOM     21  H   UNL     1     -22.893 -27.068 -24.607  1.00  0.00     0.293 HD
ENDBRANCH   2  20
BRANCH   6  22
ATOM     22  O   UNL     1     -21.124 -25.303 -19.021  1.00  0.00    -0.507 OA
ATOM     23  H   UNL     1     -20.783 -24.430 -18.648  1.00  0.00     0.293 HD
ENDBRANCH   6  22
BRANCH   8  24
ATOM     24  O   UNL     1     -25.115 -26.205 -16.508  1.00  0.00    -0.508 OA
ATOM     25  H   UNL     1     -25.786 -25.493 -16.245  1.00  0.00     0.293 HD
ENDBRANCH   8  24
TORSDOF 5
ENDMDL
MODEL 6
REMARK VINA RESULT:    -7.430      9.470     12.121
REMARK INTER + INTRA:          -9.021
REMARK INTER:                  -8.752
REMARK INTRA:                  -0.269
REMARK UNBOUND:                -0.287
REMARK SMILES O=c1c(O)c(-c2ccc(O)cc2)oc2cc(O)cc(O)c12
REMARK SMILES IDX 5 1 3 2 2 3 1 4 21 5 19 6 18 7 16 8 15 9 14 10 13 11 6 12
REMARK SMILES IDX 7 13 8 14 9 15 12 16 11 17 10 18 4 20 20 22 17 24
REMARK H PARENT 10 19 4 21 20 23 17 25
REMARK Flexibility Score: inf
ROOT
ATOM      1  C   UNL     1     -25.631 -34.484 -27.566  1.00  0.00     0.180 A 
ATOM      2  C   UNL     1     -25.758 -33.780 -28.776  1.00  0.00     0.208 A 
ATOM      3  C   UNL     1     -25.915 -32.386 -28.739  1.00  0.00     0.238 A 
ATOM      4  O   UNL     1     -26.082 -31.768 -29.823  1.00  0.00    -0.285 OA
ATOM      5  C   UNL     1     -25.924 -31.710 -27.495  1.00  0.00     0.111 A 
ATOM      6  C   UNL     1     -26.035 -30.295 -27.342  1.00  0.00     0.134 A 
ATOM      7  C   UNL     1     -26.165 -29.748 -26.059  1.00  0.00     0.093 A 
ATOM      8  C   UNL     1     -26.123 -30.559 -24.922  1.00  0.00     0.123 A 
ATOM      9  C   UNL     1     -25.955 -31.934 -25.059  1.00  0.00     0.094 A 
ATOM     10  C   UNL     1     -25.858 -32.514 -26.327  1.00  0.00     0.146 A 
ATOM     11  O   UNL     1     -25.710 -33.831 -26.413  1.00  0.00    -0.452 OA
ENDROOT
BRANCH   1  12
ATOM     12  C   UNL     1     -25.439 -35.951 -27.525  1.00  0.00     0.021 A 
ATOM     13  C   UNL     1     -26.523 -36.828 -27.332  1.00  0.00     0.016 A 
ATOM     14  C   UNL     1     -26.320 -38.212 -27.321  1.00  0.00     0.047 A 
ATOM     15  C   UNL     1     -25.037 -38.737 -27.517  1.00  0.00     0.115 A 
ATOM     16  C   UNL     1     -24.159 -36.488 -27.741  1.00  0.00     0.016 A 
ATOM     17  C   UNL     1     -23.958 -37.872 -27.729  1.00  0.00     0.047 A 
BRANCH  15  18
ATOM     18  O   UNL     1     -24.822 -40.113 -27.506  1.00  0.00    -0.508 OA
ATOM     19  H   UNL     1     -24.120 -40.534 -26.909  1.00  0.00     0.293 HD
ENDBRANCH  15  18
ENDBRANCH   1  12
BRANCH   2  20
ATOM     20  O   UNL     1     -25.769 -34.469 -29.992  1.00  0.00    -0.502 OA
ATOM     21  H   UNL     1     -25.273 -35.342 -30.127  1.00  0.00     0.293 HD
ENDBRANCH   2  20
BRANCH   6  22
ATOM     22  O   UNL     1     -25.995 -29.390 -28.405  1.00  0.00    -0.507 OA
ATOM     23  H   UNL     1     -26.005 -29.647 -29.381  1.00  0.00     0.293 HD
ENDBRANCH   6  22
BRANCH   8  24
ATOM     24  O   UNL     1     -26.237 -30.005 -23.649  1.00  0.00    -0.508 OA
ATOM     25  H   UNL     1     -27.060 -30.157 -23.077  1.00  0.00     0.293 HD
ENDBRANCH   8  24
TORSDOF 5
ENDMDL
MODEL 7
REMARK VINA RESULT:    -7.407      1.390      1.549
REMARK INTER + INTRA:          -8.994
REMARK INTER:                  -8.705
REMARK INTRA:                  -0.289
REMARK UNBOUND:                -0.287
REMARK SMILES O=c1c(O)c(-c2ccc(O)cc2)oc2cc(O)cc(O)c12
REMARK SMILES IDX 5 1 3 2 2 3 1 4 21 5 19 6 18 7 16 8 15 9 14 10 13 11 6 12
REMARK SMILES IDX 7 13 8 14 9 15 12 16 11 17 10 18 4 20 20 22 17 24
REMARK H PARENT 10 19 4 21 20 23 17 25
REMARK Flexibility Score: inf
ROOT
ATOM      1  C   UNL     1     -22.368 -25.560 -20.121  1.00  0.00     0.180 A 
ATOM      2  C   UNL     1     -21.953 -24.228 -19.950  1.00  0.00     0.208 A 
ATOM      3  C   UNL     1     -22.061 -23.338 -21.030  1.00  0.00     0.238 A 
ATOM      4  O   UNL     1     -21.638 -22.161 -20.888  1.00  0.00    -0.285 OA
ATOM      5  C   UNL     1     -22.599 -23.785 -22.261  1.00  0.00     0.111 A 
ATOM      6  C   UNL     1     -22.793 -22.959 -23.409  1.00  0.00     0.134 A 
ATOM      7  C   UNL     1     -23.210 -23.538 -24.614  1.00  0.00     0.093 A 
ATOM      8  C   UNL     1     -23.503 -24.901 -24.694  1.00  0.00     0.123 A 
ATOM      9  C   UNL     1     -23.374 -25.705 -23.564  1.00  0.00     0.094 A 
ATOM     10  C   UNL     1     -22.925 -25.163 -22.357  1.00  0.00     0.146 A 
ATOM     11  O   UNL     1     -22.806 -25.967 -21.306  1.00  0.00    -0.452 OA
ENDROOT
BRANCH   1  12
ATOM     12  C   UNL     1     -22.307 -26.551 -19.022  1.00  0.00     0.021 A 
ATOM     13  C   UNL     1     -21.157 -27.331 -18.801  1.00  0.00     0.016 A 
ATOM     14  C   UNL     1     -21.115 -28.243 -17.742  1.00  0.00     0.047 A 
ATOM     15  C   UNL     1     -22.213 -28.377 -16.883  1.00  0.00     0.115 A 
ATOM     16  C   UNL     1     -23.396 -26.677 -18.144  1.00  0.00     0.016 A 
ATOM     17  C   UNL     1     -23.351 -27.591 -17.086  1.00  0.00     0.047 A 
BRANCH  15  18
ATOM     18  O   UNL     1     -22.183 -29.284 -15.825  1.00  0.00    -0.508 OA
ATOM     19  H   UNL     1     -22.297 -28.980 -14.865  1.00  0.00     0.293 HD
ENDBRANCH  15  18
ENDBRANCH   1  12
BRANCH   2  20
ATOM     20  O   UNL     1     -21.404 -23.813 -18.734  1.00  0.00    -0.502 OA
ATOM     21  H   UNL     1     -20.408 -23.834 -18.551  1.00  0.00     0.293 HD
ENDBRANCH   2  20
BRANCH   6  22
ATOM     22  O   UNL     1     -22.618 -21.573 -23.411  1.00  0.00    -0.507 OA
ATOM     23  H   UNL     1     -23.358 -20.899 -23.539  1.00  0.00     0.293 HD
ENDBRANCH   6  22
BRANCH   8  24
ATOM     24  O   UNL     1     -23.933 -25.467 -25.893  1.00  0.00    -0.508 OA
ATOM     25  H   UNL     1     -24.555 -26.267 -25.908  1.00  0.00     0.293 HD
ENDBRANCH   8  24
TORSDOF 5
ENDMDL
MODEL 8
REMARK VINA RESULT:    -7.333      2.277      6.977
REMARK INTER + INTRA:          -8.907
REMARK INTER:                  -8.625
REMARK INTRA:                  -0.282
REMARK UNBOUND:                -0.287
REMARK SMILES O=c1c(O)c(-c2ccc(O)cc2)oc2cc(O)cc(O)c12
REMARK SMILES IDX 5 1 3 2 2 3 1 4 21 5 19 6 18 7 16 8 15 9 14 10 13 11 6 12
REMARK SMILES IDX 7 13 8 14 9 15 12 16 11 17 10 18 4 20 20 22 17 24
REMARK H PARENT 10 19 4 21 20 23 17 25
REMARK Flexibility Score: inf
ROOT
ATOM      1  C   UNL     1     -23.165 -25.960 -21.513  1.00  0.00     0.180 A 
ATOM      2  C   UNL     1     -22.045 -26.710 -21.116  1.00  0.00     0.208 A 
ATOM      3  C   UNL     1     -22.008 -27.241 -19.817  1.00  0.00     0.238 A 
ATOM      4  O   UNL     1     -20.980 -27.866 -19.449  1.00  0.00    -0.285 OA
ATOM      5  C   UNL     1     -23.098 -27.031 -18.938  1.00  0.00     0.111 A 
ATOM      6  C   UNL     1     -23.185 -27.558 -17.614  1.00  0.00     0.134 A 
ATOM      7  C   UNL     1     -24.250 -27.177 -16.789  1.00  0.00     0.093 A 
ATOM      8  C   UNL     1     -25.265 -26.341 -17.261  1.00  0.00     0.123 A 
ATOM      9  C   UNL     1     -25.219 -25.870 -18.570  1.00  0.00     0.094 A 
ATOM     10  C   UNL     1     -24.152 -26.203 -19.407  1.00  0.00     0.146 A 
ATOM     11  O   UNL     1     -24.142 -25.724 -20.645  1.00  0.00    -0.452 OA
ENDROOT
BRANCH   1  12
ATOM     12  C   UNL     1     -23.288 -25.388 -22.874  1.00  0.00     0.021 A 
ATOM     13  C   UNL     1     -23.722 -26.169 -23.961  1.00  0.00     0.016 A 
ATOM     14  C   UNL     1     -23.853 -25.601 -25.232  1.00  0.00     0.047 A 
ATOM     15  C   UNL     1     -23.567 -24.244 -25.430  1.00  0.00     0.115 A 
ATOM     16  C   UNL     1     -23.023 -24.024 -23.078  1.00  0.00     0.016 A 
ATOM     17  C   UNL     1     -23.155 -23.458 -24.350  1.00  0.00     0.047 A 
BRANCH  15  18
ATOM     18  O   UNL     1     -23.693 -23.668 -26.692  1.00  0.00    -0.508 OA
ATOM     19  H   UNL     1     -24.006 -24.207 -27.491  1.00  0.00     0.293 HD
ENDBRANCH  15  18
ENDBRANCH   1  12
BRANCH   2  20
ATOM     20  O   UNL     1     -20.970 -26.887 -21.992  1.00  0.00    -0.502 OA
ATOM     21  H   UNL     1     -20.320 -27.658 -21.905  1.00  0.00     0.293 HD
ENDBRANCH   2  20
BRANCH   6  22
ATOM     22  O   UNL     1     -22.275 -28.472 -17.077  1.00  0.00    -0.507 OA
ATOM     23  H   UNL     1     -21.272 -28.412 -17.177  1.00  0.00     0.293 HD
ENDBRANCH   6  22
BRANCH   8  24
ATOM     24  O   UNL     1     -26.329 -25.980 -16.437  1.00  0.00    -0.508 OA
ATOM     25  H   UNL     1     -27.034 -25.319 -16.743  1.00  0.00     0.293 HD
ENDBRANCH   8  24
TORSDOF 5
ENDMDL
MODEL 9
REMARK VINA RESULT:    -7.210      3.090      5.656
REMARK INTER + INTRA:          -8.761
REMARK INTER:                  -8.515
REMARK INTRA:                  -0.246
REMARK UNBOUND:                -0.287
REMARK SMILES O=c1c(O)c(-c2ccc(O)cc2)oc2cc(O)cc(O)c12
REMARK SMILES IDX 5 1 3 2 2 3 1 4 21 5 19 6 18 7 16 8 15 9 14 10 13 11 6 12
REMARK SMILES IDX 7 13 8 14 9 15 12 16 11 17 10 18 4 20 20 22 17 24
REMARK H PARENT 10 19 4 21 20 23 17 25
REMARK Flexibility Score: inf
ROOT
ATOM      1  C   UNL     1     -23.575 -25.577 -21.629  1.00  0.00     0.180 A 
ATOM      2  C   UNL     1     -23.396 -25.771 -20.248  1.00  0.00     0.208 A 
ATOM      3  C   UNL     1     -22.943 -24.697 -19.464  1.00  0.00     0.238 A 
ATOM      4  O   UNL     1     -22.732 -24.891 -18.239  1.00  0.00    -0.285 OA
ATOM      5  C   UNL     1     -22.694 -23.440 -20.066  1.00  0.00     0.111 A 
ATOM      6  C   UNL     1     -22.273 -22.273 -19.361  1.00  0.00     0.134 A 
ATOM      7  C   UNL     1     -21.930 -21.120 -20.078  1.00  0.00     0.093 A 
ATOM      8  C   UNL     1     -22.056 -21.071 -21.468  1.00  0.00     0.123 A 
ATOM      9  C   UNL     1     -22.523 -22.186 -22.159  1.00  0.00     0.094 A 
ATOM     10  C   UNL     1     -22.838 -23.363 -21.477  1.00  0.00     0.146 A 
ATOM     11  O   UNL     1     -23.270 -24.406 -22.175  1.00  0.00    -0.452 OA
ENDROOT
BRANCH   1  12
ATOM     12  C   UNL     1     -24.072 -26.653 -22.517  1.00  0.00     0.021 A 
ATOM     13  C   UNL     1     -25.427 -27.034 -22.520  1.00  0.00     0.016 A 
ATOM     14  C   UNL     1     -25.877 -28.037 -23.385  1.00  0.00     0.047 A 
ATOM     15  C   UNL     1     -24.985 -28.660 -24.266  1.00  0.00     0.115 A 
ATOM     16  C   UNL     1     -23.188 -27.270 -23.418  1.00  0.00     0.016 A 
ATOM     17  C   UNL     1     -23.641 -28.273 -24.281  1.00  0.00     0.047 A 
BRANCH  15  18
ATOM     18  O   UNL     1     -25.421 -29.661 -25.131  1.00  0.00    -0.508 OA
ATOM     19  H   UNL     1     -26.300 -29.583 -25.629  1.00  0.00     0.293 HD
ENDBRANCH  15  18
ENDBRANCH   1  12
BRANCH   2  20
ATOM     20  O   UNL     1     -23.626 -27.025 -19.678  1.00  0.00    -0.502 OA
ATOM     21  H   UNL     1     -22.964 -27.788 -19.756  1.00  0.00     0.293 HD
ENDBRANCH   2  20
BRANCH   6  22
ATOM     22  O   UNL     1     -22.201 -22.186 -17.968  1.00  0.00    -0.507 OA
ATOM     23  H   UNL     1     -22.992 -22.264 -17.346  1.00  0.00     0.293 HD
ENDBRANCH   6  22
BRANCH   8  24
ATOM     24  O   UNL     1     -21.727 -19.914 -22.172  1.00  0.00    -0.508 OA
ATOM     25  H   UNL     1     -20.817 -19.480 -22.082  1.00  0.00     0.293 HD
ENDBRANCH   8  24
TORSDOF 5
ENDMDL
