MODEL 1
REMARK VINA RESULT:    85.103      0.000      0.000
REMARK INTER + INTRA:         131.554
REMARK INTER:                 127.391
REMARK INTRA:                   4.163
REMARK UNBOUND:                 4.163
REMARK SMILES C=C(CC[C@H](C(=O)[O-])[C@@H]1[C@@H](O)C[C@@]2(C)C3=C(CC[C@@]12C)[C@@]1(C)CC[C@H](OC(C)=O)C(C)(C)[C@H]1CC3)C(C)C
REMARK SMILES IDX 4 1 5 2 6 3 7 4 8 5 9 6 10 7 19 8 12 9 13 10 18 11 20 12
REMARK SMILES IDX 14 13 15 14 17 15 16 16 35 17 21 18 34 19 33 20 23 21 22 22
REMARK SMILES IDX 30 23 24 24 25 25 31 26 32 27 11 28 26 30 27 31 29 32 28 33
REMARK SMILES IDX 3 34 2 35 1 36 36 37 37 38 38 39
REMARK H PARENT 11 29
REMARK Flexibility Score: inf
ROOT
ATOM      1  C   UNL     1      80.209  21.603 103.499  1.00  0.00     0.014 C 
ENDROOT
BRANCH   1   2
ATOM      2  C   UNL     1      80.767  20.681 102.372  1.00  0.00     0.042 C 
BRANCH   2   3
ATOM      3  C   UNL     1      79.583  20.071 101.667  1.00  0.00     0.045 C 
ATOM      4  O   UNL     1      78.481  20.678 101.638  1.00  0.00    -0.550 OA
ATOM      5  O   UNL     1      79.657  18.781 101.151  1.00  0.00    -0.550 OA
ENDBRANCH   2   3
BRANCH   2   6
ATOM      6  C   UNL     1      81.742  19.559 102.898  1.00  0.00     0.033 C 
ATOM      7  C   UNL     1      82.693  19.021 101.823  1.00  0.00     0.119 C 
ATOM      8  C   UNL     1      81.099  18.262 103.560  1.00  0.00    -0.017 C 
ATOM      9  C   UNL     1      83.194  17.700 102.370  1.00  0.00     0.043 C 
ATOM     10  C   UNL     1      81.972  17.034 103.030  1.00  0.00    -0.003 C 
ATOM     11  C   UNL     1      81.182  18.377 105.110  1.00  0.00     0.012 C 
ATOM     12  C   UNL     1      79.584  18.089 103.232  1.00  0.00     0.013 C 
ATOM     13  C   UNL     1      81.254  16.225 101.901  1.00  0.00     0.017 C 
ATOM     14  C   UNL     1      82.491  16.094 104.156  1.00  0.00    -0.064 C 
ATOM     15  C   UNL     1      82.569  18.051 105.661  1.00  0.00     0.032 C 
ATOM     16  C   UNL     1      82.948  16.614 105.336  1.00  0.00    -0.064 C 
ATOM     17  C   UNL     1      82.718  14.623 103.890  1.00  0.00     0.032 C 
ATOM     18  C   UNL     1      84.043  15.853 106.158  1.00  0.00    -0.008 C 
ATOM     19  C   UNL     1      82.694  13.846 105.194  1.00  0.00     0.009 C 
ATOM     20  C   UNL     1      83.880  14.257 106.093  1.00  0.00     0.009 C 
ATOM     21  C   UNL     1      84.090  16.342 107.636  1.00  0.00     0.015 C 
ATOM     22  C   UNL     1      85.398  16.244 105.519  1.00  0.00     0.016 C 
ATOM     23  C   UNL     1      83.868  13.504 107.492  1.00  0.00     0.005 C 
ATOM     24  C   UNL     1      82.925  15.783 108.437  1.00  0.00     0.047 C 
ATOM     25  C   UNL     1      82.945  14.240 108.531  1.00  0.00     0.182 C 
ATOM     26  C   UNL     1      83.338  12.044 107.363  1.00  0.00     0.015 C 
ATOM     27  C   UNL     1      85.338  13.332 107.998  1.00  0.00     0.015 C 
BRANCH   7  28
ATOM     28  O   UNL     1      83.775  19.889 101.604  1.00  0.00    -0.393 OA
ATOM     29  H   UNL     1      83.427  20.645 101.061  1.00  0.00     0.210 HD
ENDBRANCH   7  28
BRANCH  25  30
ATOM     30  O   UNL     1      83.278  13.834 109.862  1.00  0.00    -0.462 OA
BRANCH  30  31
ATOM     31  C   UNL     1      82.349  13.770 110.908  1.00  0.00     0.302 C 
ATOM     32  O   UNL     1      81.275  14.429 110.861  1.00  0.00    -0.253 OA
ATOM     33  C   UNL     1      82.653  12.930 112.099  1.00  0.00     0.139 C 
ENDBRANCH  30  31
ENDBRANCH  25  30
ENDBRANCH   2   6
ENDBRANCH   1   2
BRANCH   1  34
ATOM     34  C   UNL     1      78.685  21.498 103.734  1.00  0.00     0.031 C 
BRANCH  34  35
ATOM     35  C   UNL     1      78.296  21.714 105.189  1.00  0.00    -0.075 C 
ATOM     36  C   UNL     1      78.485  22.922 105.751  1.00  0.00     0.008 C 
BRANCH  35  37
ATOM     37  C   UNL     1      77.882  20.545 106.078  1.00  0.00     0.008 C 
ATOM     38  C   UNL     1      77.877  19.209 105.323  1.00  0.00     0.012 C 
ATOM     39  C   UNL     1      78.779  20.469 107.320  1.00  0.00     0.012 C 
ENDBRANCH  35  37
ENDBRANCH  34  35
ENDBRANCH   1  34
TORSDOF 9
ENDMDL
MODEL 2
REMARK VINA RESULT:    85.777      1.828      2.729
REMARK INTER + INTRA:         132.564
REMARK INTER:                 129.913
REMARK INTRA:                   2.650
REMARK UNBOUND:                 4.163
REMARK SMILES C=C(CC[C@H](C(=O)[O-])[C@@H]1[C@@H](O)C[C@@]2(C)C3=C(CC[C@@]12C)[C@@]1(C)CC[C@H](OC(C)=O)C(C)(C)[C@H]1CC3)C(C)C
REMARK SMILES IDX 4 1 5 2 6 3 7 4 8 5 9 6 10 7 19 8 12 9 13 10 18 11 20 12
REMARK SMILES IDX 14 13 15 14 17 15 16 16 35 17 21 18 34 19 33 20 23 21 22 22
REMARK SMILES IDX 30 23 24 24 25 25 31 26 32 27 11 28 26 30 27 31 29 32 28 33
REMARK SMILES IDX 3 34 2 35 1 36 36 37 37 38 38 39
REMARK H PARENT 11 29
REMARK Flexibility Score: inf
ROOT
ATOM      1  C   UNL     1      81.422  22.094 101.632  1.00  0.00     0.014 C 
ENDROOT
BRANCH   1   2
ATOM      2  C   UNL     1      80.808  20.662 101.597  1.00  0.00     0.042 C 
BRANCH   2   3
ATOM      3  C   UNL     1      79.501  20.718 102.347  1.00  0.00     0.045 C 
ATOM      4  O   UNL     1      78.415  20.825 101.719  1.00  0.00    -0.550 OA
ATOM      5  O   UNL     1      79.486  20.780 103.736  1.00  0.00    -0.550 OA
ENDBRANCH   2   3
BRANCH   2   6
ATOM      6  C   UNL     1      81.751  19.554 102.206  1.00  0.00     0.033 C 
ATOM      7  C   UNL     1      82.675  18.901 101.170  1.00  0.00     0.119 C 
ATOM      8  C   UNL     1      81.074  18.336 102.974  1.00  0.00    -0.017 C 
ATOM      9  C   UNL     1      83.138  17.612 101.819  1.00  0.00     0.043 C 
ATOM     10  C   UNL     1      81.902  17.041 102.538  1.00  0.00    -0.003 C 
ATOM     11  C   UNL     1      81.175  18.572 104.509  1.00  0.00     0.012 C 
ATOM     12  C   UNL     1      79.551  18.187 102.671  1.00  0.00     0.013 C 
ATOM     13  C   UNL     1      81.148  16.168 101.483  1.00  0.00     0.017 C 
ATOM     14  C   UNL     1      82.401  16.179 103.733  1.00  0.00    -0.064 C 
ATOM     15  C   UNL     1      82.556  18.246 105.075  1.00  0.00     0.032 C 
ATOM     16  C   UNL     1      82.886  16.777 104.864  1.00  0.00    -0.064 C 
ATOM     17  C   UNL     1      82.578  14.685 103.585  1.00  0.00     0.032 C 
ATOM     18  C   UNL     1      83.963  16.049 105.737  1.00  0.00    -0.008 C 
ATOM     19  C   UNL     1      82.541  14.016 104.947  1.00  0.00     0.009 C 
ATOM     20  C   UNL     1      83.748  14.458 105.802  1.00  0.00     0.009 C 
ATOM     21  C   UNL     1      84.039  16.653 107.171  1.00  0.00     0.015 C 
ATOM     22  C   UNL     1      85.324  16.343 105.060  1.00  0.00     0.016 C 
ATOM     23  C   UNL     1      83.726  13.821 107.257  1.00  0.00     0.005 C 
ATOM     24  C   UNL     1      82.865  16.198 108.022  1.00  0.00     0.047 C 
ATOM     25  C   UNL     1      82.836  14.667 108.240  1.00  0.00     0.182 C 
ATOM     26  C   UNL     1      83.148  12.374 107.250  1.00  0.00     0.015 C 
ATOM     27  C   UNL     1      85.194  13.643 107.766  1.00  0.00     0.015 C 
BRANCH   7  28
ATOM     28  O   UNL     1      83.782  19.713 100.876  1.00  0.00    -0.393 OA
ATOM     29  H   UNL     1      83.758  20.470 101.519  1.00  0.00     0.210 HD
ENDBRANCH   7  28
BRANCH  25  30
ATOM     30  O   UNL     1      83.168  14.359 109.597  1.00  0.00    -0.462 OA
BRANCH  30  31
ATOM     31  C   UNL     1      82.550  13.342 110.334  1.00  0.00     0.302 C 
ATOM     32  O   UNL     1      82.372  12.197 109.835  1.00  0.00    -0.253 OA
ATOM     33  C   UNL     1      82.075  13.631 111.715  1.00  0.00     0.139 C 
ENDBRANCH  30  31
ENDBRANCH  25  30
ENDBRANCH   2   6
ENDBRANCH   1   2
BRANCH   1  34
ATOM     34  C   UNL     1      82.138  22.468 102.949  1.00  0.00     0.031 C 
BRANCH  34  35
ATOM     35  C   UNL     1      82.578  23.924 102.991  1.00  0.00    -0.075 C 
ATOM     36  C   UNL     1      82.700  24.609 101.840  1.00  0.00     0.008 C 
BRANCH  35  37
ATOM     37  C   UNL     1      83.071  24.563 104.285  1.00  0.00     0.008 C 
ATOM     38  C   UNL     1      84.367  23.923 104.799  1.00  0.00     0.012 C 
ATOM     39  C   UNL     1      83.241  26.077 104.107  1.00  0.00     0.012 C 
ENDBRANCH  35  37
ENDBRANCH  34  35
ENDBRANCH   1  34
TORSDOF 9
ENDMDL
MODEL 3
REMARK VINA RESULT:    87.071      5.828     11.615
REMARK INTER + INTRA:         134.502
REMARK INTER:                 130.781
REMARK INTRA:                   3.721
REMARK UNBOUND:                 4.163
REMARK SMILES C=C(CC[C@H](C(=O)[O-])[C@@H]1[C@@H](O)C[C@@]2(C)C3=C(CC[C@@]12C)[C@@]1(C)CC[C@H](OC(C)=O)C(C)(C)[C@H]1CC3)C(C)C
REMARK SMILES IDX 4 1 5 2 6 3 7 4 8 5 9 6 10 7 19 8 12 9 13 10 18 11 20 12
REMARK SMILES IDX 14 13 15 14 17 15 16 16 35 17 21 18 34 19 33 20 23 21 22 22
REMARK SMILES IDX 30 23 24 24 25 25 31 26 32 27 11 28 26 30 27 31 29 32 28 33
REMARK SMILES IDX 3 34 2 35 1 36 36 37 37 38 38 39
REMARK H PARENT 11 29
REMARK Flexibility Score: inf
ROOT
ATOM      1  C   UNL     1      90.137   6.877 108.471  1.00  0.00     0.014 C 
ENDROOT
BRANCH   1   2
ATOM      2  C   UNL     1      90.570   7.704 107.222  1.00  0.00     0.042 C 
BRANCH   2   3
ATOM      3  C   UNL     1      91.909   8.320 107.537  1.00  0.00     0.045 C 
ATOM      4  O   UNL     1      92.034   9.097 108.520  1.00  0.00    -0.550 OA
ATOM      5  O   UNL     1      92.989   8.139 106.679  1.00  0.00    -0.550 OA
ENDBRANCH   2   3
BRANCH   2   6
ATOM      6  C   UNL     1      89.530   8.813 106.807  1.00  0.00     0.033 C 
ATOM      7  C   UNL     1      89.721   9.327 105.375  1.00  0.00     0.119 C 
ATOM      8  C   UNL     1      89.441  10.126 107.702  1.00  0.00    -0.017 C 
ATOM      9  C   UNL     1      88.973  10.644 105.329  1.00  0.00     0.043 C 
ATOM     10  C   UNL     1      89.267  11.336 106.672  1.00  0.00    -0.003 C 
ATOM     11  C   UNL     1      88.213  10.023 108.652  1.00  0.00     0.012 C 
ATOM     12  C   UNL     1      90.677  10.322 108.633  1.00  0.00     0.013 C 
ATOM     13  C   UNL     1      90.587  12.147 106.465  1.00  0.00     0.017 C 
ATOM     14  C   UNL     1      88.071  12.275 106.998  1.00  0.00    -0.064 C 
ATOM     15  C   UNL     1      86.889  10.330 107.955  1.00  0.00     0.032 C 
ATOM     16  C   UNL     1      86.881  11.757 107.430  1.00  0.00    -0.064 C 
ATOM     17  C   UNL     1      88.117  13.740 106.626  1.00  0.00     0.032 C 
ATOM     18  C   UNL     1      85.540  12.506 107.124  1.00  0.00    -0.008 C 
ATOM     19  C   UNL     1      87.141  14.528 107.481  1.00  0.00     0.009 C 
ATOM     20  C   UNL     1      85.688  14.104 107.176  1.00  0.00     0.009 C 
ATOM     21  C   UNL     1      84.392  12.028 108.061  1.00  0.00     0.015 C 
ATOM     22  C   UNL     1      85.142  12.087 105.688  1.00  0.00     0.016 C 
ATOM     23  C   UNL     1      84.631  14.869 108.084  1.00  0.00     0.005 C 
ATOM     24  C   UNL     1      84.542  12.613 109.456  1.00  0.00     0.047 C 
ATOM     25  C   UNL     1      84.451  14.157 109.475  1.00  0.00     0.182 C 
ATOM     26  C   UNL     1      85.068  16.336 108.375  1.00  0.00     0.015 C 
ATOM     27  C   UNL     1      83.288  15.020 107.298  1.00  0.00     0.015 C 
BRANCH   7  28
ATOM     28  O   UNL     1      89.185   8.439 104.428  1.00  0.00    -0.393 OA
ATOM     29  H   UNL     1      89.012   8.970 103.607  1.00  0.00     0.210 HD
ENDBRANCH   7  28
BRANCH  25  30
ATOM     30  O   UNL     1      83.223  14.568 110.084  1.00  0.00    -0.462 OA
BRANCH  30  31
ATOM     31  C   UNL     1      82.607  13.873 111.132  1.00  0.00     0.302 C 
ATOM     32  O   UNL     1      83.281  13.446 112.109  1.00  0.00    -0.253 OA
ATOM     33  C   UNL     1      81.141  13.617 111.072  1.00  0.00     0.139 C 
ENDBRANCH  30  31
ENDBRANCH  25  30
ENDBRANCH   2   6
ENDBRANCH   1   2
BRANCH   1  34
ATOM     34  C   UNL     1      88.622   6.888 108.770  1.00  0.00     0.031 C 
BRANCH  34  35
ATOM     35  C   UNL     1      88.291   7.488 110.129  1.00  0.00    -0.075 C 
ATOM     36  C   UNL     1      89.218   8.224 110.768  1.00  0.00     0.008 C 
BRANCH  35  37
ATOM     37  C   UNL     1      87.011   7.111 110.868  1.00  0.00     0.008 C 
ATOM     38  C   UNL     1      87.095   7.404 112.372  1.00  0.00     0.012 C 
ATOM     39  C   UNL     1      85.800   7.814 110.240  1.00  0.00     0.012 C 
ENDBRANCH  35  37
ENDBRANCH  34  35
ENDBRANCH   1  34
TORSDOF 9
ENDMDL
