MODEL 1
REMARK VINA RESULT:    -5.460      0.000      0.000
REMARK INTER + INTRA:          -5.779
REMARK INTER:                  -5.779
REMARK INTRA:                   0.000
REMARK UNBOUND:                 0.000
REMARK SMILES O=c1ccc2cc(O)c(O)cc2o1
REMARK SMILES IDX 4 1 3 2 2 3 1 4 13 5 12 6 11 7 9 8 7 9 6 10 5 11 8 12 10 14
REMARK H PARENT 8 13 10 15
REMARK Flexibility Score: inf
ROOT
ATOM      1  C   UNL     1      10.171  -7.474  -9.424  1.00  0.00     0.019 A 
ATOM      2  C   UNL     1       9.397  -8.257 -10.280  1.00  0.00     0.094 A 
ATOM      3  C   UNL     1       8.028  -8.394 -10.023  1.00  0.00     0.336 A 
ATOM      4  O   UNL     1       7.313  -9.097 -10.784  1.00  0.00    -0.246 OA
ATOM      5  O   UNL     1       7.475  -7.785  -8.976  1.00  0.00    -0.423 OA
ATOM      6  C   UNL     1       8.177  -7.029  -8.136  1.00  0.00     0.142 A 
ATOM      7  C   UNL     1       7.543  -6.414  -7.052  1.00  0.00     0.098 A 
ATOM      8  C   UNL     1       8.277  -5.616  -6.162  1.00  0.00     0.161 A 
ATOM      9  C   UNL     1       9.658  -5.434  -6.360  1.00  0.00     0.158 A 
ATOM     10  C   UNL     1      10.297  -6.049  -7.443  1.00  0.00     0.062 A 
ATOM     11  C   UNL     1       9.564  -6.846  -8.333  1.00  0.00     0.022 A 
ENDROOT
BRANCH   9  12
ATOM     12  O   UNL     1      10.412  -4.646  -5.490  1.00  0.00    -0.504 OA
ATOM     13  H   UNL     1      10.941  -5.044  -4.724  1.00  0.00     0.293 HD
ENDBRANCH   9  12
BRANCH   8  14
ATOM     14  O   UNL     1       7.641  -5.004  -5.083  1.00  0.00    -0.504 OA
ATOM     15  H   UNL     1       7.875  -5.241  -4.126  1.00  0.00     0.293 HD
ENDBRANCH   8  14
TORSDOF 2
ENDMDL
MODEL 2
REMARK VINA RESULT:    -5.326      1.231      2.300
REMARK INTER + INTRA:          -5.638
REMARK INTER:                  -5.638
REMARK INTRA:                   0.000
REMARK UNBOUND:                 0.000
REMARK SMILES O=c1ccc2cc(O)c(O)cc2o1
REMARK SMILES IDX 4 1 3 2 2 3 1 4 13 5 12 6 11 7 9 8 7 9 6 10 5 11 8 12 10 14
REMARK H PARENT 8 13 10 15
REMARK Flexibility Score: inf
ROOT
ATOM      1  C   UNL     1       7.620  -8.059  -8.963  1.00  0.00     0.019 A 
ATOM      2  C   UNL     1       8.347  -8.670  -9.983  1.00  0.00     0.094 A 
ATOM      3  C   UNL     1       9.717  -8.406 -10.093  1.00  0.00     0.336 A 
ATOM      4  O   UNL     1      10.390  -8.947 -11.008  1.00  0.00    -0.246 OA
ATOM      5  O   UNL     1      10.315  -7.583  -9.233  1.00  0.00    -0.423 OA
ATOM      6  C   UNL     1       9.658  -6.980  -8.246  1.00  0.00     0.142 A 
ATOM      7  C   UNL     1      10.339  -6.124  -7.374  1.00  0.00     0.098 A 
ATOM      8  C   UNL     1       9.652  -5.486  -6.331  1.00  0.00     0.161 A 
ATOM      9  C   UNL     1       8.273  -5.705  -6.160  1.00  0.00     0.158 A 
ATOM     10  C   UNL     1       7.588  -6.560  -7.032  1.00  0.00     0.062 A 
ATOM     11  C   UNL     1       8.274  -7.199  -8.074  1.00  0.00     0.022 A 
ENDROOT
BRANCH   9  12
ATOM     12  O   UNL     1       7.567  -5.083  -5.131  1.00  0.00    -0.504 OA
ATOM     13  H   UNL     1       6.955  -5.598  -4.510  1.00  0.00     0.293 HD
ENDBRANCH   9  12
BRANCH   8  14
ATOM     14  O   UNL     1      10.335  -4.634  -5.463  1.00  0.00    -0.504 OA
ATOM     15  H   UNL     1      10.065  -4.542  -4.490  1.00  0.00     0.293 HD
ENDBRANCH   8  14
TORSDOF 2
ENDMDL
MODEL 3
REMARK VINA RESULT:    -5.307     17.738     18.897
REMARK INTER + INTRA:          -5.618
REMARK INTER:                  -5.618
REMARK INTRA:                   0.000
REMARK UNBOUND:                 0.000
REMARK SMILES O=c1ccc2cc(O)c(O)cc2o1
REMARK SMILES IDX 4 1 3 2 2 3 1 4 13 5 12 6 11 7 9 8 7 9 6 10 5 11 8 12 10 14
REMARK H PARENT 8 13 10 15
REMARK Flexibility Score: inf
ROOT
ATOM      1  C   UNL     1      21.297  -0.915 -22.440  1.00  0.00     0.019 A 
ATOM      2  C   UNL     1      21.912   0.133 -23.124  1.00  0.00     0.094 A 
ATOM      3  C   UNL     1      22.028   1.378 -22.494  1.00  0.00     0.336 A 
ATOM      4  O   UNL     1      22.578   2.337 -23.095  1.00  0.00    -0.246 OA
ATOM      5  O   UNL     1      21.558   1.555 -21.261  1.00  0.00    -0.423 OA
ATOM      6  C   UNL     1      20.965   0.582 -20.575  1.00  0.00     0.142 A 
ATOM      7  C   UNL     1      20.489   0.826 -19.283  1.00  0.00     0.098 A 
ATOM      8  C   UNL     1      19.864  -0.195 -18.554  1.00  0.00     0.161 A 
ATOM      9  C   UNL     1      19.713  -1.473 -19.124  1.00  0.00     0.158 A 
ATOM     10  C   UNL     1      20.187  -1.721 -20.418  1.00  0.00     0.062 A 
ATOM     11  C   UNL     1      20.813  -0.701 -21.147  1.00  0.00     0.022 A 
ENDROOT
BRANCH   9  12
ATOM     12  O   UNL     1      19.094  -2.507 -18.421  1.00  0.00    -0.504 OA
ATOM     13  H   UNL     1      18.526  -2.335 -17.601  1.00  0.00     0.293 HD
ENDBRANCH   9  12
BRANCH   8  14
ATOM     14  O   UNL     1      19.392   0.053 -17.266  1.00  0.00    -0.504 OA
ATOM     15  H   UNL     1      19.938  -0.187 -16.446  1.00  0.00     0.293 HD
ENDBRANCH   8  14
TORSDOF 2
ENDMDL
MODEL 4
REMARK VINA RESULT:    -5.187     16.714     18.137
REMARK INTER + INTRA:          -5.490
REMARK INTER:                  -5.490
REMARK INTRA:                   0.000
REMARK UNBOUND:                 0.000
REMARK SMILES O=c1ccc2cc(O)c(O)cc2o1
REMARK SMILES IDX 4 1 3 2 2 3 1 4 13 5 12 6 11 7 9 8 7 9 6 10 5 11 8 12 10 14
REMARK H PARENT 8 13 10 15
REMARK Flexibility Score: inf
ROOT
ATOM      1  C   UNL     1      19.352  -2.305 -19.058  1.00  0.00     0.019 A 
ATOM      2  C   UNL     1      18.880  -1.963 -17.791  1.00  0.00     0.094 A 
ATOM      3  C   UNL     1      19.075  -0.659 -17.323  1.00  0.00     0.336 A 
ATOM      4  O   UNL     1      18.658  -0.331 -16.183  1.00  0.00    -0.246 OA
ATOM      5  O   UNL     1      19.703   0.240 -18.079  1.00  0.00    -0.423 OA
ATOM      6  C   UNL     1      20.168  -0.045 -19.292  1.00  0.00     0.142 A 
ATOM      7  C   UNL     1      20.820   0.941 -20.040  1.00  0.00     0.098 A 
ATOM      8  C   UNL     1      21.313   0.647 -21.320  1.00  0.00     0.161 A 
ATOM      9  C   UNL     1      21.151  -0.645 -21.855  1.00  0.00     0.158 A 
ATOM     10  C   UNL     1      20.500  -1.633 -21.108  1.00  0.00     0.062 A 
ATOM     11  C   UNL     1      20.007  -1.341 -19.830  1.00  0.00     0.022 A 
ENDROOT
BRANCH   9  12
ATOM     12  O   UNL     1      21.632  -0.963 -23.125  1.00  0.00    -0.504 OA
ATOM     13  H   UNL     1      22.070  -0.273 -23.723  1.00  0.00     0.293 HD
ENDBRANCH   9  12
BRANCH   8  14
ATOM     14  O   UNL     1      21.962   1.633 -22.063  1.00  0.00    -0.504 OA
ATOM     15  H   UNL     1      22.096   1.540 -23.063  1.00  0.00     0.293 HD
ENDBRANCH   8  14
TORSDOF 2
ENDMDL
MODEL 5
REMARK VINA RESULT:    -4.965      2.326      3.154
REMARK INTER + INTRA:          -5.255
REMARK INTER:                  -5.255
REMARK INTRA:                   0.000
REMARK UNBOUND:                 0.000
REMARK SMILES O=c1ccc2cc(O)c(O)cc2o1
REMARK SMILES IDX 4 1 3 2 2 3 1 4 13 5 12 6 11 7 9 8 7 9 6 10 5 11 8 12 10 14
REMARK H PARENT 8 13 10 15
REMARK Flexibility Score: inf
ROOT
ATOM      1  C   UNL     1       8.316  -6.902 -11.718  1.00  0.00     0.019 A 
ATOM      2  C   UNL     1       9.101  -7.648 -12.597  1.00  0.00     0.094 A 
ATOM      3  C   UNL     1      10.396  -8.010 -12.210  1.00  0.00     0.336 A 
ATOM      4  O   UNL     1      11.120  -8.682 -12.990  1.00  0.00    -0.246 OA
ATOM      5  O   UNL     1      10.870  -7.645 -11.020  1.00  0.00    -0.423 OA
ATOM      6  C   UNL     1      10.154  -6.934 -10.153  1.00  0.00     0.142 A 
ATOM      7  C   UNL     1      10.705  -6.579  -8.917  1.00  0.00     0.098 A 
ATOM      8  C   UNL     1       9.956  -5.830  -7.999  1.00  0.00     0.161 A 
ATOM      9  C   UNL     1       8.646  -5.432  -8.320  1.00  0.00     0.158 A 
ATOM     10  C   UNL     1       8.092  -5.784  -9.556  1.00  0.00     0.062 A 
ATOM     11  C   UNL     1       8.839  -6.534 -10.475  1.00  0.00     0.022 A 
ENDROOT
BRANCH   9  12
ATOM     12  O   UNL     1       7.880  -4.686  -7.425  1.00  0.00    -0.504 OA
ATOM     13  H   UNL     1       8.293  -4.004  -6.801  1.00  0.00     0.293 HD
ENDBRANCH   9  12
BRANCH   8  14
ATOM     14  O   UNL     1      10.509  -5.479  -6.767  1.00  0.00    -0.504 OA
ATOM     15  H   UNL     1      10.051  -5.715  -5.894  1.00  0.00     0.293 HD
ENDBRANCH   8  14
TORSDOF 2
ENDMDL
MODEL 6
REMARK VINA RESULT:    -4.882      1.923      2.611
REMARK INTER + INTRA:          -5.167
REMARK INTER:                  -5.167
REMARK INTRA:                   0.000
REMARK UNBOUND:                 0.000
REMARK SMILES O=c1ccc2cc(O)c(O)cc2o1
REMARK SMILES IDX 4 1 3 2 2 3 1 4 13 5 12 6 11 7 9 8 7 9 6 10 5 11 8 12 10 14
REMARK H PARENT 8 13 10 15
REMARK Flexibility Score: inf
ROOT
ATOM      1  C   UNL     1       7.988  -8.120  -8.774  1.00  0.00     0.019 A 
ATOM      2  C   UNL     1       8.347  -7.471  -9.954  1.00  0.00     0.094 A 
ATOM      3  C   UNL     1       8.715  -6.122  -9.902  1.00  0.00     0.336 A 
ATOM      4  O   UNL     1       9.041  -5.519 -10.957  1.00  0.00    -0.246 OA
ATOM      5  O   UNL     1       8.721  -5.470  -8.741  1.00  0.00    -0.423 OA
ATOM      6  C   UNL     1       8.386  -6.052  -7.593  1.00  0.00     0.142 A 
ATOM      7  C   UNL     1       8.410  -5.317  -6.403  1.00  0.00     0.098 A 
ATOM      8  C   UNL     1       8.059  -5.924  -5.189  1.00  0.00     0.161 A 
ATOM      9  C   UNL     1       7.678  -7.278  -5.166  1.00  0.00     0.158 A 
ATOM     10  C   UNL     1       7.652  -8.017  -6.355  1.00  0.00     0.062 A 
ATOM     11  C   UNL     1       8.004  -7.411  -7.569  1.00  0.00     0.022 A 
ENDROOT
BRANCH   9  12
ATOM     12  O   UNL     1       7.324  -7.906  -3.972  1.00  0.00    -0.504 OA
ATOM     13  H   UNL     1       6.386  -7.852  -3.593  1.00  0.00     0.293 HD
ENDBRANCH   9  12
BRANCH   8  14
ATOM     14  O   UNL     1       8.085  -5.187  -4.006  1.00  0.00    -0.504 OA
ATOM     15  H   UNL     1       8.378  -4.217  -3.991  1.00  0.00     0.293 HD
ENDBRANCH   8  14
TORSDOF 2
ENDMDL
MODEL 7
REMARK VINA RESULT:    -4.860      1.504      1.926
REMARK INTER + INTRA:          -5.144
REMARK INTER:                  -5.144
REMARK INTRA:                   0.000
REMARK UNBOUND:                 0.000
REMARK SMILES O=c1ccc2cc(O)c(O)cc2o1
REMARK SMILES IDX 4 1 3 2 2 3 1 4 13 5 12 6 11 7 9 8 7 9 6 10 5 11 8 12 10 14
REMARK H PARENT 8 13 10 15
REMARK Flexibility Score: inf
ROOT
ATOM      1  C   UNL     1       8.730  -5.743  -8.823  1.00  0.00     0.019 A 
ATOM      2  C   UNL     1       8.666  -6.591  -9.928  1.00  0.00     0.094 A 
ATOM      3  C   UNL     1       8.257  -7.916  -9.743  1.00  0.00     0.336 A 
ATOM      4  O   UNL     1       8.194  -8.697 -10.728  1.00  0.00    -0.246 OA
ATOM      5  O   UNL     1       7.933  -8.358  -8.530  1.00  0.00    -0.423 OA
ATOM      6  C   UNL     1       7.980  -7.582  -7.450  1.00  0.00     0.142 A 
ATOM      7  C   UNL     1       7.629  -8.101  -6.200  1.00  0.00     0.098 A 
ATOM      8  C   UNL     1       7.675  -7.288  -5.058  1.00  0.00     0.161 A 
ATOM      9  C   UNL     1       8.078  -5.944  -5.170  1.00  0.00     0.158 A 
ATOM     10  C   UNL     1       8.431  -5.422  -6.419  1.00  0.00     0.062 A 
ATOM     11  C   UNL     1       8.384  -6.233  -7.561  1.00  0.00     0.022 A 
ENDROOT
BRANCH   9  12
ATOM     12  O   UNL     1       8.133  -5.114  -4.050  1.00  0.00    -0.504 OA
ATOM     13  H   UNL     1       8.980  -4.999  -3.506  1.00  0.00     0.293 HD
ENDBRANCH   9  12
BRANCH   8  14
ATOM     14  O   UNL     1       7.324  -7.809  -3.814  1.00  0.00    -0.504 OA
ATOM     15  H   UNL     1       6.670  -8.579  -3.727  1.00  0.00     0.293 HD
ENDBRANCH   8  14
TORSDOF 2
ENDMDL
MODEL 8
REMARK VINA RESULT:    -4.818      2.037      2.459
REMARK INTER + INTRA:          -5.100
REMARK INTER:                  -5.100
REMARK INTRA:                   0.000
REMARK UNBOUND:                 0.000
REMARK SMILES O=c1ccc2cc(O)c(O)cc2o1
REMARK SMILES IDX 4 1 3 2 2 3 1 4 13 5 12 6 11 7 9 8 7 9 6 10 5 11 8 12 10 14
REMARK H PARENT 8 13 10 15
REMARK Flexibility Score: inf
ROOT
ATOM      1  C   UNL     1      10.965  -7.242  -8.576  1.00  0.00     0.019 A 
ATOM      2  C   UNL     1      11.383  -7.599  -9.858  1.00  0.00     0.094 A 
ATOM      3  C   UNL     1      10.576  -7.268 -10.952  1.00  0.00     0.336 A 
ATOM      4  O   UNL     1      10.936  -7.583 -12.116  1.00  0.00    -0.246 OA
ATOM      5  O   UNL     1       9.427  -6.620 -10.770  1.00  0.00    -0.423 OA
ATOM      6  C   UNL     1       8.992  -6.261  -9.565  1.00  0.00     0.142 A 
ATOM      7  C   UNL     1       7.776  -5.583  -9.434  1.00  0.00     0.098 A 
ATOM      8  C   UNL     1       7.312  -5.201  -8.167  1.00  0.00     0.161 A 
ATOM      9  C   UNL     1       8.072  -5.501  -7.021  1.00  0.00     0.158 A 
ATOM     10  C   UNL     1       9.289  -6.180  -7.149  1.00  0.00     0.062 A 
ATOM     11  C   UNL     1       9.754  -6.562  -8.415  1.00  0.00     0.022 A 
ENDROOT
BRANCH   9  12
ATOM     12  O   UNL     1       7.633  -5.133  -5.750  1.00  0.00    -0.504 OA
ATOM     13  H   UNL     1       7.280  -5.810  -5.085  1.00  0.00     0.293 HD
ENDBRANCH   9  12
BRANCH   8  14
ATOM     14  O   UNL     1       6.099  -4.524  -8.041  1.00  0.00    -0.504 OA
ATOM     15  H   UNL     1       5.960  -3.606  -8.448  1.00  0.00     0.293 HD
ENDBRANCH   8  14
TORSDOF 2
ENDMDL
MODEL 9
REMARK VINA RESULT:    -4.800      2.090      2.532
REMARK INTER + INTRA:          -5.081
REMARK INTER:                  -5.081
REMARK INTRA:                   0.000
REMARK UNBOUND:                 0.000
REMARK SMILES O=c1ccc2cc(O)c(O)cc2o1
REMARK SMILES IDX 4 1 3 2 2 3 1 4 13 5 12 6 11 7 9 8 7 9 6 10 5 11 8 12 10 14
REMARK H PARENT 8 13 10 15
REMARK Flexibility Score: inf
ROOT
ATOM      1  C   UNL     1       8.082  -4.949 -10.573  1.00  0.00     0.019 A 
ATOM      2  C   UNL     1       8.250  -5.615 -11.787  1.00  0.00     0.094 A 
ATOM      3  C   UNL     1       8.322  -7.013 -11.789  1.00  0.00     0.336 A 
ATOM      4  O   UNL     1       8.475  -7.632 -12.874  1.00  0.00    -0.246 OA
ATOM      5  O   UNL     1       8.230  -7.694 -10.649  1.00  0.00    -0.423 OA
ATOM      6  C   UNL     1       8.068  -7.097  -9.471  1.00  0.00     0.142 A 
ATOM      7  C   UNL     1       7.979  -7.865  -8.305  1.00  0.00     0.098 A 
ATOM      8  C   UNL     1       7.809  -7.242  -7.060  1.00  0.00     0.161 A 
ATOM      9  C   UNL     1       7.728  -5.840  -6.982  1.00  0.00     0.158 A 
ATOM     10  C   UNL     1       7.818  -5.069  -8.146  1.00  0.00     0.062 A 
ATOM     11  C   UNL     1       7.988  -5.690  -9.391  1.00  0.00     0.022 A 
ENDROOT
BRANCH   9  12
ATOM     12  O   UNL     1       7.559  -5.196  -5.756  1.00  0.00    -0.504 OA
ATOM     13  H   UNL     1       8.291  -5.167  -5.057  1.00  0.00     0.293 HD
ENDBRANCH   9  12
BRANCH   8  14
ATOM     14  O   UNL     1       7.719  -8.011  -5.900  1.00  0.00    -0.504 OA
ATOM     15  H   UNL     1       7.081  -7.768  -5.151  1.00  0.00     0.293 HD
ENDBRANCH   8  14
TORSDOF 2
ENDMDL
