MODEL 1
REMARK VINA RESULT:    -6.076      0.000      0.000
REMARK INTER + INTRA:          -5.941
REMARK INTER:                  -6.609
REMARK INTRA:                   0.667
REMARK UNBOUND:                 0.667
REMARK SMILES C[C@H]1[C@H](C)CC[C@]2(C(=O)[O-])CC[C@]3(C)C(=CC[C@H]4[C@@]5(C)CC[C@@H](O)C(C)(C)[C@@H]5CC[C@@]43C)[C@H]12
REMARK SMILES IDX 7 1 6 2 11 3 33 4 5 5 12 6 15 7 2 8 3 9 13 10 16 11 1 12
REMARK SMILES IDX 4 13 14 14 31 15 17 16 18 17 30 18 32 19 19 20 29 21 28 22
REMARK SMILES IDX 21 23 20 24 25 25 22 26 23 27 26 28 27 29 8 30 9 31 10 32
REMARK SMILES IDX 24 33
REMARK H PARENT 24 34
REMARK Flexibility Score: inf
ROOT
ATOM      1  C   UNL     1      12.135  41.897  20.310  1.00  0.00     0.017 C 
ATOM      2  C   UNL     1      12.731  41.549  18.908  1.00  0.00     0.014 C 
ATOM      3  C   UNL     1      13.229  41.605  21.404  1.00  0.00     0.014 C 
ATOM      4  C   UNL     1      10.767  41.120  20.550  1.00  0.00     0.030 C 
ATOM      5  C   UNL     1      11.740  41.746  17.766  1.00  0.00     0.004 C 
ATOM      6  C   UNL     1      12.886  40.589  22.510  1.00  0.00     0.013 C 
ATOM      7  C   UNL     1      10.801  39.825  21.401  1.00  0.00    -0.063 C 
ATOM      8  C   UNL     1       9.814  41.033  19.283  1.00  0.00    -0.003 C 
ATOM      9  C   UNL     1      10.527  40.824  17.921  1.00  0.00    -0.011 C 
ATOM     10  C   UNL     1      12.126  39.311  22.037  1.00  0.00    -0.006 C 
ATOM     11  C   UNL     1       9.582  39.460  21.915  1.00  0.00    -0.027 C 
ATOM     12  C   UNL     1       8.883  42.260  19.206  1.00  0.00     0.008 C 
ATOM     13  C   UNL     1      10.874  39.348  17.671  1.00  0.00     0.008 C 
ATOM     14  C   UNL     1      13.009  38.578  20.974  1.00  0.00     0.017 C 
ATOM     15  C   UNL     1      11.830  38.279  23.259  1.00  0.00    -0.020 C 
ATOM     16  C   UNL     1       9.361  38.738  23.224  1.00  0.00     0.032 C 
ATOM     17  C   UNL     1      10.621  38.821  24.102  1.00  0.00     0.006 C 
ATOM     18  C   UNL     1      13.046  38.143  24.224  1.00  0.00     0.008 C 
ATOM     19  C   UNL     1      11.502  36.859  22.651  1.00  0.00     0.012 C 
ATOM     20  C   UNL     1      10.507  38.345  25.643  1.00  0.00    -0.025 C 
ATOM     21  C   UNL     1      12.835  37.148  25.376  1.00  0.00     0.005 C 
ATOM     22  C   UNL     1      11.378  37.060  25.912  1.00  0.00     0.003 C 
ATOM     23  C   UNL     1       9.033  38.001  26.034  1.00  0.00     0.010 C 
ATOM     24  C   UNL     1      10.965  39.547  26.532  1.00  0.00     0.012 C 
ATOM     25  C   UNL     1      11.257  36.409  27.350  1.00  0.00    -0.006 C 
ATOM     26  C   UNL     1       8.875  37.412  27.447  1.00  0.00     0.033 C 
ATOM     27  C   UNL     1       9.743  36.162  27.669  1.00  0.00     0.120 C 
ATOM     28  C   UNL     1      11.911  37.255  28.487  1.00  0.00     0.014 C 
ATOM     29  C   UNL     1      11.978  35.030  27.345  1.00  0.00     0.014 C 
ENDROOT
BRANCH   1  30
ATOM     30  C   UNL     1      11.896  43.417  20.350  1.00  0.00     0.048 C 
ATOM     31  O   UNL     1      10.732  43.891  20.267  1.00  0.00    -0.550 OA
ATOM     32  O   UNL     1      12.941  44.292  20.640  1.00  0.00    -0.550 OA
ENDBRANCH   1  30
BRANCH  27  33
ATOM     33  O   UNL     1       9.225  35.125  26.869  1.00  0.00    -0.393 OA
ATOM     34  H   UNL     1       9.532  34.262  27.256  1.00  0.00     0.210 HD
ENDBRANCH  27  33
TORSDOF 2
ENDMDL
