MODEL 1
REMARK VINA RESULT:    -4.745      0.000      0.000
REMARK INTER + INTRA:         -10.775
REMARK INTER:                  -8.906
REMARK INTRA:                  -1.869
REMARK UNBOUND:                -1.869
REMARK SMILES O=C([O-])CCCCCCCCCCCCCCC(=O)[O-]
REMARK SMILES IDX 10 1 9 2 8 3 7 4 6 5 5 6 4 7 2 8 1 9 3 10 11 11 12 12 13 13
REMARK SMILES IDX 14 14 15 15 16 16 17 17 18 18 19 19 20 20
REMARK H PARENT
REMARK Flexibility Score: inf
ROOT
ATOM      1  C   UNL     1     -27.545 -34.891 -13.190  1.00  0.00     0.000 C 
ENDROOT
BRANCH   1   2
ATOM      2  C   UNL     1     -27.956 -33.516 -13.739  1.00  0.00     0.000 C 
BRANCH   2   3
ATOM      3  C   UNL     1     -28.394 -32.579 -12.603  1.00  0.00     0.000 C 
BRANCH   3   4
ATOM      4  C   UNL     1     -28.345 -31.092 -12.998  1.00  0.00     0.000 C 
BRANCH   4   5
ATOM      5  C   UNL     1     -27.073 -30.343 -12.561  1.00  0.00     0.000 C 
BRANCH   5   6
ATOM      6  C   UNL     1     -25.930 -31.288 -12.153  1.00  0.00     0.006 C 
BRANCH   6   7
ATOM      7  C   UNL     1     -25.566 -31.147 -10.669  1.00  0.00     0.053 C 
BRANCH   7   8
ATOM      8  C   UNL     1     -24.193 -30.575 -10.490  1.00  0.00     0.041 C 
ATOM      9  O   UNL     1     -23.639 -30.598  -9.358  1.00  0.00    -0.550 OA
ATOM     10  O   UNL     1     -23.510 -30.049 -11.579  1.00  0.00    -0.550 OA
ENDBRANCH   7   8
ENDBRANCH   6   7
ENDBRANCH   5   6
ENDBRANCH   4   5
ENDBRANCH   3   4
ENDBRANCH   2   3
ENDBRANCH   1   2
BRANCH   1  11
ATOM     11  C   UNL     1     -27.219 -34.857 -11.687  1.00  0.00     0.000 C 
BRANCH  11  12
ATOM     12  C   UNL     1     -25.706 -34.904 -11.408  1.00  0.00     0.000 C 
BRANCH  12  13
ATOM     13  C   UNL     1     -24.923 -35.619 -12.522  1.00  0.00     0.000 C 
BRANCH  13  14
ATOM     14  C   UNL     1     -23.438 -35.216 -12.551  1.00  0.00     0.000 C 
BRANCH  14  15
ATOM     15  C   UNL     1     -23.242 -33.692 -12.597  1.00  0.00     0.000 C 
BRANCH  15  16
ATOM     16  C   UNL     1     -21.823 -33.264 -12.183  1.00  0.00     0.006 C 
BRANCH  16  17
ATOM     17  C   UNL     1     -21.152 -32.382 -13.244  1.00  0.00     0.053 C 
BRANCH  17  18
ATOM     18  C   UNL     1     -20.733 -33.178 -14.443  1.00  0.00     0.041 C 
ATOM     19  O   UNL     1     -20.731 -32.649 -15.586  1.00  0.00    -0.550 OA
ATOM     20  O   UNL     1     -20.308 -34.492 -14.292  1.00  0.00    -0.550 OA
ENDBRANCH  17  18
ENDBRANCH  16  17
ENDBRANCH  15  16
ENDBRANCH  14  15
ENDBRANCH  13  14
ENDBRANCH  12  13
ENDBRANCH  11  12
ENDBRANCH   1  11
TORSDOF 15
ENDMDL
MODEL 2
REMARK VINA RESULT:    -4.708      1.390      5.499
REMARK INTER + INTRA:         -10.706
REMARK INTER:                  -9.041
REMARK INTRA:                  -1.665
REMARK UNBOUND:                -1.869
REMARK SMILES O=C([O-])CCCCCCCCCCCCCCC(=O)[O-]
REMARK SMILES IDX 10 1 9 2 8 3 7 4 6 5 5 6 4 7 2 8 1 9 3 10 11 11 12 12 13 13
REMARK SMILES IDX 14 14 15 15 16 16 17 17 18 18 19 19 20 20
REMARK H PARENT
REMARK Flexibility Score: inf
ROOT
ATOM      1  C   UNL     1     -26.506 -34.708 -11.338  1.00  0.00     0.000 C 
ENDROOT
BRANCH   1   2
ATOM      2  C   UNL     1     -25.282 -34.390 -12.210  1.00  0.00     0.000 C 
BRANCH   2   3
ATOM      3  C   UNL     1     -24.541 -35.677 -12.606  1.00  0.00     0.000 C 
BRANCH   3   4
ATOM      4  C   UNL     1     -23.010 -35.513 -12.610  1.00  0.00     0.000 C 
BRANCH   4   5
ATOM      5  C   UNL     1     -22.510 -34.064 -12.461  1.00  0.00     0.000 C 
BRANCH   5   6
ATOM      6  C   UNL     1     -21.559 -33.638 -13.592  1.00  0.00     0.006 C 
BRANCH   6   7
ATOM      7  C   UNL     1     -20.651 -34.788 -14.048  1.00  0.00     0.053 C 
BRANCH   7   8
ATOM      8  C   UNL     1     -19.524 -35.016 -13.087  1.00  0.00     0.041 C 
ATOM      9  O   UNL     1     -19.131 -36.187 -12.838  1.00  0.00    -0.550 OA
ATOM     10  O   UNL     1     -18.885 -33.935 -12.494  1.00  0.00    -0.550 OA
ENDBRANCH   7   8
ENDBRANCH   6   7
ENDBRANCH   5   6
ENDBRANCH   4   5
ENDBRANCH   3   4
ENDBRANCH   2   3
ENDBRANCH   1   2
BRANCH   1  11
ATOM     11  C   UNL     1     -27.835 -34.359 -12.028  1.00  0.00     0.000 C 
BRANCH  11  12
ATOM     12  C   UNL     1     -27.648 -33.417 -13.231  1.00  0.00     0.000 C 
BRANCH  12  13
ATOM     13  C   UNL     1     -28.580 -32.196 -13.174  1.00  0.00     0.000 C 
BRANCH  13  14
ATOM     14  C   UNL     1     -27.836 -30.903 -12.798  1.00  0.00     0.000 C 
BRANCH  14  15
ATOM     15  C   UNL     1     -27.864 -30.626 -11.286  1.00  0.00     0.000 C 
BRANCH  15  16
ATOM     16  C   UNL     1     -26.523 -30.091 -10.755  1.00  0.00     0.006 C 
BRANCH  16  17
ATOM     17  C   UNL     1     -25.571 -31.221 -10.343  1.00  0.00     0.053 C 
BRANCH  17  18
ATOM     18  C   UNL     1     -24.248 -31.116 -11.039  1.00  0.00     0.041 C 
ATOM     19  O   UNL     1     -24.199 -30.887 -12.276  1.00  0.00    -0.550 OA
ATOM     20  O   UNL     1     -23.069 -31.234 -10.314  1.00  0.00    -0.550 OA
ENDBRANCH  17  18
ENDBRANCH  16  17
ENDBRANCH  15  16
ENDBRANCH  14  15
ENDBRANCH  13  14
ENDBRANCH  12  13
ENDBRANCH  11  12
ENDBRANCH   1  11
TORSDOF 15
ENDMDL
MODEL 3
REMARK VINA RESULT:    -4.685      2.408      6.127
REMARK INTER + INTRA:         -10.662
REMARK INTER:                  -8.716
REMARK INTRA:                  -1.945
REMARK UNBOUND:                -1.869
REMARK SMILES O=C([O-])CCCCCCCCCCCCCCC(=O)[O-]
REMARK SMILES IDX 10 1 9 2 8 3 7 4 6 5 5 6 4 7 2 8 1 9 3 10 11 11 12 12 13 13
REMARK SMILES IDX 14 14 15 15 16 16 17 17 18 18 19 19 20 20
REMARK H PARENT
REMARK Flexibility Score: inf
ROOT
ATOM      1  C   UNL     1     -23.740 -32.331 -12.025  1.00  0.00     0.000 C 
ENDROOT
BRANCH   1   2
ATOM      2  C   UNL     1     -22.616 -31.898 -11.071  1.00  0.00     0.000 C 
BRANCH   2   3
ATOM      3  C   UNL     1     -21.315 -31.629 -11.843  1.00  0.00     0.000 C 
BRANCH   3   4
ATOM      4  C   UNL     1     -21.446 -31.893 -13.354  1.00  0.00     0.000 C 
BRANCH   4   5
ATOM      5  C   UNL     1     -20.303 -32.718 -13.973  1.00  0.00     0.000 C 
BRANCH   5   6
ATOM      6  C   UNL     1     -20.768 -34.083 -14.509  1.00  0.00     0.006 C 
BRANCH   6   7
ATOM      7  C   UNL     1     -20.246 -35.247 -13.657  1.00  0.00     0.053 C 
BRANCH   7   8
ATOM      8  C   UNL     1     -20.999 -35.370 -12.368  1.00  0.00     0.041 C 
ATOM      9  O   UNL     1     -20.404 -35.214 -11.269  1.00  0.00    -0.550 OA
ATOM     10  O   UNL     1     -22.365 -35.623 -12.382  1.00  0.00    -0.550 OA
ENDBRANCH   7   8
ENDBRANCH   6   7
ENDBRANCH   5   6
ENDBRANCH   4   5
ENDBRANCH   3   4
ENDBRANCH   2   3
ENDBRANCH   1   2
BRANCH   1  11
ATOM     11  C   UNL     1     -24.879 -31.300 -12.109  1.00  0.00     0.000 C 
BRANCH  11  12
ATOM     12  C   UNL     1     -25.689 -31.206 -10.803  1.00  0.00     0.000 C 
BRANCH  12  13
ATOM     13  C   UNL     1     -27.203 -31.122 -11.055  1.00  0.00     0.000 C 
BRANCH  13  14
ATOM     14  C   UNL     1     -27.542 -30.822 -12.526  1.00  0.00     0.000 C 
BRANCH  14  15
ATOM     15  C   UNL     1     -28.603 -31.778 -13.093  1.00  0.00     0.000 C 
BRANCH  15  16
ATOM     16  C   UNL     1     -28.386 -33.235 -12.652  1.00  0.00     0.006 C 
BRANCH  16  17
ATOM     17  C   UNL     1     -27.279 -33.926 -13.460  1.00  0.00     0.053 C 
BRANCH  17  18
ATOM     18  C   UNL     1     -26.435 -34.816 -12.599  1.00  0.00     0.041 C 
ATOM     19  O   UNL     1     -25.648 -35.646 -13.125  1.00  0.00    -0.550 OA
ATOM     20  O   UNL     1     -26.492 -34.703 -11.215  1.00  0.00    -0.550 OA
ENDBRANCH  17  18
ENDBRANCH  16  17
ENDBRANCH  15  16
ENDBRANCH  14  15
ENDBRANCH  13  14
ENDBRANCH  12  13
ENDBRANCH  11  12
ENDBRANCH   1  11
TORSDOF 15
ENDMDL
MODEL 4
REMARK VINA RESULT:    -4.626      2.592      4.236
REMARK INTER + INTRA:         -10.552
REMARK INTER:                  -8.966
REMARK INTRA:                  -1.585
REMARK UNBOUND:                -1.869
REMARK SMILES O=C([O-])CCCCCCCCCCCCCCC(=O)[O-]
REMARK SMILES IDX 10 1 9 2 8 3 7 4 6 5 5 6 4 7 2 8 1 9 3 10 11 11 12 12 13 13
REMARK SMILES IDX 14 14 15 15 16 16 17 17 18 18 19 19 20 20
REMARK H PARENT
REMARK Flexibility Score: inf
ROOT
ATOM      1  C   UNL     1     -26.460 -31.069 -10.764  1.00  0.00     0.000 C 
ENDROOT
BRANCH   1   2
ATOM      2  C   UNL     1     -27.828 -30.518 -11.192  1.00  0.00     0.000 C 
BRANCH   2   3
ATOM      3  C   UNL     1     -28.199 -31.006 -12.601  1.00  0.00     0.000 C 
BRANCH   3   4
ATOM      4  C   UNL     1     -27.666 -32.417 -12.909  1.00  0.00     0.000 C 
BRANCH   4   5
ATOM      5  C   UNL     1     -28.516 -33.571 -12.347  1.00  0.00     0.000 C 
BRANCH   5   6
ATOM      6  C   UNL     1     -27.671 -34.678 -11.695  1.00  0.00     0.006 C 
BRANCH   6   7
ATOM      7  C   UNL     1     -26.199 -34.611 -12.125  1.00  0.00     0.053 C 
BRANCH   7   8
ATOM      8  C   UNL     1     -25.903 -35.577 -13.231  1.00  0.00     0.041 C 
ATOM      9  O   UNL     1     -24.946 -36.390 -13.123  1.00  0.00    -0.550 OA
ATOM     10  O   UNL     1     -26.703 -35.604 -14.366  1.00  0.00    -0.550 OA
ENDBRANCH   7   8
ENDBRANCH   6   7
ENDBRANCH   5   6
ENDBRANCH   4   5
ENDBRANCH   3   4
ENDBRANCH   2   3
ENDBRANCH   1   2
BRANCH   1  11
ATOM     11  C   UNL     1     -25.341 -30.017 -10.849  1.00  0.00     0.000 C 
BRANCH  11  12
ATOM     12  C   UNL     1     -24.468 -30.183 -12.106  1.00  0.00     0.000 C 
BRANCH  12  13
ATOM     13  C   UNL     1     -23.916 -31.610 -12.256  1.00  0.00     0.000 C 
BRANCH  13  14
ATOM     14  C   UNL     1     -22.421 -31.629 -12.623  1.00  0.00     0.000 C 
BRANCH  14  15
ATOM     15  C   UNL     1     -21.726 -32.931 -12.195  1.00  0.00     0.000 C 
BRANCH  15  16
ATOM     16  C   UNL     1     -22.018 -34.102 -13.149  1.00  0.00     0.006 C 
BRANCH  16  17
ATOM     17  C   UNL     1     -21.819 -35.464 -12.471  1.00  0.00     0.053 C 
BRANCH  17  18
ATOM     18  C   UNL     1     -20.373 -35.736 -12.184  1.00  0.00     0.041 C 
ATOM     19  O   UNL     1     -19.555 -35.880 -13.130  1.00  0.00    -0.550 OA
ATOM     20  O   UNL     1     -19.924 -35.793 -10.871  1.00  0.00    -0.550 OA
ENDBRANCH  17  18
ENDBRANCH  16  17
ENDBRANCH  15  16
ENDBRANCH  14  15
ENDBRANCH  13  14
ENDBRANCH  12  13
ENDBRANCH  11  12
ENDBRANCH   1  11
TORSDOF 15
ENDMDL
MODEL 5
REMARK VINA RESULT:    -4.625      2.309      4.035
REMARK INTER + INTRA:         -10.549
REMARK INTER:                  -8.509
REMARK INTRA:                  -2.039
REMARK UNBOUND:                -1.869
REMARK SMILES O=C([O-])CCCCCCCCCCCCCCC(=O)[O-]
REMARK SMILES IDX 10 1 9 2 8 3 7 4 6 5 5 6 4 7 2 8 1 9 3 10 11 11 12 12 13 13
REMARK SMILES IDX 14 14 15 15 16 16 17 17 18 18 19 19 20 20
REMARK H PARENT
REMARK Flexibility Score: inf
ROOT
ATOM      1  C   UNL     1     -24.916 -31.058 -12.249  1.00  0.00     0.000 C 
ENDROOT
BRANCH   1   2
ATOM      2  C   UNL     1     -25.621 -31.119 -10.885  1.00  0.00     0.000 C 
BRANCH   2   3
ATOM      3  C   UNL     1     -27.148 -31.072 -11.054  1.00  0.00     0.000 C 
BRANCH   3   4
ATOM      4  C   UNL     1     -27.586 -30.919 -12.522  1.00  0.00     0.000 C 
BRANCH   4   5
ATOM      5  C   UNL     1     -28.549 -32.007 -13.031  1.00  0.00     0.000 C 
BRANCH   5   6
ATOM      6  C   UNL     1     -27.821 -33.241 -13.590  1.00  0.00     0.006 C 
BRANCH   6   7
ATOM      7  C   UNL     1     -27.839 -34.419 -12.606  1.00  0.00     0.053 C 
BRANCH   7   8
ATOM      8  C   UNL     1     -26.454 -34.887 -12.279  1.00  0.00     0.041 C 
ATOM      9  O   UNL     1     -25.971 -34.687 -11.133  1.00  0.00    -0.550 OA
ATOM     10  O   UNL     1     -25.710 -35.575 -13.229  1.00  0.00    -0.550 OA
ENDBRANCH   7   8
ENDBRANCH   6   7
ENDBRANCH   5   6
ENDBRANCH   4   5
ENDBRANCH   3   4
ENDBRANCH   2   3
ENDBRANCH   1   2
BRANCH   1  11
ATOM     11  C   UNL     1     -23.875 -32.174 -12.431  1.00  0.00     0.000 C 
BRANCH  11  12
ATOM     12  C   UNL     1     -22.788 -32.154 -11.341  1.00  0.00     0.000 C 
BRANCH  12  13
ATOM     13  C   UNL     1     -21.430 -31.666 -11.872  1.00  0.00     0.000 C 
BRANCH  13  14
ATOM     14  C   UNL     1     -21.361 -31.671 -13.409  1.00  0.00     0.000 C 
BRANCH  14  15
ATOM     15  C   UNL     1     -20.267 -32.608 -13.947  1.00  0.00     0.000 C 
BRANCH  15  16
ATOM     16  C   UNL     1     -20.829 -33.945 -14.460  1.00  0.00     0.006 C 
BRANCH  16  17
ATOM     17  C   UNL     1     -20.294 -35.142 -13.663  1.00  0.00     0.053 C 
BRANCH  17  18
ATOM     18  C   UNL     1     -21.084 -35.375 -12.412  1.00  0.00     0.041 C 
ATOM     19  O   UNL     1     -20.502 -35.442 -11.298  1.00  0.00    -0.550 OA
ATOM     20  O   UNL     1     -22.468 -35.481 -12.472  1.00  0.00    -0.550 OA
ENDBRANCH  17  18
ENDBRANCH  16  17
ENDBRANCH  15  16
ENDBRANCH  14  15
ENDBRANCH  13  14
ENDBRANCH  12  13
ENDBRANCH  11  12
ENDBRANCH   1  11
TORSDOF 15
ENDMDL
MODEL 6
REMARK VINA RESULT:    -4.489      2.311      5.440
REMARK INTER + INTRA:         -10.293
REMARK INTER:                  -8.401
REMARK INTRA:                  -1.893
REMARK UNBOUND:                -1.869
REMARK SMILES O=C([O-])CCCCCCCCCCCCCCC(=O)[O-]
REMARK SMILES IDX 10 1 9 2 8 3 7 4 6 5 5 6 4 7 2 8 1 9 3 10 11 11 12 12 13 13
REMARK SMILES IDX 14 14 15 15 16 16 17 17 18 18 19 19 20 20
REMARK H PARENT
REMARK Flexibility Score: inf
ROOT
ATOM      1  C   UNL     1     -26.028 -31.077 -10.345  1.00  0.00     0.000 C 
ENDROOT
BRANCH   1   2
ATOM      2  C   UNL     1     -24.539 -30.819 -10.616  1.00  0.00     0.000 C 
BRANCH   2   3
ATOM      3  C   UNL     1     -24.308 -30.426 -12.084  1.00  0.00     0.000 C 
BRANCH   3   4
ATOM      4  C   UNL     1     -22.996 -30.990 -12.659  1.00  0.00     0.000 C 
BRANCH   4   5
ATOM      5  C   UNL     1     -22.858 -32.522 -12.586  1.00  0.00     0.000 C 
BRANCH   5   6
ATOM      6  C   UNL     1     -21.635 -33.053 -13.353  1.00  0.00     0.006 C 
BRANCH   6   7
ATOM      7  C   UNL     1     -20.541 -33.568 -12.409  1.00  0.00     0.053 C 
BRANCH   7   8
ATOM      8  C   UNL     1     -20.430 -35.062 -12.456  1.00  0.00     0.041 C 
ATOM      9  O   UNL     1     -20.285 -35.652 -13.559  1.00  0.00    -0.550 OA
ATOM     10  O   UNL     1     -20.452 -35.799 -11.279  1.00  0.00    -0.550 OA
ENDBRANCH   7   8
ENDBRANCH   6   7
ENDBRANCH   5   6
ENDBRANCH   4   5
ENDBRANCH   3   4
ENDBRANCH   2   3
ENDBRANCH   1   2
BRANCH   1  11
ATOM     11  C   UNL     1     -26.950 -30.162 -11.168  1.00  0.00     0.000 C 
BRANCH  11  12
ATOM     12  C   UNL     1     -28.147 -30.917 -11.774  1.00  0.00     0.000 C 
BRANCH  12  13
ATOM     13  C   UNL     1     -27.868 -31.416 -13.201  1.00  0.00     0.000 C 
BRANCH  13  14
ATOM     14  C   UNL     1     -27.833 -32.951 -13.294  1.00  0.00     0.000 C 
BRANCH  14  15
ATOM     15  C   UNL     1     -28.318 -33.631 -12.003  1.00  0.00     0.000 C 
BRANCH  15  16
ATOM     16  C   UNL     1     -27.387 -34.767 -11.544  1.00  0.00     0.006 C 
BRANCH  16  17
ATOM     17  C   UNL     1     -25.909 -34.442 -11.799  1.00  0.00     0.053 C 
BRANCH  17  18
ATOM     18  C   UNL     1     -25.267 -35.449 -12.704  1.00  0.00     0.041 C 
ATOM     19  O   UNL     1     -25.914 -35.942 -13.665  1.00  0.00    -0.550 OA
ATOM     20  O   UNL     1     -23.942 -35.815 -12.508  1.00  0.00    -0.550 OA
ENDBRANCH  17  18
ENDBRANCH  16  17
ENDBRANCH  15  16
ENDBRANCH  14  15
ENDBRANCH  13  14
ENDBRANCH  12  13
ENDBRANCH  11  12
ENDBRANCH   1  11
TORSDOF 15
ENDMDL
MODEL 7
REMARK VINA RESULT:    -4.472      1.812      3.218
REMARK INTER + INTRA:         -10.261
REMARK INTER:                  -8.717
REMARK INTRA:                  -1.545
REMARK UNBOUND:                -1.869
REMARK SMILES O=C([O-])CCCCCCCCCCCCCCC(=O)[O-]
REMARK SMILES IDX 10 1 9 2 8 3 7 4 6 5 5 6 4 7 2 8 1 9 3 10 11 11 12 12 13 13
REMARK SMILES IDX 14 14 15 15 16 16 17 17 18 18 19 19 20 20
REMARK H PARENT
REMARK Flexibility Score: inf
ROOT
ATOM      1  C   UNL     1     -24.828 -35.346 -12.044  1.00  0.00     0.000 C 
ENDROOT
BRANCH   1   2
ATOM      2  C   UNL     1     -25.511 -35.952 -13.280  1.00  0.00     0.000 C 
BRANCH   2   3
ATOM      3  C   UNL     1     -26.638 -35.038 -13.786  1.00  0.00     0.000 C 
BRANCH   3   4
ATOM      4  C   UNL     1     -27.882 -35.058 -12.879  1.00  0.00     0.000 C 
BRANCH   4   5
ATOM      5  C   UNL     1     -28.165 -33.741 -12.132  1.00  0.00     0.000 C 
BRANCH   5   6
ATOM      6  C   UNL     1     -28.219 -32.520 -13.066  1.00  0.00     0.006 C 
BRANCH   6   7
ATOM      7  C   UNL     1     -27.082 -31.528 -12.788  1.00  0.00     0.053 C 
BRANCH   7   8
ATOM      8  C   UNL     1     -27.212 -30.907 -11.430  1.00  0.00     0.041 C 
ATOM      9  O   UNL     1     -28.173 -30.133 -11.176  1.00  0.00    -0.550 OA
ATOM     10  O   UNL     1     -26.292 -31.211 -10.435  1.00  0.00    -0.550 OA
ENDBRANCH   7   8
ENDBRANCH   6   7
ENDBRANCH   5   6
ENDBRANCH   4   5
ENDBRANCH   3   4
ENDBRANCH   2   3
ENDBRANCH   1   2
BRANCH   1  11
ATOM     11  C   UNL     1     -24.402 -33.884 -12.257  1.00  0.00     0.000 C 
BRANCH  11  12
ATOM     12  C   UNL     1     -22.894 -33.740 -12.531  1.00  0.00     0.000 C 
BRANCH  12  13
ATOM     13  C   UNL     1     -22.177 -35.098 -12.609  1.00  0.00     0.000 C 
BRANCH  13  14
ATOM     14  C   UNL     1     -20.782 -34.993 -13.249  1.00  0.00     0.000 C 
BRANCH  14  15
ATOM     15  C   UNL     1     -20.766 -34.070 -14.479  1.00  0.00     0.000 C 
BRANCH  15  16
ATOM     16  C   UNL     1     -19.609 -33.057 -14.446  1.00  0.00     0.006 C 
BRANCH  16  17
ATOM     17  C   UNL     1     -19.987 -31.772 -13.697  1.00  0.00     0.053 C 
BRANCH  17  18
ATOM     18  C   UNL     1     -21.011 -30.974 -14.444  1.00  0.00     0.041 C 
ATOM     19  O   UNL     1     -21.939 -30.392 -13.822  1.00  0.00    -0.550 OA
ATOM     20  O   UNL     1     -20.919 -30.842 -15.824  1.00  0.00    -0.550 OA
ENDBRANCH  17  18
ENDBRANCH  16  17
ENDBRANCH  15  16
ENDBRANCH  14  15
ENDBRANCH  13  14
ENDBRANCH  12  13
ENDBRANCH  11  12
ENDBRANCH   1  11
TORSDOF 15
ENDMDL
MODEL 8
REMARK VINA RESULT:    -4.442      1.933      3.642
REMARK INTER + INTRA:         -10.206
REMARK INTER:                  -8.721
REMARK INTRA:                  -1.485
REMARK UNBOUND:                -1.869
REMARK SMILES O=C([O-])CCCCCCCCCCCCCCC(=O)[O-]
REMARK SMILES IDX 10 1 9 2 8 3 7 4 6 5 5 6 4 7 2 8 1 9 3 10 11 11 12 12 13 13
REMARK SMILES IDX 14 14 15 15 16 16 17 17 18 18 19 19 20 20
REMARK H PARENT
REMARK Flexibility Score: inf
ROOT
ATOM      1  C   UNL     1     -23.667 -34.478 -12.624  1.00  0.00     0.000 C 
ENDROOT
BRANCH   1   2
ATOM      2  C   UNL     1     -24.842 -35.468 -12.614  1.00  0.00     0.000 C 
BRANCH   2   3
ATOM      3  C   UNL     1     -25.994 -34.944 -11.742  1.00  0.00     0.000 C 
BRANCH   3   4
ATOM      4  C   UNL     1     -27.311 -34.777 -12.522  1.00  0.00     0.000 C 
BRANCH   4   5
ATOM      5  C   UNL     1     -28.161 -33.562 -12.111  1.00  0.00     0.000 C 
BRANCH   5   6
ATOM      6  C   UNL     1     -28.250 -32.490 -13.210  1.00  0.00     0.006 C 
BRANCH   6   7
ATOM      7  C   UNL     1     -28.267 -31.069 -12.632  1.00  0.00     0.053 C 
BRANCH   7   8
ATOM      8  C   UNL     1     -26.918 -30.665 -12.119  1.00  0.00     0.041 C 
ATOM      9  O   UNL     1     -26.666 -30.722 -10.886  1.00  0.00    -0.550 OA
ATOM     10  O   UNL     1     -25.930 -30.259 -13.006  1.00  0.00    -0.550 OA
ENDBRANCH   7   8
ENDBRANCH   6   7
ENDBRANCH   5   6
ENDBRANCH   4   5
ENDBRANCH   3   4
ENDBRANCH   2   3
ENDBRANCH   1   2
BRANCH   1  11
ATOM     11  C   UNL     1     -24.021 -33.129 -11.977  1.00  0.00     0.000 C 
BRANCH  11  12
ATOM     12  C   UNL     1     -22.781 -32.258 -11.707  1.00  0.00     0.000 C 
BRANCH  12  13
ATOM     13  C   UNL     1     -22.232 -31.602 -12.984  1.00  0.00     0.000 C 
BRANCH  13  14
ATOM     14  C   UNL     1     -20.805 -32.068 -13.322  1.00  0.00     0.000 C 
BRANCH  14  15
ATOM     15  C   UNL     1     -20.744 -32.882 -14.625  1.00  0.00     0.000 C 
BRANCH  15  16
ATOM     16  C   UNL     1     -20.370 -34.355 -14.387  1.00  0.00     0.006 C 
BRANCH  16  17
ATOM     17  C   UNL     1     -19.402 -34.524 -13.209  1.00  0.00     0.053 C 
BRANCH  17  18
ATOM     18  C   UNL     1     -19.665 -35.789 -12.451  1.00  0.00     0.041 C 
ATOM     19  O   UNL     1     -18.886 -36.771 -12.567  1.00  0.00    -0.550 OA
ATOM     20  O   UNL     1     -20.750 -35.870 -11.588  1.00  0.00    -0.550 OA
ENDBRANCH  17  18
ENDBRANCH  16  17
ENDBRANCH  15  16
ENDBRANCH  14  15
ENDBRANCH  13  14
ENDBRANCH  12  13
ENDBRANCH  11  12
ENDBRANCH   1  11
TORSDOF 15
ENDMDL
MODEL 9
REMARK VINA RESULT:    -4.388      2.225      6.418
REMARK INTER + INTRA:         -10.105
REMARK INTER:                  -8.787
REMARK INTRA:                  -1.318
REMARK UNBOUND:                -1.869
REMARK SMILES O=C([O-])CCCCCCCCCCCCCCC(=O)[O-]
REMARK SMILES IDX 10 1 9 2 8 3 7 4 6 5 5 6 4 7 2 8 1 9 3 10 11 11 12 12 13 13
REMARK SMILES IDX 14 14 15 15 16 16 17 17 18 18 19 19 20 20
REMARK H PARENT
REMARK Flexibility Score: inf
ROOT
ATOM      1  C   UNL     1     -22.801 -32.183 -11.652  1.00  0.00     0.000 C 
ENDROOT
BRANCH   1   2
ATOM      2  C   UNL     1     -22.205 -31.240 -12.708  1.00  0.00     0.000 C 
BRANCH   2   3
ATOM      3  C   UNL     1     -20.818 -31.725 -13.156  1.00  0.00     0.000 C 
BRANCH   3   4
ATOM      4  C   UNL     1     -20.783 -32.167 -14.631  1.00  0.00     0.000 C 
BRANCH   4   5
ATOM      5  C   UNL     1     -20.540 -33.671 -14.854  1.00  0.00     0.000 C 
BRANCH   5   6
ATOM      6  C   UNL     1     -19.378 -34.224 -14.012  1.00  0.00     0.006 C 
BRANCH   6   7
ATOM      7  C   UNL     1     -19.738 -35.551 -13.330  1.00  0.00     0.053 C 
BRANCH   7   8
ATOM      8  C   UNL     1     -20.614 -35.337 -12.134  1.00  0.00     0.041 C 
ATOM      9  O   UNL     1     -21.752 -35.876 -12.077  1.00  0.00    -0.550 OA
ATOM     10  O   UNL     1     -20.161 -34.573 -11.067  1.00  0.00    -0.550 OA
ENDBRANCH   7   8
ENDBRANCH   6   7
ENDBRANCH   5   6
ENDBRANCH   4   5
ENDBRANCH   3   4
ENDBRANCH   2   3
ENDBRANCH   1   2
BRANCH   1  11
ATOM     11  C   UNL     1     -23.834 -33.159 -12.240  1.00  0.00     0.000 C 
BRANCH  11  12
ATOM     12  C   UNL     1     -25.187 -33.101 -11.509  1.00  0.00     0.000 C 
BRANCH  12  13
ATOM     13  C   UNL     1     -25.923 -34.451 -11.523  1.00  0.00     0.000 C 
BRANCH  13  14
ATOM     14  C   UNL     1     -26.505 -34.790 -12.907  1.00  0.00     0.000 C 
BRANCH  14  15
ATOM     15  C   UNL     1     -27.203 -33.588 -13.564  1.00  0.00     0.000 C 
BRANCH  15  16
ATOM     16  C   UNL     1     -28.399 -33.075 -12.745  1.00  0.00     0.006 C 
BRANCH  16  17
ATOM     17  C   UNL     1     -28.742 -31.616 -13.073  1.00  0.00     0.053 C 
BRANCH  17  18
ATOM     18  C   UNL     1     -27.821 -30.659 -12.380  1.00  0.00     0.041 C 
ATOM     19  O   UNL     1     -28.081 -30.260 -11.215  1.00  0.00    -0.550 OA
ATOM     20  O   UNL     1     -26.656 -30.236 -13.008  1.00  0.00    -0.550 OA
ENDBRANCH  17  18
ENDBRANCH  16  17
ENDBRANCH  15  16
ENDBRANCH  14  15
ENDBRANCH  13  14
ENDBRANCH  12  13
ENDBRANCH  11  12
ENDBRANCH   1  11
TORSDOF 15
ENDMDL
