MODEL 1
REMARK VINA RESULT:    -6.292      0.000      0.000
REMARK INTER + INTRA:          -7.027
REMARK INTER:                  -7.027
REMARK INTRA:                   0.000
REMARK UNBOUND:                 0.000
REMARK SMILES Oc1cc(O)c2c(ccc3ccc(O)c(O)c32)c1
REMARK SMILES IDX 9 1 8 2 7 3 18 4 2 5 3 6 4 7 6 8 17 9 10 10 11 11 12 12
REMARK SMILES IDX 13 13 15 14 16 15 1 17 5 19 14 21
REMARK H PARENT 16 16 1 18 5 20 14 22
REMARK Flexibility Score: inf
ROOT
ATOM      1  C   UNL     1    -112.028  22.798  24.365  1.00  0.00     0.009 A 
ATOM      2  C   UNL     1    -111.034  22.567  25.308  1.00  0.00     0.009 A 
ATOM      3  C   UNL     1    -109.695  22.840  25.007  1.00  0.00    -0.010 A 
ATOM      4  C   UNL     1    -108.722  22.667  26.003  1.00  0.00     0.055 A 
ATOM      5  C   UNL     1    -107.404  23.054  25.775  1.00  0.00     0.119 A 
ATOM      6  C   UNL     1    -107.062  23.672  24.570  1.00  0.00     0.093 A 
ATOM      7  C   UNL     1    -108.026  23.871  23.570  1.00  0.00     0.127 A 
ATOM      8  C   UNL     1    -109.335  23.331  23.720  1.00  0.00     0.035 A 
ATOM      9  C   UNL     1    -110.330  23.348  22.690  1.00  0.00     0.039 A 
ATOM     10  C   UNL     1    -111.693  23.178  23.061  1.00  0.00    -0.014 A 
ATOM     11  C   UNL     1    -112.710  23.341  22.114  1.00  0.00     0.013 A 
ATOM     12  C   UNL     1    -112.397  23.618  20.788  1.00  0.00     0.051 A 
ATOM     13  C   UNL     1    -111.070  23.642  20.366  1.00  0.00     0.158 A 
ATOM     14  C   UNL     1    -110.030  23.415  21.299  1.00  0.00     0.166 A 
ENDROOT
BRANCH  14  15
ATOM     15  O   UNL     1    -108.737  23.132  20.851  1.00  0.00    -0.504 OA
ATOM     16  H   UNL     1    -108.526  22.775  19.930  1.00  0.00     0.293 HD
ENDBRANCH  14  15
BRANCH   5  17
ATOM     17  O   UNL     1    -106.447  22.855  26.767  1.00  0.00    -0.508 OA
ATOM     18  H   UNL     1    -105.459  22.800  26.548  1.00  0.00     0.293 HD
ENDBRANCH   5  17
BRANCH   7  19
ATOM     19  O   UNL     1    -107.697  24.689  22.488  1.00  0.00    -0.507 OA
ATOM     20  H   UNL     1    -108.346  25.371  22.115  1.00  0.00     0.293 HD
ENDBRANCH   7  19
BRANCH  13  21
ATOM     21  O   UNL     1    -110.819  23.887  19.014  1.00  0.00    -0.504 OA
ATOM     22  H   UNL     1    -109.976  23.591  18.542  1.00  0.00     0.293 HD
ENDBRANCH  13  21
TORSDOF 4
ENDMDL
MODEL 2
REMARK VINA RESULT:    -5.843      0.832      4.961
REMARK INTER + INTRA:          -6.526
REMARK INTER:                  -6.526
REMARK INTRA:                   0.000
REMARK UNBOUND:                 0.000
REMARK SMILES Oc1cc(O)c2c(ccc3ccc(O)c(O)c32)c1
REMARK SMILES IDX 9 1 8 2 7 3 18 4 2 5 3 6 4 7 6 8 17 9 10 10 11 11 12 12
REMARK SMILES IDX 13 13 15 14 16 15 1 17 5 19 14 21
REMARK H PARENT 16 16 1 18 5 20 14 22
REMARK Flexibility Score: inf
ROOT
ATOM      1  C   UNL     1    -111.485  22.595  25.023  1.00  0.00     0.009 A 
ATOM      2  C   UNL     1    -112.331  22.895  23.963  1.00  0.00     0.009 A 
ATOM      3  C   UNL     1    -111.806  23.261  22.719  1.00  0.00    -0.010 A 
ATOM      4  C   UNL     1    -112.681  23.486  21.646  1.00  0.00     0.055 A 
ATOM      5  C   UNL     1    -112.183  23.723  20.367  1.00  0.00     0.119 A 
ATOM      6  C   UNL     1    -110.806  23.675  20.141  1.00  0.00     0.093 A 
ATOM      7  C   UNL     1    -109.916  23.431  21.197  1.00  0.00     0.127 A 
ATOM      8  C   UNL     1    -110.397  23.356  22.535  1.00  0.00     0.035 A 
ATOM      9  C   UNL     1    -109.548  23.268  23.686  1.00  0.00     0.039 A 
ATOM     10  C   UNL     1    -110.104  22.783  24.902  1.00  0.00    -0.014 A 
ATOM     11  C   UNL     1    -109.281  22.533  26.007  1.00  0.00     0.013 A 
ATOM     12  C   UNL     1    -107.920  22.809  25.945  1.00  0.00     0.051 A 
ATOM     13  C   UNL     1    -107.374  23.423  24.819  1.00  0.00     0.158 A 
ATOM     14  C   UNL     1    -108.205  23.742  23.719  1.00  0.00     0.166 A 
ENDROOT
BRANCH  14  15
ATOM     15  O   UNL     1    -107.751  24.618  22.730  1.00  0.00    -0.504 OA
ATOM     16  H   UNL     1    -106.842  25.059  22.742  1.00  0.00     0.293 HD
ENDBRANCH  14  15
BRANCH   5  17
ATOM     17  O   UNL     1    -113.067  23.966  19.319  1.00  0.00    -0.508 OA
ATOM     18  H   UNL     1    -113.418  23.214  18.736  1.00  0.00     0.293 HD
ENDBRANCH   5  17
BRANCH   7  19
ATOM     19  O   UNL     1    -108.581  23.167  20.888  1.00  0.00    -0.507 OA
ATOM     20  H   UNL     1    -107.910  22.898  21.598  1.00  0.00     0.293 HD
ENDBRANCH   7  19
BRANCH  13  21
ATOM     21  O   UNL     1    -106.008  23.711  24.831  1.00  0.00    -0.504 OA
ATOM     22  H   UNL     1    -105.630  24.628  24.633  1.00  0.00     0.293 HD
ENDBRANCH  13  21
TORSDOF 4
ENDMDL
MODEL 3
REMARK VINA RESULT:    -5.624      9.378     11.517
REMARK INTER + INTRA:          -6.282
REMARK INTER:                  -6.282
REMARK INTRA:                   0.000
REMARK UNBOUND:                 0.000
REMARK SMILES Oc1cc(O)c2c(ccc3ccc(O)c(O)c32)c1
REMARK SMILES IDX 9 1 8 2 7 3 18 4 2 5 3 6 4 7 6 8 17 9 10 10 11 11 12 12
REMARK SMILES IDX 13 13 15 14 16 15 1 17 5 19 14 21
REMARK H PARENT 16 16 1 18 5 20 14 22
REMARK Flexibility Score: inf
ROOT
ATOM      1  C   UNL     1    -103.495  22.194  11.875  1.00  0.00     0.009 A 
ATOM      2  C   UNL     1    -104.271  21.085  12.188  1.00  0.00     0.009 A 
ATOM      3  C   UNL     1    -104.791  20.924  13.476  1.00  0.00    -0.010 A 
ATOM      4  C   UNL     1    -105.633  19.834  13.743  1.00  0.00     0.055 A 
ATOM      5  C   UNL     1    -106.269  19.719  14.977  1.00  0.00     0.119 A 
ATOM      6  C   UNL     1    -106.114  20.726  15.931  1.00  0.00     0.093 A 
ATOM      7  C   UNL     1    -105.293  21.834  15.675  1.00  0.00     0.127 A 
ATOM      8  C   UNL     1    -104.506  21.882  14.490  1.00  0.00     0.035 A 
ATOM      9  C   UNL     1    -103.525  22.892  14.222  1.00  0.00     0.039 A 
ATOM     10  C   UNL     1    -103.111  23.094  12.876  1.00  0.00    -0.014 A 
ATOM     11  C   UNL     1    -102.276  24.167  12.545  1.00  0.00     0.013 A 
ATOM     12  C   UNL     1    -101.798  25.016  13.537  1.00  0.00     0.051 A 
ATOM     13  C   UNL     1    -102.065  24.754  14.879  1.00  0.00     0.158 A 
ATOM     14  C   UNL     1    -102.855  23.636  15.235  1.00  0.00     0.166 A 
ENDROOT
BRANCH  14  15
ATOM     15  O   UNL     1    -102.877  23.187  16.558  1.00  0.00    -0.504 OA
ATOM     16  H   UNL     1    -103.293  23.702  17.321  1.00  0.00     0.293 HD
ENDBRANCH  14  15
BRANCH   5  17
ATOM     17  O   UNL     1    -107.083  18.619  15.231  1.00  0.00    -0.508 OA
ATOM     18  H   UNL     1    -107.398  18.397  16.169  1.00  0.00     0.293 HD
ENDBRANCH   5  17
BRANCH   7  19
ATOM     19  O   UNL     1    -105.350  22.916  16.555  1.00  0.00    -0.507 OA
ATOM     20  H   UNL     1    -104.606  23.109  17.216  1.00  0.00     0.293 HD
ENDBRANCH   7  19
BRANCH  13  21
ATOM     21  O   UNL     1    -101.524  25.620  15.832  1.00  0.00    -0.504 OA
ATOM     22  H   UNL     1    -101.813  25.633  16.801  1.00  0.00     0.293 HD
ENDBRANCH  13  21
TORSDOF 4
ENDMDL
MODEL 4
REMARK VINA RESULT:    -5.352      8.228      9.660
REMARK INTER + INTRA:          -5.978
REMARK INTER:                  -5.978
REMARK INTRA:                   0.000
REMARK UNBOUND:                 0.000
REMARK SMILES Oc1cc(O)c2c(ccc3ccc(O)c(O)c32)c1
REMARK SMILES IDX 9 1 8 2 7 3 18 4 2 5 3 6 4 7 6 8 17 9 10 10 11 11 12 12
REMARK SMILES IDX 13 13 15 14 16 15 1 17 5 19 14 21
REMARK H PARENT 16 16 1 18 5 20 14 22
REMARK Flexibility Score: inf
ROOT
ATOM      1  C   UNL     1    -110.306  32.026  27.790  1.00  0.00     0.009 A 
ATOM      2  C   UNL     1    -111.555  32.125  27.191  1.00  0.00     0.009 A 
ATOM      3  C   UNL     1    -111.725  31.786  25.844  1.00  0.00    -0.010 A 
ATOM      4  C   UNL     1    -113.011  31.824  25.286  1.00  0.00     0.055 A 
ATOM      5  C   UNL     1    -113.230  31.368  23.988  1.00  0.00     0.119 A 
ATOM      6  C   UNL     1    -112.175  30.814  23.262  1.00  0.00     0.093 A 
ATOM      7  C   UNL     1    -110.886  30.748  23.811  1.00  0.00     0.127 A 
ATOM      8  C   UNL     1    -110.611  31.362  25.066  1.00  0.00     0.035 A 
ATOM      9  C   UNL     1    -109.297  31.482  25.626  1.00  0.00     0.039 A 
ATOM     10  C   UNL     1    -109.176  31.716  27.024  1.00  0.00    -0.014 A 
ATOM     11  C   UNL     1    -107.920  31.685  27.641  1.00  0.00     0.013 A 
ATOM     12  C   UNL     1    -106.772  31.481  26.885  1.00  0.00     0.051 A 
ATOM     13  C   UNL     1    -106.846  31.398  25.496  1.00  0.00     0.158 A 
ATOM     14  C   UNL     1    -108.102  31.492  24.851  1.00  0.00     0.166 A 
ENDROOT
BRANCH  14  15
ATOM     15  O   UNL     1    -108.167  31.718  23.474  1.00  0.00    -0.504 OA
ATOM     16  H   UNL     1    -108.931  31.412  22.888  1.00  0.00     0.293 HD
ENDBRANCH  14  15
BRANCH   5  17
ATOM     17  O   UNL     1    -114.510  31.434  23.443  1.00  0.00    -0.508 OA
ATOM     18  H   UNL     1    -114.814  30.789  22.722  1.00  0.00     0.293 HD
ENDBRANCH   5  17
BRANCH   7  19
ATOM     19  O   UNL     1    -109.922  29.987  23.147  1.00  0.00    -0.507 OA
ATOM     20  H   UNL     1    -109.927  28.974  23.175  1.00  0.00     0.293 HD
ENDBRANCH   7  19
BRANCH  13  21
ATOM     21  O   UNL     1    -105.654  31.232  24.788  1.00  0.00    -0.504 OA
ATOM     22  H   UNL     1    -105.075  30.406  24.858  1.00  0.00     0.293 HD
ENDBRANCH  13  21
TORSDOF 4
ENDMDL
MODEL 5
REMARK VINA RESULT:    -5.224      9.281     11.264
REMARK INTER + INTRA:          -5.835
REMARK INTER:                  -5.835
REMARK INTRA:                   0.000
REMARK UNBOUND:                 0.000
REMARK SMILES Oc1cc(O)c2c(ccc3ccc(O)c(O)c32)c1
REMARK SMILES IDX 9 1 8 2 7 3 18 4 2 5 3 6 4 7 6 8 17 9 10 10 11 11 12 12
REMARK SMILES IDX 13 13 15 14 16 15 1 17 5 19 14 21
REMARK H PARENT 16 16 1 18 5 20 14 22
REMARK Flexibility Score: inf
ROOT
ATOM      1  C   UNL     1    -104.562  20.486  12.298  1.00  0.00     0.009 A 
ATOM      2  C   UNL     1    -103.876  21.617  11.876  1.00  0.00     0.009 A 
ATOM      3  C   UNL     1    -103.530  22.619  12.789  1.00  0.00    -0.010 A 
ATOM      4  C   UNL     1    -102.772  23.714  12.348  1.00  0.00     0.055 A 
ATOM      5  C   UNL     1    -102.302  24.658  13.258  1.00  0.00     0.119 A 
ATOM      6  C   UNL     1    -102.536  24.480  14.623  1.00  0.00     0.093 A 
ATOM      7  C   UNL     1    -103.274  23.380  15.085  1.00  0.00     0.127 A 
ATOM      8  C   UNL     1    -103.903  22.501  14.158  1.00  0.00     0.035 A 
ATOM      9  C   UNL     1    -104.801  21.451  14.536  1.00  0.00     0.039 A 
ATOM     10  C   UNL     1    -105.034  20.394  13.612  1.00  0.00    -0.014 A 
ATOM     11  C   UNL     1    -105.778  19.271  13.994  1.00  0.00     0.013 A 
ATOM     12  C   UNL     1    -106.343  19.202  15.262  1.00  0.00     0.051 A 
ATOM     13  C   UNL     1    -106.258  20.286  16.133  1.00  0.00     0.158 A 
ATOM     14  C   UNL     1    -105.564  21.454  15.738  1.00  0.00     0.166 A 
ENDROOT
BRANCH  14  15
ATOM     15  O   UNL     1    -105.727  22.641  16.456  1.00  0.00    -0.504 OA
ATOM     16  H   UNL     1    -106.229  22.706  17.331  1.00  0.00     0.293 HD
ENDBRANCH  14  15
BRANCH   5  17
ATOM     17  O   UNL     1    -101.570  25.750  12.799  1.00  0.00    -0.508 OA
ATOM     18  H   UNL     1    -100.563  25.798  12.908  1.00  0.00     0.293 HD
ENDBRANCH   5  17
BRANCH   7  19
ATOM     19  O   UNL     1    -103.287  23.122  16.456  1.00  0.00    -0.507 OA
ATOM     20  H   UNL     1    -102.589  22.534  16.897  1.00  0.00     0.293 HD
ENDBRANCH   7  19
BRANCH  13  21
ATOM     21  O   UNL     1    -106.880  20.172  17.378  1.00  0.00    -0.504 OA
ATOM     22  H   UNL     1    -107.155  19.289  17.785  1.00  0.00     0.293 HD
ENDBRANCH  13  21
TORSDOF 4
ENDMDL
MODEL 6
REMARK VINA RESULT:    -5.150      8.880     10.802
REMARK INTER + INTRA:          -5.752
REMARK INTER:                  -5.752
REMARK INTRA:                   0.000
REMARK UNBOUND:                 0.000
REMARK SMILES Oc1cc(O)c2c(ccc3ccc(O)c(O)c32)c1
REMARK SMILES IDX 9 1 8 2 7 3 18 4 2 5 3 6 4 7 6 8 17 9 10 10 11 11 12 12
REMARK SMILES IDX 13 13 15 14 16 15 1 17 5 19 14 21
REMARK H PARENT 16 16 1 18 5 20 14 22
REMARK Flexibility Score: inf
ROOT
ATOM      1  C   UNL     1    -104.596  20.815  12.533  1.00  0.00     0.009 A 
ATOM      2  C   UNL     1    -105.366  20.170  13.492  1.00  0.00     0.009 A 
ATOM      3  C   UNL     1    -105.610  20.774  14.730  1.00  0.00    -0.010 A 
ATOM      4  C   UNL     1    -106.452  20.132  15.650  1.00  0.00     0.055 A 
ATOM      5  C   UNL     1    -106.818  20.768  16.835  1.00  0.00     0.119 A 
ATOM      6  C   UNL     1    -106.391  22.075  17.078  1.00  0.00     0.093 A 
ATOM      7  C   UNL     1    -105.566  22.741  16.160  1.00  0.00     0.127 A 
ATOM      8  C   UNL     1    -105.047  22.047  15.030  1.00  0.00     0.035 A 
ATOM      9  C   UNL     1    -104.076  22.596  14.132  1.00  0.00     0.039 A 
ATOM     10  C   UNL     1    -103.944  22.015  12.839  1.00  0.00    -0.014 A 
ATOM     11  C   UNL     1    -103.123  22.612  11.875  1.00  0.00     0.013 A 
ATOM     12  C   UNL     1    -102.385  23.747  12.188  1.00  0.00     0.051 A 
ATOM     13  C   UNL     1    -102.378  24.250  13.487  1.00  0.00     0.158 A 
ATOM     14  C   UNL     1    -103.153  23.620  14.490  1.00  0.00     0.166 A 
ENDROOT
BRANCH  14  15
ATOM     15  O   UNL     1    -102.925  23.912  15.837  1.00  0.00    -0.504 OA
ATOM     16  H   UNL     1    -102.745  23.212  16.542  1.00  0.00     0.293 HD
ENDBRANCH  14  15
BRANCH   5  17
ATOM     17  O   UNL     1    -107.637  20.107  17.746  1.00  0.00    -0.508 OA
ATOM     18  H   UNL     1    -108.407  19.522  17.440  1.00  0.00     0.293 HD
ENDBRANCH   5  17
BRANCH   7  19
ATOM     19  O   UNL     1    -105.355  24.110  16.333  1.00  0.00    -0.507 OA
ATOM     20  H   UNL     1    -105.090  24.712  15.562  1.00  0.00     0.293 HD
ENDBRANCH   7  19
BRANCH  13  21
ATOM     21  O   UNL     1    -101.586  25.370  13.749  1.00  0.00    -0.504 OA
ATOM     22  H   UNL     1    -100.850  25.381  14.442  1.00  0.00     0.293 HD
ENDBRANCH  13  21
TORSDOF 4
ENDMDL
MODEL 7
REMARK VINA RESULT:    -5.085      9.096     10.991
REMARK INTER + INTRA:          -5.680
REMARK INTER:                  -5.680
REMARK INTRA:                   0.000
REMARK UNBOUND:                 0.000
REMARK SMILES Oc1cc(O)c2c(ccc3ccc(O)c(O)c32)c1
REMARK SMILES IDX 9 1 8 2 7 3 18 4 2 5 3 6 4 7 6 8 17 9 10 10 11 11 12 12
REMARK SMILES IDX 13 13 15 14 16 15 1 17 5 19 14 21
REMARK H PARENT 16 16 1 18 5 20 14 22
REMARK Flexibility Score: inf
ROOT
ATOM      1  C   UNL     1    -102.760  23.501  12.366  1.00  0.00     0.009 A 
ATOM      2  C   UNL     1    -102.637  24.673  13.101  1.00  0.00     0.009 A 
ATOM      3  C   UNL     1    -103.366  24.849  14.281  1.00  0.00    -0.010 A 
ATOM      4  C   UNL     1    -103.167  26.010  15.042  1.00  0.00     0.055 A 
ATOM      5  C   UNL     1    -103.779  26.153  16.285  1.00  0.00     0.119 A 
ATOM      6  C   UNL     1    -104.548  25.109  16.802  1.00  0.00     0.093 A 
ATOM      7  C   UNL     1    -104.743  23.932  16.065  1.00  0.00     0.127 A 
ATOM      8  C   UNL     1    -104.265  23.838  14.727  1.00  0.00     0.035 A 
ATOM      9  C   UNL     1    -104.554  22.743  13.850  1.00  0.00     0.039 A 
ATOM     10  C   UNL     1    -103.712  22.539  12.721  1.00  0.00    -0.014 A 
ATOM     11  C   UNL     1    -103.859  21.396  11.926  1.00  0.00     0.013 A 
ATOM     12  C   UNL     1    -104.864  20.476  12.198  1.00  0.00     0.051 A 
ATOM     13  C   UNL     1    -105.796  20.725  13.204  1.00  0.00     0.158 A 
ATOM     14  C   UNL     1    -105.700  21.907  13.975  1.00  0.00     0.166 A 
ENDROOT
BRANCH  14  15
ATOM     15  O   UNL     1    -106.779  22.318  14.762  1.00  0.00    -0.504 OA
ATOM     16  H   UNL     1    -107.483  21.691  15.124  1.00  0.00     0.293 HD
ENDBRANCH  14  15
BRANCH   5  17
ATOM     17  O   UNL     1    -103.586  27.323  17.016  1.00  0.00    -0.508 OA
ATOM     18  H   UNL     1    -102.972  27.349  17.822  1.00  0.00     0.293 HD
ENDBRANCH   5  17
BRANCH   7  19
ATOM     19  O   UNL     1    -105.320  22.837  16.709  1.00  0.00    -0.507 OA
ATOM     20  H   UNL     1    -104.903  22.418  17.532  1.00  0.00     0.293 HD
ENDBRANCH   7  19
BRANCH  13  21
ATOM     21  O   UNL     1    -106.807  19.782  13.404  1.00  0.00    -0.504 OA
ATOM     22  H   UNL     1    -106.804  18.864  12.981  1.00  0.00     0.293 HD
ENDBRANCH  13  21
TORSDOF 4
ENDMDL
MODEL 8
REMARK VINA RESULT:    -4.982      8.327      9.696
REMARK INTER + INTRA:          -5.564
REMARK INTER:                  -5.564
REMARK INTRA:                   0.000
REMARK UNBOUND:                 0.000
REMARK SMILES Oc1cc(O)c2c(ccc3ccc(O)c(O)c32)c1
REMARK SMILES IDX 9 1 8 2 7 3 18 4 2 5 3 6 4 7 6 8 17 9 10 10 11 11 12 12
REMARK SMILES IDX 13 13 15 14 16 15 1 17 5 19 14 21
REMARK H PARENT 16 16 1 18 5 20 14 22
REMARK Flexibility Score: inf
ROOT
ATOM      1  C   UNL     1    -103.808  17.151  15.790  1.00  0.00     0.009 A 
ATOM      2  C   UNL     1    -104.015  16.902  17.141  1.00  0.00     0.009 A 
ATOM      3  C   UNL     1    -105.157  17.388  17.785  1.00  0.00    -0.010 A 
ATOM      4  C   UNL     1    -105.376  17.057  19.130  1.00  0.00     0.055 A 
ATOM      5  C   UNL     1    -106.566  17.416  19.760  1.00  0.00     0.119 A 
ATOM      6  C   UNL     1    -107.570  18.056  19.030  1.00  0.00     0.093 A 
ATOM      7  C   UNL     1    -107.377  18.376  17.678  1.00  0.00     0.127 A 
ATOM      8  C   UNL     1    -106.108  18.169  17.068  1.00  0.00     0.035 A 
ATOM      9  C   UNL     1    -105.775  18.610  15.746  1.00  0.00     0.039 A 
ATOM     10  C   UNL     1    -104.669  18.003  15.088  1.00  0.00    -0.014 A 
ATOM     11  C   UNL     1    -104.401  18.288  13.744  1.00  0.00     0.013 A 
ATOM     12  C   UNL     1    -105.180  19.210  13.053  1.00  0.00     0.051 A 
ATOM     13  C   UNL     1    -106.174  19.929  13.713  1.00  0.00     0.158 A 
ATOM     14  C   UNL     1    -106.415  19.699  15.088  1.00  0.00     0.166 A 
ENDROOT
BRANCH  14  15
ATOM     15  O   UNL     1    -107.177  20.607  15.827  1.00  0.00    -0.504 OA
ATOM     16  H   UNL     1    -106.782  21.301  16.447  1.00  0.00     0.293 HD
ENDBRANCH  14  15
BRANCH   5  17
ATOM     17  O   UNL     1    -106.756  17.098  21.102  1.00  0.00    -0.508 OA
ATOM     18  H   UNL     1    -106.896  16.141  21.406  1.00  0.00     0.293 HD
ENDBRANCH   5  17
BRANCH   7  19
ATOM     19  O   UNL     1    -108.480  18.802  16.936  1.00  0.00    -0.507 OA
ATOM     20  H   UNL     1    -108.391  19.119  15.978  1.00  0.00     0.293 HD
ENDBRANCH   7  19
BRANCH  13  21
ATOM     21  O   UNL     1    -106.897  20.869  12.976  1.00  0.00    -0.504 OA
ATOM     22  H   UNL     1    -106.509  21.385  12.198  1.00  0.00     0.293 HD
ENDBRANCH  13  21
TORSDOF 4
ENDMDL
MODEL 9
REMARK VINA RESULT:    -4.944      8.253     10.388
REMARK INTER + INTRA:          -5.522
REMARK INTER:                  -5.522
REMARK INTRA:                   0.000
REMARK UNBOUND:                 0.000
REMARK SMILES Oc1cc(O)c2c(ccc3ccc(O)c(O)c32)c1
REMARK SMILES IDX 9 1 8 2 7 3 18 4 2 5 3 6 4 7 6 8 17 9 10 10 11 11 12 12
REMARK SMILES IDX 13 13 15 14 16 15 1 17 5 19 14 21
REMARK H PARENT 16 16 1 18 5 20 14 22
REMARK Flexibility Score: inf
ROOT
ATOM      1  C   UNL     1    -103.909  17.079  16.730  1.00  0.00     0.009 A 
ATOM      2  C   UNL     1    -103.838  17.626  15.455  1.00  0.00     0.009 A 
ATOM      3  C   UNL     1    -104.796  18.549  15.025  1.00  0.00    -0.010 A 
ATOM      4  C   UNL     1    -104.657  19.140  13.761  1.00  0.00     0.055 A 
ATOM      5  C   UNL     1    -105.519  20.157  13.359  1.00  0.00     0.119 A 
ATOM      6  C   UNL     1    -106.490  20.632  14.243  1.00  0.00     0.093 A 
ATOM      7  C   UNL     1    -106.631  20.067  15.520  1.00  0.00     0.127 A 
ATOM      8  C   UNL     1    -105.872  18.918  15.881  1.00  0.00     0.035 A 
ATOM      9  C   UNL     1    -106.064  18.183  17.096  1.00  0.00     0.039 A 
ATOM     10  C   UNL     1    -105.011  17.341  17.552  1.00  0.00    -0.014 A 
ATOM     11  C   UNL     1    -105.089  16.727  18.807  1.00  0.00     0.013 A 
ATOM     12  C   UNL     1    -106.219  16.889  19.599  1.00  0.00     0.051 A 
ATOM     13  C   UNL     1    -107.326  17.585  19.117  1.00  0.00     0.158 A 
ATOM     14  C   UNL     1    -107.288  18.158  17.823  1.00  0.00     0.166 A 
ENDROOT
BRANCH  14  15
ATOM     15  O   UNL     1    -108.470  18.582  17.211  1.00  0.00    -0.504 OA
ATOM     16  H   UNL     1    -108.511  18.995  16.290  1.00  0.00     0.293 HD
ENDBRANCH  14  15
BRANCH   5  17
ATOM     17  O   UNL     1    -105.379  20.717  12.091  1.00  0.00    -0.508 OA
ATOM     18  H   UNL     1    -105.843  21.583  11.839  1.00  0.00     0.293 HD
ENDBRANCH   5  17
BRANCH   7  19
ATOM     19  O   UNL     1    -107.451  20.717  16.443  1.00  0.00    -0.507 OA
ATOM     20  H   UNL     1    -107.886  21.610  16.239  1.00  0.00     0.293 HD
ENDBRANCH   7  19
BRANCH  13  21
ATOM     21  O   UNL     1    -108.447  17.681  19.943  1.00  0.00    -0.504 OA
ATOM     22  H   UNL     1    -108.659  17.015  20.674  1.00  0.00     0.293 HD
ENDBRANCH  13  21
TORSDOF 4
ENDMDL
