MODEL 1
REMARK VINA RESULT:    -2.995      0.000      0.000
REMARK INTER + INTRA:          -4.636
REMARK INTER:                  -4.571
REMARK INTRA:                  -0.065
REMARK UNBOUND:                -0.065
REMARK SMILES CC1=CCC[C@@H](C)C(=O)C[C@H](C(C)C)C(=O)C1
REMARK SMILES IDX 8 1 9 2 6 3 7 4 5 5 4 6 3 7 2 8 1 9 10 11 11 12 15 13 16 14
REMARK SMILES IDX 17 15 12 17 13 18 14 19
REMARK H PARENT
REMARK Flexibility Score: 70.00
ROOT
ATOM      1  C   UNL     1      -6.680  -5.242   3.333  1.00  0.00     0.136 C 
ATOM      2  O   UNL     1      -6.419  -5.102   2.147  1.00  0.00    -0.299 OA
ENDROOT
BRANCH   1   3
ATOM      3  C   UNL     1      -8.146  -5.348   3.735  1.00  0.00     0.053 C 
ATOM      4  C   UNL     1      -9.123  -5.595   2.571  1.00  0.00     0.016 C 
BRANCH   3   5
ATOM      5  C   UNL     1      -8.601  -4.151   4.611  1.00  0.00     0.015 C 
BRANCH   5   6
ATOM      6  C   UNL     1      -8.597  -4.415   6.132  1.00  0.00     0.028 C 
BRANCH   6   7
ATOM      7  C   UNL     1      -8.038  -3.236   6.900  1.00  0.00    -0.028 C 
ATOM      8  C   UNL     1      -6.742  -3.041   7.242  1.00  0.00    -0.070 CG0
ATOM      9  C   UNL     1      -6.391  -1.777   7.985  1.00  0.00     0.039 C 
ATOM     10  G   UNL     1      -5.641  -4.046   6.972  1.00  0.00     0.000 G0
ENDBRANCH   6   7
ENDBRANCH   5   6
ENDBRANCH   3   5
ENDBRANCH   1   3
BRANCH   1  11
ATOM     11  C   UNL     1      -5.524  -5.265   4.316  1.00  0.00     0.087 C 
BRANCH  11  12
ATOM     12  C   UNL     1      -4.846  -3.884   4.470  1.00  0.00     0.066 C 
BRANCH  12  13
ATOM     13  C   UNL     1      -4.699  -3.502   5.932  1.00  0.00     0.140 C 
ATOM     14  O   UNL     1      -3.784  -2.771   6.282  1.00  0.00    -0.299 OA
BRANCH  13  15
ATOM     15  C   UNL     1      -5.643  -4.042   6.973  1.00  0.00     0.106 CG0
ATOM     16  G   UNL     1      -6.749  -3.043   7.247  1.00  0.00     0.000 G0
ENDBRANCH  13  15
ENDBRANCH  12  13
BRANCH  12  17
ATOM     17  C   UNL     1      -3.504  -3.788   3.680  1.00  0.00    -0.006 C 
ATOM     18  C   UNL     1      -3.649  -3.271   2.239  1.00  0.00     0.008 C 
ATOM     19  C   UNL     1      -2.766  -5.136   3.680  1.00  0.00     0.008 C 
ENDBRANCH  12  17
ENDBRANCH  11  12
ENDBRANCH   1  11
TORSDOF 1
ENDMDL
MODEL 2
REMARK VINA RESULT:    -2.880     12.824     14.479
REMARK INTER + INTRA:          -4.460
REMARK INTER:                  -4.965
REMARK INTRA:                   0.505
REMARK UNBOUND:                -0.065
REMARK SMILES CC1=CCC[C@@H](C)C(=O)C[C@H](C(C)C)C(=O)C1
REMARK SMILES IDX 8 1 9 2 6 3 7 4 5 5 4 6 3 7 2 8 1 9 10 11 11 12 15 13 16 14
REMARK SMILES IDX 17 15 12 17 13 18 14 19
REMARK H PARENT
REMARK Flexibility Score: 70.00
ROOT
ATOM      1  C   UNL     1       2.132  -4.977  -5.093  1.00  0.00     0.136 C 
ATOM      2  O   UNL     1       2.132  -4.438  -6.191  1.00  0.00    -0.299 OA
ENDROOT
BRANCH   1   3
ATOM      3  C   UNL     1       2.640  -4.174  -3.901  1.00  0.00     0.053 C 
ATOM      4  C   UNL     1       2.157  -2.713  -3.849  1.00  0.00     0.016 C 
BRANCH   3   5
ATOM      5  C   UNL     1       4.180  -4.267  -3.747  1.00  0.00     0.015 C 
BRANCH   5   6
ATOM      6  C   UNL     1       4.684  -5.468  -2.918  1.00  0.00     0.028 C 
BRANCH   6   7
ATOM      7  C   UNL     1       5.520  -6.412  -3.757  1.00  0.00    -0.028 C 
ATOM      8  C   UNL     1       5.297  -7.735  -3.941  1.00  0.00    -0.070 CG0
ATOM      9  C   UNL     1       6.239  -8.490  -4.845  1.00  0.00     0.039 C 
ATOM     10  G   UNL     1       4.193  -8.506  -3.246  1.00  0.00     0.000 G0
ENDBRANCH   6   7
ENDBRANCH   5   6
ENDBRANCH   3   5
ENDBRANCH   1   3
BRANCH   1  11
ATOM     11  C   UNL     1       1.658  -6.416  -5.010  1.00  0.00     0.087 C 
BRANCH  11  12
ATOM     12  C   UNL     1       2.798  -7.433  -5.247  1.00  0.00     0.066 C 
BRANCH  12  13
ATOM     13  C   UNL     1       2.915  -8.410  -4.091  1.00  0.00     0.140 C 
ATOM     14  O   UNL     1       1.967  -9.124  -3.798  1.00  0.00    -0.299 OA
BRANCH  13  15
ATOM     15  C   UNL     1       4.172  -8.488  -3.266  1.00  0.00     0.106 CG0
ATOM     16  G   UNL     1       5.298  -7.744  -3.953  1.00  0.00     0.000 G0
ENDBRANCH  13  15
ENDBRANCH  12  13
BRANCH  12  17
ATOM     17  C   UNL     1       2.685  -8.143  -6.631  1.00  0.00    -0.006 C 
ATOM     18  C   UNL     1       3.767  -7.737  -7.646  1.00  0.00     0.008 C 
ATOM     19  C   UNL     1       1.291  -7.939  -7.245  1.00  0.00     0.008 C 
ENDBRANCH  12  17
ENDBRANCH  11  12
ENDBRANCH   1  11
TORSDOF 1
ENDMDL
MODEL 3
REMARK VINA RESULT:    -2.850      2.481      5.117
REMARK INTER + INTRA:          -4.415
REMARK INTER:                  -4.710
REMARK INTRA:                   0.296
REMARK UNBOUND:                -0.065
REMARK SMILES CC1=CCC[C@@H](C)C(=O)C[C@H](C(C)C)C(=O)C1
REMARK SMILES IDX 8 1 9 2 6 3 7 4 5 5 4 6 3 7 2 8 1 9 10 11 11 12 15 13 16 14
REMARK SMILES IDX 17 15 12 17 13 18 14 19
REMARK H PARENT
REMARK Flexibility Score: 70.00
ROOT
ATOM      1  C   UNL     1      -5.984  -4.507   5.542  1.00  0.00     0.136 C 
ATOM      2  O   UNL     1      -7.173  -4.260   5.682  1.00  0.00    -0.299 OA
ENDROOT
BRANCH   1   3
ATOM      3  C   UNL     1      -5.001  -3.879   6.523  1.00  0.00     0.053 C 
ATOM      4  C   UNL     1      -5.649  -3.158   7.720  1.00  0.00     0.016 C 
BRANCH   3   5
ATOM      5  C   UNL     1      -3.963  -2.972   5.812  1.00  0.00     0.015 C 
BRANCH   5   6
ATOM      6  C   UNL     1      -2.928  -3.720   4.944  1.00  0.00     0.028 C 
BRANCH   6   7
ATOM      7  C   UNL     1      -2.687  -3.008   3.629  1.00  0.00    -0.028 C 
ATOM      8  C   UNL     1      -3.113  -3.410   2.409  1.00  0.00    -0.070 CG0
ATOM      9  C   UNL     1      -2.788  -2.534   1.225  1.00  0.00     0.039 C 
ATOM     10  G   UNL     1      -3.845  -4.714   2.160  1.00  0.00     0.000 G0
ENDBRANCH   6   7
ENDBRANCH   5   6
ENDBRANCH   3   5
ENDBRANCH   1   3
BRANCH   1  11
ATOM     11  C   UNL     1      -5.576  -5.394   4.380  1.00  0.00     0.087 C 
BRANCH  11  12
ATOM     12  C   UNL     1      -6.301  -5.024   3.066  1.00  0.00     0.066 C 
BRANCH  12  13
ATOM     13  C   UNL     1      -5.330  -4.476   2.036  1.00  0.00     0.140 C 
ATOM     14  O   UNL     1      -5.749  -3.847   1.076  1.00  0.00    -0.299 OA
BRANCH  13  15
ATOM     15  C   UNL     1      -3.850  -4.727   2.155  1.00  0.00     0.106 CG0
ATOM     16  G   UNL     1      -3.115  -3.427   2.409  1.00  0.00     0.000 G0
ENDBRANCH  13  15
ENDBRANCH  12  13
BRANCH  12  17
ATOM     17  C   UNL     1      -7.172  -6.195   2.515  1.00  0.00    -0.006 C 
ATOM     18  C   UNL     1      -8.613  -6.224   3.052  1.00  0.00     0.008 C 
ATOM     19  C   UNL     1      -6.494  -7.551   2.763  1.00  0.00     0.008 C 
ENDBRANCH  12  17
ENDBRANCH  11  12
ENDBRANCH   1  11
TORSDOF 1
ENDMDL
MODEL 4
REMARK VINA RESULT:    -2.788      1.950      4.119
REMARK INTER + INTRA:          -4.320
REMARK INTER:                  -4.395
REMARK INTRA:                   0.075
REMARK UNBOUND:                -0.065
REMARK SMILES CC1=CCC[C@@H](C)C(=O)C[C@H](C(C)C)C(=O)C1
REMARK SMILES IDX 8 1 9 2 6 3 7 4 5 5 4 6 3 7 2 8 1 9 10 11 11 12 15 13 16 14
REMARK SMILES IDX 17 15 12 17 13 18 14 19
REMARK H PARENT
REMARK Flexibility Score: 70.00
ROOT
ATOM      1  C   UNL     1      -4.348  -4.174   1.963  1.00  0.00     0.136 C 
ATOM      2  O   UNL     1      -3.522  -4.992   1.585  1.00  0.00    -0.299 OA
ENDROOT
BRANCH   1   3
ATOM      3  C   UNL     1      -3.869  -2.758   2.261  1.00  0.00     0.053 C 
ATOM      4  C   UNL     1      -3.573  -1.897   1.019  1.00  0.00     0.016 C 
BRANCH   3   5
ATOM      5  C   UNL     1      -2.680  -2.740   3.257  1.00  0.00     0.015 C 
BRANCH   5   6
ATOM      6  C   UNL     1      -2.882  -3.586   4.532  1.00  0.00     0.028 C 
BRANCH   6   7
ATOM      7  C   UNL     1      -3.889  -2.951   5.468  1.00  0.00    -0.028 C 
ATOM      8  C   UNL     1      -4.966  -3.557   6.022  1.00  0.00    -0.070 CG0
ATOM      9  C   UNL     1      -5.829  -2.746   6.956  1.00  0.00     0.039 C 
ATOM     10  G   UNL     1      -5.382  -4.980   5.711  1.00  0.00     0.000 G0
ENDBRANCH   6   7
ENDBRANCH   5   6
ENDBRANCH   3   5
ENDBRANCH   1   3
BRANCH   1  11
ATOM     11  C   UNL     1      -5.781  -4.642   2.140  1.00  0.00     0.087 C 
BRANCH  11  12
ATOM     12  C   UNL     1      -5.927  -5.703   3.255  1.00  0.00     0.066 C 
BRANCH  12  13
ATOM     13  C   UNL     1      -6.331  -5.065   4.572  1.00  0.00     0.140 C 
ATOM     14  O   UNL     1      -7.440  -4.565   4.693  1.00  0.00    -0.299 OA
BRANCH  13  15
ATOM     15  C   UNL     1      -5.370  -4.999   5.729  1.00  0.00     0.106 CG0
ATOM     16  G   UNL     1      -4.999  -3.560   6.023  1.00  0.00     0.000 G0
ENDBRANCH  13  15
ENDBRANCH  12  13
BRANCH  12  17
ATOM     17  C   UNL     1      -6.863  -6.879   2.839  1.00  0.00    -0.006 C 
ATOM     18  C   UNL     1      -6.150  -8.035   2.117  1.00  0.00     0.008 C 
ATOM     19  C   UNL     1      -8.039  -6.376   1.987  1.00  0.00     0.008 C 
ENDBRANCH  12  17
ENDBRANCH  11  12
ENDBRANCH   1  11
TORSDOF 1
ENDMDL
MODEL 5
REMARK VINA RESULT:    -2.681      1.777      4.097
REMARK INTER + INTRA:          -4.156
REMARK INTER:                  -4.451
REMARK INTRA:                   0.295
REMARK UNBOUND:                -0.065
REMARK SMILES CC1=CCC[C@@H](C)C(=O)C[C@H](C(C)C)C(=O)C1
REMARK SMILES IDX 8 1 9 2 6 3 7 4 5 5 4 6 3 7 2 8 1 9 10 11 11 12 15 13 16 14
REMARK SMILES IDX 17 15 12 17 13 18 14 19
REMARK H PARENT
REMARK Flexibility Score: 70.00
ROOT
ATOM      1  C   UNL     1      -5.323  -3.664   6.485  1.00  0.00     0.136 C 
ATOM      2  O   UNL     1      -4.621  -4.149   7.361  1.00  0.00    -0.299 OA
ENDROOT
BRANCH   1   3
ATOM      3  C   UNL     1      -6.744  -3.251   6.852  1.00  0.00     0.053 C 
ATOM      4  C   UNL     1      -6.985  -3.017   8.354  1.00  0.00     0.016 C 
BRANCH   3   5
ATOM      5  C   UNL     1      -7.805  -4.210   6.251  1.00  0.00     0.015 C 
BRANCH   5   6
ATOM      6  C   UNL     1      -8.535  -3.676   5.000  1.00  0.00     0.028 C 
BRANCH   6   7
ATOM      7  C   UNL     1      -8.792  -4.778   3.994  1.00  0.00    -0.028 C 
ATOM      8  C   UNL     1      -7.891  -5.304   3.130  1.00  0.00    -0.070 CG0
ATOM      9  C   UNL     1      -8.349  -6.422   2.227  1.00  0.00     0.039 C 
ATOM     10  G   UNL     1      -6.472  -4.795   2.982  1.00  0.00     0.000 G0
ENDBRANCH   6   7
ENDBRANCH   5   6
ENDBRANCH   3   5
ENDBRANCH   1   3
BRANCH   1  11
ATOM     11  C   UNL     1      -4.734  -3.542   5.091  1.00  0.00     0.087 C 
BRANCH  11  12
ATOM     12  C   UNL     1      -4.330  -4.910   4.495  1.00  0.00     0.066 C 
BRANCH  12  13
ATOM     13  C   UNL     1      -5.507  -5.584   3.813  1.00  0.00     0.140 C 
ATOM     14  O   UNL     1      -5.668  -6.790   3.925  1.00  0.00    -0.299 OA
BRANCH  13  15
ATOM     15  C   UNL     1      -6.466  -4.794   2.962  1.00  0.00     0.106 CG0
ATOM     16  G   UNL     1      -7.879  -5.308   3.149  1.00  0.00     0.000 G0
ENDBRANCH  13  15
ENDBRANCH  12  13
BRANCH  12  17
ATOM     17  C   UNL     1      -3.072  -4.812   3.578  1.00  0.00    -0.006 C 
ATOM     18  C   UNL     1      -1.748  -5.172   4.272  1.00  0.00     0.008 C 
ATOM     19  C   UNL     1      -2.964  -3.420   2.936  1.00  0.00     0.008 C 
ENDBRANCH  12  17
ENDBRANCH  11  12
ENDBRANCH   1  11
TORSDOF 1
ENDMDL
MODEL 6
REMARK VINA RESULT:    -2.668      1.533      1.781
REMARK INTER + INTRA:          -4.136
REMARK INTER:                  -4.740
REMARK INTRA:                   0.604
REMARK UNBOUND:                -0.065
REMARK SMILES CC1=CCC[C@@H](C)C(=O)C[C@H](C(C)C)C(=O)C1
REMARK SMILES IDX 8 1 9 2 6 3 7 4 5 5 4 6 3 7 2 8 1 9 10 11 11 12 15 13 16 14
REMARK SMILES IDX 17 15 12 17 13 18 14 19
REMARK H PARENT
REMARK Flexibility Score: 70.00
ROOT
ATOM      1  C   UNL     1      -6.031  -6.573   2.963  1.00  0.00     0.136 C 
ATOM      2  O   UNL     1      -5.891  -7.671   3.483  1.00  0.00    -0.299 OA
ENDROOT
BRANCH   1   3
ATOM      3  C   UNL     1      -7.448  -6.042   2.780  1.00  0.00     0.053 C 
ATOM      4  C   UNL     1      -7.914  -5.924   1.318  1.00  0.00     0.016 C 
BRANCH   3   5
ATOM      5  C   UNL     1      -7.682  -4.721   3.557  1.00  0.00     0.015 C 
BRANCH   5   6
ATOM      6  C   UNL     1      -8.012  -4.893   5.056  1.00  0.00     0.028 C 
BRANCH   6   7
ATOM      7  C   UNL     1      -7.243  -3.907   5.911  1.00  0.00    -0.028 C 
ATOM      8  C   UNL     1      -5.916  -3.939   6.177  1.00  0.00    -0.070 CG0
ATOM      9  C   UNL     1      -5.342  -2.837   7.033  1.00  0.00     0.039 C 
ATOM     10  G   UNL     1      -4.991  -5.045   5.713  1.00  0.00     0.000 G0
ENDBRANCH   6   7
ENDBRANCH   5   6
ENDBRANCH   3   5
ENDBRANCH   1   3
BRANCH   1  11
ATOM     11  C   UNL     1      -4.782  -5.839   2.510  1.00  0.00     0.087 C 
BRANCH  11  12
ATOM     12  C   UNL     1      -4.635  -4.449   3.174  1.00  0.00     0.066 C 
BRANCH  12  13
ATOM     13  C   UNL     1      -4.103  -4.569   4.590  1.00  0.00     0.140 C 
ATOM     14  O   UNL     1      -2.934  -4.298   4.827  1.00  0.00    -0.299 OA
BRANCH  13  15
ATOM     15  C   UNL     1      -4.982  -5.056   5.711  1.00  0.00     0.106 CG0
ATOM     16  G   UNL     1      -5.906  -3.948   6.172  1.00  0.00     0.000 G0
ENDBRANCH  13  15
ENDBRANCH  12  13
BRANCH  12  17
ATOM     17  C   UNL     1      -3.812  -3.456   2.298  1.00  0.00    -0.006 C 
ATOM     18  C   UNL     1      -4.574  -2.894   1.085  1.00  0.00     0.008 C 
ATOM     19  C   UNL     1      -2.490  -4.089   1.837  1.00  0.00     0.008 C 
ENDBRANCH  12  17
ENDBRANCH  11  12
ENDBRANCH   1  11
TORSDOF 1
ENDMDL
MODEL 7
REMARK VINA RESULT:    -2.585      1.740      3.736
REMARK INTER + INTRA:          -4.010
REMARK INTER:                  -4.333
REMARK INTRA:                   0.323
REMARK UNBOUND:                -0.065
REMARK SMILES CC1=CCC[C@@H](C)C(=O)C[C@H](C(C)C)C(=O)C1
REMARK SMILES IDX 8 1 9 2 6 3 7 4 5 5 4 6 3 7 2 8 1 9 10 11 11 12 15 13 16 14
REMARK SMILES IDX 17 15 12 17 13 18 14 19
REMARK H PARENT
REMARK Flexibility Score: 70.00
ROOT
ATOM      1  C   UNL     1      -4.516  -4.373   2.638  1.00  0.00     0.136 C 
ATOM      2  O   UNL     1      -3.865  -4.261   1.609  1.00  0.00    -0.299 OA
ENDROOT
BRANCH   1   3
ATOM      3  C   UNL     1      -3.758  -4.528   3.951  1.00  0.00     0.053 C 
ATOM      4  C   UNL     1      -3.717  -5.961   4.512  1.00  0.00     0.016 C 
BRANCH   3   5
ATOM      5  C   UNL     1      -4.234  -3.514   5.024  1.00  0.00     0.015 C 
BRANCH   5   6
ATOM      6  C   UNL     1      -4.986  -4.134   6.221  1.00  0.00     0.028 C 
BRANCH   6   7
ATOM      7  C   UNL     1      -6.191  -3.304   6.612  1.00  0.00    -0.028 C 
ATOM      8  C   UNL     1      -7.491  -3.647   6.450  1.00  0.00    -0.070 CG0
ATOM      9  C   UNL     1      -8.542  -2.682   6.938  1.00  0.00     0.039 C 
ATOM     10  G   UNL     1      -7.945  -4.915   5.755  1.00  0.00     0.000 G0
ENDBRANCH   6   7
ENDBRANCH   5   6
ENDBRANCH   3   5
ENDBRANCH   1   3
BRANCH   1  11
ATOM     11  C   UNL     1      -6.029  -4.384   2.522  1.00  0.00     0.087 C 
BRANCH  11  12
ATOM     12  C   UNL     1      -6.692  -5.406   3.475  1.00  0.00     0.066 C 
BRANCH  12  13
ATOM     13  C   UNL     1      -7.835  -4.776   4.249  1.00  0.00     0.140 C 
ATOM     14  O   UNL     1      -8.670  -4.102   3.663  1.00  0.00    -0.299 OA
BRANCH  13  15
ATOM     15  C   UNL     1      -7.940  -4.932   5.743  1.00  0.00     0.106 CG0
ATOM     16  G   UNL     1      -7.485  -3.664   6.437  1.00  0.00     0.000 G0
ENDBRANCH  13  15
ENDBRANCH  12  13
BRANCH  12  17
ATOM     17  C   UNL     1      -7.106  -6.720   2.744  1.00  0.00    -0.006 C 
ATOM     18  C   UNL     1      -5.944  -7.689   2.469  1.00  0.00     0.008 C 
ATOM     19  C   UNL     1      -7.852  -6.414   1.436  1.00  0.00     0.008 C 
ENDBRANCH  12  17
ENDBRANCH  11  12
ENDBRANCH   1  11
TORSDOF 1
ENDMDL
MODEL 8
REMARK VINA RESULT:    -2.364     13.397     15.087
REMARK INTER + INTRA:          -3.672
REMARK INTER:                  -3.589
REMARK INTRA:                  -0.084
REMARK UNBOUND:                -0.065
REMARK SMILES CC1=CCC[C@@H](C)C(=O)C[C@H](C(C)C)C(=O)C1
REMARK SMILES IDX 8 1 9 2 6 3 7 4 5 5 4 6 3 7 2 8 1 9 10 11 11 12 15 13 16 14
REMARK SMILES IDX 17 15 12 17 13 18 14 19
REMARK H PARENT
REMARK Flexibility Score: 70.00
ROOT
ATOM      1  C   UNL     1       6.635  -6.824   6.290  1.00  0.00     0.136 C 
ATOM      2  O   UNL     1       5.474  -7.190   6.174  1.00  0.00    -0.299 OA
ENDROOT
BRANCH   1   3
ATOM      3  C   UNL     1       7.655  -7.830   6.809  1.00  0.00     0.053 C 
ATOM      4  C   UNL     1       8.400  -7.401   8.085  1.00  0.00     0.016 C 
BRANCH   3   5
ATOM      5  C   UNL     1       8.643  -8.285   5.703  1.00  0.00     0.015 C 
BRANCH   5   6
ATOM      6  C   UNL     1       7.983  -8.750   4.387  1.00  0.00     0.028 C 
BRANCH   6   7
ATOM      7  C   UNL     1       8.762  -8.278   3.177  1.00  0.00    -0.028 C 
ATOM      8  C   UNL     1       8.544  -7.141   2.474  1.00  0.00    -0.070 CG0
ATOM      9  C   UNL     1       9.460  -6.843   1.313  1.00  0.00     0.039 C 
ATOM     10  G   UNL     1       7.400  -6.187   2.752  1.00  0.00     0.000 G0
ENDBRANCH   6   7
ENDBRANCH   5   6
ENDBRANCH   3   5
ENDBRANCH   1   3
BRANCH   1  11
ATOM     11  C   UNL     1       6.963  -5.384   5.938  1.00  0.00     0.087 C 
BRANCH  11  12
ATOM     12  C   UNL     1       8.228  -5.260   5.058  1.00  0.00     0.066 C 
BRANCH  12  13
ATOM     13  C   UNL     1       7.866  -5.037   3.601  1.00  0.00     0.140 C 
ATOM     14  O   UNL     1       7.918  -3.912   3.125  1.00  0.00    -0.299 OA
BRANCH  13  15
ATOM     15  C   UNL     1       7.402  -6.177   2.734  1.00  0.00     0.106 CG0
ATOM     16  G   UNL     1       8.547  -7.132   2.466  1.00  0.00     0.000 G0
ENDBRANCH  13  15
ENDBRANCH  12  13
BRANCH  12  17
ATOM     17  C   UNL     1       9.231  -4.197   5.603  1.00  0.00    -0.006 C 
ATOM     18  C   UNL     1      10.708  -4.503   5.306  1.00  0.00     0.008 C 
ATOM     19  C   UNL     1       9.036  -3.975   7.112  1.00  0.00     0.008 C 
ENDBRANCH  12  17
ENDBRANCH  11  12
ENDBRANCH   1  11
TORSDOF 1
ENDMDL
MODEL 9
REMARK VINA RESULT:    -2.344      1.750      4.126
REMARK INTER + INTRA:          -3.642
REMARK INTER:                  -3.979
REMARK INTRA:                   0.337
REMARK UNBOUND:                -0.065
REMARK SMILES CC1=CCC[C@@H](C)C(=O)C[C@H](C(C)C)C(=O)C1
REMARK SMILES IDX 8 1 9 2 6 3 7 4 5 5 4 6 3 7 2 8 1 9 10 11 11 12 15 13 16 14
REMARK SMILES IDX 17 15 12 17 13 18 14 19
REMARK H PARENT
REMARK Flexibility Score: 70.00
ROOT
ATOM      1  C   UNL     1      -8.153  -4.912   3.849  1.00  0.00     0.136 C 
ATOM      2  O   UNL     1      -9.058  -5.579   4.328  1.00  0.00    -0.299 OA
ENDROOT
BRANCH   1   3
ATOM      3  C   UNL     1      -7.629  -5.300   2.471  1.00  0.00     0.053 C 
ATOM      4  C   UNL     1      -8.566  -4.955   1.299  1.00  0.00     0.016 C 
BRANCH   3   5
ATOM      5  C   UNL     1      -7.174  -6.781   2.414  1.00  0.00     0.015 C 
BRANCH   5   6
ATOM      6  C   UNL     1      -5.820  -7.075   3.095  1.00  0.00     0.028 C 
BRANCH   6   7
ATOM      7  C   UNL     1      -4.846  -5.930   2.916  1.00  0.00    -0.028 C 
ATOM      8  C   UNL     1      -4.280  -5.194   3.902  1.00  0.00    -0.070 CG0
ATOM      9  C   UNL     1      -3.307  -4.112   3.505  1.00  0.00     0.039 C 
ATOM     10  G   UNL     1      -4.611  -5.360   5.371  1.00  0.00     0.000 G0
ENDBRANCH   6   7
ENDBRANCH   5   6
ENDBRANCH   3   5
ENDBRANCH   1   3
BRANCH   1  11
ATOM     11  C   UNL     1      -7.598  -3.769   4.679  1.00  0.00     0.087 C 
BRANCH  11  12
ATOM     12  C   UNL     1      -6.924  -4.253   5.984  1.00  0.00     0.066 C 
BRANCH  12  13
ATOM     13  C   UNL     1      -5.411  -4.189   5.878  1.00  0.00     0.140 C 
ATOM     14  O   UNL     1      -4.822  -3.163   6.183  1.00  0.00    -0.299 OA
BRANCH  13  15
ATOM     15  C   UNL     1      -4.619  -5.362   5.364  1.00  0.00     0.106 CG0
ATOM     16  G   UNL     1      -4.287  -5.168   3.898  1.00  0.00     0.000 G0
ENDBRANCH  13  15
ENDBRANCH  12  13
BRANCH  12  17
ATOM     17  C   UNL     1      -7.475  -3.522   7.246  1.00  0.00    -0.006 C 
ATOM     18  C   UNL     1      -8.909  -3.919   7.636  1.00  0.00     0.008 C 
ATOM     19  C   UNL     1      -7.380  -1.997   7.087  1.00  0.00     0.008 C 
ENDBRANCH  12  17
ENDBRANCH  11  12
ENDBRANCH   1  11
TORSDOF 1
ENDMDL
