MODEL 1
REMARK VINA RESULT:    -3.738      0.000      0.000
REMARK INTER + INTRA:          -4.564
REMARK INTER:                  -4.394
REMARK INTRA:                  -0.170
REMARK UNBOUND:                -0.170
REMARK SMILES O=C([O-])CCC(=O)[O-]
REMARK SMILES IDX 4 1 2 2 1 3 3 4 5 5 6 6 7 7 8 8
REMARK H PARENT
REMARK Flexibility Score: inf
ROOT
ATOM      1  C   UNL     1       8.372   2.238 -36.463  1.00  0.00     0.059 C 
ENDROOT
BRANCH   1   2
ATOM      2  C   UNL     1       8.766   1.543 -35.197  1.00  0.00     0.042 C 
ATOM      3  O   UNL     1       7.885   1.157 -34.384  1.00  0.00    -0.550 OA
ATOM      4  O   UNL     1      10.109   1.357 -34.896  1.00  0.00    -0.550 OA
ENDBRANCH   1   2
BRANCH   1   5
ATOM      5  C   UNL     1       7.602   1.305 -37.404  1.00  0.00     0.059 C 
BRANCH   5   6
ATOM      6  C   UNL     1       8.417   0.103 -37.776  1.00  0.00     0.042 C 
ATOM      7  O   UNL     1       9.366   0.209 -38.595  1.00  0.00    -0.550 OA
ATOM      8  O   UNL     1       8.098  -1.142 -37.248  1.00  0.00    -0.550 OA
ENDBRANCH   5   6
ENDBRANCH   1   5
TORSDOF 3
ENDMDL
MODEL 2
REMARK VINA RESULT:    -3.623      2.204      3.834
REMARK INTER + INTRA:          -4.429
REMARK INTER:                  -4.313
REMARK INTRA:                  -0.116
REMARK UNBOUND:                -0.170
REMARK SMILES O=C([O-])CCC(=O)[O-]
REMARK SMILES IDX 4 1 2 2 1 3 3 4 5 5 6 6 7 7 8 8
REMARK H PARENT
REMARK Flexibility Score: inf
ROOT
ATOM      1  C   UNL     1       9.432   1.115 -35.945  1.00  0.00     0.059 C 
ENDROOT
BRANCH   1   2
ATOM      2  C   UNL     1       8.188   1.945 -36.031  1.00  0.00     0.042 C 
ATOM      3  O   UNL     1       7.953   2.630 -37.061  1.00  0.00    -0.550 OA
ATOM      4  O   UNL     1       7.309   1.992 -34.957  1.00  0.00    -0.550 OA
ENDBRANCH   1   2
BRANCH   1   5
ATOM      5  C   UNL     1      10.622   1.933 -35.435  1.00  0.00     0.059 C 
BRANCH   5   6
ATOM      6  C   UNL     1      11.043   1.498 -34.064  1.00  0.00     0.042 C 
ATOM      7  O   UNL     1      12.230   1.140 -33.848  1.00  0.00    -0.550 OA
ATOM      8  O   UNL     1      10.111   1.449 -33.034  1.00  0.00    -0.550 OA
ENDBRANCH   5   6
ENDBRANCH   1   5
TORSDOF 3
ENDMDL
MODEL 3
REMARK VINA RESULT:    -3.565      0.951      3.741
REMARK INTER + INTRA:          -4.360
REMARK INTER:                  -4.320
REMARK INTRA:                  -0.040
REMARK UNBOUND:                -0.170
REMARK SMILES O=C([O-])CCC(=O)[O-]
REMARK SMILES IDX 4 1 2 2 1 3 3 4 5 5 6 6 7 7 8 8
REMARK H PARENT
REMARK Flexibility Score: inf
ROOT
ATOM      1  C   UNL     1       8.125   0.386 -36.486  1.00  0.00     0.059 C 
ENDROOT
BRANCH   1   2
ATOM      2  C   UNL     1       8.542  -0.524 -37.601  1.00  0.00     0.042 C 
ATOM      3  O   UNL     1       9.213  -0.077 -38.568  1.00  0.00    -0.550 OA
ATOM      4  O   UNL     1       8.155  -1.858 -37.590  1.00  0.00    -0.550 OA
ENDBRANCH   1   2
BRANCH   1   5
ATOM      5  C   UNL     1       9.203   1.429 -36.176  1.00  0.00     0.059 C 
BRANCH   5   6
ATOM      6  C   UNL     1       9.601   1.398 -34.731  1.00  0.00     0.042 C 
ATOM      7  O   UNL     1      10.817   1.394 -34.407  1.00  0.00    -0.550 OA
ATOM      8  O   UNL     1       8.625   1.334 -33.744  1.00  0.00    -0.550 OA
ENDBRANCH   5   6
ENDBRANCH   1   5
TORSDOF 3
ENDMDL
MODEL 4
REMARK VINA RESULT:    -3.531      2.649      4.421
REMARK INTER + INTRA:          -4.320
REMARK INTER:                  -4.293
REMARK INTRA:                  -0.027
REMARK UNBOUND:                -0.170
REMARK SMILES O=C([O-])CCC(=O)[O-]
REMARK SMILES IDX 4 1 2 2 1 3 3 4 5 5 6 6 7 7 8 8
REMARK H PARENT
REMARK Flexibility Score: inf
ROOT
ATOM      1  C   UNL     1      10.111   1.487 -34.916  1.00  0.00     0.059 C 
ENDROOT
BRANCH   1   2
ATOM      2  C   UNL     1       9.066   1.345 -35.979  1.00  0.00     0.042 C 
ATOM      3  O   UNL     1       8.791   0.211 -36.452  1.00  0.00    -0.550 OA
ATOM      4  O   UNL     1       8.423   2.472 -36.476  1.00  0.00    -0.550 OA
ENDBRANCH   1   2
BRANCH   1   5
ATOM      5  C   UNL     1      11.363   2.193 -35.446  1.00  0.00     0.059 C 
BRANCH   5   6
ATOM      6  C   UNL     1      12.513   2.067 -34.492  1.00  0.00     0.042 C 
ATOM      7  O   UNL     1      12.376   2.400 -33.286  1.00  0.00    -0.550 OA
ATOM      8  O   UNL     1      13.747   1.621 -34.948  1.00  0.00    -0.550 OA
ENDBRANCH   5   6
ENDBRANCH   1   5
TORSDOF 3
ENDMDL
MODEL 5
REMARK VINA RESULT:    -3.509      4.133      4.987
REMARK INTER + INTRA:          -4.294
REMARK INTER:                  -4.223
REMARK INTRA:                  -0.071
REMARK UNBOUND:                -0.170
REMARK SMILES O=C([O-])CCC(=O)[O-]
REMARK SMILES IDX 4 1 2 2 1 3 3 4 5 5 6 6 7 7 8 8
REMARK H PARENT
REMARK Flexibility Score: inf
ROOT
ATOM      1  C   UNL     1      10.956   1.532 -33.101  1.00  0.00     0.059 C 
ENDROOT
BRANCH   1   2
ATOM      2  C   UNL     1      11.045   2.198 -31.762  1.00  0.00     0.042 C 
ATOM      3  O   UNL     1      10.659   1.596 -30.727  1.00  0.00    -0.550 OA
ATOM      4  O   UNL     1      11.517   3.501 -31.665  1.00  0.00    -0.550 OA
ENDBRANCH   1   2
BRANCH   1   5
ATOM      5  C   UNL     1      12.307   1.538 -33.824  1.00  0.00     0.059 C 
BRANCH   5   6
ATOM      6  C   UNL     1      12.241   2.308 -35.108  1.00  0.00     0.042 C 
ATOM      7  O   UNL     1      11.185   2.313 -35.792  1.00  0.00    -0.550 OA
ATOM      8  O   UNL     1      13.363   2.987 -35.569  1.00  0.00    -0.550 OA
ENDBRANCH   5   6
ENDBRANCH   1   5
TORSDOF 3
ENDMDL
MODEL 6
REMARK VINA RESULT:    -3.507      2.210      3.281
REMARK INTER + INTRA:          -4.292
REMARK INTER:                  -4.244
REMARK INTRA:                  -0.048
REMARK UNBOUND:                -0.170
REMARK SMILES O=C([O-])CCC(=O)[O-]
REMARK SMILES IDX 4 1 2 2 1 3 3 4 5 5 6 6 7 7 8 8
REMARK H PARENT
REMARK Flexibility Score: inf
ROOT
ATOM      1  C   UNL     1      10.084   1.448 -34.418  1.00  0.00     0.059 C 
ENDROOT
BRANCH   1   2
ATOM      2  C   UNL     1      11.511   1.871 -34.248  1.00  0.00     0.042 C 
ATOM      3  O   UNL     1      12.041   1.870 -33.107  1.00  0.00    -0.550 OA
ATOM      4  O   UNL     1      12.242   2.303 -35.347  1.00  0.00    -0.550 OA
ENDBRANCH   1   2
BRANCH   1   5
ATOM      5  C   UNL     1       9.662   1.462 -35.890  1.00  0.00     0.059 C 
BRANCH   5   6
ATOM      6  C   UNL     1       8.265   1.978 -36.059  1.00  0.00     0.042 C 
ATOM      7  O   UNL     1       7.473   1.998 -35.081  1.00  0.00    -0.550 OA
ATOM      8  O   UNL     1       7.827   2.400 -37.308  1.00  0.00    -0.550 OA
ENDBRANCH   5   6
ENDBRANCH   1   5
TORSDOF 3
ENDMDL
MODEL 7
REMARK VINA RESULT:    -3.444      1.540      1.706
REMARK INTER + INTRA:          -4.218
REMARK INTER:                  -4.099
REMARK INTRA:                  -0.118
REMARK UNBOUND:                -0.170
REMARK SMILES O=C([O-])CCC(=O)[O-]
REMARK SMILES IDX 4 1 2 2 1 3 3 4 5 5 6 6 7 7 8 8
REMARK H PARENT
REMARK Flexibility Score: inf
ROOT
ATOM      1  C   UNL     1       8.078   1.515 -35.577  1.00  0.00     0.059 C 
ENDROOT
BRANCH   1   2
ATOM      2  C   UNL     1       6.962   1.138 -34.652  1.00  0.00     0.042 C 
ATOM      3  O   UNL     1       6.261   0.119 -34.885  1.00  0.00    -0.550 OA
ATOM      4  O   UNL     1       6.671   1.937 -33.553  1.00  0.00    -0.550 OA
ENDBRANCH   1   2
BRANCH   1   5
ATOM      5  C   UNL     1       7.686   1.318 -37.044  1.00  0.00     0.059 C 
BRANCH   5   6
ATOM      6  C   UNL     1       8.463   0.205 -37.678  1.00  0.00     0.042 C 
ATOM      7  O   UNL     1       9.310   0.453 -38.576  1.00  0.00    -0.550 OA
ATOM      8  O   UNL     1       8.221  -1.111 -37.305  1.00  0.00    -0.550 OA
ENDBRANCH   5   6
ENDBRANCH   1   5
TORSDOF 3
ENDMDL
MODEL 8
REMARK VINA RESULT:    -3.430      1.510      2.152
REMARK INTER + INTRA:          -4.202
REMARK INTER:                  -4.169
REMARK INTRA:                  -0.032
REMARK UNBOUND:                -0.170
REMARK SMILES O=C([O-])CCC(=O)[O-]
REMARK SMILES IDX 4 1 2 2 1 3 3 4 5 5 6 6 7 7 8 8
REMARK H PARENT
REMARK Flexibility Score: inf
ROOT
ATOM      1  C   UNL     1      10.176   1.606 -35.489  1.00  0.00     0.059 C 
ENDROOT
BRANCH   1   2
ATOM      2  C   UNL     1      10.672   1.448 -34.085  1.00  0.00     0.042 C 
ATOM      3  O   UNL     1      11.906   1.342 -33.857  1.00  0.00    -0.550 OA
ATOM      4  O   UNL     1       9.768   1.378 -33.033  1.00  0.00    -0.550 OA
ENDBRANCH   1   2
BRANCH   1   5
ATOM      5  C   UNL     1       8.712   1.173 -35.622  1.00  0.00     0.059 C 
BRANCH   5   6
ATOM      6  C   UNL     1       8.458   0.483 -36.928  1.00  0.00     0.042 C 
ATOM      7  O   UNL     1       8.458   1.138 -38.003  1.00  0.00    -0.550 OA
ATOM      8  O   UNL     1       8.179  -0.878 -36.951  1.00  0.00    -0.550 OA
ENDBRANCH   5   6
ENDBRANCH   1   5
TORSDOF 3
ENDMDL
MODEL 9
REMARK VINA RESULT:    -3.396      2.334      3.482
REMARK INTER + INTRA:          -4.162
REMARK INTER:                  -4.047
REMARK INTRA:                  -0.114
REMARK UNBOUND:                -0.170
REMARK SMILES O=C([O-])CCC(=O)[O-]
REMARK SMILES IDX 4 1 2 2 1 3 3 4 5 5 6 6 7 7 8 8
REMARK H PARENT
REMARK Flexibility Score: inf
ROOT
ATOM      1  C   UNL     1       7.950   1.859 -35.403  1.00  0.00     0.059 C 
ENDROOT
BRANCH   1   2
ATOM      2  C   UNL     1       7.011   0.994 -34.619  1.00  0.00     0.042 C 
ATOM      3  O   UNL     1       7.062   0.980 -33.361  1.00  0.00    -0.550 OA
ATOM      4  O   UNL     1       6.106   0.174 -35.281  1.00  0.00    -0.550 OA
ENDBRANCH   1   2
BRANCH   1   5
ATOM      5  C   UNL     1       9.244   1.117 -35.751  1.00  0.00     0.059 C 
BRANCH   5   6
ATOM      6  C   UNL     1      10.390   1.580 -34.902  1.00  0.00     0.042 C 
ATOM      7  O   UNL     1      10.378   1.384 -33.659  1.00  0.00    -0.550 OA
ATOM      8  O   UNL     1      11.451   2.264 -35.481  1.00  0.00    -0.550 OA
ENDBRANCH   5   6
ENDBRANCH   1   5
TORSDOF 3
ENDMDL
