MODEL 1
REMARK VINA RESULT:    -4.537      0.000      0.000
REMARK INTER + INTRA:          -8.017
REMARK INTER:                  -6.924
REMARK INTRA:                  -1.093
REMARK UNBOUND:                -1.093
REMARK SMILES CCCCCCCCCCC(=O)[O-]
REMARK SMILES IDX 7 1 8 2 9 3 10 4 11 5 12 6 13 7 6 8 5 9 4 10 3 11 2 12 1 13
REMARK H PARENT
REMARK Flexibility Score: inf
ROOT
ATOM      1  C   UNL     1      18.378  55.824  14.366  1.00  0.00     0.000 C 
ENDROOT
BRANCH   1   2
ATOM      2  C   UNL     1      18.833  54.483  13.772  1.00  0.00     0.000 C 
BRANCH   2   3
ATOM      3  C   UNL     1      20.143  53.974  14.394  1.00  0.00     0.006 C 
BRANCH   3   4
ATOM      4  C   UNL     1      19.905  53.011  15.564  1.00  0.00     0.053 C 
BRANCH   4   5
ATOM      5  C   UNL     1      20.948  53.204  16.619  1.00  0.00     0.041 C 
ATOM      6  O   UNL     1      22.121  53.532  16.297  1.00  0.00    -0.550 OA
ATOM      7  O   UNL     1      20.613  53.071  17.960  1.00  0.00    -0.550 OA
ENDBRANCH   4   5
ENDBRANCH   3   4
ENDBRANCH   2   3
ENDBRANCH   1   2
BRANCH   1   8
ATOM      8  C   UNL     1      17.092  55.652  15.184  1.00  0.00     0.000 C 
BRANCH   8   9
ATOM      9  C   UNL     1      16.904  56.814  16.167  1.00  0.00    -0.000 C 
BRANCH   9  10
ATOM     10  C   UNL     1      17.133  56.353  17.614  1.00  0.00    -0.000 C 
BRANCH  10  11
ATOM     11  C   UNL     1      18.594  55.961  17.887  1.00  0.00    -0.000 C 
BRANCH  11  12
ATOM     12  C   UNL     1      19.540  57.171  17.888  1.00  0.00    -0.003 C 
ATOM     13  C   UNL     1      20.813  56.873  17.099  1.00  0.00     0.004 C 
ENDBRANCH  11  12
ENDBRANCH  10  11
ENDBRANCH   9  10
ENDBRANCH   8   9
ENDBRANCH   1   8
TORSDOF 9
ENDMDL
MODEL 2
REMARK VINA RESULT:    -4.463      1.834      3.959
REMARK INTER + INTRA:          -7.905
REMARK INTER:                  -6.716
REMARK INTRA:                  -1.189
REMARK UNBOUND:                -1.093
REMARK SMILES CCCCCCCCCCC(=O)[O-]
REMARK SMILES IDX 7 1 8 2 9 3 10 4 11 5 12 6 13 7 6 8 5 9 4 10 3 11 2 12 1 13
REMARK H PARENT
REMARK Flexibility Score: inf
ROOT
ATOM      1  C   UNL     1      16.117  55.326  15.359  1.00  0.00     0.000 C 
ENDROOT
BRANCH   1   2
ATOM      2  C   UNL     1      16.921  56.530  15.873  1.00  0.00     0.000 C 
BRANCH   2   3
ATOM      3  C   UNL     1      17.302  56.398  17.356  1.00  0.00     0.006 C 
BRANCH   3   4
ATOM      4  C   UNL     1      18.678  55.748  17.556  1.00  0.00     0.053 C 
BRANCH   4   5
ATOM      5  C   UNL     1      19.733  56.798  17.711  1.00  0.00     0.041 C 
ATOM      6  O   UNL     1      20.846  56.666  17.138  1.00  0.00    -0.550 OA
ATOM      7  O   UNL     1      19.468  57.945  18.447  1.00  0.00    -0.550 OA
ENDBRANCH   4   5
ENDBRANCH   3   4
ENDBRANCH   2   3
ENDBRANCH   1   2
BRANCH   1   8
ATOM      8  C   UNL     1      16.638  54.863  13.993  1.00  0.00     0.000 C 
BRANCH   8   9
ATOM      9  C   UNL     1      18.066  55.364  13.748  1.00  0.00    -0.000 C 
BRANCH   9  10
ATOM     10  C   UNL     1      19.056  54.192  13.673  1.00  0.00    -0.000 C 
BRANCH  10  11
ATOM     11  C   UNL     1      20.338  54.445  14.481  1.00  0.00    -0.000 C 
BRANCH  11  12
ATOM     12  C   UNL     1      20.582  53.374  15.555  1.00  0.00    -0.003 C 
ATOM     13  C   UNL     1      19.347  52.497  15.746  1.00  0.00     0.004 C 
ENDBRANCH  11  12
ENDBRANCH  10  11
ENDBRANCH   9  10
ENDBRANCH   8   9
ENDBRANCH   1   8
TORSDOF 9
ENDMDL
MODEL 3
REMARK VINA RESULT:    -4.422      0.936      1.563
REMARK INTER + INTRA:          -7.842
REMARK INTER:                  -6.633
REMARK INTRA:                  -1.210
REMARK UNBOUND:                -1.093
REMARK SMILES CCCCCCCCCCC(=O)[O-]
REMARK SMILES IDX 7 1 8 2 9 3 10 4 11 5 12 6 13 7 6 8 5 9 4 10 3 11 2 12 1 13
REMARK H PARENT
REMARK Flexibility Score: inf
ROOT
ATOM      1  C   UNL     1      18.036  55.348  13.547  1.00  0.00     0.000 C 
ENDROOT
BRANCH   1   2
ATOM      2  C   UNL     1      18.981  54.152  13.356  1.00  0.00     0.000 C 
BRANCH   2   3
ATOM      3  C   UNL     1      20.108  54.116  14.400  1.00  0.00     0.006 C 
BRANCH   3   4
ATOM      4  C   UNL     1      19.799  53.172  15.570  1.00  0.00     0.053 C 
BRANCH   4   5
ATOM      5  C   UNL     1      20.822  53.328  16.650  1.00  0.00     0.041 C 
ATOM      6  O   UNL     1      22.043  53.428  16.357  1.00  0.00    -0.550 OA
ATOM      7  O   UNL     1      20.424  53.413  17.978  1.00  0.00    -0.550 OA
ENDBRANCH   4   5
ENDBRANCH   3   4
ENDBRANCH   2   3
ENDBRANCH   1   2
BRANCH   1   8
ATOM      8  C   UNL     1      16.588  54.877  13.732  1.00  0.00     0.000 C 
BRANCH   8   9
ATOM      9  C   UNL     1      16.287  54.586  15.207  1.00  0.00    -0.000 C 
BRANCH   9  10
ATOM     10  C   UNL     1      15.559  55.769  15.864  1.00  0.00    -0.000 C 
BRANCH  10  11
ATOM     11  C   UNL     1      16.520  56.745  16.559  1.00  0.00    -0.000 C 
BRANCH  11  12
ATOM     12  C   UNL     1      17.698  56.031  17.239  1.00  0.00    -0.003 C 
ATOM     13  C   UNL     1      19.017  56.739  16.939  1.00  0.00     0.004 C 
ENDBRANCH  11  12
ENDBRANCH  10  11
ENDBRANCH   9  10
ENDBRANCH   8   9
ENDBRANCH   1   8
TORSDOF 9
ENDMDL
MODEL 4
REMARK VINA RESULT:    -4.417      2.459      4.966
REMARK INTER + INTRA:          -7.834
REMARK INTER:                  -6.646
REMARK INTRA:                  -1.189
REMARK UNBOUND:                -1.093
REMARK SMILES CCCCCCCCCCC(=O)[O-]
REMARK SMILES IDX 7 1 8 2 9 3 10 4 11 5 12 6 13 7 6 8 5 9 4 10 3 11 2 12 1 13
REMARK H PARENT
REMARK Flexibility Score: inf
ROOT
ATOM      1  C   UNL     1      21.177  56.252  16.422  1.00  0.00     0.000 C 
ENDROOT
BRANCH   1   2
ATOM      2  C   UNL     1      20.238  57.072  17.319  1.00  0.00     0.000 C 
BRANCH   2   3
ATOM      3  C   UNL     1      18.838  56.450  17.437  1.00  0.00     0.006 C 
BRANCH   3   4
ATOM      4  C   UNL     1      17.838  57.054  16.442  1.00  0.00     0.053 C 
BRANCH   4   5
ATOM      5  C   UNL     1      16.494  56.417  16.602  1.00  0.00     0.041 C 
ATOM      6  O   UNL     1      15.453  57.038  16.260  1.00  0.00    -0.550 OA
ATOM      7  O   UNL     1      16.394  55.118  17.082  1.00  0.00    -0.550 OA
ENDBRANCH   4   5
ENDBRANCH   3   4
ENDBRANCH   2   3
ENDBRANCH   1   2
BRANCH   1   8
ATOM      8  C   UNL     1      21.266  54.799  16.906  1.00  0.00     0.000 C 
BRANCH   8   9
ATOM      9  C   UNL     1      21.298  53.824  15.722  1.00  0.00    -0.000 C 
BRANCH   9  10
ATOM     10  C   UNL     1      20.086  52.881  15.753  1.00  0.00    -0.000 C 
BRANCH  10  11
ATOM     11  C   UNL     1      18.838  53.498  15.103  1.00  0.00    -0.000 C 
BRANCH  11  12
ATOM     12  C   UNL     1      19.169  54.312  13.843  1.00  0.00    -0.003 C 
ATOM     13  C   UNL     1      17.918  54.980  13.277  1.00  0.00     0.004 C 
ENDBRANCH  11  12
ENDBRANCH  10  11
ENDBRANCH   9  10
ENDBRANCH   8   9
ENDBRANCH   1   8
TORSDOF 9
ENDMDL
MODEL 5
REMARK VINA RESULT:    -4.402      2.614      4.240
REMARK INTER + INTRA:          -7.812
REMARK INTER:                  -6.455
REMARK INTRA:                  -1.356
REMARK UNBOUND:                -1.093
REMARK SMILES CCCCCCCCCCC(=O)[O-]
REMARK SMILES IDX 7 1 8 2 9 3 10 4 11 5 12 6 13 7 6 8 5 9 4 10 3 11 2 12 1 13
REMARK H PARENT
REMARK Flexibility Score: inf
ROOT
ATOM      1  C   UNL     1      17.723  55.277  14.636  1.00  0.00     0.000 C 
ENDROOT
BRANCH   1   2
ATOM      2  C   UNL     1      18.517  56.483  15.160  1.00  0.00     0.000 C 
BRANCH   2   3
ATOM      3  C   UNL     1      18.257  56.761  16.649  1.00  0.00     0.006 C 
BRANCH   3   4
ATOM      4  C   UNL     1      17.704  55.536  17.390  1.00  0.00     0.053 C 
BRANCH   4   5
ATOM      5  C   UNL     1      16.449  55.892  18.122  1.00  0.00     0.041 C 
ATOM      6  O   UNL     1      15.587  56.631  17.578  1.00  0.00    -0.550 OA
ATOM      7  O   UNL     1      16.209  55.368  19.385  1.00  0.00    -0.550 OA
ENDBRANCH   4   5
ENDBRANCH   3   4
ENDBRANCH   2   3
ENDBRANCH   1   2
BRANCH   1   8
ATOM      8  C   UNL     1      18.434  54.631  13.440  1.00  0.00     0.000 C 
BRANCH   8   9
ATOM      9  C   UNL     1      19.709  53.903  13.884  1.00  0.00    -0.000 C 
BRANCH   9  10
ATOM     10  C   UNL     1      19.417  52.938  15.042  1.00  0.00    -0.000 C 
BRANCH  10  11
ATOM     11  C   UNL     1      20.347  53.158  16.246  1.00  0.00    -0.000 C 
BRANCH  11  12
ATOM     12  C   UNL     1      21.550  54.051  15.908  1.00  0.00    -0.003 C 
ATOM     13  C   UNL     1      21.610  55.264  16.833  1.00  0.00     0.004 C 
ENDBRANCH  11  12
ENDBRANCH  10  11
ENDBRANCH   9  10
ENDBRANCH   8   9
ENDBRANCH   1   8
TORSDOF 9
ENDMDL
MODEL 6
REMARK VINA RESULT:    -4.380      1.661      2.691
REMARK INTER + INTRA:          -7.778
REMARK INTER:                  -6.716
REMARK INTRA:                  -1.061
REMARK UNBOUND:                -1.093
REMARK SMILES CCCCCCCCCCC(=O)[O-]
REMARK SMILES IDX 7 1 8 2 9 3 10 4 11 5 12 6 13 7 6 8 5 9 4 10 3 11 2 12 1 13
REMARK H PARENT
REMARK Flexibility Score: inf
ROOT
ATOM      1  C   UNL     1      19.917  54.065  13.839  1.00  0.00     0.000 C 
ENDROOT
BRANCH   1   2
ATOM      2  C   UNL     1      19.832  53.215  15.116  1.00  0.00     0.000 C 
BRANCH   2   3
ATOM      3  C   UNL     1      20.405  53.937  16.346  1.00  0.00     0.006 C 
BRANCH   3   4
ATOM      4  C   UNL     1      21.932  54.081  16.289  1.00  0.00     0.053 C 
BRANCH   4   5
ATOM      5  C   UNL     1      22.322  55.523  16.349  1.00  0.00     0.041 C 
ATOM      6  O   UNL     1      21.532  56.411  15.933  1.00  0.00    -0.550 OA
ATOM      7  O   UNL     1      23.538  55.891  16.911  1.00  0.00    -0.550 OA
ENDBRANCH   4   5
ENDBRANCH   3   4
ENDBRANCH   2   3
ENDBRANCH   1   2
BRANCH   1   8
ATOM      8  C   UNL     1      18.518  54.380  13.297  1.00  0.00     0.000 C 
BRANCH   8   9
ATOM      9  C   UNL     1      17.933  55.628  13.968  1.00  0.00    -0.000 C 
BRANCH   9  10
ATOM     10  C   UNL     1      16.748  55.262  14.874  1.00  0.00    -0.000 C 
BRANCH  10  11
ATOM     11  C   UNL     1      16.681  56.128  16.142  1.00  0.00    -0.000 C 
BRANCH  11  12
ATOM     12  C   UNL     1      17.940  56.986  16.339  1.00  0.00    -0.003 C 
ATOM     13  C   UNL     1      18.553  56.753  17.717  1.00  0.00     0.004 C 
ENDBRANCH  11  12
ENDBRANCH  10  11
ENDBRANCH   9  10
ENDBRANCH   8   9
ENDBRANCH   1   8
TORSDOF 9
ENDMDL
MODEL 7
REMARK VINA RESULT:    -4.273      2.982      4.409
REMARK INTER + INTRA:          -7.614
REMARK INTER:                  -6.463
REMARK INTRA:                  -1.151
REMARK UNBOUND:                -1.093
REMARK SMILES CCCCCCCCCCC(=O)[O-]
REMARK SMILES IDX 7 1 8 2 9 3 10 4 11 5 12 6 13 7 6 8 5 9 4 10 3 11 2 12 1 13
REMARK H PARENT
REMARK Flexibility Score: inf
ROOT
ATOM      1  C   UNL     1      18.374  54.661  13.255  1.00  0.00     0.000 C 
ENDROOT
BRANCH   1   2
ATOM      2  C   UNL     1      17.867  55.583  14.374  1.00  0.00     0.000 C 
BRANCH   2   3
ATOM      3  C   UNL     1      16.893  54.876  15.329  1.00  0.00     0.006 C 
BRANCH   3   4
ATOM      4  C   UNL     1      16.639  55.676  16.613  1.00  0.00     0.053 C 
BRANCH   4   5
ATOM      5  C   UNL     1      15.662  56.779  16.356  1.00  0.00     0.041 C 
ATOM      6  O   UNL     1      16.067  57.962  16.207  1.00  0.00    -0.550 OA
ATOM      7  O   UNL     1      14.308  56.493  16.231  1.00  0.00    -0.550 OA
ENDBRANCH   4   5
ENDBRANCH   3   4
ENDBRANCH   2   3
ENDBRANCH   1   2
BRANCH   1   8
ATOM      8  C   UNL     1      19.522  53.775  13.753  1.00  0.00     0.000 C 
BRANCH   8   9
ATOM      9  C   UNL     1      20.517  54.583  14.595  1.00  0.00    -0.000 C 
BRANCH   9  10
ATOM     10  C   UNL     1      20.798  53.886  15.935  1.00  0.00    -0.000 C 
BRANCH  10  11
ATOM     11  C   UNL     1      20.602  54.818  17.140  1.00  0.00    -0.000 C 
BRANCH  11  12
ATOM     12  C   UNL     1      20.671  56.303  16.757  1.00  0.00    -0.003 C 
ATOM     13  C   UNL     1      19.875  57.161  17.737  1.00  0.00     0.004 C 
ENDBRANCH  11  12
ENDBRANCH  10  11
ENDBRANCH   9  10
ENDBRANCH   8   9
ENDBRANCH   1   8
TORSDOF 9
ENDMDL
MODEL 8
REMARK VINA RESULT:    -4.220      2.117      3.936
REMARK INTER + INTRA:          -7.534
REMARK INTER:                  -6.067
REMARK INTRA:                  -1.467
REMARK UNBOUND:                -1.093
REMARK SMILES CCCCCCCCCCC(=O)[O-]
REMARK SMILES IDX 7 1 8 2 9 3 10 4 11 5 12 6 13 7 6 8 5 9 4 10 3 11 2 12 1 13
REMARK H PARENT
REMARK Flexibility Score: inf
ROOT
ATOM      1  C   UNL     1      19.392  56.622  15.835  1.00  0.00     0.000 C 
ENDROOT
BRANCH   1   2
ATOM      2  C   UNL     1      19.110  56.584  17.344  1.00  0.00     0.000 C 
BRANCH   2   3
ATOM      3  C   UNL     1      17.803  55.851  17.684  1.00  0.00     0.006 C 
BRANCH   3   4
ATOM      4  C   UNL     1      18.044  54.480  18.331  1.00  0.00     0.053 C 
BRANCH   4   5
ATOM      5  C   UNL     1      17.129  53.456  17.738  1.00  0.00     0.041 C 
ATOM      6  O   UNL     1      16.478  53.718  16.693  1.00  0.00    -0.550 OA
ATOM      7  O   UNL     1      17.033  52.195  18.313  1.00  0.00    -0.550 OA
ENDBRANCH   4   5
ENDBRANCH   3   4
ENDBRANCH   2   3
ENDBRANCH   1   2
BRANCH   1   8
ATOM      8  C   UNL     1      18.129  56.283  15.033  1.00  0.00     0.000 C 
BRANCH   8   9
ATOM      9  C   UNL     1      18.405  55.169  14.016  1.00  0.00    -0.000 C 
BRANCH   9  10
ATOM     10  C   UNL     1      19.738  54.467  14.316  1.00  0.00    -0.000 C 
BRANCH  10  11
ATOM     11  C   UNL     1      19.547  53.048  14.875  1.00  0.00    -0.000 C 
BRANCH  11  12
ATOM     12  C   UNL     1      20.403  52.785  16.123  1.00  0.00    -0.003 C 
ATOM     13  C   UNL     1      21.635  53.685  16.144  1.00  0.00     0.004 C 
ENDBRANCH  11  12
ENDBRANCH  10  11
ENDBRANCH   9  10
ENDBRANCH   8   9
ENDBRANCH   1   8
TORSDOF 9
ENDMDL
MODEL 9
REMARK VINA RESULT:    -4.170      2.592      4.939
REMARK INTER + INTRA:          -7.458
REMARK INTER:                  -6.336
REMARK INTRA:                  -1.122
REMARK UNBOUND:                -1.093
REMARK SMILES CCCCCCCCCCC(=O)[O-]
REMARK SMILES IDX 7 1 8 2 9 3 10 4 11 5 12 6 13 7 6 8 5 9 4 10 3 11 2 12 1 13
REMARK H PARENT
REMARK Flexibility Score: inf
ROOT
ATOM      1  C   UNL     1      19.917  57.120  17.683  1.00  0.00     0.000 C 
ENDROOT
BRANCH   1   2
ATOM      2  C   UNL     1      18.537  56.446  17.677  1.00  0.00     0.000 C 
BRANCH   2   3
ATOM      3  C   UNL     1      17.857  56.502  16.300  1.00  0.00     0.006 C 
BRANCH   3   4
ATOM      4  C   UNL     1      16.325  56.501  16.398  1.00  0.00     0.053 C 
BRANCH   4   5
ATOM      5  C   UNL     1      15.756  55.342  15.643  1.00  0.00     0.041 C 
ATOM      6  O   UNL     1      16.328  54.221  15.676  1.00  0.00    -0.550 OA
ATOM      7  O   UNL     1      14.566  55.487  14.941  1.00  0.00    -0.550 OA
ENDBRANCH   4   5
ENDBRANCH   3   4
ENDBRANCH   2   3
ENDBRANCH   1   2
BRANCH   1   8
ATOM      8  C   UNL     1      20.716  56.744  16.429  1.00  0.00     0.000 C 
BRANCH   8   9
ATOM      9  C   UNL     1      21.775  55.683  16.748  1.00  0.00    -0.000 C 
BRANCH   9  10
ATOM     10  C   UNL     1      21.608  54.449  15.847  1.00  0.00    -0.000 C 
BRANCH  10  11
ATOM     11  C   UNL     1      20.444  53.548  16.287  1.00  0.00    -0.000 C 
BRANCH  11  12
ATOM     12  C   UNL     1      19.590  53.066  15.105  1.00  0.00    -0.003 C 
ATOM     13  C   UNL     1      19.597  54.087  13.970  1.00  0.00     0.004 C 
ENDBRANCH  11  12
ENDBRANCH  10  11
ENDBRANCH   9  10
ENDBRANCH   8   9
ENDBRANCH   1   8
TORSDOF 9
ENDMDL
