MODEL 1
REMARK VINA RESULT:    -4.606      0.000      0.000
REMARK INTER + INTRA:          -7.937
REMARK INTER:                  -7.299
REMARK INTRA:                  -0.638
REMARK UNBOUND:                -0.638
REMARK SMILES CCCCCCCCCCCC(=O)[O-]
REMARK SMILES IDX 7 1 8 2 9 3 10 4 11 5 12 6 13 7 14 8 6 9 5 10 4 11 3 12 2 13
REMARK SMILES IDX 1 14
REMARK H PARENT
REMARK Flexibility Score: inf
ROOT
ATOM      1  C   UNL     1      31.019  -5.399 -15.736  1.00  0.00     0.000 C 
ENDROOT
BRANCH   1   2
ATOM      2  C   UNL     1      32.456  -5.795 -16.115  1.00  0.00     0.000 C 
BRANCH   2   3
ATOM      3  C   UNL     1      33.026  -4.938 -17.255  1.00  0.00     0.000 C 
BRANCH   3   4
ATOM      4  C   UNL     1      34.375  -5.494 -17.736  1.00  0.00     0.006 C 
BRANCH   4   5
ATOM      5  C   UNL     1      35.407  -5.577 -16.603  1.00  0.00     0.053 C 
BRANCH   5   6
ATOM      6  C   UNL     1      36.666  -4.841 -16.942  1.00  0.00     0.041 C 
ATOM      7  O   UNL     1      37.786  -5.312 -16.608  1.00  0.00    -0.550 OA
ATOM      8  O   UNL     1      36.603  -3.617 -17.596  1.00  0.00    -0.550 OA
ENDBRANCH   5   6
ENDBRANCH   4   5
ENDBRANCH   3   4
ENDBRANCH   2   3
ENDBRANCH   1   2
BRANCH   1   9
ATOM      9  C   UNL     1      30.131  -6.617 -15.431  1.00  0.00     0.000 C 
BRANCH   9  10
ATOM     10  C   UNL     1      29.734  -6.712 -13.946  1.00  0.00    -0.000 C 
BRANCH  10  11
ATOM     11  C   UNL     1      29.719  -5.371 -13.189  1.00  0.00    -0.000 C 
BRANCH  11  12
ATOM     12  C   UNL     1      30.856  -5.253 -12.160  1.00  0.00    -0.000 C 
BRANCH  12  13
ATOM     13  C   UNL     1      31.742  -6.507 -12.115  1.00  0.00    -0.003 C 
ATOM     14  C   UNL     1      32.714  -6.500 -10.936  1.00  0.00     0.004 C 
ENDBRANCH  12  13
ENDBRANCH  11  12
ENDBRANCH  10  11
ENDBRANCH   9  10
ENDBRANCH   1   9
TORSDOF 10
ENDMDL
MODEL 2
REMARK VINA RESULT:    -4.586      2.992      6.084
REMARK INTER + INTRA:          -7.904
REMARK INTER:                  -7.328
REMARK INTRA:                  -0.576
REMARK UNBOUND:                -0.638
REMARK SMILES CCCCCCCCCCCC(=O)[O-]
REMARK SMILES IDX 7 1 8 2 9 3 10 4 11 5 12 6 13 7 14 8 6 9 5 10 4 11 3 12 2 13
REMARK SMILES IDX 1 14
REMARK H PARENT
REMARK Flexibility Score: inf
ROOT
ATOM      1  C   UNL     1      31.457  -5.278 -16.115  1.00  0.00     0.000 C 
ENDROOT
BRANCH   1   2
ATOM      2  C   UNL     1      30.640  -6.450 -15.545  1.00  0.00     0.000 C 
BRANCH   2   3
ATOM      3  C   UNL     1      29.409  -5.984 -14.754  1.00  0.00     0.000 C 
BRANCH   3   4
ATOM      4  C   UNL     1      29.663  -6.077 -13.241  1.00  0.00     0.006 C 
BRANCH   4   5
ATOM      5  C   UNL     1      30.847  -6.994 -12.906  1.00  0.00     0.053 C 
BRANCH   5   6
ATOM      6  C   UNL     1      31.834  -6.321 -12.002  1.00  0.00     0.041 C 
ATOM      7  O   UNL     1      32.894  -6.913 -11.669  1.00  0.00    -0.550 OA
ATOM      8  O   UNL     1      31.567  -5.054 -11.499  1.00  0.00    -0.550 OA
ENDBRANCH   5   6
ENDBRANCH   4   5
ENDBRANCH   3   4
ENDBRANCH   2   3
ENDBRANCH   1   2
BRANCH   1   9
ATOM      9  C   UNL     1      32.951  -5.615 -16.259  1.00  0.00     0.000 C 
BRANCH   9  10
ATOM     10  C   UNL     1      33.527  -5.209 -17.628  1.00  0.00    -0.000 C 
BRANCH  10  11
ATOM     11  C   UNL     1      35.011  -5.561 -17.840  1.00  0.00    -0.000 C 
BRANCH  11  12
ATOM     12  C   UNL     1      35.963  -4.454 -17.359  1.00  0.00    -0.000 C 
BRANCH  12  13
ATOM     13  C   UNL     1      37.084  -4.993 -16.456  1.00  0.00    -0.003 C 
ATOM     14  C   UNL     1      37.416  -6.458 -16.739  1.00  0.00     0.004 C 
ENDBRANCH  12  13
ENDBRANCH  11  12
ENDBRANCH  10  11
ENDBRANCH   9  10
ENDBRANCH   1   9
TORSDOF 10
ENDMDL
MODEL 3
REMARK VINA RESULT:    -4.279      1.314      2.366
REMARK INTER + INTRA:          -7.419
REMARK INTER:                  -6.796
REMARK INTRA:                  -0.623
REMARK UNBOUND:                -0.638
REMARK SMILES CCCCCCCCCCCC(=O)[O-]
REMARK SMILES IDX 7 1 8 2 9 3 10 4 11 5 12 6 13 7 14 8 6 9 5 10 4 11 3 12 2 13
REMARK SMILES IDX 1 14
REMARK H PARENT
REMARK Flexibility Score: inf
ROOT
ATOM      1  C   UNL     1      31.708  -5.873 -15.640  1.00  0.00     0.000 C 
ENDROOT
BRANCH   1   2
ATOM      2  C   UNL     1      32.433  -5.106 -16.759  1.00  0.00     0.000 C 
BRANCH   2   3
ATOM      3  C   UNL     1      33.957  -5.291 -16.712  1.00  0.00     0.000 C 
BRANCH   3   4
ATOM      4  C   UNL     1      34.521  -5.541 -18.119  1.00  0.00     0.006 C 
BRANCH   4   5
ATOM      5  C   UNL     1      36.022  -5.861 -18.095  1.00  0.00     0.053 C 
BRANCH   5   6
ATOM      6  C   UNL     1      36.806  -4.804 -17.380  1.00  0.00     0.041 C 
ATOM      7  O   UNL     1      37.502  -5.103 -16.374  1.00  0.00    -0.550 OA
ATOM      8  O   UNL     1      36.741  -3.482 -17.803  1.00  0.00    -0.550 OA
ENDBRANCH   5   6
ENDBRANCH   4   5
ENDBRANCH   3   4
ENDBRANCH   2   3
ENDBRANCH   1   2
BRANCH   1   9
ATOM      9  C   UNL     1      30.479  -5.117 -15.108  1.00  0.00     0.000 C 
BRANCH   9  10
ATOM     10  C   UNL     1      30.248  -5.335 -13.601  1.00  0.00    -0.000 C 
BRANCH  10  11
ATOM     11  C   UNL     1      30.463  -6.778 -13.111  1.00  0.00    -0.000 C 
BRANCH  11  12
ATOM     12  C   UNL     1      29.357  -7.740 -13.578  1.00  0.00    -0.000 C 
BRANCH  12  13
ATOM     13  C   UNL     1      29.896  -8.862 -14.478  1.00  0.00    -0.003 C 
ATOM     14  C   UNL     1      29.537  -8.661 -15.950  1.00  0.00     0.004 C 
ENDBRANCH  12  13
ENDBRANCH  11  12
ENDBRANCH  10  11
ENDBRANCH   9  10
ENDBRANCH   1   9
TORSDOF 10
ENDMDL
MODEL 4
REMARK VINA RESULT:    -4.011      4.598      6.454
REMARK INTER + INTRA:          -6.993
REMARK INTER:                  -6.680
REMARK INTRA:                  -0.313
REMARK UNBOUND:                -0.638
REMARK SMILES CCCCCCCCCCCC(=O)[O-]
REMARK SMILES IDX 7 1 8 2 9 3 10 4 11 5 12 6 13 7 14 8 6 9 5 10 4 11 3 12 2 13
REMARK SMILES IDX 1 14
REMARK H PARENT
REMARK Flexibility Score: inf
ROOT
ATOM      1  C   UNL     1      30.361  -5.584 -14.611  1.00  0.00     0.000 C 
ENDROOT
BRANCH   1   2
ATOM      2  C   UNL     1      29.833  -5.308 -13.193  1.00  0.00     0.000 C 
BRANCH   2   3
ATOM      3  C   UNL     1      30.953  -5.254 -12.144  1.00  0.00     0.000 C 
BRANCH   3   4
ATOM      4  C   UNL     1      31.538  -6.653 -11.897  1.00  0.00     0.006 C 
BRANCH   4   5
ATOM      5  C   UNL     1      32.944  -6.595 -11.282  1.00  0.00     0.053 C 
BRANCH   5   6
ATOM      6  C   UNL     1      32.897  -6.318  -9.810  1.00  0.00     0.041 C 
ATOM      7  O   UNL     1      32.198  -5.368  -9.366  1.00  0.00    -0.550 OA
ATOM      8  O   UNL     1      33.651  -7.086  -8.932  1.00  0.00    -0.550 OA
ENDBRANCH   5   6
ENDBRANCH   4   5
ENDBRANCH   3   4
ENDBRANCH   2   3
ENDBRANCH   1   2
BRANCH   1   9
ATOM      9  C   UNL     1      29.547  -6.663 -15.344  1.00  0.00     0.000 C 
BRANCH   9  10
ATOM     10  C   UNL     1      29.657  -8.049 -14.684  1.00  0.00    -0.000 C 
BRANCH  10  11
ATOM     11  C   UNL     1      29.813  -9.227 -15.663  1.00  0.00    -0.000 C 
BRANCH  11  12
ATOM     12  C   UNL     1      29.555  -8.828 -17.125  1.00  0.00    -0.000 C 
BRANCH  12  13
ATOM     13  C   UNL     1      28.151  -9.227 -17.605  1.00  0.00    -0.003 C 
ATOM     14  C   UNL     1      28.003  -9.152 -19.124  1.00  0.00     0.004 C 
ENDBRANCH  12  13
ENDBRANCH  11  12
ENDBRANCH  10  11
ENDBRANCH   9  10
ENDBRANCH   1   9
TORSDOF 10
ENDMDL
MODEL 5
REMARK VINA RESULT:    -3.723      1.001      1.846
REMARK INTER + INTRA:          -6.538
REMARK INTER:                  -6.280
REMARK INTRA:                  -0.258
REMARK UNBOUND:                -0.638
REMARK SMILES CCCCCCCCCCCC(=O)[O-]
REMARK SMILES IDX 7 1 8 2 9 3 10 4 11 5 12 6 13 7 14 8 6 9 5 10 4 11 3 12 2 13
REMARK SMILES IDX 1 14
REMARK H PARENT
REMARK Flexibility Score: inf
ROOT
ATOM      1  C   UNL     1      30.183  -6.331 -15.296  1.00  0.00     0.000 C 
ENDROOT
BRANCH   1   2
ATOM      2  C   UNL     1      31.236  -5.233 -15.516  1.00  0.00     0.000 C 
BRANCH   2   3
ATOM      3  C   UNL     1      32.059  -5.448 -16.795  1.00  0.00     0.000 C 
BRANCH   3   4
ATOM      4  C   UNL     1      33.564  -5.381 -16.495  1.00  0.00     0.006 C 
BRANCH   4   5
ATOM      5  C   UNL     1      34.407  -5.249 -17.771  1.00  0.00     0.053 C 
BRANCH   5   6
ATOM      6  C   UNL     1      35.861  -5.070 -17.463  1.00  0.00     0.041 C 
ATOM      7  O   UNL     1      36.341  -3.914 -17.320  1.00  0.00    -0.550 OA
ATOM      8  O   UNL     1      36.695  -6.177 -17.367  1.00  0.00    -0.550 OA
ENDBRANCH   5   6
ENDBRANCH   4   5
ENDBRANCH   3   4
ENDBRANCH   2   3
ENDBRANCH   1   2
BRANCH   1   9
ATOM      9  C   UNL     1      29.579  -6.296 -13.882  1.00  0.00     0.000 C 
BRANCH   9  10
ATOM     10  C   UNL     1      30.496  -6.935 -12.823  1.00  0.00    -0.000 C 
BRANCH  10  11
ATOM     11  C   UNL     1      31.584  -6.005 -12.257  1.00  0.00    -0.000 C 
BRANCH  11  12
ATOM     12  C   UNL     1      32.653  -6.758 -11.447  1.00  0.00    -0.000 C 
BRANCH  12  13
ATOM     13  C   UNL     1      32.716  -6.296  -9.984  1.00  0.00    -0.003 C 
ATOM     14  C   UNL     1      33.668  -7.143  -9.138  1.00  0.00     0.004 C 
ENDBRANCH  12  13
ENDBRANCH  11  12
ENDBRANCH  10  11
ENDBRANCH   9  10
ENDBRANCH   1   9
TORSDOF 10
ENDMDL
MODEL 6
REMARK VINA RESULT:    -3.626      4.481      5.608
REMARK INTER + INTRA:          -6.384
REMARK INTER:                  -5.853
REMARK INTRA:                  -0.531
REMARK UNBOUND:                -0.638
REMARK SMILES CCCCCCCCCCCC(=O)[O-]
REMARK SMILES IDX 7 1 8 2 9 3 10 4 11 5 12 6 13 7 14 8 6 9 5 10 4 11 3 12 2 13
REMARK SMILES IDX 1 14
REMARK H PARENT
REMARK Flexibility Score: inf
ROOT
ATOM      1  C   UNL     1      30.003  -5.199 -13.019  1.00  0.00     0.000 C 
ENDROOT
BRANCH   1   2
ATOM      2  C   UNL     1      28.959  -6.224 -13.495  1.00  0.00     0.000 C 
BRANCH   2   3
ATOM      3  C   UNL     1      29.288  -7.656 -13.047  1.00  0.00     0.000 C 
BRANCH   3   4
ATOM      4  C   UNL     1      29.837  -8.483 -14.219  1.00  0.00     0.006 C 
BRANCH   4   5
ATOM      5  C   UNL     1      29.513  -7.850 -15.580  1.00  0.00     0.053 C 
BRANCH   5   6
ATOM      6  C   UNL     1      29.492  -8.870 -16.677  1.00  0.00     0.041 C 
ATOM      7  O   UNL     1      30.476  -9.636 -16.850  1.00  0.00    -0.550 OA
ATOM      8  O   UNL     1      28.399  -8.950 -17.531  1.00  0.00    -0.550 OA
ENDBRANCH   5   6
ENDBRANCH   4   5
ENDBRANCH   3   4
ENDBRANCH   2   3
ENDBRANCH   1   2
BRANCH   1   9
ATOM      9  C   UNL     1      31.443  -5.626 -13.351  1.00  0.00     0.000 C 
BRANCH   9  10
ATOM     10  C   UNL     1      32.238  -6.069 -12.109  1.00  0.00    -0.000 C 
BRANCH  10  11
ATOM     11  C   UNL     1      31.783  -5.434 -10.783  1.00  0.00    -0.000 C 
BRANCH  11  12
ATOM     12  C   UNL     1      32.683  -5.817  -9.596  1.00  0.00    -0.000 C 
BRANCH  12  13
ATOM     13  C   UNL     1      33.331  -7.198  -9.770  1.00  0.00    -0.003 C 
ATOM     14  C   UNL     1      34.168  -7.614  -8.561  1.00  0.00     0.004 C 
ENDBRANCH  12  13
ENDBRANCH  11  12
ENDBRANCH  10  11
ENDBRANCH   9  10
ENDBRANCH   1   9
TORSDOF 10
ENDMDL
MODEL 7
REMARK VINA RESULT:    -3.538      2.078      3.956
REMARK INTER + INTRA:          -6.244
REMARK INTER:                  -5.633
REMARK INTRA:                  -0.611
REMARK UNBOUND:                -0.638
REMARK SMILES CCCCCCCCCCCC(=O)[O-]
REMARK SMILES IDX 7 1 8 2 9 3 10 4 11 5 12 6 13 7 14 8 6 9 5 10 4 11 3 12 2 13
REMARK SMILES IDX 1 14
REMARK H PARENT
REMARK Flexibility Score: inf
ROOT
ATOM      1  C   UNL     1      30.857  -5.478 -14.221  1.00  0.00     0.000 C 
ENDROOT
BRANCH   1   2
ATOM      2  C   UNL     1      31.128  -5.336 -15.728  1.00  0.00     0.000 C 
BRANCH   2   3
ATOM      3  C   UNL     1      32.521  -5.843 -16.129  1.00  0.00     0.000 C 
BRANCH   3   4
ATOM      4  C   UNL     1      33.152  -4.927 -17.189  1.00  0.00     0.006 C 
BRANCH   4   5
ATOM      5  C   UNL     1      34.194  -5.660 -18.045  1.00  0.00     0.053 C 
BRANCH   5   6
ATOM      6  C   UNL     1      35.585  -5.453 -17.529  1.00  0.00     0.041 C 
ATOM      7  O   UNL     1      36.370  -6.431 -17.412  1.00  0.00    -0.550 OA
ATOM      8  O   UNL     1      36.003  -4.186 -17.143  1.00  0.00    -0.550 OA
ENDBRANCH   5   6
ENDBRANCH   4   5
ENDBRANCH   3   4
ENDBRANCH   2   3
ENDBRANCH   1   2
BRANCH   1   9
ATOM      9  C   UNL     1      30.254  -6.845 -13.855  1.00  0.00     0.000 C 
BRANCH   9  10
ATOM     10  C   UNL     1      29.412  -7.452 -14.992  1.00  0.00    -0.000 C 
BRANCH  10  11
ATOM     11  C   UNL     1      29.824  -8.872 -15.422  1.00  0.00    -0.000 C 
BRANCH  11  12
ATOM     12  C   UNL     1      29.720  -9.092 -16.940  1.00  0.00    -0.000 C 
BRANCH  12  13
ATOM     13  C   UNL     1      28.281  -8.951 -17.458  1.00  0.00    -0.003 C 
ATOM     14  C   UNL     1      28.135  -9.374 -18.920  1.00  0.00     0.004 C 
ENDBRANCH  12  13
ENDBRANCH  11  12
ENDBRANCH  10  11
ENDBRANCH   9  10
ENDBRANCH   1   9
TORSDOF 10
ENDMDL
MODEL 8
REMARK VINA RESULT:    -3.497      3.866      6.925
REMARK INTER + INTRA:          -6.180
REMARK INTER:                  -5.939
REMARK INTRA:                  -0.241
REMARK UNBOUND:                -0.638
REMARK SMILES CCCCCCCCCCCC(=O)[O-]
REMARK SMILES IDX 7 1 8 2 9 3 10 4 11 5 12 6 13 7 14 8 6 9 5 10 4 11 3 12 2 13
REMARK SMILES IDX 1 14
REMARK H PARENT
REMARK Flexibility Score: inf
ROOT
ATOM      1  C   UNL     1      33.445  -5.094 -17.748  1.00  0.00     0.000 C 
ENDROOT
BRANCH   1   2
ATOM      2  C   UNL     1      32.872  -5.547 -16.395  1.00  0.00     0.000 C 
BRANCH   2   3
ATOM      3  C   UNL     1      31.427  -5.075 -16.176  1.00  0.00     0.000 C 
BRANCH   3   4
ATOM      4  C   UNL     1      30.855  -5.652 -14.872  1.00  0.00     0.006 C 
BRANCH   4   5
ATOM      5  C   UNL     1      29.617  -6.525 -15.117  1.00  0.00     0.053 C 
BRANCH   5   6
ATOM      6  C   UNL     1      29.661  -7.792 -14.318  1.00  0.00     0.041 C 
ATOM      7  O   UNL     1      29.645  -7.748 -13.059  1.00  0.00    -0.550 OA
ATOM      8  O   UNL     1      29.756  -9.019 -14.962  1.00  0.00    -0.550 OA
ENDBRANCH   5   6
ENDBRANCH   4   5
ENDBRANCH   3   4
ENDBRANCH   2   3
ENDBRANCH   1   2
BRANCH   1   9
ATOM      9  C   UNL     1      34.681  -5.907 -18.168  1.00  0.00     0.000 C 
BRANCH   9  10
ATOM     10  C   UNL     1      35.535  -6.362 -16.970  1.00  0.00    -0.000 C 
BRANCH  10  11
ATOM     11  C   UNL     1      37.049  -6.129 -17.124  1.00  0.00    -0.000 C 
BRANCH  11  12
ATOM     12  C   UNL     1      37.475  -4.698 -16.757  1.00  0.00    -0.000 C 
BRANCH  12  13
ATOM     13  C   UNL     1      36.782  -3.637 -17.625  1.00  0.00    -0.003 C 
ATOM     14  C   UNL     1      37.522  -3.371 -18.936  1.00  0.00     0.004 C 
ENDBRANCH  12  13
ENDBRANCH  11  12
ENDBRANCH  10  11
ENDBRANCH   9  10
ENDBRANCH   1   9
TORSDOF 10
ENDMDL
