MODEL 1
REMARK VINA RESULT:    -5.209      0.000      0.000
REMARK INTER + INTRA:          -8.926
REMARK INTER:                  -7.950
REMARK INTRA:                  -0.976
REMARK UNBOUND:                -0.976
REMARK SMILES CC(=O)CCC=C(C)CCC=C(C)CCC=C(C)C
REMARK SMILES IDX 10 1 11 2 12 3 13 4 14 5 15 6 16 7 18 8 17 9 19 10 9 11 7 12
REMARK SMILES IDX 6 13 8 14 5 15 4 16 2 17 3 18 1 19
REMARK H PARENT
REMARK Flexibility Score: inf
ROOT
ATOM      1  C   UNL     1      14.697 -43.668  -6.989  1.00  0.00     0.032 C 
ENDROOT
BRANCH   1   2
ATOM      2  C   UNL     1      13.296 -43.794  -7.541  1.00  0.00    -0.028 C 
ATOM      3  C   UNL     1      12.296 -42.916  -7.306  1.00  0.00    -0.077 C 
ATOM      4  C   UNL     1      12.464 -41.745  -6.367  1.00  0.00     0.039 C 
BRANCH   3   5
ATOM      5  C   UNL     1      10.948 -43.138  -7.960  1.00  0.00     0.034 C 
BRANCH   5   6
ATOM      6  C   UNL     1      10.409 -41.855  -8.608  1.00  0.00     0.032 C 
BRANCH   6   7
ATOM      7  C   UNL     1      11.276 -41.391  -9.756  1.00  0.00    -0.028 C 
ATOM      8  C   UNL     1      12.636 -39.834 -11.081  1.00  0.00     0.039 C 
ATOM      9  C   UNL     1      11.743 -40.133  -9.904  1.00  0.00    -0.080 C 
ATOM     10  C   UNL     1      11.382 -39.024  -8.944  1.00  0.00     0.039 C 
ENDBRANCH   6   7
ENDBRANCH   5   6
ENDBRANCH   3   5
ENDBRANCH   1   2
BRANCH   1  11
ATOM     11  C   UNL     1      15.375 -45.038  -6.850  1.00  0.00     0.034 C 
BRANCH  11  12
ATOM     12  C   UNL     1      16.824 -44.996  -7.291  1.00  0.00    -0.077 C 
ATOM     13  C   UNL     1      17.268 -45.901  -8.190  1.00  0.00    -0.028 C 
ATOM     14  C   UNL     1      17.739 -43.938  -6.720  1.00  0.00     0.039 C 
BRANCH  13  15
ATOM     15  C   UNL     1      18.692 -45.932  -8.693  1.00  0.00     0.035 C 
BRANCH  15  16
ATOM     16  C   UNL     1      18.779 -45.442 -10.142  1.00  0.00     0.079 C 
BRANCH  16  17
ATOM     17  C   UNL     1      20.189 -45.552 -10.658  1.00  0.00     0.130 C 
ATOM     18  O   UNL     1      21.072 -45.955  -9.915  1.00  0.00    -0.300 OA
ATOM     19  C   UNL     1      20.540 -45.167 -12.065  1.00  0.00     0.087 C 
ENDBRANCH  16  17
ENDBRANCH  15  16
ENDBRANCH  13  15
ENDBRANCH  11  12
ENDBRANCH   1  11
TORSDOF 9
ENDMDL
MODEL 2
REMARK VINA RESULT:    -5.050      2.440      6.677
REMARK INTER + INTRA:          -8.683
REMARK INTER:                  -6.697
REMARK INTRA:                  -1.986
REMARK UNBOUND:                -0.976
REMARK SMILES CC(=O)CCC=C(C)CCC=C(C)CCC=C(C)C
REMARK SMILES IDX 10 1 11 2 12 3 13 4 14 5 15 6 16 7 18 8 17 9 19 10 9 11 7 12
REMARK SMILES IDX 6 13 8 14 5 15 4 16 2 17 3 18 1 19
REMARK H PARENT
REMARK Flexibility Score: inf
ROOT
ATOM      1  C   UNL     1      10.426 -42.556  -7.564  1.00  0.00     0.032 C 
ENDROOT
BRANCH   1   2
ATOM      2  C   UNL     1      11.596 -43.444  -7.917  1.00  0.00    -0.028 C 
ATOM      3  C   UNL     1      12.836 -43.325  -7.392  1.00  0.00    -0.077 C 
ATOM      4  C   UNL     1      13.201 -42.205  -6.447  1.00  0.00     0.039 C 
BRANCH   3   5
ATOM      5  C   UNL     1      13.910 -44.313  -7.801  1.00  0.00     0.034 C 
BRANCH   5   6
ATOM      6  C   UNL     1      14.688 -44.844  -6.589  1.00  0.00     0.032 C 
BRANCH   6   7
ATOM      7  C   UNL     1      16.059 -45.351  -6.972  1.00  0.00    -0.028 C 
ATOM      8  C   UNL     1      18.481 -45.255  -7.363  1.00  0.00     0.039 C 
ATOM      9  C   UNL     1      17.176 -44.593  -7.006  1.00  0.00    -0.080 C 
ATOM     10  C   UNL     1      17.148 -43.110  -6.717  1.00  0.00     0.039 C 
ENDBRANCH   6   7
ENDBRANCH   5   6
ENDBRANCH   3   5
ENDBRANCH   1   2
BRANCH   1  11
ATOM     11  C   UNL     1       9.973 -41.714  -8.764  1.00  0.00     0.034 C 
BRANCH  11  12
ATOM     12  C   UNL     1      10.956 -40.604  -9.077  1.00  0.00    -0.077 C 
ATOM     13  C   UNL     1      11.701 -40.677 -10.201  1.00  0.00    -0.028 C 
ATOM     14  C   UNL     1      11.076 -39.436  -8.126  1.00  0.00     0.039 C 
BRANCH  13  15
ATOM     15  C   UNL     1      12.700 -39.615 -10.597  1.00  0.00     0.035 C 
BRANCH  15  16
ATOM     16  C   UNL     1      14.080 -40.224 -10.863  1.00  0.00     0.079 C 
BRANCH  16  17
ATOM     17  C   UNL     1      14.807 -40.483  -9.570  1.00  0.00     0.130 C 
ATOM     18  O   UNL     1      15.398 -41.541  -9.413  1.00  0.00    -0.300 OA
ATOM     19  C   UNL     1      14.814 -39.473  -8.461  1.00  0.00     0.087 C 
ENDBRANCH  16  17
ENDBRANCH  15  16
ENDBRANCH  13  15
ENDBRANCH  11  12
ENDBRANCH   1  11
TORSDOF 9
ENDMDL
MODEL 3
REMARK VINA RESULT:    -4.998     16.525     18.934
REMARK INTER + INTRA:          -8.604
REMARK INTER:                  -6.827
REMARK INTRA:                  -1.777
REMARK UNBOUND:                -0.976
REMARK SMILES CC(=O)CCC=C(C)CCC=C(C)CCC=C(C)C
REMARK SMILES IDX 10 1 11 2 12 3 13 4 14 5 15 6 16 7 18 8 17 9 19 10 9 11 7 12
REMARK SMILES IDX 6 13 8 14 5 15 4 16 2 17 3 18 1 19
REMARK H PARENT
REMARK Flexibility Score: inf
ROOT
ATOM      1  C   UNL     1      28.551 -33.423 -16.153  1.00  0.00     0.032 C 
ENDROOT
BRANCH   1   2
ATOM      2  C   UNL     1      28.905 -32.019 -15.722  1.00  0.00    -0.028 C 
ATOM      3  C   UNL     1      28.142 -31.247 -14.917  1.00  0.00    -0.077 C 
ATOM      4  C   UNL     1      26.782 -31.694 -14.435  1.00  0.00     0.039 C 
BRANCH   3   5
ATOM      5  C   UNL     1      28.637 -29.870 -14.526  1.00  0.00     0.034 C 
BRANCH   5   6
ATOM      6  C   UNL     1      27.484 -28.867 -14.385  1.00  0.00     0.032 C 
BRANCH   6   7
ATOM      7  C   UNL     1      27.510 -27.816 -15.472  1.00  0.00    -0.028 C 
ATOM      8  C   UNL     1      26.767 -26.622 -17.485  1.00  0.00     0.039 C 
ATOM      9  C   UNL     1      26.643 -27.761 -16.505  1.00  0.00    -0.080 C 
ATOM     10  C   UNL     1      25.574 -28.808 -16.714  1.00  0.00     0.039 C 
ENDBRANCH   6   7
ENDBRANCH   5   6
ENDBRANCH   3   5
ENDBRANCH   1   2
BRANCH   1  11
ATOM     11  C   UNL     1      29.442 -34.466 -15.466  1.00  0.00     0.034 C 
BRANCH  11  12
ATOM     12  C   UNL     1      29.011 -34.722 -14.036  1.00  0.00    -0.077 C 
ATOM     13  C   UNL     1      29.563 -33.997 -13.039  1.00  0.00    -0.028 C 
ATOM     14  C   UNL     1      27.967 -35.778 -13.758  1.00  0.00     0.039 C 
BRANCH  13  15
ATOM     15  C   UNL     1      29.190 -34.177 -11.587  1.00  0.00     0.035 C 
BRANCH  15  16
ATOM     16  C   UNL     1      27.916 -33.401 -11.241  1.00  0.00     0.079 C 
BRANCH  16  17
ATOM     17  C   UNL     1      28.241 -32.179 -10.425  1.00  0.00     0.130 C 
ATOM     18  O   UNL     1      28.933 -32.290  -9.424  1.00  0.00    -0.300 OA
ATOM     19  C   UNL     1      27.724 -30.823 -10.807  1.00  0.00     0.087 C 
ENDBRANCH  16  17
ENDBRANCH  15  16
ENDBRANCH  13  15
ENDBRANCH  11  12
ENDBRANCH   1  11
TORSDOF 9
ENDMDL
MODEL 4
REMARK VINA RESULT:    -4.966      2.547      7.723
REMARK INTER + INTRA:          -8.555
REMARK INTER:                  -7.285
REMARK INTRA:                  -1.270
REMARK UNBOUND:                -0.976
REMARK SMILES CC(=O)CCC=C(C)CCC=C(C)CCC=C(C)C
REMARK SMILES IDX 10 1 11 2 12 3 13 4 14 5 15 6 16 7 18 8 17 9 19 10 9 11 7 12
REMARK SMILES IDX 6 13 8 14 5 15 4 16 2 17 3 18 1 19
REMARK H PARENT
REMARK Flexibility Score: inf
ROOT
ATOM      1  C   UNL     1      14.784 -44.604  -6.377  1.00  0.00     0.032 C 
ENDROOT
BRANCH   1   2
ATOM      2  C   UNL     1      16.016 -45.273  -6.942  1.00  0.00    -0.028 C 
ATOM      3  C   UNL     1      17.189 -44.646  -7.180  1.00  0.00    -0.077 C 
ATOM      4  C   UNL     1      17.354 -43.157  -6.984  1.00  0.00     0.039 C 
BRANCH   3   5
ATOM      5  C   UNL     1      18.361 -45.446  -7.708  1.00  0.00     0.034 C 
BRANCH   5   6
ATOM      6  C   UNL     1      18.034 -46.125  -9.045  1.00  0.00     0.032 C 
BRANCH   6   7
ATOM      7  C   UNL     1      19.131 -45.932 -10.065  1.00  0.00    -0.028 C 
ATOM      8  C   UNL     1      20.312 -44.894 -11.952  1.00  0.00     0.039 C 
ATOM      9  C   UNL     1      19.119 -44.993 -11.036  1.00  0.00    -0.080 C 
ATOM     10  C   UNL     1      17.946 -44.063 -11.240  1.00  0.00     0.039 C 
ENDBRANCH   6   7
ENDBRANCH   5   6
ENDBRANCH   3   5
ENDBRANCH   1   2
BRANCH   1  11
ATOM     11  C   UNL     1      13.630 -44.599  -7.387  1.00  0.00     0.034 C 
BRANCH  11  12
ATOM     12  C   UNL     1      12.754 -43.372  -7.236  1.00  0.00    -0.077 C 
ATOM     13  C   UNL     1      11.531 -43.358  -7.808  1.00  0.00    -0.028 C 
ATOM     14  C   UNL     1      13.266 -42.194  -6.441  1.00  0.00     0.039 C 
BRANCH  13  15
ATOM     15  C   UNL     1      10.587 -42.183  -7.705  1.00  0.00     0.035 C 
BRANCH  15  16
ATOM     16  C   UNL     1      10.488 -41.432  -9.036  1.00  0.00     0.079 C 
BRANCH  16  17
ATOM     17  C   UNL     1      11.378 -40.218  -9.032  1.00  0.00     0.130 C 
ATOM     18  O   UNL     1      12.515 -40.304  -9.473  1.00  0.00    -0.300 OA
ATOM     19  C   UNL     1      10.905 -38.903  -8.488  1.00  0.00     0.087 C 
ENDBRANCH  16  17
ENDBRANCH  15  16
ENDBRANCH  13  15
ENDBRANCH  11  12
ENDBRANCH   1  11
TORSDOF 9
ENDMDL
MODEL 5
REMARK VINA RESULT:    -4.874     16.317     19.003
REMARK INTER + INTRA:          -8.415
REMARK INTER:                  -6.276
REMARK INTRA:                  -2.139
REMARK UNBOUND:                -0.976
REMARK SMILES CC(=O)CCC=C(C)CCC=C(C)CCC=C(C)C
REMARK SMILES IDX 10 1 11 2 12 3 13 4 14 5 15 6 16 7 18 8 17 9 19 10 9 11 7 12
REMARK SMILES IDX 6 13 8 14 5 15 4 16 2 17 3 18 1 19
REMARK H PARENT
REMARK Flexibility Score: inf
ROOT
ATOM      1  C   UNL     1      29.186 -34.599 -15.485  1.00  0.00     0.032 C 
ENDROOT
BRANCH   1   2
ATOM      2  C   UNL     1      29.749 -34.457 -14.090  1.00  0.00    -0.028 C 
ATOM      3  C   UNL     1      29.301 -35.132 -13.008  1.00  0.00    -0.077 C 
ATOM      4  C   UNL     1      28.101 -36.047 -13.077  1.00  0.00     0.039 C 
BRANCH   3   5
ATOM      5  C   UNL     1      29.987 -34.928 -11.674  1.00  0.00     0.034 C 
BRANCH   5   6
ATOM      6  C   UNL     1      28.992 -34.526 -10.576  1.00  0.00     0.032 C 
BRANCH   6   7
ATOM      7  C   UNL     1      28.860 -33.026 -10.449  1.00  0.00    -0.028 C 
ATOM      8  C   UNL     1      27.793 -30.823 -10.639  1.00  0.00     0.039 C 
ATOM      9  C   UNL     1      27.798 -32.310 -10.879  1.00  0.00    -0.080 C 
ATOM     10  C   UNL     1      26.638 -32.951 -11.603  1.00  0.00     0.039 C 
ENDBRANCH   6   7
ENDBRANCH   5   6
ENDBRANCH   3   5
ENDBRANCH   1   2
BRANCH   1  11
ATOM     11  C   UNL     1      28.953 -33.233 -16.143  1.00  0.00     0.034 C 
BRANCH  11  12
ATOM     12  C   UNL     1      27.890 -32.433 -15.418  1.00  0.00    -0.077 C 
ATOM     13  C   UNL     1      28.190 -31.199 -14.956  1.00  0.00    -0.028 C 
ATOM     14  C   UNL     1      26.515 -33.030 -15.233  1.00  0.00     0.039 C 
BRANCH  13  15
ATOM     15  C   UNL     1      27.194 -30.327 -14.229  1.00  0.00     0.035 C 
BRANCH  15  16
ATOM     16  C   UNL     1      27.653 -28.866 -14.202  1.00  0.00     0.079 C 
BRANCH  16  17
ATOM     17  C   UNL     1      26.917 -28.056 -15.236  1.00  0.00     0.130 C 
ATOM     18  O   UNL     1      26.047 -28.589 -15.910  1.00  0.00    -0.300 OA
ATOM     19  C   UNL     1      27.233 -26.609 -15.467  1.00  0.00     0.087 C 
ENDBRANCH  16  17
ENDBRANCH  15  16
ENDBRANCH  13  15
ENDBRANCH  11  12
ENDBRANCH   1  11
TORSDOF 9
ENDMDL
MODEL 6
REMARK VINA RESULT:    -4.848     15.757     17.796
REMARK INTER + INTRA:          -8.375
REMARK INTER:                  -6.015
REMARK INTRA:                  -2.361
REMARK UNBOUND:                -0.976
REMARK SMILES CC(=O)CCC=C(C)CCC=C(C)CCC=C(C)C
REMARK SMILES IDX 10 1 11 2 12 3 13 4 14 5 15 6 16 7 18 8 17 9 19 10 9 11 7 12
REMARK SMILES IDX 6 13 8 14 5 15 4 16 2 17 3 18 1 19
REMARK H PARENT
REMARK Flexibility Score: inf
ROOT
ATOM      1  C   UNL     1      27.223 -30.446 -13.742  1.00  0.00     0.032 C 
ENDROOT
BRANCH   1   2
ATOM      2  C   UNL     1      27.850 -30.669 -12.385  1.00  0.00    -0.028 C 
ATOM      3  C   UNL     1      27.165 -30.998 -11.267  1.00  0.00    -0.077 C 
ATOM      4  C   UNL     1      25.657 -31.085 -11.250  1.00  0.00     0.039 C 
BRANCH   3   5
ATOM      5  C   UNL     1      27.924 -31.237  -9.979  1.00  0.00     0.034 C 
BRANCH   5   6
ATOM      6  C   UNL     1      28.717 -32.551 -10.018  1.00  0.00     0.032 C 
BRANCH   6   7
ATOM      7  C   UNL     1      27.940 -33.664 -10.681  1.00  0.00    -0.028 C 
ATOM      8  C   UNL     1      27.499 -35.483 -12.271  1.00  0.00     0.039 C 
ATOM      9  C   UNL     1      28.369 -34.368 -11.751  1.00  0.00    -0.080 C 
ATOM     10  C   UNL     1      29.675 -34.059 -12.444  1.00  0.00     0.039 C 
ENDBRANCH   6   7
ENDBRANCH   5   6
ENDBRANCH   3   5
ENDBRANCH   1   2
BRANCH   1  11
ATOM     11  C   UNL     1      28.145 -30.915 -14.874  1.00  0.00     0.034 C 
BRANCH  11  12
ATOM     12  C   UNL     1      27.878 -32.356 -15.259  1.00  0.00    -0.077 C 
ATOM     13  C   UNL     1      28.820 -33.046 -15.937  1.00  0.00    -0.028 C 
ATOM     14  C   UNL     1      26.564 -32.992 -14.869  1.00  0.00     0.039 C 
BRANCH  13  15
ATOM     15  C   UNL     1      28.644 -34.486 -16.356  1.00  0.00     0.035 C 
BRANCH  15  16
ATOM     16  C   UNL     1      29.740 -35.375 -15.759  1.00  0.00     0.079 C 
BRANCH  16  17
ATOM     17  C   UNL     1      29.178 -36.709 -15.346  1.00  0.00     0.130 C 
ATOM     18  O   UNL     1      29.721 -37.339 -14.451  1.00  0.00    -0.300 OA
ATOM     19  C   UNL     1      27.969 -37.290 -16.017  1.00  0.00     0.087 C 
ENDBRANCH  16  17
ENDBRANCH  15  16
ENDBRANCH  13  15
ENDBRANCH  11  12
ENDBRANCH   1  11
TORSDOF 9
ENDMDL
MODEL 7
REMARK VINA RESULT:    -4.831      2.797      5.324
REMARK INTER + INTRA:          -8.348
REMARK INTER:                  -6.164
REMARK INTRA:                  -2.184
REMARK UNBOUND:                -0.976
REMARK SMILES CC(=O)CCC=C(C)CCC=C(C)CCC=C(C)C
REMARK SMILES IDX 10 1 11 2 12 3 13 4 14 5 15 6 16 7 18 8 17 9 19 10 9 11 7 12
REMARK SMILES IDX 6 13 8 14 5 15 4 16 2 17 3 18 1 19
REMARK H PARENT
REMARK Flexibility Score: inf
ROOT
ATOM      1  C   UNL     1      18.678 -45.935  -9.404  1.00  0.00     0.032 C 
ENDROOT
BRANCH   1   2
ATOM      2  C   UNL     1      17.376 -45.952  -8.637  1.00  0.00    -0.028 C 
ATOM      3  C   UNL     1      17.135 -45.235  -7.517  1.00  0.00    -0.077 C 
ATOM      4  C   UNL     1      18.206 -44.399  -6.857  1.00  0.00     0.039 C 
BRANCH   3   5
ATOM      5  C   UNL     1      15.768 -45.310  -6.871  1.00  0.00     0.034 C 
BRANCH   5   6
ATOM      6  C   UNL     1      15.066 -43.945  -6.859  1.00  0.00     0.032 C 
BRANCH   6   7
ATOM      7  C   UNL     1      13.676 -44.015  -7.448  1.00  0.00    -0.028 C 
ATOM      8  C   UNL     1      11.400 -43.260  -7.974  1.00  0.00     0.039 C 
ATOM      9  C   UNL     1      12.726 -43.070  -7.284  1.00  0.00    -0.080 C 
ATOM     10  C   UNL     1      12.946 -41.850  -6.420  1.00  0.00     0.039 C 
ENDBRANCH   6   7
ENDBRANCH   5   6
ENDBRANCH   3   5
ENDBRANCH   1   2
BRANCH   1  11
ATOM     11  C   UNL     1      18.515 -45.275 -10.779  1.00  0.00     0.034 C 
BRANCH  11  12
ATOM     12  C   UNL     1      18.255 -43.786 -10.662  1.00  0.00    -0.077 C 
ATOM     13  C   UNL     1      17.000 -43.318 -10.837  1.00  0.00    -0.028 C 
ATOM     14  C   UNL     1      19.405 -42.859 -10.346  1.00  0.00     0.039 C 
BRANCH  13  15
ATOM     15  C   UNL     1      16.646 -41.854 -10.732  1.00  0.00     0.035 C 
BRANCH  15  16
ATOM     16  C   UNL     1      15.510 -41.628  -9.729  1.00  0.00     0.079 C 
BRANCH  16  17
ATOM     17  C   UNL     1      15.961 -40.732  -8.606  1.00  0.00     0.130 C 
ATOM     18  O   UNL     1      15.344 -39.703  -8.374  1.00  0.00    -0.300 OA
ATOM     19  C   UNL     1      17.159 -41.068  -7.769  1.00  0.00     0.087 C 
ENDBRANCH  16  17
ENDBRANCH  15  16
ENDBRANCH  13  15
ENDBRANCH  11  12
ENDBRANCH   1  11
TORSDOF 9
ENDMDL
MODEL 8
REMARK VINA RESULT:    -4.810     16.597     18.766
REMARK INTER + INTRA:          -8.316
REMARK INTER:                  -6.486
REMARK INTRA:                  -1.831
REMARK UNBOUND:                -0.976
REMARK SMILES CC(=O)CCC=C(C)CCC=C(C)CCC=C(C)C
REMARK SMILES IDX 10 1 11 2 12 3 13 4 14 5 15 6 16 7 18 8 17 9 19 10 9 11 7 12
REMARK SMILES IDX 6 13 8 14 5 15 4 16 2 17 3 18 1 19
REMARK H PARENT
REMARK Flexibility Score: inf
ROOT
ATOM      1  C   UNL     1      25.851 -31.580 -13.659  1.00  0.00     0.032 C 
ENDROOT
BRANCH   1   2
ATOM      2  C   UNL     1      26.590 -30.286 -13.907  1.00  0.00    -0.028 C 
ATOM      3  C   UNL     1      27.684 -30.164 -14.692  1.00  0.00    -0.077 C 
ATOM      4  C   UNL     1      28.342 -31.360 -15.337  1.00  0.00     0.039 C 
BRANCH   3   5
ATOM      5  C   UNL     1      28.302 -28.796 -14.891  1.00  0.00     0.034 C 
BRANCH   5   6
ATOM      6  C   UNL     1      27.238 -27.691 -14.954  1.00  0.00     0.032 C 
BRANCH   6   7
ATOM      7  C   UNL     1      27.169 -27.045 -16.318  1.00  0.00    -0.028 C 
ATOM      8  C   UNL     1      26.304 -26.601 -18.573  1.00  0.00     0.039 C 
ATOM      9  C   UNL     1      26.276 -27.370 -17.277  1.00  0.00    -0.080 C 
ATOM     10  C   UNL     1      25.272 -28.484 -17.095  1.00  0.00     0.039 C 
ENDBRANCH   6   7
ENDBRANCH   5   6
ENDBRANCH   3   5
ENDBRANCH   1   2
BRANCH   1  11
ATOM     11  C   UNL     1      25.977 -32.031 -12.199  1.00  0.00     0.034 C 
BRANCH  11  12
ATOM     12  C   UNL     1      27.382 -32.492 -11.870  1.00  0.00    -0.077 C 
ATOM     13  C   UNL     1      27.876 -33.594 -12.474  1.00  0.00    -0.028 C 
ATOM     14  C   UNL     1      28.204 -31.702 -10.878  1.00  0.00     0.039 C 
BRANCH  13  15
ATOM     15  C   UNL     1      29.267 -34.123 -12.215  1.00  0.00     0.035 C 
BRANCH  15  16
ATOM     16  C   UNL     1      30.125 -34.072 -13.482  1.00  0.00     0.079 C 
BRANCH  16  17
ATOM     17  C   UNL     1      29.891 -35.291 -14.334  1.00  0.00     0.130 C 
ATOM     18  O   UNL     1      30.049 -36.402 -13.850  1.00  0.00    -0.300 OA
ATOM     19  C   UNL     1      29.478 -35.174 -15.771  1.00  0.00     0.087 C 
ENDBRANCH  16  17
ENDBRANCH  15  16
ENDBRANCH  13  15
ENDBRANCH  11  12
ENDBRANCH   1  11
TORSDOF 9
ENDMDL
MODEL 9
REMARK VINA RESULT:    -4.783      2.921      8.007
REMARK INTER + INTRA:          -8.276
REMARK INTER:                  -6.887
REMARK INTRA:                  -1.388
REMARK UNBOUND:                -0.976
REMARK SMILES CC(=O)CCC=C(C)CCC=C(C)CCC=C(C)C
REMARK SMILES IDX 10 1 11 2 12 3 13 4 14 5 15 6 16 7 18 8 17 9 19 10 9 11 7 12
REMARK SMILES IDX 6 13 8 14 5 15 4 16 2 17 3 18 1 19
REMARK H PARENT
REMARK Flexibility Score: inf
ROOT
ATOM      1  C   UNL     1      15.254 -43.257  -8.626  1.00  0.00     0.032 C 
ENDROOT
BRANCH   1   2
ATOM      2  C   UNL     1      16.185 -44.330  -9.141  1.00  0.00    -0.028 C 
ATOM      3  C   UNL     1      17.043 -44.171 -10.174  1.00  0.00    -0.077 C 
ATOM      4  C   UNL     1      17.086 -42.901 -10.989  1.00  0.00     0.039 C 
BRANCH   3   5
ATOM      5  C   UNL     1      17.955 -45.317 -10.560  1.00  0.00     0.034 C 
BRANCH   5   6
ATOM      6  C   UNL     1      18.407 -46.125  -9.336  1.00  0.00     0.032 C 
BRANCH   6   7
ATOM      7  C   UNL     1      19.809 -45.764  -8.904  1.00  0.00    -0.028 C 
ATOM      8  C   UNL     1      21.562 -44.792  -7.485  1.00  0.00     0.039 C 
ATOM      9  C   UNL     1      20.110 -45.029  -7.812  1.00  0.00    -0.080 C 
ATOM     10  C   UNL     1      19.042 -44.426  -6.930  1.00  0.00     0.039 C 
ENDBRANCH   6   7
ENDBRANCH   5   6
ENDBRANCH   3   5
ENDBRANCH   1   2
BRANCH   1  11
ATOM     11  C   UNL     1      14.685 -43.617  -7.248  1.00  0.00     0.034 C 
BRANCH  11  12
ATOM     12  C   UNL     1      13.345 -42.954  -7.001  1.00  0.00    -0.077 C 
ATOM     13  C   UNL     1      12.301 -43.253  -7.803  1.00  0.00    -0.028 C 
ATOM     14  C   UNL     1      13.205 -41.977  -5.856  1.00  0.00     0.039 C 
BRANCH  13  15
ATOM     15  C   UNL     1      10.928 -42.647  -7.628  1.00  0.00     0.035 C 
BRANCH  15  16
ATOM     16  C   UNL     1      10.439 -41.998  -8.927  1.00  0.00     0.079 C 
BRANCH  16  17
ATOM     17  C   UNL     1      11.200 -40.731  -9.210  1.00  0.00     0.130 C 
ATOM     18  O   UNL     1      11.733 -40.579 -10.299  1.00  0.00    -0.300 OA
ATOM     19  C   UNL     1      11.329 -39.649  -8.179  1.00  0.00     0.087 C 
ENDBRANCH  16  17
ENDBRANCH  15  16
ENDBRANCH  13  15
ENDBRANCH  11  12
ENDBRANCH   1  11
TORSDOF 9
ENDMDL
