MODEL 1
REMARK VINA RESULT:    -4.957      0.000      0.000
REMARK INTER + INTRA:          -5.344
REMARK INTER:                  -5.246
REMARK INTRA:                  -0.098
REMARK UNBOUND:                -0.098
REMARK SMILES C=C(C)[C@H]1CC=C(C)C(=O)C1
REMARK SMILES IDX 8 1 7 2 6 3 5 4 4 5 11 6 9 7 10 8 2 9 1 10 3 11
REMARK H PARENT
REMARK Flexibility Score: inf
ROOT
ATOM      1  C   UNL     1      -1.506   4.771  12.023  1.00  0.00     0.048 C 
ATOM      2  C   UNL     1      -0.998   5.387  13.297  1.00  0.00    -0.012 C 
ATOM      3  C   UNL     1      -0.752   6.707  13.351  1.00  0.00    -0.019 C 
ATOM      4  C   UNL     1      -0.226   7.372  14.594  1.00  0.00     0.036 C 
ATOM      5  C   UNL     1      -0.749   6.670  15.863  1.00  0.00     0.025 C 
ATOM      6  C   UNL     1      -0.416   5.168  15.818  1.00  0.00     0.089 C 
ATOM      7  C   UNL     1      -0.886   4.560  14.525  1.00  0.00     0.158 C 
ATOM      8  O   UNL     1      -1.150   3.328  14.485  1.00  0.00    -0.295 OA
ENDROOT
BRANCH   5   9
ATOM      9  C   UNL     1      -0.216   7.326  17.129  1.00  0.00    -0.077 C 
ATOM     10  C   UNL     1       0.035   6.608  18.237  1.00  0.00     0.008 C 
ATOM     11  C   UNL     1       0.041   8.811  17.160  1.00  0.00     0.039 C 
ENDBRANCH   5   9
TORSDOF 1
ENDMDL
MODEL 2
REMARK VINA RESULT:    -4.915      0.162      1.057
REMARK INTER + INTRA:          -5.300
REMARK INTER:                  -5.205
REMARK INTRA:                  -0.095
REMARK UNBOUND:                -0.098
REMARK SMILES C=C(C)[C@H]1CC=C(C)C(=O)C1
REMARK SMILES IDX 8 1 7 2 6 3 5 4 4 5 11 6 9 7 10 8 2 9 1 10 3 11
REMARK H PARENT
REMARK Flexibility Score: inf
ROOT
ATOM      1  C   UNL     1      -1.508   4.844  12.128  1.00  0.00     0.048 C 
ATOM      2  C   UNL     1      -0.982   5.440  13.404  1.00  0.00    -0.012 C 
ATOM      3  C   UNL     1      -0.734   6.759  13.474  1.00  0.00    -0.019 C 
ATOM      4  C   UNL     1      -0.190   7.405  14.720  1.00  0.00     0.036 C 
ATOM      5  C   UNL     1      -0.698   6.686  15.985  1.00  0.00     0.025 C 
ATOM      6  C   UNL     1      -0.368   5.183  15.914  1.00  0.00     0.089 C 
ATOM      7  C   UNL     1      -0.856   4.595  14.619  1.00  0.00     0.158 C 
ATOM      8  O   UNL     1      -1.123   3.364  14.565  1.00  0.00    -0.295 OA
ENDROOT
BRANCH   5   9
ATOM      9  C   UNL     1      -0.147   7.322  17.254  1.00  0.00    -0.077 C 
ATOM     10  C   UNL     1       0.038   8.650  17.346  1.00  0.00     0.008 C 
ATOM     11  C   UNL     1       0.205   6.462  18.440  1.00  0.00     0.039 C 
ENDBRANCH   5   9
TORSDOF 1
ENDMDL
MODEL 3
REMARK VINA RESULT:    -4.666      1.900      4.659
REMARK INTER + INTRA:          -5.036
REMARK INTER:                  -4.938
REMARK INTRA:                  -0.098
REMARK UNBOUND:                -0.098
REMARK SMILES C=C(C)[C@H]1CC=C(C)C(=O)C1
REMARK SMILES IDX 8 1 7 2 6 3 5 4 4 5 11 6 9 7 10 8 2 9 1 10 3 11
REMARK H PARENT
REMARK Flexibility Score: inf
ROOT
ATOM      1  C   UNL     1       0.290   5.029  17.609  1.00  0.00     0.048 C 
ATOM      2  C   UNL     1      -0.123   5.209  16.174  1.00  0.00    -0.012 C 
ATOM      3  C   UNL     1      -0.438   4.136  15.428  1.00  0.00    -0.019 C 
ATOM      4  C   UNL     1      -0.840   4.258  13.983  1.00  0.00     0.036 C 
ATOM      5  C   UNL     1      -1.594   5.577  13.726  1.00  0.00     0.025 C 
ATOM      6  C   UNL     1      -0.751   6.775  14.201  1.00  0.00     0.089 C 
ATOM      7  C   UNL     1      -0.302   6.576  15.622  1.00  0.00     0.158 C 
ATOM      8  O   UNL     1      -0.042   7.585  16.332  1.00  0.00    -0.295 OA
ENDROOT
BRANCH   5   9
ATOM      9  C   UNL     1      -1.998   5.718  12.265  1.00  0.00    -0.077 C 
ATOM     10  C   UNL     1      -2.384   6.901  11.757  1.00  0.00     0.008 C 
ATOM     11  C   UNL     1      -1.972   4.517  11.354  1.00  0.00     0.039 C 
ENDBRANCH   5   9
TORSDOF 1
ENDMDL
MODEL 4
REMARK VINA RESULT:    -4.603      1.059      1.710
REMARK INTER + INTRA:          -4.970
REMARK INTER:                  -4.875
REMARK INTRA:                  -0.095
REMARK UNBOUND:                -0.098
REMARK SMILES C=C(C)[C@H]1CC=C(C)C(=O)C1
REMARK SMILES IDX 8 1 7 2 6 3 5 4 4 5 11 6 9 7 10 8 2 9 1 10 3 11
REMARK H PARENT
REMARK Flexibility Score: inf
ROOT
ATOM      1  C   UNL     1      -2.090   5.791  12.876  1.00  0.00     0.048 C 
ATOM      2  C   UNL     1      -1.340   5.921  14.172  1.00  0.00    -0.012 C 
ATOM      3  C   UNL     1      -1.253   7.117  14.778  1.00  0.00    -0.019 C 
ATOM      4  C   UNL     1      -0.500   7.307  16.068  1.00  0.00     0.036 C 
ATOM      5  C   UNL     1      -0.576   6.043  16.946  1.00  0.00     0.025 C 
ATOM      6  C   UNL     1      -0.085   4.815  16.158  1.00  0.00     0.089 C 
ATOM      7  C   UNL     1      -0.804   4.708  14.842  1.00  0.00     0.158 C 
ATOM      8  O   UNL     1      -0.917   3.579  14.292  1.00  0.00    -0.295 OA
ENDROOT
BRANCH   5   9
ATOM      9  C   UNL     1       0.191   6.217  18.250  1.00  0.00    -0.077 C 
ATOM     10  C   UNL     1       0.382   7.432  18.792  1.00  0.00     0.008 C 
ATOM     11  C   UNL     1       0.755   5.014  18.962  1.00  0.00     0.039 C 
ENDBRANCH   5   9
TORSDOF 1
ENDMDL
MODEL 5
REMARK VINA RESULT:    -4.550      1.671      2.300
REMARK INTER + INTRA:          -4.914
REMARK INTER:                  -4.818
REMARK INTRA:                  -0.096
REMARK UNBOUND:                -0.098
REMARK SMILES C=C(C)[C@H]1CC=C(C)C(=O)C1
REMARK SMILES IDX 8 1 7 2 6 3 5 4 4 5 11 6 9 7 10 8 2 9 1 10 3 11
REMARK H PARENT
REMARK Flexibility Score: inf
ROOT
ATOM      1  C   UNL     1      -1.592   5.060  11.637  1.00  0.00     0.048 C 
ATOM      2  C   UNL     1      -1.366   5.144  13.120  1.00  0.00    -0.012 C 
ATOM      3  C   UNL     1      -0.780   4.122  13.767  1.00  0.00    -0.019 C 
ATOM      4  C   UNL     1      -0.546   4.146  15.254  1.00  0.00     0.036 C 
ATOM      5  C   UNL     1      -0.276   5.580  15.750  1.00  0.00     0.025 C 
ATOM      6  C   UNL     1      -1.421   6.517  15.324  1.00  0.00     0.089 C 
ATOM      7  C   UNL     1      -1.677   6.402  13.846  1.00  0.00     0.158 C 
ATOM      8  O   UNL     1      -2.194   7.375  13.234  1.00  0.00    -0.295 OA
ENDROOT
BRANCH   5   9
ATOM      9  C   UNL     1      -0.048   5.620  17.255  1.00  0.00    -0.077 C 
ATOM     10  C   UNL     1       0.318   4.521  17.937  1.00  0.00     0.008 C 
ATOM     11  C   UNL     1      -0.232   6.910  18.013  1.00  0.00     0.039 C 
ENDBRANCH   5   9
TORSDOF 1
ENDMDL
MODEL 6
REMARK VINA RESULT:    -4.502      1.370      4.405
REMARK INTER + INTRA:          -4.863
REMARK INTER:                  -4.768
REMARK INTRA:                  -0.095
REMARK UNBOUND:                -0.098
REMARK SMILES C=C(C)[C@H]1CC=C(C)C(=O)C1
REMARK SMILES IDX 8 1 7 2 6 3 5 4 4 5 11 6 9 7 10 8 2 9 1 10 3 11
REMARK H PARENT
REMARK Flexibility Score: inf
ROOT
ATOM      1  C   UNL     1       0.165   5.614  17.180  1.00  0.00     0.048 C 
ATOM      2  C   UNL     1      -0.524   5.615  15.844  1.00  0.00    -0.012 C 
ATOM      3  C   UNL     1      -0.928   6.776  15.300  1.00  0.00    -0.019 C 
ATOM      4  C   UNL     1      -1.638   6.832  13.974  1.00  0.00     0.036 C 
ATOM      5  C   UNL     1      -1.151   5.711  13.035  1.00  0.00     0.025 C 
ATOM      6  C   UNL     1      -1.299   4.339  13.719  1.00  0.00     0.089 C 
ATOM      7  C   UNL     1      -0.647   4.351  15.075  1.00  0.00     0.158 C 
ATOM      8  O   UNL     1      -0.237   3.266  15.569  1.00  0.00    -0.295 OA
ENDROOT
BRANCH   5   9
ATOM      9  C   UNL     1      -1.869   5.749  11.693  1.00  0.00    -0.077 C 
ATOM     10  C   UNL     1      -2.200   6.914  11.111  1.00  0.00     0.008 C 
ATOM     11  C   UNL     1      -2.223   4.465  10.989  1.00  0.00     0.039 C 
ENDBRANCH   5   9
TORSDOF 1
ENDMDL
MODEL 7
REMARK VINA RESULT:    -4.368      1.931      3.119
REMARK INTER + INTRA:          -4.721
REMARK INTER:                  -4.624
REMARK INTRA:                  -0.097
REMARK UNBOUND:                -0.098
REMARK SMILES C=C(C)[C@H]1CC=C(C)C(=O)C1
REMARK SMILES IDX 8 1 7 2 6 3 5 4 4 5 11 6 9 7 10 8 2 9 1 10 3 11
REMARK H PARENT
REMARK Flexibility Score: inf
ROOT
ATOM      1  C   UNL     1      -3.635   6.445  10.175  1.00  0.00     0.048 C 
ATOM      2  C   UNL     1      -2.743   6.247  11.368  1.00  0.00    -0.012 C 
ATOM      3  C   UNL     1      -2.654   7.208  12.304  1.00  0.00    -0.019 C 
ATOM      4  C   UNL     1      -1.763   7.070  13.509  1.00  0.00     0.036 C 
ATOM      5  C   UNL     1      -1.655   5.599  13.954  1.00  0.00     0.025 C 
ATOM      6  C   UNL     1      -1.191   4.718  12.780  1.00  0.00     0.089 C 
ATOM      7  C   UNL     1      -2.057   4.946  11.572  1.00  0.00     0.158 C 
ATOM      8  O   UNL     1      -2.168   4.030  10.713  1.00  0.00    -0.295 OA
ENDROOT
BRANCH   5   9
ATOM      9  C   UNL     1      -0.747   5.444  15.167  1.00  0.00    -0.077 C 
ATOM     10  C   UNL     1      -0.257   6.514  15.815  1.00  0.00     0.008 C 
ATOM     11  C   UNL     1      -0.379   4.069  15.664  1.00  0.00     0.039 C 
ENDBRANCH   5   9
TORSDOF 1
ENDMDL
MODEL 8
REMARK VINA RESULT:    -4.363     18.673     20.369
REMARK INTER + INTRA:          -4.716
REMARK INTER:                  -4.621
REMARK INTRA:                  -0.095
REMARK UNBOUND:                -0.098
REMARK SMILES C=C(C)[C@H]1CC=C(C)C(=O)C1
REMARK SMILES IDX 8 1 7 2 6 3 5 4 4 5 11 6 9 7 10 8 2 9 1 10 3 11
REMARK H PARENT
REMARK Flexibility Score: inf
ROOT
ATOM      1  C   UNL     1     -14.879  -2.021   5.154  1.00  0.00     0.048 C 
ATOM      2  C   UNL     1     -15.398  -3.056   6.113  1.00  0.00    -0.012 C 
ATOM      3  C   UNL     1     -16.520  -3.736   5.821  1.00  0.00    -0.019 C 
ATOM      4  C   UNL     1     -17.093  -4.770   6.753  1.00  0.00     0.036 C 
ATOM      5  C   UNL     1     -15.977  -5.494   7.533  1.00  0.00     0.025 C 
ATOM      6  C   UNL     1     -15.091  -4.472   8.268  1.00  0.00     0.089 C 
ATOM      7  C   UNL     1     -14.606  -3.411   7.318  1.00  0.00     0.158 C 
ATOM      8  O   UNL     1     -13.534  -2.799   7.575  1.00  0.00    -0.295 OA
ENDROOT
BRANCH   5   9
ATOM      9  C   UNL     1     -16.544  -6.536   8.487  1.00  0.00    -0.077 C 
ATOM     10  C   UNL     1     -17.741  -6.368   9.075  1.00  0.00     0.008 C 
ATOM     11  C   UNL     1     -15.760  -7.787   8.791  1.00  0.00     0.039 C 
ENDBRANCH   5   9
TORSDOF 1
ENDMDL
MODEL 9
REMARK VINA RESULT:    -4.316      1.582      4.249
REMARK INTER + INTRA:          -4.666
REMARK INTER:                  -4.569
REMARK INTRA:                  -0.098
REMARK UNBOUND:                -0.098
REMARK SMILES C=C(C)[C@H]1CC=C(C)C(=O)C1
REMARK SMILES IDX 8 1 7 2 6 3 5 4 4 5 11 6 9 7 10 8 2 9 1 10 3 11
REMARK H PARENT
REMARK Flexibility Score: inf
ROOT
ATOM      1  C   UNL     1       0.098   7.292  18.839  1.00  0.00     0.048 C 
ATOM      2  C   UNL     1      -0.381   6.808  17.499  1.00  0.00    -0.012 C 
ATOM      3  C   UNL     1      -1.153   7.602  16.738  1.00  0.00    -0.019 C 
ATOM      4  C   UNL     1      -1.675   7.160  15.396  1.00  0.00     0.036 C 
ATOM      5  C   UNL     1      -0.679   6.215  14.697  1.00  0.00     0.025 C 
ATOM      6  C   UNL     1      -0.339   5.024  15.612  1.00  0.00     0.089 C 
ATOM      7  C   UNL     1       0.099   5.507  16.968  1.00  0.00     0.158 C 
ATOM      8  O   UNL     1       0.853   4.777  17.666  1.00  0.00    -0.295 OA
ENDROOT
BRANCH   5   9
ATOM      9  C   UNL     1      -1.199   5.752  13.343  1.00  0.00    -0.077 C 
ATOM     10  C   UNL     1      -0.987   4.500  12.903  1.00  0.00     0.008 C 
ATOM     11  C   UNL     1      -1.968   6.704  12.464  1.00  0.00     0.039 C 
ENDBRANCH   5   9
TORSDOF 1
ENDMDL
