MODEL 1
REMARK VINA RESULT:    -2.626      0.000      0.000
REMARK INTER + INTRA:          -2.626
REMARK INTER:                  -2.626
REMARK INTRA:                   0.000
REMARK UNBOUND:                 0.000
REMARK SMILES CC(=O)[O-]
REMARK SMILES IDX 1 1 2 2 3 3 4 4
REMARK H PARENT
REMARK Flexibility Score: inf
ROOT
ATOM      1  C   UNL     1      96.544 137.707 119.447  1.00  0.00     0.063 C 
ATOM      2  C   UNL     1      97.286 136.836 120.405  1.00  0.00     0.038 C 
ATOM      3  O   UNL     1      96.900 135.655 120.614  1.00  0.00    -0.550 OA
ATOM      4  O   UNL     1      98.435 137.306 121.027  1.00  0.00    -0.550 OA
ENDROOT
TORSDOF 0
ENDMDL
MODEL 2
REMARK VINA RESULT:    -2.567      1.887      2.444
REMARK INTER + INTRA:          -2.567
REMARK INTER:                  -2.567
REMARK INTRA:                   0.000
REMARK UNBOUND:                 0.000
REMARK SMILES CC(=O)[O-]
REMARK SMILES IDX 1 1 2 2 3 3 4 4
REMARK H PARENT
REMARK Flexibility Score: inf
ROOT
ATOM      1  C   UNL     1      97.252 136.186 119.896  1.00  0.00     0.063 C 
ATOM      2  C   UNL     1      96.919 137.626 119.689  1.00  0.00     0.038 C 
ATOM      3  O   UNL     1      97.274 138.485 120.538  1.00  0.00    -0.550 OA
ATOM      4  O   UNL     1      96.266 138.030 118.531  1.00  0.00    -0.550 OA
ENDROOT
TORSDOF 0
ENDMDL
MODEL 3
REMARK VINA RESULT:    -2.552     13.593     14.120
REMARK INTER + INTRA:          -2.552
REMARK INTER:                  -2.552
REMARK INTRA:                   0.000
REMARK UNBOUND:                 0.000
REMARK SMILES CC(=O)[O-]
REMARK SMILES IDX 1 1 2 2 3 3 4 4
REMARK H PARENT
REMARK Flexibility Score: inf
ROOT
ATOM      1  C   UNL     1      96.776 124.007 125.956  1.00  0.00     0.063 C 
ATOM      2  C   UNL     1      95.732 123.812 124.908  1.00  0.00     0.038 C 
ATOM      3  O   UNL     1      95.896 124.294 123.756  1.00  0.00    -0.550 OA
ATOM      4  O   UNL     1      94.603 123.052 125.184  1.00  0.00    -0.550 OA
ENDROOT
TORSDOF 0
ENDMDL
MODEL 4
REMARK VINA RESULT:    -2.544     13.855     14.201
REMARK INTER + INTRA:          -2.544
REMARK INTER:                  -2.544
REMARK INTRA:                   0.000
REMARK UNBOUND:                 0.000
REMARK SMILES CC(=O)[O-]
REMARK SMILES IDX 1 1 2 2 3 3 4 4
REMARK H PARENT
REMARK Flexibility Score: inf
ROOT
ATOM      1  C   UNL     1      96.016 124.486 124.064  1.00  0.00     0.063 C 
ATOM      2  C   UNL     1      95.642 123.623 125.222  1.00  0.00     0.038 C 
ATOM      3  O   UNL     1      94.547 123.001 125.219  1.00  0.00    -0.550 OA
ATOM      4  O   UNL     1      96.524 123.461 126.282  1.00  0.00    -0.550 OA
ENDROOT
TORSDOF 0
ENDMDL
MODEL 5
REMARK VINA RESULT:    -2.513     13.883     14.403
REMARK INTER + INTRA:          -2.513
REMARK INTER:                  -2.513
REMARK INTRA:                   0.000
REMARK UNBOUND:                 0.000
REMARK SMILES CC(=O)[O-]
REMARK SMILES IDX 1 1 2 2 3 3 4 4
REMARK H PARENT
REMARK Flexibility Score: inf
ROOT
ATOM      1  C   UNL     1      95.618 124.162 124.061  1.00  0.00     0.063 C 
ATOM      2  C   UNL     1      94.397 123.460 124.555  1.00  0.00     0.038 C 
ATOM      3  O   UNL     1      94.476 122.663 125.527  1.00  0.00    -0.550 OA
ATOM      4  O   UNL     1      93.161 123.725 123.979  1.00  0.00    -0.550 OA
ENDROOT
TORSDOF 0
ENDMDL
MODEL 6
REMARK VINA RESULT:    -2.505     13.546     14.028
REMARK INTER + INTRA:          -2.505
REMARK INTER:                  -2.505
REMARK INTRA:                   0.000
REMARK UNBOUND:                 0.000
REMARK SMILES CC(=O)[O-]
REMARK SMILES IDX 1 1 2 2 3 3 4 4
REMARK H PARENT
REMARK Flexibility Score: inf
ROOT
ATOM      1  C   UNL     1      93.632 123.589 124.113  1.00  0.00     0.063 C 
ATOM      2  C   UNL     1      95.027 123.737 124.619  1.00  0.00     0.038 C 
ATOM      3  O   UNL     1      95.384 123.147 125.672  1.00  0.00    -0.550 OA
ATOM      4  O   UNL     1      95.952 124.484 123.900  1.00  0.00    -0.550 OA
ENDROOT
TORSDOF 0
ENDMDL
MODEL 7
REMARK VINA RESULT:    -2.504     13.074     13.715
REMARK INTER + INTRA:          -2.504
REMARK INTER:                  -2.504
REMARK INTRA:                   0.000
REMARK UNBOUND:                 0.000
REMARK SMILES CC(=O)[O-]
REMARK SMILES IDX 1 1 2 2 3 3 4 4
REMARK H PARENT
REMARK Flexibility Score: inf
ROOT
ATOM      1  C   UNL     1      95.777 124.161 124.091  1.00  0.00     0.063 C 
ATOM      2  C   UNL     1      96.581 124.234 125.345  1.00  0.00     0.038 C 
ATOM      3  O   UNL     1      97.350 125.211 125.547  1.00  0.00    -0.550 OA
ATOM      4  O   UNL     1      96.443 123.253 126.319  1.00  0.00    -0.550 OA
ENDROOT
TORSDOF 0
ENDMDL
MODEL 8
REMARK VINA RESULT:    -2.498     13.603     14.046
REMARK INTER + INTRA:          -2.498
REMARK INTER:                  -2.498
REMARK INTRA:                   0.000
REMARK UNBOUND:                 0.000
REMARK SMILES CC(=O)[O-]
REMARK SMILES IDX 1 1 2 2 3 3 4 4
REMARK H PARENT
REMARK Flexibility Score: inf
ROOT
ATOM      1  C   UNL     1      96.879 124.087 126.021  1.00  0.00     0.063 C 
ATOM      2  C   UNL     1      95.819 123.789 125.014  1.00  0.00     0.038 C 
ATOM      3  O   UNL     1      94.822 123.089 125.335  1.00  0.00    -0.550 OA
ATOM      4  O   UNL     1      95.901 124.327 123.737  1.00  0.00    -0.550 OA
ENDROOT
TORSDOF 0
ENDMDL
MODEL 9
REMARK VINA RESULT:    -2.368     13.342     13.973
REMARK INTER + INTRA:          -2.368
REMARK INTER:                  -2.368
REMARK INTRA:                   0.000
REMARK UNBOUND:                 0.000
REMARK SMILES CC(=O)[O-]
REMARK SMILES IDX 1 1 2 2 3 3 4 4
REMARK H PARENT
REMARK Flexibility Score: inf
ROOT
ATOM      1  C   UNL     1      97.638 125.076 126.168  1.00  0.00     0.063 C 
ATOM      2  C   UNL     1      96.655 124.087 125.639  1.00  0.00     0.038 C 
ATOM      3  O   UNL     1      96.190 124.217 124.476  1.00  0.00    -0.550 OA
ATOM      4  O   UNL     1      96.290 122.989 126.409  1.00  0.00    -0.550 OA
ENDROOT
TORSDOF 0
ENDMDL
