MODEL 1
REMARK VINA RESULT:    -4.443      0.000      0.000
REMARK INTER + INTRA:         -14.825
REMARK INTER:                 -11.197
REMARK INTRA:                  -3.628
REMARK UNBOUND:                -3.628
REMARK SMILES CCCCCCCCCCCCCCCCCCCCCCCCCCCC(=O)[O-]
REMARK SMILES IDX 15 1 16 2 17 3 18 4 19 5 20 6 21 7 22 8 23 9 24 10 25 11
REMARK SMILES IDX 26 12 27 13 28 14 29 15 30 16 14 17 13 18 12 19 11 20 10 21
REMARK SMILES IDX 9 22 8 23 7 24 6 25 5 26 4 27 3 28 2 29 1 30
REMARK H PARENT
REMARK Flexibility Score: inf
ROOT
ATOM      1  C   UNL     1      24.823 -14.608  26.559  1.00  0.00     0.000 C 
ENDROOT
BRANCH   1   2
ATOM      2  C   UNL     1      23.305 -14.789  26.367  1.00  0.00     0.000 C 
BRANCH   2   3
ATOM      3  C   UNL     1      22.892 -16.266  26.264  1.00  0.00     0.000 C 
BRANCH   3   4
ATOM      4  C   UNL     1      22.105 -16.747  27.497  1.00  0.00     0.000 C 
BRANCH   4   5
ATOM      5  C   UNL     1      21.741 -15.588  28.448  1.00  0.00     0.000 C 
BRANCH   5   6
ATOM      6  C   UNL     1      20.710 -15.969  29.528  1.00  0.00     0.000 C 
BRANCH   6   7
ATOM      7  C   UNL     1      19.558 -14.966  29.706  1.00  0.00     0.000 C 
BRANCH   7   8
ATOM      8  C   UNL     1      18.719 -15.241  30.963  1.00  0.00     0.000 C 
BRANCH   8   9
ATOM      9  C   UNL     1      19.548 -15.978  32.024  1.00  0.00     0.000 C 
BRANCH   9  10
ATOM     10  C   UNL     1      18.677 -16.954  32.827  1.00  0.00     0.000 C 
BRANCH  10  11
ATOM     11  C   UNL     1      17.534 -17.565  31.996  1.00  0.00     0.000 C 
BRANCH  11  12
ATOM     12  C   UNL     1      16.169 -17.633  32.713  1.00  0.00     0.006 C 
BRANCH  12  13
ATOM     13  C   UNL     1      15.211 -16.478  32.375  1.00  0.00     0.053 C 
BRANCH  13  14
ATOM     14  C   UNL     1      14.212 -16.868  31.328  1.00  0.00     0.041 C 
ATOM     15  O   UNL     1      14.601 -17.288  30.207  1.00  0.00    -0.550 OA
ATOM     16  O   UNL     1      12.851 -16.737  31.581  1.00  0.00    -0.550 OA
ENDBRANCH  13  14
ENDBRANCH  12  13
ENDBRANCH  11  12
ENDBRANCH  10  11
ENDBRANCH   9  10
ENDBRANCH   8   9
ENDBRANCH   7   8
ENDBRANCH   6   7
ENDBRANCH   5   6
ENDBRANCH   4   5
ENDBRANCH   3   4
ENDBRANCH   2   3
ENDBRANCH   1   2
BRANCH   1  17
ATOM     17  C   UNL     1      25.587 -15.947  26.483  1.00  0.00     0.000 C 
BRANCH  17  18
ATOM     18  C   UNL     1      26.576 -16.041  25.302  1.00  0.00     0.000 C 
BRANCH  18  19
ATOM     19  C   UNL     1      26.596 -17.393  24.566  1.00  0.00     0.000 C 
BRANCH  19  20
ATOM     20  C   UNL     1      25.830 -18.494  25.321  1.00  0.00     0.000 C 
BRANCH  20  21
ATOM     21  C   UNL     1      26.680 -19.755  25.553  1.00  0.00     0.000 C 
BRANCH  21  22
ATOM     22  C   UNL     1      28.012 -19.793  24.781  1.00  0.00    -0.000 C 
BRANCH  22  23
ATOM     23  C   UNL     1      29.282 -19.813  25.658  1.00  0.00    -0.000 C 
BRANCH  23  24
ATOM     24  C   UNL     1      29.851 -18.428  26.013  1.00  0.00    -0.000 C 
BRANCH  24  25
ATOM     25  C   UNL     1      30.290 -18.327  27.481  1.00  0.00    -0.000 C 
BRANCH  25  26
ATOM     26  C   UNL     1      29.174 -18.803  28.420  1.00  0.00    -0.000 C 
BRANCH  26  27
ATOM     27  C   UNL     1      28.004 -17.806  28.434  1.00  0.00    -0.000 C 
BRANCH  27  28
ATOM     28  C   UNL     1      26.955 -18.137  29.514  1.00  0.00    -0.000 C 
BRANCH  28  29
ATOM     29  C   UNL     1      26.029 -19.311  29.149  1.00  0.00    -0.003 C 
ATOM     30  C   UNL     1      24.596 -18.878  28.845  1.00  0.00     0.004 C 
ENDBRANCH  28  29
ENDBRANCH  27  28
ENDBRANCH  26  27
ENDBRANCH  25  26
ENDBRANCH  24  25
ENDBRANCH  23  24
ENDBRANCH  22  23
ENDBRANCH  21  22
ENDBRANCH  20  21
ENDBRANCH  19  20
ENDBRANCH  18  19
ENDBRANCH  17  18
ENDBRANCH   1  17
TORSDOF 26
ENDMDL
MODEL 2
REMARK VINA RESULT:    -4.392      4.399     10.923
REMARK INTER + INTRA:         -14.695
REMARK INTER:                 -12.083
REMARK INTRA:                  -2.612
REMARK UNBOUND:                -3.628
REMARK SMILES CCCCCCCCCCCCCCCCCCCCCCCCCCCC(=O)[O-]
REMARK SMILES IDX 15 1 16 2 17 3 18 4 19 5 20 6 21 7 22 8 23 9 24 10 25 11
REMARK SMILES IDX 26 12 27 13 28 14 29 15 30 16 14 17 13 18 12 19 11 20 10 21
REMARK SMILES IDX 9 22 8 23 7 24 6 25 5 26 4 27 3 28 2 29 1 30
REMARK H PARENT
REMARK Flexibility Score: inf
ROOT
ATOM      1  C   UNL     1      22.939 -17.230  25.912  1.00  0.00     0.000 C 
ENDROOT
BRANCH   1   2
ATOM      2  C   UNL     1      24.425 -17.625  26.027  1.00  0.00     0.000 C 
BRANCH   2   3
ATOM      3  C   UNL     1      25.335 -16.425  26.338  1.00  0.00     0.000 C 
BRANCH   3   4
ATOM      4  C   UNL     1      26.599 -16.400  25.460  1.00  0.00     0.000 C 
BRANCH   4   5
ATOM      5  C   UNL     1      26.592 -17.512  24.390  1.00  0.00     0.000 C 
BRANCH   5   6
ATOM      6  C   UNL     1      27.766 -18.502  24.514  1.00  0.00     0.000 C 
BRANCH   6   7
ATOM      7  C   UNL     1      28.398 -18.586  25.912  1.00  0.00     0.000 C 
BRANCH   7   8
ATOM      8  C   UNL     1      27.745 -19.658  26.797  1.00  0.00     0.000 C 
BRANCH   8   9
ATOM      9  C   UNL     1      27.294 -19.062  28.137  1.00  0.00     0.000 C 
BRANCH   9  10
ATOM     10  C   UNL     1      28.366 -18.128  28.715  1.00  0.00     0.000 C 
BRANCH  10  11
ATOM     11  C   UNL     1      27.775 -16.869  29.376  1.00  0.00     0.000 C 
BRANCH  11  12
ATOM     12  C   UNL     1      28.695 -16.175  30.401  1.00  0.00     0.006 C 
BRANCH  12  13
ATOM     13  C   UNL     1      28.407 -14.679  30.610  1.00  0.00     0.053 C 
BRANCH  13  14
ATOM     14  C   UNL     1      29.430 -14.029  31.491  1.00  0.00     0.041 C 
ATOM     15  O   UNL     1      29.498 -12.775  31.564  1.00  0.00    -0.550 OA
ATOM     16  O   UNL     1      30.331 -14.811  32.206  1.00  0.00    -0.550 OA
ENDBRANCH  13  14
ENDBRANCH  12  13
ENDBRANCH  11  12
ENDBRANCH  10  11
ENDBRANCH   9  10
ENDBRANCH   8   9
ENDBRANCH   7   8
ENDBRANCH   6   7
ENDBRANCH   5   6
ENDBRANCH   4   5
ENDBRANCH   3   4
ENDBRANCH   2   3
ENDBRANCH   1   2
BRANCH   1  17
ATOM     17  C   UNL     1      22.683 -15.776  26.361  1.00  0.00     0.000 C 
BRANCH  17  18
ATOM     18  C   UNL     1      22.109 -15.649  27.787  1.00  0.00     0.000 C 
BRANCH  18  19
ATOM     19  C   UNL     1      21.789 -16.982  28.489  1.00  0.00     0.000 C 
BRANCH  19  20
ATOM     20  C   UNL     1      20.681 -16.846  29.547  1.00  0.00     0.000 C 
BRANCH  20  21
ATOM     21  C   UNL     1      20.130 -15.413  29.649  1.00  0.00     0.000 C 
BRANCH  21  22
ATOM     22  C   UNL     1      19.275 -15.132  30.900  1.00  0.00    -0.000 C 
BRANCH  22  23
ATOM     23  C   UNL     1      19.581 -16.023  32.121  1.00  0.00    -0.000 C 
BRANCH  23  24
ATOM     24  C   UNL     1      18.481 -17.037  32.481  1.00  0.00    -0.000 C 
BRANCH  24  25
ATOM     25  C   UNL     1      17.273 -16.961  31.536  1.00  0.00    -0.000 C 
BRANCH  25  26
ATOM     26  C   UNL     1      16.007 -16.550  32.297  1.00  0.00    -0.000 C 
BRANCH  26  27
ATOM     27  C   UNL     1      14.827 -17.468  31.938  1.00  0.00    -0.000 C 
BRANCH  27  28
ATOM     28  C   UNL     1      14.321 -17.247  30.498  1.00  0.00    -0.000 C 
BRANCH  28  29
ATOM     29  C   UNL     1      12.844 -16.822  30.411  1.00  0.00    -0.003 C 
ATOM     30  C   UNL     1      12.424 -15.865  31.525  1.00  0.00     0.004 C 
ENDBRANCH  28  29
ENDBRANCH  27  28
ENDBRANCH  26  27
ENDBRANCH  25  26
ENDBRANCH  24  25
ENDBRANCH  23  24
ENDBRANCH  22  23
ENDBRANCH  21  22
ENDBRANCH  20  21
ENDBRANCH  19  20
ENDBRANCH  18  19
ENDBRANCH  17  18
ENDBRANCH   1  17
TORSDOF 26
ENDMDL
MODEL 3
REMARK VINA RESULT:    -4.345      2.702      5.191
REMARK INTER + INTRA:         -14.578
REMARK INTER:                 -10.479
REMARK INTRA:                  -4.099
REMARK UNBOUND:                -3.628
REMARK SMILES CCCCCCCCCCCCCCCCCCCCCCCCCCCC(=O)[O-]
REMARK SMILES IDX 15 1 16 2 17 3 18 4 19 5 20 6 21 7 22 8 23 9 24 10 25 11
REMARK SMILES IDX 26 12 27 13 28 14 29 15 30 16 14 17 13 18 12 19 11 20 10 21
REMARK SMILES IDX 9 22 8 23 7 24 6 25 5 26 4 27 3 28 2 29 1 30
REMARK H PARENT
REMARK Flexibility Score: inf
ROOT
ATOM      1  C   UNL     1      25.800 -15.978  25.836  1.00  0.00     0.000 C 
ENDROOT
BRANCH   1   2
ATOM      2  C   UNL     1      25.704 -16.113  27.368  1.00  0.00     0.000 C 
BRANCH   2   3
ATOM      3  C   UNL     1      26.719 -17.117  27.940  1.00  0.00     0.000 C 
BRANCH   3   4
ATOM      4  C   UNL     1      26.041 -18.283  28.683  1.00  0.00     0.000 C 
BRANCH   4   5
ATOM      5  C   UNL     1      25.935 -19.551  27.810  1.00  0.00     0.000 C 
BRANCH   5   6
ATOM      6  C   UNL     1      24.489 -20.029  27.579  1.00  0.00     0.000 C 
BRANCH   6   7
ATOM      7  C   UNL     1      23.870 -19.594  26.241  1.00  0.00     0.000 C 
BRANCH   7   8
ATOM      8  C   UNL     1      22.563 -18.805  26.419  1.00  0.00     0.000 C 
BRANCH   8   9
ATOM      9  C   UNL     1      22.588 -17.513  25.592  1.00  0.00     0.000 C 
BRANCH   9  10
ATOM     10  C   UNL     1      22.223 -16.297  26.455  1.00  0.00     0.000 C 
BRANCH  10  11
ATOM     11  C   UNL     1      22.137 -16.628  27.956  1.00  0.00     0.000 C 
BRANCH  11  12
ATOM     12  C   UNL     1      21.410 -15.574  28.817  1.00  0.00     0.006 C 
BRANCH  12  13
ATOM     13  C   UNL     1      20.679 -16.144  30.044  1.00  0.00     0.053 C 
BRANCH  13  14
ATOM     14  C   UNL     1      19.363 -15.466  30.276  1.00  0.00     0.041 C 
ATOM     15  O   UNL     1      18.808 -14.826  29.344  1.00  0.00    -0.550 OA
ATOM     16  O   UNL     1      18.766 -15.513  31.530  1.00  0.00    -0.550 OA
ENDBRANCH  13  14
ENDBRANCH  12  13
ENDBRANCH  11  12
ENDBRANCH  10  11
ENDBRANCH   9  10
ENDBRANCH   8   9
ENDBRANCH   7   8
ENDBRANCH   6   7
ENDBRANCH   5   6
ENDBRANCH   4   5
ENDBRANCH   3   4
ENDBRANCH   2   3
ENDBRANCH   1   2
BRANCH   1  17
ATOM     17  C   UNL     1      27.066 -16.654  25.267  1.00  0.00     0.000 C 
BRANCH  17  18
ATOM     18  C   UNL     1      26.789 -17.962  24.497  1.00  0.00     0.000 C 
BRANCH  18  19
ATOM     19  C   UNL     1      27.828 -19.079  24.703  1.00  0.00     0.000 C 
BRANCH  19  20
ATOM     20  C   UNL     1      29.014 -18.636  25.576  1.00  0.00     0.000 C 
BRANCH  20  21
ATOM     21  C   UNL     1      29.419 -19.700  26.611  1.00  0.00     0.000 C 
BRANCH  21  22
ATOM     22  C   UNL     1      30.765 -19.442  27.316  1.00  0.00    -0.000 C 
BRANCH  22  23
ATOM     23  C   UNL     1      30.701 -18.490  28.530  1.00  0.00    -0.000 C 
BRANCH  23  24
ATOM     24  C   UNL     1      29.605 -18.818  29.559  1.00  0.00    -0.000 C 
BRANCH  24  25
ATOM     25  C   UNL     1      29.534 -17.789  30.696  1.00  0.00    -0.000 C 
BRANCH  25  26
ATOM     26  C   UNL     1      29.357 -16.370  30.141  1.00  0.00    -0.000 C 
BRANCH  26  27
ATOM     27  C   UNL     1      29.854 -15.320  31.148  1.00  0.00    -0.000 C 
BRANCH  27  28
ATOM     28  C   UNL     1      28.719 -14.419  31.675  1.00  0.00    -0.000 C 
BRANCH  28  29
ATOM     29  C   UNL     1      29.173 -12.999  32.056  1.00  0.00    -0.003 C 
ATOM     30  C   UNL     1      30.328 -12.980  33.055  1.00  0.00     0.004 C 
ENDBRANCH  28  29
ENDBRANCH  27  28
ENDBRANCH  26  27
ENDBRANCH  25  26
ENDBRANCH  24  25
ENDBRANCH  23  24
ENDBRANCH  22  23
ENDBRANCH  21  22
ENDBRANCH  20  21
ENDBRANCH  19  20
ENDBRANCH  18  19
ENDBRANCH  17  18
ENDBRANCH   1  17
TORSDOF 26
ENDMDL
MODEL 4
REMARK VINA RESULT:    -4.288      1.409      2.372
REMARK INTER + INTRA:         -14.433
REMARK INTER:                 -11.827
REMARK INTRA:                  -2.606
REMARK UNBOUND:                -3.628
REMARK SMILES CCCCCCCCCCCCCCCCCCCCCCCCCCCC(=O)[O-]
REMARK SMILES IDX 15 1 16 2 17 3 18 4 19 5 20 6 21 7 22 8 23 9 24 10 25 11
REMARK SMILES IDX 26 12 27 13 28 14 29 15 30 16 14 17 13 18 12 19 11 20 10 21
REMARK SMILES IDX 9 22 8 23 7 24 6 25 5 26 4 27 3 28 2 29 1 30
REMARK H PARENT
REMARK Flexibility Score: inf
ROOT
ATOM      1  C   UNL     1      22.918 -14.925  26.426  1.00  0.00     0.000 C 
ENDROOT
BRANCH   1   2
ATOM      2  C   UNL     1      22.144 -14.927  27.758  1.00  0.00     0.000 C 
BRANCH   2   3
ATOM      3  C   UNL     1      21.776 -16.344  28.229  1.00  0.00     0.000 C 
BRANCH   3   4
ATOM      4  C   UNL     1      20.879 -16.336  29.480  1.00  0.00     0.000 C 
BRANCH   4   5
ATOM      5  C   UNL     1      20.145 -14.992  29.667  1.00  0.00     0.000 C 
BRANCH   5   6
ATOM      6  C   UNL     1      19.187 -14.968  30.873  1.00  0.00     0.000 C 
BRANCH   6   7
ATOM      7  C   UNL     1      19.261 -16.205  31.784  1.00  0.00     0.000 C 
BRANCH   7   8
ATOM      8  C   UNL     1      17.895 -16.879  31.983  1.00  0.00     0.000 C 
BRANCH   8   9
ATOM      9  C   UNL     1      17.881 -18.281  31.361  1.00  0.00     0.000 C 
BRANCH   9  10
ATOM     10  C   UNL     1      17.754 -18.207  29.833  1.00  0.00     0.000 C 
BRANCH  10  11
ATOM     11  C   UNL     1      16.387 -17.674  29.367  1.00  0.00     0.000 C 
BRANCH  11  12
ATOM     12  C   UNL     1      15.174 -18.206  30.160  1.00  0.00     0.006 C 
BRANCH  12  13
ATOM     13  C   UNL     1      13.963 -17.259  30.188  1.00  0.00     0.053 C 
BRANCH  13  14
ATOM     14  C   UNL     1      13.726 -16.693  31.555  1.00  0.00     0.041 C 
ATOM     15  O   UNL     1      12.710 -15.985  31.779  1.00  0.00    -0.550 OA
ATOM     16  O   UNL     1      14.646 -16.921  32.572  1.00  0.00    -0.550 OA
ENDBRANCH  13  14
ENDBRANCH  12  13
ENDBRANCH  11  12
ENDBRANCH  10  11
ENDBRANCH   9  10
ENDBRANCH   8   9
ENDBRANCH   7   8
ENDBRANCH   6   7
ENDBRANCH   5   6
ENDBRANCH   4   5
ENDBRANCH   3   4
ENDBRANCH   2   3
ENDBRANCH   1   2
BRANCH   1  17
ATOM     17  C   UNL     1      24.444 -14.832  26.636  1.00  0.00     0.000 C 
BRANCH  17  18
ATOM     18  C   UNL     1      25.163 -16.198  26.642  1.00  0.00     0.000 C 
BRANCH  18  19
ATOM     19  C   UNL     1      26.255 -16.372  25.572  1.00  0.00     0.000 C 
BRANCH  19  20
ATOM     20  C   UNL     1      26.201 -17.746  24.884  1.00  0.00     0.000 C 
BRANCH  20  21
ATOM     21  C   UNL     1      27.592 -18.257  24.467  1.00  0.00     0.000 C 
BRANCH  21  22
ATOM     22  C   UNL     1      27.886 -19.722  24.841  1.00  0.00    -0.000 C 
BRANCH  22  23
ATOM     23  C   UNL     1      28.963 -19.922  25.928  1.00  0.00    -0.000 C 
BRANCH  23  24
ATOM     24  C   UNL     1      29.592 -18.626  26.469  1.00  0.00    -0.000 C 
BRANCH  24  25
ATOM     25  C   UNL     1      29.367 -18.443  27.976  1.00  0.00    -0.000 C 
BRANCH  25  26
ATOM     26  C   UNL     1      27.870 -18.342  28.298  1.00  0.00    -0.000 C 
BRANCH  26  27
ATOM     27  C   UNL     1      27.579 -17.116  29.180  1.00  0.00    -0.000 C 
BRANCH  27  28
ATOM     28  C   UNL     1      27.835 -17.388  30.676  1.00  0.00    -0.000 C 
BRANCH  28  29
ATOM     29  C   UNL     1      28.105 -16.119  31.506  1.00  0.00    -0.003 C 
ATOM     30  C   UNL     1      28.587 -14.939  30.665  1.00  0.00     0.004 C 
ENDBRANCH  28  29
ENDBRANCH  27  28
ENDBRANCH  26  27
ENDBRANCH  25  26
ENDBRANCH  24  25
ENDBRANCH  23  24
ENDBRANCH  22  23
ENDBRANCH  21  22
ENDBRANCH  20  21
ENDBRANCH  19  20
ENDBRANCH  18  19
ENDBRANCH  17  18
ENDBRANCH   1  17
TORSDOF 26
ENDMDL
MODEL 5
REMARK VINA RESULT:    -4.245      1.754      2.491
REMARK INTER + INTRA:         -14.325
REMARK INTER:                 -11.106
REMARK INTRA:                  -3.219
REMARK UNBOUND:                -3.628
REMARK SMILES CCCCCCCCCCCCCCCCCCCCCCCCCCCC(=O)[O-]
REMARK SMILES IDX 15 1 16 2 17 3 18 4 19 5 20 6 21 7 22 8 23 9 24 10 25 11
REMARK SMILES IDX 26 12 27 13 28 14 29 15 30 16 14 17 13 18 12 19 11 20 10 21
REMARK SMILES IDX 9 22 8 23 7 24 6 25 5 26 4 27 3 28 2 29 1 30
REMARK H PARENT
REMARK Flexibility Score: inf
ROOT
ATOM      1  C   UNL     1      24.651 -14.153  26.686  1.00  0.00     0.000 C 
ENDROOT
BRANCH   1   2
ATOM      2  C   UNL     1      23.250 -14.632  27.114  1.00  0.00     0.000 C 
BRANCH   2   3
ATOM      3  C   UNL     1      22.548 -15.460  26.025  1.00  0.00     0.000 C 
BRANCH   3   4
ATOM      4  C   UNL     1      22.421 -16.947  26.404  1.00  0.00     0.000 C 
BRANCH   4   5
ATOM      5  C   UNL     1      22.550 -17.178  27.924  1.00  0.00     0.000 C 
BRANCH   5   6
ATOM      6  C   UNL     1      21.200 -17.197  28.668  1.00  0.00     0.000 C 
BRANCH   6   7
ATOM      7  C   UNL     1      21.097 -16.215  29.846  1.00  0.00     0.000 C 
BRANCH   7   8
ATOM      8  C   UNL     1      20.136 -15.049  29.566  1.00  0.00     0.000 C 
BRANCH   8   9
ATOM      9  C   UNL     1      19.117 -14.895  30.703  1.00  0.00     0.000 C 
BRANCH   9  10
ATOM     10  C   UNL     1      19.332 -15.960  31.787  1.00  0.00     0.000 C 
BRANCH  10  11
ATOM     11  C   UNL     1      18.109 -16.875  31.983  1.00  0.00     0.000 C 
BRANCH  11  12
ATOM     12  C   UNL     1      17.006 -16.729  30.914  1.00  0.00     0.006 C 
BRANCH  12  13
ATOM     13  C   UNL     1      17.130 -17.702  29.729  1.00  0.00     0.053 C 
BRANCH  13  14
ATOM     14  C   UNL     1      15.808 -17.949  29.067  1.00  0.00     0.041 C 
ATOM     15  O   UNL     1      14.741 -17.596  29.634  1.00  0.00    -0.550 OA
ATOM     16  O   UNL     1      15.755 -18.600  27.840  1.00  0.00    -0.550 OA
ENDBRANCH  13  14
ENDBRANCH  12  13
ENDBRANCH  11  12
ENDBRANCH  10  11
ENDBRANCH   9  10
ENDBRANCH   8   9
ENDBRANCH   7   8
ENDBRANCH   6   7
ENDBRANCH   5   6
ENDBRANCH   4   5
ENDBRANCH   3   4
ENDBRANCH   2   3
ENDBRANCH   1   2
BRANCH   1  17
ATOM     17  C   UNL     1      25.517 -15.302  26.127  1.00  0.00     0.000 C 
BRANCH  17  18
ATOM     18  C   UNL     1      26.061 -16.262  27.205  1.00  0.00     0.000 C 
BRANCH  18  19
ATOM     19  C   UNL     1      26.159 -17.739  26.782  1.00  0.00     0.000 C 
BRANCH  19  20
ATOM     20  C   UNL     1      25.933 -17.943  25.274  1.00  0.00     0.000 C 
BRANCH  20  21
ATOM     21  C   UNL     1      27.237 -18.244  24.514  1.00  0.00     0.000 C 
BRANCH  21  22
ATOM     22  C   UNL     1      28.242 -19.132  25.273  1.00  0.00    -0.000 C 
BRANCH  22  23
ATOM     23  C   UNL     1      29.703 -18.635  25.259  1.00  0.00    -0.000 C 
BRANCH  23  24
ATOM     24  C   UNL     1      30.297 -18.320  26.644  1.00  0.00    -0.000 C 
BRANCH  24  25
ATOM     25  C   UNL     1      29.417 -18.826  27.795  1.00  0.00    -0.000 C 
BRANCH  25  26
ATOM     26  C   UNL     1      29.938 -18.320  29.146  1.00  0.00    -0.000 C 
BRANCH  26  27
ATOM     27  C   UNL     1      28.888 -17.443  29.847  1.00  0.00    -0.000 C 
BRANCH  27  28
ATOM     28  C   UNL     1      29.490 -16.147  30.428  1.00  0.00    -0.000 C 
BRANCH  28  29
ATOM     29  C   UNL     1      28.479 -14.994  30.566  1.00  0.00    -0.003 C 
ATOM     30  C   UNL     1      28.936 -13.902  31.531  1.00  0.00     0.004 C 
ENDBRANCH  28  29
ENDBRANCH  27  28
ENDBRANCH  26  27
ENDBRANCH  25  26
ENDBRANCH  24  25
ENDBRANCH  23  24
ENDBRANCH  22  23
ENDBRANCH  21  22
ENDBRANCH  20  21
ENDBRANCH  19  20
ENDBRANCH  18  19
ENDBRANCH  17  18
ENDBRANCH   1  17
TORSDOF 26
ENDMDL
MODEL 6
REMARK VINA RESULT:    -4.240      1.937      3.634
REMARK INTER + INTRA:         -14.312
REMARK INTER:                 -10.019
REMARK INTRA:                  -4.293
REMARK UNBOUND:                -3.628
REMARK SMILES CCCCCCCCCCCCCCCCCCCCCCCCCCCC(=O)[O-]
REMARK SMILES IDX 15 1 16 2 17 3 18 4 19 5 20 6 21 7 22 8 23 9 24 10 25 11
REMARK SMILES IDX 26 12 27 13 28 14 29 15 30 16 14 17 13 18 12 19 11 20 10 21
REMARK SMILES IDX 9 22 8 23 7 24 6 25 5 26 4 27 3 28 2 29 1 30
REMARK H PARENT
REMARK Flexibility Score: inf
ROOT
ATOM      1  C   UNL     1      26.612 -17.135  27.910  1.00  0.00     0.000 C 
ENDROOT
BRANCH   1   2
ATOM      2  C   UNL     1      25.808 -18.305  28.508  1.00  0.00     0.000 C 
BRANCH   2   3
ATOM      3  C   UNL     1      26.105 -19.645  27.815  1.00  0.00     0.000 C 
BRANCH   3   4
ATOM      4  C   UNL     1      25.039 -20.018  26.769  1.00  0.00     0.000 C 
BRANCH   4   5
ATOM      5  C   UNL     1      23.627 -19.545  27.176  1.00  0.00     0.000 C 
BRANCH   5   6
ATOM      6  C   UNL     1      22.883 -18.779  26.065  1.00  0.00     0.000 C 
BRANCH   6   7
ATOM      7  C   UNL     1      22.344 -17.400  26.478  1.00  0.00     0.000 C 
BRANCH   7   8
ATOM      8  C   UNL     1      22.120 -17.279  27.994  1.00  0.00     0.000 C 
BRANCH   8   9
ATOM      9  C   UNL     1      21.691 -15.856  28.372  1.00  0.00     0.000 C 
BRANCH   9  10
ATOM     10  C   UNL     1      20.945 -15.840  29.713  1.00  0.00     0.000 C 
BRANCH  10  11
ATOM     11  C   UNL     1      19.661 -14.991  29.678  1.00  0.00     0.000 C 
BRANCH  11  12
ATOM     12  C   UNL     1      18.785 -15.079  30.945  1.00  0.00     0.006 C 
BRANCH  12  13
ATOM     13  C   UNL     1      17.647 -16.111  30.865  1.00  0.00     0.053 C 
BRANCH  13  14
ATOM     14  C   UNL     1      18.046 -17.431  31.452  1.00  0.00     0.041 C 
ATOM     15  O   UNL     1      18.235 -18.425  30.704  1.00  0.00    -0.550 OA
ATOM     16  O   UNL     1      18.177 -17.570  32.829  1.00  0.00    -0.550 OA
ENDBRANCH  13  14
ENDBRANCH  12  13
ENDBRANCH  11  12
ENDBRANCH  10  11
ENDBRANCH   9  10
ENDBRANCH   8   9
ENDBRANCH   7   8
ENDBRANCH   6   7
ENDBRANCH   5   6
ENDBRANCH   4   5
ENDBRANCH   3   4
ENDBRANCH   2   3
ENDBRANCH   1   2
BRANCH   1  17
ATOM     17  C   UNL     1      25.710 -16.117  27.180  1.00  0.00     0.000 C 
BRANCH  17  18
ATOM     18  C   UNL     1      25.730 -16.247  25.643  1.00  0.00     0.000 C 
BRANCH  18  19
ATOM     19  C   UNL     1      27.074 -16.688  25.037  1.00  0.00     0.000 C 
BRANCH  19  20
ATOM     20  C   UNL     1      27.005 -18.079  24.382  1.00  0.00     0.000 C 
BRANCH  20  21
ATOM     21  C   UNL     1      28.209 -18.966  24.744  1.00  0.00     0.000 C 
BRANCH  21  22
ATOM     22  C   UNL     1      29.274 -18.289  25.627  1.00  0.00    -0.000 C 
BRANCH  22  23
ATOM     23  C   UNL     1      30.543 -19.127  25.889  1.00  0.00    -0.000 C 
BRANCH  23  24
ATOM     24  C   UNL     1      30.596 -19.817  27.264  1.00  0.00    -0.000 C 
BRANCH  24  25
ATOM     25  C   UNL     1      29.643 -19.179  28.284  1.00  0.00    -0.000 C 
BRANCH  25  26
ATOM     26  C   UNL     1      30.404 -18.252  29.240  1.00  0.00    -0.000 C 
BRANCH  26  27
ATOM     27  C   UNL     1      29.493 -17.771  30.381  1.00  0.00    -0.000 C 
BRANCH  27  28
ATOM     28  C   UNL     1      29.207 -16.257  30.315  1.00  0.00    -0.000 C 
BRANCH  28  29
ATOM     29  C   UNL     1      28.246 -15.753  31.406  1.00  0.00    -0.003 C 
ATOM     30  C   UNL     1      27.766 -16.857  32.346  1.00  0.00     0.004 C 
ENDBRANCH  28  29
ENDBRANCH  27  28
ENDBRANCH  26  27
ENDBRANCH  25  26
ENDBRANCH  24  25
ENDBRANCH  23  24
ENDBRANCH  22  23
ENDBRANCH  21  22
ENDBRANCH  20  21
ENDBRANCH  19  20
ENDBRANCH  18  19
ENDBRANCH  17  18
ENDBRANCH   1  17
TORSDOF 26
ENDMDL
MODEL 7
REMARK VINA RESULT:    -4.177      3.669     10.730
REMARK INTER + INTRA:         -14.153
REMARK INTER:                 -10.744
REMARK INTRA:                  -3.409
REMARK UNBOUND:                -3.628
REMARK SMILES CCCCCCCCCCCCCCCCCCCCCCCCCCCC(=O)[O-]
REMARK SMILES IDX 15 1 16 2 17 3 18 4 19 5 20 6 21 7 22 8 23 9 24 10 25 11
REMARK SMILES IDX 26 12 27 13 28 14 29 15 30 16 14 17 13 18 12 19 11 20 10 21
REMARK SMILES IDX 9 22 8 23 7 24 6 25 5 26 4 27 3 28 2 29 1 30
REMARK H PARENT
REMARK Flexibility Score: inf
ROOT
ATOM      1  C   UNL     1      23.844 -16.361  26.335  1.00  0.00     0.000 C 
ENDROOT
BRANCH   1   2
ATOM      2  C   UNL     1      25.382 -16.261  26.349  1.00  0.00     0.000 C 
BRANCH   2   3
ATOM      3  C   UNL     1      26.020 -17.090  27.476  1.00  0.00     0.000 C 
BRANCH   3   4
ATOM      4  C   UNL     1      25.268 -18.408  27.738  1.00  0.00     0.000 C 
BRANCH   4   5
ATOM      5  C   UNL     1      26.019 -19.633  27.176  1.00  0.00     0.000 C 
BRANCH   5   6
ATOM      6  C   UNL     1      26.077 -19.676  25.637  1.00  0.00     0.000 C 
BRANCH   6   7
ATOM      7  C   UNL     1      27.491 -19.801  25.046  1.00  0.00     0.000 C 
BRANCH   7   8
ATOM      8  C   UNL     1      28.173 -18.439  24.842  1.00  0.00     0.000 C 
BRANCH   8   9
ATOM      9  C   UNL     1      29.416 -18.311  25.732  1.00  0.00     0.000 C 
BRANCH   9  10
ATOM     10  C   UNL     1      29.812 -19.669  26.329  1.00  0.00     0.000 C 
BRANCH  10  11
ATOM     11  C   UNL     1      29.815 -19.671  27.868  1.00  0.00     0.000 C 
BRANCH  11  12
ATOM     12  C   UNL     1      29.213 -18.411  28.525  1.00  0.00     0.006 C 
BRANCH  12  13
ATOM     13  C   UNL     1      28.504 -18.664  29.866  1.00  0.00     0.053 C 
BRANCH  13  14
ATOM     14  C   UNL     1      28.068 -17.388  30.519  1.00  0.00     0.041 C 
ATOM     15  O   UNL     1      28.397 -16.279  30.022  1.00  0.00    -0.550 OA
ATOM     16  O   UNL     1      27.325 -17.425  31.693  1.00  0.00    -0.550 OA
ENDBRANCH  13  14
ENDBRANCH  12  13
ENDBRANCH  11  12
ENDBRANCH  10  11
ENDBRANCH   9  10
ENDBRANCH   8   9
ENDBRANCH   7   8
ENDBRANCH   6   7
ENDBRANCH   5   6
ENDBRANCH   4   5
ENDBRANCH   3   4
ENDBRANCH   2   3
ENDBRANCH   1   2
BRANCH   1  17
ATOM     17  C   UNL     1      23.167 -15.025  26.709  1.00  0.00     0.000 C 
BRANCH  17  18
ATOM     18  C   UNL     1      22.137 -15.141  27.852  1.00  0.00     0.000 C 
BRANCH  18  19
ATOM     19  C   UNL     1      21.770 -16.577  28.265  1.00  0.00     0.000 C 
BRANCH  19  20
ATOM     20  C   UNL     1      20.798 -16.625  29.456  1.00  0.00     0.000 C 
BRANCH  20  21
ATOM     21  C   UNL     1      20.187 -15.249  29.778  1.00  0.00     0.000 C 
BRANCH  21  22
ATOM     22  C   UNL     1      19.124 -15.254  30.893  1.00  0.00    -0.000 C 
BRANCH  22  23
ATOM     23  C   UNL     1      19.527 -15.998  32.185  1.00  0.00    -0.000 C 
BRANCH  23  24
ATOM     24  C   UNL     1      18.563 -17.114  32.622  1.00  0.00    -0.000 C 
BRANCH  24  25
ATOM     25  C   UNL     1      17.899 -17.823  31.433  1.00  0.00    -0.000 C 
BRANCH  25  26
ATOM     26  C   UNL     1      16.551 -18.431  31.841  1.00  0.00    -0.000 C 
BRANCH  26  27
ATOM     27  C   UNL     1      15.789 -17.493  32.790  1.00  0.00    -0.000 C 
BRANCH  27  28
ATOM     28  C   UNL     1      14.992 -16.408  32.038  1.00  0.00    -0.000 C 
BRANCH  28  29
ATOM     29  C   UNL     1      14.161 -16.946  30.859  1.00  0.00    -0.003 C 
ATOM     30  C   UNL     1      12.727 -16.420  30.840  1.00  0.00     0.004 C 
ENDBRANCH  28  29
ENDBRANCH  27  28
ENDBRANCH  26  27
ENDBRANCH  25  26
ENDBRANCH  24  25
ENDBRANCH  23  24
ENDBRANCH  22  23
ENDBRANCH  21  22
ENDBRANCH  20  21
ENDBRANCH  19  20
ENDBRANCH  18  19
ENDBRANCH  17  18
ENDBRANCH   1  17
TORSDOF 26
ENDMDL
MODEL 8
REMARK VINA RESULT:    -4.158      1.890      2.772
REMARK INTER + INTRA:         -14.106
REMARK INTER:                 -12.182
REMARK INTRA:                  -1.924
REMARK UNBOUND:                -3.628
REMARK SMILES CCCCCCCCCCCCCCCCCCCCCCCCCCCC(=O)[O-]
REMARK SMILES IDX 15 1 16 2 17 3 18 4 19 5 20 6 21 7 22 8 23 9 24 10 25 11
REMARK SMILES IDX 26 12 27 13 28 14 29 15 30 16 14 17 13 18 12 19 11 20 10 21
REMARK SMILES IDX 9 22 8 23 7 24 6 25 5 26 4 27 3 28 2 29 1 30
REMARK H PARENT
REMARK Flexibility Score: inf
ROOT
ATOM      1  C   UNL     1      25.432 -15.901  26.706  1.00  0.00     0.000 C 
ENDROOT
BRANCH   1   2
ATOM      2  C   UNL     1      24.587 -14.619  26.578  1.00  0.00     0.000 C 
BRANCH   2   3
ATOM      3  C   UNL     1      23.100 -14.911  26.318  1.00  0.00     0.000 C 
BRANCH   3   4
ATOM      4  C   UNL     1      22.765 -16.409  26.428  1.00  0.00     0.000 C 
BRANCH   4   5
ATOM      5  C   UNL     1      22.095 -16.762  27.773  1.00  0.00     0.000 C 
BRANCH   5   6
ATOM      6  C   UNL     1      21.553 -15.540  28.538  1.00  0.00     0.000 C 
BRANCH   6   7
ATOM      7  C   UNL     1      20.631 -15.874  29.722  1.00  0.00     0.000 C 
BRANCH   7   8
ATOM      8  C   UNL     1      19.309 -15.091  29.687  1.00  0.00     0.000 C 
BRANCH   8   9
ATOM      9  C   UNL     1      18.640 -15.084  31.067  1.00  0.00     0.000 C 
BRANCH   9  10
ATOM     10  C   UNL     1      19.139 -16.251  31.930  1.00  0.00     0.000 C 
BRANCH  10  11
ATOM     11  C   UNL     1      17.996 -17.037  32.599  1.00  0.00     0.000 C 
BRANCH  11  12
ATOM     12  C   UNL     1      16.774 -17.308  31.697  1.00  0.00     0.006 C 
BRANCH  12  13
ATOM     13  C   UNL     1      15.421 -16.928  32.321  1.00  0.00     0.053 C 
BRANCH  13  14
ATOM     14  C   UNL     1      14.349 -16.778  31.284  1.00  0.00     0.041 C 
ATOM     15  O   UNL     1      14.506 -17.268  30.136  1.00  0.00    -0.550 OA
ATOM     16  O   UNL     1      13.191 -16.067  31.578  1.00  0.00    -0.550 OA
ENDBRANCH  13  14
ENDBRANCH  12  13
ENDBRANCH  11  12
ENDBRANCH  10  11
ENDBRANCH   9  10
ENDBRANCH   8   9
ENDBRANCH   7   8
ENDBRANCH   6   7
ENDBRANCH   5   6
ENDBRANCH   4   5
ENDBRANCH   3   4
ENDBRANCH   2   3
ENDBRANCH   1   2
BRANCH   1  17
ATOM     17  C   UNL     1      26.324 -16.141  25.470  1.00  0.00     0.000 C 
BRANCH  17  18
ATOM     18  C   UNL     1      27.316 -17.312  25.627  1.00  0.00     0.000 C 
BRANCH  18  19
ATOM     19  C   UNL     1      27.388 -18.279  24.432  1.00  0.00     0.000 C 
BRANCH  19  20
ATOM     20  C   UNL     1      28.633 -19.182  24.470  1.00  0.00     0.000 C 
BRANCH  20  21
ATOM     21  C   UNL     1      29.146 -19.424  25.901  1.00  0.00     0.000 C 
BRANCH  21  22
ATOM     22  C   UNL     1      30.579 -18.928  26.171  1.00  0.00    -0.000 C 
BRANCH  22  23
ATOM     23  C   UNL     1      30.860 -18.484  27.622  1.00  0.00    -0.000 C 
BRANCH  23  24
ATOM     24  C   UNL     1      29.619 -18.380  28.525  1.00  0.00    -0.000 C 
BRANCH  24  25
ATOM     25  C   UNL     1      29.768 -17.312  29.618  1.00  0.00    -0.000 C 
BRANCH  25  26
ATOM     26  C   UNL     1      28.396 -16.830  30.104  1.00  0.00    -0.000 C 
BRANCH  26  27
ATOM     27  C   UNL     1      28.544 -15.808  31.243  1.00  0.00    -0.000 C 
BRANCH  27  28
ATOM     28  C   UNL     1      28.452 -14.351  30.747  1.00  0.00    -0.000 C 
BRANCH  28  29
ATOM     29  C   UNL     1      29.670 -13.485  31.118  1.00  0.00    -0.003 C 
ATOM     30  C   UNL     1      30.622 -14.169  32.098  1.00  0.00     0.004 C 
ENDBRANCH  28  29
ENDBRANCH  27  28
ENDBRANCH  26  27
ENDBRANCH  25  26
ENDBRANCH  24  25
ENDBRANCH  23  24
ENDBRANCH  22  23
ENDBRANCH  21  22
ENDBRANCH  20  21
ENDBRANCH  19  20
ENDBRANCH  18  19
ENDBRANCH  17  18
ENDBRANCH   1  17
TORSDOF 26
ENDMDL
MODEL 9
REMARK VINA RESULT:    -4.117      1.711      3.022
REMARK INTER + INTRA:         -14.002
REMARK INTER:                 -10.961
REMARK INTRA:                  -3.042
REMARK UNBOUND:                -3.628
REMARK SMILES CCCCCCCCCCCCCCCCCCCCCCCCCCCC(=O)[O-]
REMARK SMILES IDX 15 1 16 2 17 3 18 4 19 5 20 6 21 7 22 8 23 9 24 10 25 11
REMARK SMILES IDX 26 12 27 13 28 14 29 15 30 16 14 17 13 18 12 19 11 20 10 21
REMARK SMILES IDX 9 22 8 23 7 24 6 25 5 26 4 27 3 28 2 29 1 30
REMARK H PARENT
REMARK Flexibility Score: inf
ROOT
ATOM      1  C   UNL     1      26.512 -16.180  25.260  1.00  0.00     0.000 C 
ENDROOT
BRANCH   1   2
ATOM      2  C   UNL     1      25.916 -16.405  26.663  1.00  0.00     0.000 C 
BRANCH   2   3
ATOM      3  C   UNL     1      24.386 -16.257  26.689  1.00  0.00     0.000 C 
BRANCH   3   4
ATOM      4  C   UNL     1      23.690 -17.432  27.400  1.00  0.00     0.000 C 
BRANCH   4   5
ATOM      5  C   UNL     1      22.168 -17.215  27.538  1.00  0.00     0.000 C 
BRANCH   5   6
ATOM      6  C   UNL     1      21.788 -15.924  28.288  1.00  0.00     0.000 C 
BRANCH   6   7
ATOM      7  C   UNL     1      20.820 -16.121  29.466  1.00  0.00     0.000 C 
BRANCH   7   8
ATOM      8  C   UNL     1      19.988 -14.864  29.768  1.00  0.00     0.000 C 
BRANCH   8   9
ATOM      9  C   UNL     1      18.966 -15.139  30.878  1.00  0.00     0.000 C 
BRANCH   9  10
ATOM     10  C   UNL     1      19.574 -16.007  31.989  1.00  0.00     0.000 C 
BRANCH  10  11
ATOM     11  C   UNL     1      18.533 -16.889  32.701  1.00  0.00     0.000 C 
BRANCH  11  12
ATOM     12  C   UNL     1      17.123 -16.872  32.074  1.00  0.00     0.006 C 
BRANCH  12  13
ATOM     13  C   UNL     1      16.725 -18.173  31.358  1.00  0.00     0.053 C 
BRANCH  13  14
ATOM     14  C   UNL     1      17.248 -18.222  29.955  1.00  0.00     0.041 C 
ATOM     15  O   UNL     1      18.298 -18.865  29.692  1.00  0.00    -0.550 OA
ATOM     16  O   UNL     1      16.592 -17.530  28.943  1.00  0.00    -0.550 OA
ENDBRANCH  13  14
ENDBRANCH  12  13
ENDBRANCH  11  12
ENDBRANCH  10  11
ENDBRANCH   9  10
ENDBRANCH   8   9
ENDBRANCH   7   8
ENDBRANCH   6   7
ENDBRANCH   5   6
ENDBRANCH   4   5
ENDBRANCH   3   4
ENDBRANCH   2   3
ENDBRANCH   1   2
BRANCH   1  17
ATOM     17  C   UNL     1      26.620 -17.490  24.452  1.00  0.00     0.000 C 
BRANCH  17  18
ATOM     18  C   UNL     1      26.594 -18.767  25.318  1.00  0.00     0.000 C 
BRANCH  18  19
ATOM     19  C   UNL     1      27.793 -19.713  25.132  1.00  0.00     0.000 C 
BRANCH  19  20
ATOM     20  C   UNL     1      29.041 -18.994  24.590  1.00  0.00     0.000 C 
BRANCH  20  21
ATOM     21  C   UNL     1      30.064 -18.670  25.693  1.00  0.00     0.000 C 
BRANCH  21  22
ATOM     22  C   UNL     1      30.260 -19.778  26.744  1.00  0.00    -0.000 C 
BRANCH  22  23
ATOM     23  C   UNL     1      30.432 -19.286  28.197  1.00  0.00    -0.000 C 
BRANCH  23  24
ATOM     24  C   UNL     1      29.528 -18.107  28.597  1.00  0.00    -0.000 C 
BRANCH  24  25
ATOM     25  C   UNL     1      28.047 -18.500  28.687  1.00  0.00    -0.000 C 
BRANCH  25  26
ATOM     26  C   UNL     1      27.352 -17.757  29.836  1.00  0.00    -0.000 C 
BRANCH  26  27
ATOM     27  C   UNL     1      28.284 -17.628  31.051  1.00  0.00    -0.000 C 
BRANCH  27  28
ATOM     28  C   UNL     1      28.024 -16.344  31.865  1.00  0.00    -0.000 C 
BRANCH  28  29
ATOM     29  C   UNL     1      28.371 -15.046  31.114  1.00  0.00    -0.003 C 
ATOM     30  C   UNL     1      29.848 -14.940  30.739  1.00  0.00     0.004 C 
ENDBRANCH  28  29
ENDBRANCH  27  28
ENDBRANCH  26  27
ENDBRANCH  25  26
ENDBRANCH  24  25
ENDBRANCH  23  24
ENDBRANCH  22  23
ENDBRANCH  21  22
ENDBRANCH  20  21
ENDBRANCH  19  20
ENDBRANCH  18  19
ENDBRANCH  17  18
ENDBRANCH   1  17
TORSDOF 26
ENDMDL
