MODEL 1
REMARK VINA RESULT:     0.760      0.000      0.000
REMARK INTER + INTRA:           1.079
REMARK INTER:                   1.071
REMARK INTRA:                   0.008
REMARK UNBOUND:                 0.008
REMARK SMILES COc1c(O[C@H]2O[C@H](C(=O)[O-])[C@@H](O)[C@H](O)[C@H]2O)cc(O)c2c(=O)cc(-c3ccccc3)oc12
REMARK SMILES IDX 5 1 6 2 8 3 12 4 7 5 14 6 16 7 9 8 10 9 11 10 13 11 15 13
REMARK SMILES IDX 17 15 4 17 3 18 18 19 33 20 19 21 21 22 32 23 22 24 25 25
REMARK SMILES IDX 24 26 23 27 2 28 1 29 20 30 26 32 27 33 31 34 28 35 30 36
REMARK SMILES IDX 29 37
REMARK H PARENT 13 12 15 14 17 16 20 31
REMARK Flexibility Score: inf
ROOT
ATOM      1  O   UNL     1     -34.764  -8.482   2.643  1.00  0.00    -0.458 OA
ENDROOT
BRANCH   1   2
ATOM      2  C   UNL     1     -34.784  -9.724   1.925  1.00  0.00     0.339 C 
ATOM      3  C   UNL     1     -35.478  -8.651  -0.051  1.00  0.00     0.199 C 
ATOM      4  C   UNL     1     -34.135  -8.915  -0.771  1.00  0.00     0.180 C 
ATOM      5  O   UNL     1     -35.757  -9.676   0.892  1.00  0.00    -0.328 OA
ATOM      6  C   UNL     1     -33.001  -9.051   0.265  1.00  0.00     0.181 C 
ATOM      7  C   UNL     1     -33.394 -10.076   1.345  1.00  0.00     0.214 C 
BRANCH   3   8
ATOM      8  C   UNL     1     -36.594  -8.600  -1.054  1.00  0.00     0.073 C 
ATOM      9  O   UNL     1     -37.121  -7.499  -1.366  1.00  0.00    -0.547 OA
ATOM     10  O   UNL     1     -37.085  -9.777  -1.605  1.00  0.00    -0.547 OA
ENDBRANCH   3   8
BRANCH   4  11
ATOM     11  O   UNL     1     -33.841  -7.895  -1.695  1.00  0.00    -0.387 OA
ATOM     12  H   UNL     1     -34.505  -7.169  -1.565  1.00  0.00     0.211 HD
ENDBRANCH   4  11
BRANCH   6  13
ATOM     13  O   UNL     1     -31.794  -9.410  -0.359  1.00  0.00    -0.387 OA
ATOM     14  H   UNL     1     -31.341 -10.079   0.218  1.00  0.00     0.211 HD
ENDBRANCH   6  13
BRANCH   7  15
ATOM     15  O   UNL     1     -32.431 -10.096   2.365  1.00  0.00    -0.384 OA
ATOM     16  H   UNL     1     -32.095  -9.168   2.465  1.00  0.00     0.211 HD
ENDBRANCH   7  15
ENDBRANCH   1   2
BRANCH   1  17
ATOM     17  C   UNL     1     -35.184  -8.263   3.965  1.00  0.00     0.172 A 
ATOM     18  C   UNL     1     -35.068  -6.969   4.479  1.00  0.00     0.205 A 
ATOM     19  C   UNL     1     -35.721  -9.278   4.774  1.00  0.00     0.097 A 
ATOM     20  C   UNL     1     -35.473  -6.684   5.793  1.00  0.00     0.188 A 
ATOM     21  C   UNL     1     -36.120  -9.022   6.091  1.00  0.00     0.134 A 
ATOM     22  C   UNL     1     -36.036  -7.699   6.610  1.00  0.00     0.111 A 
ATOM     23  O   UNL     1     -35.313  -5.449   6.262  1.00  0.00    -0.452 OA
ATOM     24  C   UNL     1     -36.502  -7.309   7.887  1.00  0.00     0.197 A 
ATOM     25  C   UNL     1     -35.678  -5.074   7.484  1.00  0.00     0.138 A 
ATOM     26  C   UNL     1     -36.305  -6.000   8.327  1.00  0.00     0.100 A 
ATOM     27  O   UNL     1     -37.125  -8.101   8.641  1.00  0.00    -0.289 OA
BRANCH  18  28
ATOM     28  O   UNL     1     -34.526  -5.968   3.668  1.00  0.00    -0.490 OA
ATOM     29  C   UNL     1     -33.816  -6.271   2.472  1.00  0.00     0.278 C 
ENDBRANCH  18  28
BRANCH  21  30
ATOM     30  O   UNL     1     -36.554 -10.125   6.833  1.00  0.00    -0.507 OA
ATOM     31  H   UNL     1     -36.491 -11.085   6.529  1.00  0.00     0.293 HD
ENDBRANCH  21  30
BRANCH  25  32
ATOM     32  C   UNL     1     -35.425  -3.675   7.912  1.00  0.00     0.017 A 
ATOM     33  C   UNL     1     -34.102  -3.210   8.029  1.00  0.00     0.012 A 
ATOM     34  C   UNL     1     -36.481  -2.802   8.242  1.00  0.00     0.012 A 
ATOM     35  C   UNL     1     -33.841  -1.901   8.443  1.00  0.00     0.001 A 
ATOM     36  C   UNL     1     -36.215  -1.494   8.658  1.00  0.00     0.001 A 
ATOM     37  C   UNL     1     -34.897  -1.042   8.755  1.00  0.00     0.000 A 
ENDBRANCH  25  32
ENDBRANCH   1  17
TORSDOF 9
ENDMDL
MODEL 2
REMARK VINA RESULT:     2.998      1.199      1.404
REMARK INTER + INTRA:           4.233
REMARK INTER:                   4.760
REMARK INTRA:                  -0.527
REMARK UNBOUND:                 0.008
REMARK SMILES COc1c(O[C@H]2O[C@H](C(=O)[O-])[C@@H](O)[C@H](O)[C@H]2O)cc(O)c2c(=O)cc(-c3ccccc3)oc12
REMARK SMILES IDX 5 1 6 2 8 3 12 4 7 5 14 6 16 7 9 8 10 9 11 10 13 11 15 13
REMARK SMILES IDX 17 15 4 17 3 18 18 19 33 20 19 21 21 22 32 23 22 24 25 25
REMARK SMILES IDX 24 26 23 27 2 28 1 29 20 30 26 32 27 33 31 34 28 35 30 36
REMARK SMILES IDX 29 37
REMARK H PARENT 13 12 15 14 17 16 20 31
REMARK Flexibility Score: inf
ROOT
ATOM      1  O   UNL     1     -35.319  -8.198   2.470  1.00  0.00    -0.458 OA
ENDROOT
BRANCH   1   2
ATOM      2  C   UNL     1     -34.179  -8.855   1.898  1.00  0.00     0.339 C 
ATOM      3  C   UNL     1     -34.850  -8.272  -0.281  1.00  0.00     0.199 C 
ATOM      4  C   UNL     1     -33.668  -7.294  -0.478  1.00  0.00     0.180 C 
ATOM      5  O   UNL     1     -34.491  -9.329   0.596  1.00  0.00    -0.328 OA
ATOM      6  C   UNL     1     -33.196  -6.757   0.888  1.00  0.00     0.181 C 
ATOM      7  C   UNL     1     -32.942  -7.928   1.855  1.00  0.00     0.214 C 
BRANCH   3   8
ATOM      8  C   UNL     1     -35.254  -8.856  -1.603  1.00  0.00     0.073 C 
ATOM      9  O   UNL     1     -36.342  -9.482  -1.717  1.00  0.00    -0.547 OA
ATOM     10  O   UNL     1     -34.404  -8.754  -2.696  1.00  0.00    -0.547 OA
ENDBRANCH   3   8
BRANCH   4  11
ATOM     11  O   UNL     1     -34.019  -6.232  -1.331  1.00  0.00    -0.387 OA
ATOM     12  H   UNL     1     -34.912  -5.901  -1.051  1.00  0.00     0.211 HD
ENDBRANCH   4  11
BRANCH   6  13
ATOM     13  O   UNL     1     -32.047  -5.961   0.744  1.00  0.00    -0.387 OA
ATOM     14  H   UNL     1     -31.486  -6.087   1.553  1.00  0.00     0.211 HD
ENDBRANCH   6  13
BRANCH   7  15
ATOM     15  O   UNL     1     -32.653  -7.441   3.139  1.00  0.00    -0.384 OA
ATOM     16  H   UNL     1     -32.033  -6.675   3.026  1.00  0.00     0.211 HD
ENDBRANCH   7  15
ENDBRANCH   1   2
BRANCH   1  17
ATOM     17  C   UNL     1     -35.621  -8.065   3.836  1.00  0.00     0.172 A 
ATOM     18  C   UNL     1     -35.498  -6.796   4.408  1.00  0.00     0.205 A 
ATOM     19  C   UNL     1     -36.047  -9.140   4.633  1.00  0.00     0.097 A 
ATOM     20  C   UNL     1     -35.789  -6.596   5.768  1.00  0.00     0.188 A 
ATOM     21  C   UNL     1     -36.329  -8.969   5.992  1.00  0.00     0.134 A 
ATOM     22  C   UNL     1     -36.239  -7.673   6.574  1.00  0.00     0.111 A 
ATOM     23  O   UNL     1     -35.625  -5.383   6.289  1.00  0.00    -0.452 OA
ATOM     24  C   UNL     1     -36.597  -7.368   7.909  1.00  0.00     0.197 A 
ATOM     25  C   UNL     1     -35.886  -5.086   7.558  1.00  0.00     0.138 A 
ATOM     26  C   UNL     1     -36.402  -6.078   8.401  1.00  0.00     0.100 A 
ATOM     27  O   UNL     1     -37.121  -8.221   8.672  1.00  0.00    -0.289 OA
BRANCH  18  28
ATOM     28  O   UNL     1     -35.067  -5.735   3.608  1.00  0.00    -0.490 OA
ATOM     29  C   UNL     1     -34.247  -4.691   4.120  1.00  0.00     0.278 C 
ENDBRANCH  18  28
BRANCH  21  30
ATOM     30  O   UNL     1     -36.656 -10.125   6.708  1.00  0.00    -0.507 OA
ATOM     31  H   UNL     1     -37.595 -10.415   6.936  1.00  0.00     0.293 HD
ENDBRANCH  21  30
BRANCH  25  32
ATOM     32  C   UNL     1     -35.640  -3.703   8.039  1.00  0.00     0.017 A 
ATOM     33  C   UNL     1     -34.331  -3.186   8.032  1.00  0.00     0.012 A 
ATOM     34  C   UNL     1     -36.684  -2.898   8.539  1.00  0.00     0.012 A 
ATOM     35  C   UNL     1     -34.075  -1.891   8.492  1.00  0.00     0.001 A 
ATOM     36  C   UNL     1     -36.422  -1.605   9.000  1.00  0.00     0.001 A 
ATOM     37  C   UNL     1     -35.120  -1.100   8.974  1.00  0.00     0.000 A 
ENDBRANCH  25  32
ENDBRANCH   1  17
TORSDOF 9
ENDMDL
