MODEL 1
REMARK VINA RESULT:    -5.210      0.000      0.000
REMARK INTER + INTRA:         -12.457
REMARK INTER:                  -9.779
REMARK INTRA:                  -2.678
REMARK UNBOUND:                -2.678
REMARK SMILES CCCCCCCCC=CCCCCCCCC(=O)[O-]
REMARK SMILES IDX 10 1 9 2 11 3 12 4 13 5 14 6 15 7 16 8 17 9 18 10 19 11
REMARK SMILES IDX 20 12 8 13 7 14 6 15 5 16 4 17 3 18 2 19 1 20
REMARK H PARENT
REMARK Flexibility Score: inf
ROOT
ATOM      1  C   UNL     1      36.841  18.911  33.239  1.00  0.00    -0.031 C 
ATOM      2  C   UNL     1      37.911  19.589  33.678  1.00  0.00    -0.031 C 
ENDROOT
BRANCH   1   3
ATOM      3  C   UNL     1      35.753  18.470  34.179  1.00  0.00     0.027 C 
BRANCH   3   4
ATOM      4  C   UNL     1      34.478  18.091  33.411  1.00  0.00     0.004 C 
BRANCH   4   5
ATOM      5  C   UNL     1      34.439  18.697  31.999  1.00  0.00     0.000 C 
BRANCH   5   6
ATOM      6  C   UNL     1      34.247  17.629  30.909  1.00  0.00     0.000 C 
BRANCH   6   7
ATOM      7  C   UNL     1      35.083  16.360  31.156  1.00  0.00     0.000 C 
BRANCH   7   8
ATOM      8  C   UNL     1      34.701  15.146  30.289  1.00  0.00     0.006 C 
BRANCH   8   9
ATOM      9  C   UNL     1      35.482  15.080  28.972  1.00  0.00     0.053 C 
BRANCH   9  10
ATOM     10  C   UNL     1      34.707  15.738  27.876  1.00  0.00     0.041 C 
ATOM     11  O   UNL     1      33.672  15.192  27.417  1.00  0.00    -0.550 OA
ATOM     12  O   UNL     1      35.092  16.985  27.403  1.00  0.00    -0.550 OA
ENDBRANCH   9  10
ENDBRANCH   8   9
ENDBRANCH   7   8
ENDBRANCH   6   7
ENDBRANCH   5   6
ENDBRANCH   4   5
ENDBRANCH   3   4
ENDBRANCH   1   3
BRANCH   2  13
ATOM     13  C   UNL     1      39.000  20.036  32.742  1.00  0.00     0.027 C 
BRANCH  13  14
ATOM     14  C   UNL     1      40.349  19.412  33.119  1.00  0.00     0.004 C 
BRANCH  14  15
ATOM     15  C   UNL     1      40.788  18.377  32.076  1.00  0.00     0.000 C 
BRANCH  15  16
ATOM     16  C   UNL     1      40.078  17.034  32.301  1.00  0.00     0.000 C 
BRANCH  16  17
ATOM     17  C   UNL     1      39.111  16.673  31.162  1.00  0.00    -0.000 C 
BRANCH  17  18
ATOM     18  C   UNL     1      39.389  17.387  29.825  1.00  0.00    -0.000 C 
BRANCH  18  19
ATOM     19  C   UNL     1      38.114  17.739  29.033  1.00  0.00    -0.003 C 
ATOM     20  C   UNL     1      37.429  18.999  29.560  1.00  0.00     0.004 C 
ENDBRANCH  18  19
ENDBRANCH  17  18
ENDBRANCH  16  17
ENDBRANCH  15  16
ENDBRANCH  14  15
ENDBRANCH  13  14
ENDBRANCH   2  13
TORSDOF 15
ENDMDL
MODEL 2
REMARK VINA RESULT:    -5.137      1.184      4.749
REMARK INTER + INTRA:         -12.320
REMARK INTER:                  -9.949
REMARK INTRA:                  -2.371
REMARK UNBOUND:                -2.678
REMARK SMILES CCCCCCCCC=CCCCCCCCC(=O)[O-]
REMARK SMILES IDX 10 1 9 2 11 3 12 4 13 5 14 6 15 7 16 8 17 9 18 10 19 11
REMARK SMILES IDX 20 12 8 13 7 14 6 15 5 16 4 17 3 18 2 19 1 20
REMARK H PARENT
REMARK Flexibility Score: inf
ROOT
ATOM      1  C   UNL     1      36.771  18.877  33.200  1.00  0.00    -0.031 C 
ATOM      2  C   UNL     1      35.675  18.560  33.904  1.00  0.00    -0.031 C 
ENDROOT
BRANCH   1   3
ATOM      3  C   UNL     1      38.075  19.190  33.879  1.00  0.00     0.027 C 
BRANCH   3   4
ATOM      4  C   UNL     1      39.002  19.993  32.953  1.00  0.00     0.004 C 
BRANCH   4   5
ATOM      5  C   UNL     1      40.366  19.314  32.753  1.00  0.00     0.000 C 
BRANCH   5   6
ATOM      6  C   UNL     1      40.508  18.687  31.356  1.00  0.00     0.000 C 
BRANCH   6   7
ATOM      7  C   UNL     1      40.051  17.217  31.306  1.00  0.00     0.000 C 
BRANCH   7   8
ATOM      8  C   UNL     1      38.665  16.984  30.677  1.00  0.00     0.006 C 
BRANCH   8   9
ATOM      9  C   UNL     1      38.586  17.437  29.215  1.00  0.00     0.053 C 
BRANCH   9  10
ATOM     10  C   UNL     1      37.447  18.387  29.027  1.00  0.00     0.041 C 
ATOM     11  O   UNL     1      37.314  19.374  29.794  1.00  0.00    -0.550 OA
ATOM     12  O   UNL     1      36.568  18.217  27.967  1.00  0.00    -0.550 OA
ENDBRANCH   9  10
ENDBRANCH   8   9
ENDBRANCH   7   8
ENDBRANCH   6   7
ENDBRANCH   5   6
ENDBRANCH   4   5
ENDBRANCH   3   4
ENDBRANCH   1   3
BRANCH   2  13
ATOM     13  C   UNL     1      34.369  18.242  33.231  1.00  0.00     0.027 C 
BRANCH  13  14
ATOM     14  C   UNL     1      34.403  18.617  31.745  1.00  0.00     0.004 C 
BRANCH  14  15
ATOM     15  C   UNL     1      34.157  17.388  30.860  1.00  0.00     0.000 C 
BRANCH  15  16
ATOM     16  C   UNL     1      35.147  16.263  31.195  1.00  0.00     0.000 C 
BRANCH  16  17
ATOM     17  C   UNL     1      34.725  14.905  30.611  1.00  0.00    -0.000 C 
BRANCH  17  18
ATOM     18  C   UNL     1      35.791  14.214  29.740  1.00  0.00    -0.000 C 
BRANCH  18  19
ATOM     19  C   UNL     1      35.831  14.725  28.285  1.00  0.00    -0.003 C 
ATOM     20  C   UNL     1      34.472  15.237  27.810  1.00  0.00     0.004 C 
ENDBRANCH  18  19
ENDBRANCH  17  18
ENDBRANCH  16  17
ENDBRANCH  15  16
ENDBRANCH  14  15
ENDBRANCH  13  14
ENDBRANCH   2  13
TORSDOF 15
ENDMDL
MODEL 3
REMARK VINA RESULT:    -4.978      1.481      3.641
REMARK INTER + INTRA:         -12.021
REMARK INTER:                  -9.525
REMARK INTRA:                  -2.496
REMARK UNBOUND:                -2.678
REMARK SMILES CCCCCCCCC=CCCCCCCCC(=O)[O-]
REMARK SMILES IDX 10 1 9 2 11 3 12 4 13 5 14 6 15 7 16 8 17 9 18 10 19 11
REMARK SMILES IDX 20 12 8 13 7 14 6 15 5 16 4 17 3 18 2 19 1 20
REMARK H PARENT
REMARK Flexibility Score: inf
ROOT
ATOM      1  C   UNL     1      37.622  16.624  30.258  1.00  0.00    -0.031 C 
ATOM      2  C   UNL     1      38.087  17.701  29.608  1.00  0.00    -0.031 C 
ENDROOT
BRANCH   1   3
ATOM      3  C   UNL     1      37.764  15.241  29.685  1.00  0.00     0.027 C 
BRANCH   3   4
ATOM      4  C   UNL     1      36.753  14.273  30.320  1.00  0.00     0.004 C 
BRANCH   4   5
ATOM      5  C   UNL     1      35.654  15.002  31.107  1.00  0.00     0.000 C 
BRANCH   5   6
ATOM      6  C   UNL     1      34.256  14.774  30.507  1.00  0.00     0.000 C 
BRANCH   6   7
ATOM      7  C   UNL     1      33.716  16.002  29.751  1.00  0.00     0.000 C 
BRANCH   7   8
ATOM      8  C   UNL     1      33.630  15.844  28.223  1.00  0.00     0.006 C 
BRANCH   8   9
ATOM      9  C   UNL     1      34.990  15.972  27.529  1.00  0.00     0.053 C 
BRANCH   9  10
ATOM     10  C   UNL     1      35.011  17.179  26.646  1.00  0.00     0.041 C 
ATOM     11  O   UNL     1      34.096  17.361  25.803  1.00  0.00    -0.550 OA
ATOM     12  O   UNL     1      36.007  18.133  26.795  1.00  0.00    -0.550 OA
ENDBRANCH   9  10
ENDBRANCH   8   9
ENDBRANCH   7   8
ENDBRANCH   6   7
ENDBRANCH   5   6
ENDBRANCH   4   5
ENDBRANCH   3   4
ENDBRANCH   1   3
BRANCH   2  13
ATOM     13  C   UNL     1      37.951  19.085  30.178  1.00  0.00     0.027 C 
BRANCH  13  14
ATOM     14  C   UNL     1      39.198  19.483  30.976  1.00  0.00     0.004 C 
BRANCH  14  15
ATOM     15  C   UNL     1      38.818  20.265  32.239  1.00  0.00     0.000 C 
BRANCH  15  16
ATOM     16  C   UNL     1      38.669  19.324  33.444  1.00  0.00     0.000 C 
BRANCH  16  17
ATOM     17  C   UNL     1      37.225  19.249  33.966  1.00  0.00    -0.000 C 
BRANCH  17  18
ATOM     18  C   UNL     1      36.374  18.119  33.358  1.00  0.00    -0.000 C 
BRANCH  18  19
ATOM     19  C   UNL     1      34.862  18.426  33.331  1.00  0.00    -0.003 C 
ATOM     20  C   UNL     1      34.363  18.774  31.930  1.00  0.00     0.004 C 
ENDBRANCH  18  19
ENDBRANCH  17  18
ENDBRANCH  16  17
ENDBRANCH  15  16
ENDBRANCH  14  15
ENDBRANCH  13  14
ENDBRANCH   2  13
TORSDOF 15
ENDMDL
MODEL 4
REMARK VINA RESULT:    -4.961      1.583      2.006
REMARK INTER + INTRA:         -11.989
REMARK INTER:                  -9.438
REMARK INTRA:                  -2.552
REMARK UNBOUND:                -2.678
REMARK SMILES CCCCCCCCC=CCCCCCCCC(=O)[O-]
REMARK SMILES IDX 10 1 9 2 11 3 12 4 13 5 14 6 15 7 16 8 17 9 18 10 19 11
REMARK SMILES IDX 20 12 8 13 7 14 6 15 5 16 4 17 3 18 2 19 1 20
REMARK H PARENT
REMARK Flexibility Score: inf
ROOT
ATOM      1  C   UNL     1      37.367  19.046  33.002  1.00  0.00    -0.031 C 
ATOM      2  C   UNL     1      38.475  19.622  33.490  1.00  0.00    -0.031 C 
ENDROOT
BRANCH   1   3
ATOM      3  C   UNL     1      36.312  18.481  33.912  1.00  0.00     0.027 C 
BRANCH   3   4
ATOM      4  C   UNL     1      34.975  18.315  33.173  1.00  0.00     0.004 C 
BRANCH   4   5
ATOM      5  C   UNL     1      35.131  18.400  31.646  1.00  0.00     0.000 C 
BRANCH   5   6
ATOM      6  C   UNL     1      34.032  17.623  30.902  1.00  0.00     0.000 C 
BRANCH   6   7
ATOM      7  C   UNL     1      34.530  16.294  30.307  1.00  0.00     0.000 C 
BRANCH   7   8
ATOM      8  C   UNL     1      35.728  15.658  31.037  1.00  0.00     0.006 C 
BRANCH   8   9
ATOM      9  C   UNL     1      35.867  14.156  30.765  1.00  0.00     0.053 C 
BRANCH   9  10
ATOM     10  C   UNL     1      36.583  13.927  29.473  1.00  0.00     0.041 C 
ATOM     11  O   UNL     1      37.836  13.830  29.452  1.00  0.00    -0.550 OA
ATOM     12  O   UNL     1      35.862  13.760  28.298  1.00  0.00    -0.550 OA
ENDBRANCH   9  10
ENDBRANCH   8   9
ENDBRANCH   7   8
ENDBRANCH   6   7
ENDBRANCH   5   6
ENDBRANCH   4   5
ENDBRANCH   3   4
ENDBRANCH   1   3
BRANCH   2  13
ATOM     13  C   UNL     1      39.532  20.193  32.585  1.00  0.00     0.027 C 
BRANCH  13  14
ATOM     14  C   UNL     1      40.472  19.098  32.067  1.00  0.00     0.004 C 
BRANCH  14  15
ATOM     15  C   UNL     1      40.470  19.050  30.534  1.00  0.00     0.000 C 
BRANCH  15  16
ATOM     16  C   UNL     1      40.161  17.633  30.030  1.00  0.00     0.000 C 
BRANCH  16  17
ATOM     17  C   UNL     1      38.658  17.393  29.812  1.00  0.00    -0.000 C 
BRANCH  17  18
ATOM     18  C   UNL     1      37.843  18.656  29.474  1.00  0.00    -0.000 C 
BRANCH  18  19
ATOM     19  C   UNL     1      37.006  18.527  28.185  1.00  0.00    -0.003 C 
ATOM     20  C   UNL     1      36.945  17.090  27.670  1.00  0.00     0.004 C 
ENDBRANCH  18  19
ENDBRANCH  17  18
ENDBRANCH  16  17
ENDBRANCH  15  16
ENDBRANCH  14  15
ENDBRANCH  13  14
ENDBRANCH   2  13
TORSDOF 15
ENDMDL
MODEL 5
REMARK VINA RESULT:    -4.957      1.990      4.887
REMARK INTER + INTRA:         -11.983
REMARK INTER:                  -9.629
REMARK INTRA:                  -2.354
REMARK UNBOUND:                -2.678
REMARK SMILES CCCCCCCCC=CCCCCCCCC(=O)[O-]
REMARK SMILES IDX 10 1 9 2 11 3 12 4 13 5 14 6 15 7 16 8 17 9 18 10 19 11
REMARK SMILES IDX 20 12 8 13 7 14 6 15 5 16 4 17 3 18 2 19 1 20
REMARK H PARENT
REMARK Flexibility Score: inf
ROOT
ATOM      1  C   UNL     1      33.954  16.893  30.492  1.00  0.00    -0.031 C 
ATOM      2  C   UNL     1      34.713  17.557  31.376  1.00  0.00    -0.031 C 
ENDROOT
BRANCH   1   3
ATOM      3  C   UNL     1      34.380  15.562  29.937  1.00  0.00     0.027 C 
BRANCH   3   4
ATOM      4  C   UNL     1      34.464  15.604  28.403  1.00  0.00     0.004 C 
BRANCH   4   5
ATOM      5  C   UNL     1      35.877  15.934  27.899  1.00  0.00     0.000 C 
BRANCH   5   6
ATOM      6  C   UNL     1      36.008  17.397  27.442  1.00  0.00     0.000 C 
BRANCH   6   7
ATOM      7  C   UNL     1      37.356  18.032  27.831  1.00  0.00     0.000 C 
BRANCH   7   8
ATOM      8  C   UNL     1      37.526  18.343  29.329  1.00  0.00     0.006 C 
BRANCH   8   9
ATOM      9  C   UNL     1      38.254  17.232  30.093  1.00  0.00     0.053 C 
BRANCH   9  10
ATOM     10  C   UNL     1      39.559  16.917  29.432  1.00  0.00     0.041 C 
ATOM     11  O   UNL     1      39.708  15.834  28.812  1.00  0.00    -0.550 OA
ATOM     12  O   UNL     1      40.589  17.848  29.449  1.00  0.00    -0.550 OA
ENDBRANCH   9  10
ENDBRANCH   8   9
ENDBRANCH   7   8
ENDBRANCH   6   7
ENDBRANCH   5   6
ENDBRANCH   4   5
ENDBRANCH   3   4
ENDBRANCH   1   3
BRANCH   2  13
ATOM     13  C   UNL     1      34.290  18.885  31.937  1.00  0.00     0.027 C 
BRANCH  13  14
ATOM     14  C   UNL     1      34.229  18.849  33.469  1.00  0.00     0.004 C 
BRANCH  14  15
ATOM     15  C   UNL     1      35.459  18.144  34.053  1.00  0.00     0.000 C 
BRANCH  15  16
ATOM     16  C   UNL     1      36.598  19.144  34.302  1.00  0.00     0.000 C 
BRANCH  16  17
ATOM     17  C   UNL     1      37.858  18.829  33.479  1.00  0.00    -0.000 C 
BRANCH  17  18
ATOM     18  C   UNL     1      38.548  20.056  32.856  1.00  0.00    -0.000 C 
BRANCH  18  19
ATOM     19  C   UNL     1      39.972  19.770  32.336  1.00  0.00    -0.003 C 
ATOM     20  C   UNL     1      40.580  18.517  32.962  1.00  0.00     0.004 C 
ENDBRANCH  18  19
ENDBRANCH  17  18
ENDBRANCH  16  17
ENDBRANCH  15  16
ENDBRANCH  14  15
ENDBRANCH  13  14
ENDBRANCH   2  13
TORSDOF 15
ENDMDL
MODEL 6
REMARK VINA RESULT:    -4.940      1.426      2.402
REMARK INTER + INTRA:         -11.951
REMARK INTER:                  -9.140
REMARK INTRA:                  -2.811
REMARK UNBOUND:                -2.678
REMARK SMILES CCCCCCCCC=CCCCCCCCC(=O)[O-]
REMARK SMILES IDX 10 1 9 2 11 3 12 4 13 5 14 6 15 7 16 8 17 9 18 10 19 11
REMARK SMILES IDX 20 12 8 13 7 14 6 15 5 16 4 17 3 18 2 19 1 20
REMARK H PARENT
REMARK Flexibility Score: inf
ROOT
ATOM      1  C   UNL     1      36.811  18.772  33.330  1.00  0.00    -0.031 C 
ATOM      2  C   UNL     1      37.786  19.621  33.688  1.00  0.00    -0.031 C 
ENDROOT
BRANCH   1   3
ATOM      3  C   UNL     1      35.667  18.458  34.254  1.00  0.00     0.027 C 
BRANCH   3   4
ATOM      4  C   UNL     1      34.365  18.243  33.468  1.00  0.00     0.004 C 
BRANCH   4   5
ATOM      5  C   UNL     1      34.435  18.815  32.044  1.00  0.00     0.000 C 
BRANCH   5   6
ATOM      6  C   UNL     1      34.163  17.747  30.971  1.00  0.00     0.000 C 
BRANCH   6   7
ATOM      7  C   UNL     1      35.448  17.078  30.448  1.00  0.00     0.000 C 
BRANCH   7   8
ATOM      8  C   UNL     1      35.820  15.751  31.134  1.00  0.00     0.006 C 
BRANCH   8   9
ATOM      9  C   UNL     1      35.142  14.534  30.494  1.00  0.00     0.053 C 
BRANCH   9  10
ATOM     10  C   UNL     1      35.905  14.089  29.288  1.00  0.00     0.041 C 
ATOM     11  O   UNL     1      35.519  14.422  28.138  1.00  0.00    -0.550 OA
ATOM     12  O   UNL     1      37.076  13.360  29.435  1.00  0.00    -0.550 OA
ENDBRANCH   9  10
ENDBRANCH   8   9
ENDBRANCH   7   8
ENDBRANCH   6   7
ENDBRANCH   5   6
ENDBRANCH   4   5
ENDBRANCH   3   4
ENDBRANCH   1   3
BRANCH   2  13
ATOM     13  C   UNL     1      38.930  19.942  32.766  1.00  0.00     0.027 C 
BRANCH  13  14
ATOM     14  C   UNL     1      38.522  19.786  31.297  1.00  0.00     0.004 C 
BRANCH  14  15
ATOM     15  C   UNL     1      39.567  18.977  30.518  1.00  0.00     0.000 C 
BRANCH  15  16
ATOM     16  C   UNL     1      38.920  17.770  29.822  1.00  0.00     0.000 C 
BRANCH  16  17
ATOM     17  C   UNL     1      39.474  16.427  30.326  1.00  0.00    -0.000 C 
BRANCH  17  18
ATOM     18  C   UNL     1      40.207  16.494  31.679  1.00  0.00    -0.000 C 
BRANCH  18  19
ATOM     19  C   UNL     1      39.334  16.077  32.880  1.00  0.00    -0.003 C 
ATOM     20  C   UNL     1      39.867  16.619  34.205  1.00  0.00     0.004 C 
ENDBRANCH  18  19
ENDBRANCH  17  18
ENDBRANCH  16  17
ENDBRANCH  15  16
ENDBRANCH  14  15
ENDBRANCH  13  14
ENDBRANCH   2  13
TORSDOF 15
ENDMDL
MODEL 7
REMARK VINA RESULT:    -4.919      2.027      5.047
REMARK INTER + INTRA:         -11.912
REMARK INTER:                  -9.226
REMARK INTRA:                  -2.686
REMARK UNBOUND:                -2.678
REMARK SMILES CCCCCCCCC=CCCCCCCCC(=O)[O-]
REMARK SMILES IDX 10 1 9 2 11 3 12 4 13 5 14 6 15 7 16 8 17 9 18 10 19 11
REMARK SMILES IDX 20 12 8 13 7 14 6 15 5 16 4 17 3 18 2 19 1 20
REMARK H PARENT
REMARK Flexibility Score: inf
ROOT
ATOM      1  C   UNL     1      36.496  18.248  32.977  1.00  0.00    -0.031 C 
ATOM      2  C   UNL     1      35.908  18.694  31.857  1.00  0.00    -0.031 C 
ENDROOT
BRANCH   1   3
ATOM      3  C   UNL     1      37.340  19.153  33.832  1.00  0.00     0.027 C 
BRANCH   3   4
ATOM      4  C   UNL     1      38.460  19.807  33.008  1.00  0.00     0.004 C 
BRANCH   4   5
ATOM      5  C   UNL     1      39.860  19.373  33.470  1.00  0.00     0.000 C 
BRANCH   5   6
ATOM      6  C   UNL     1      40.751  18.932  32.296  1.00  0.00     0.000 C 
BRANCH   6   7
ATOM      7  C   UNL     1      40.093  19.155  30.922  1.00  0.00     0.000 C 
BRANCH   7   8
ATOM      8  C   UNL     1      39.924  17.888  30.064  1.00  0.00     0.006 C 
BRANCH   8   9
ATOM      9  C   UNL     1      39.055  16.820  30.737  1.00  0.00     0.053 C 
BRANCH   9  10
ATOM     10  C   UNL     1      39.042  15.570  29.917  1.00  0.00     0.041 C 
ATOM     11  O   UNL     1      38.427  14.552  30.324  1.00  0.00    -0.550 OA
ATOM     12  O   UNL     1      39.658  15.548  28.673  1.00  0.00    -0.550 OA
ENDBRANCH   9  10
ENDBRANCH   8   9
ENDBRANCH   7   8
ENDBRANCH   6   7
ENDBRANCH   5   6
ENDBRANCH   4   5
ENDBRANCH   3   4
ENDBRANCH   1   3
BRANCH   2  13
ATOM     13  C   UNL     1      35.061  17.795  31.000  1.00  0.00     0.027 C 
BRANCH  13  14
ATOM     14  C   UNL     1      35.400  16.319  31.236  1.00  0.00     0.004 C 
BRANCH  14  15
ATOM     15  C   UNL     1      34.490  15.404  30.407  1.00  0.00     0.000 C 
BRANCH  15  16
ATOM     16  C   UNL     1      33.698  16.212  29.369  1.00  0.00     0.000 C 
BRANCH  16  17
ATOM     17  C   UNL     1      34.078  15.857  27.922  1.00  0.00    -0.000 C 
BRANCH  17  18
ATOM     18  C   UNL     1      34.936  16.913  27.199  1.00  0.00    -0.000 C 
BRANCH  18  19
ATOM     19  C   UNL     1      36.420  16.901  27.620  1.00  0.00    -0.003 C 
ATOM     20  C   UNL     1      36.965  18.305  27.873  1.00  0.00     0.004 C 
ENDBRANCH  18  19
ENDBRANCH  17  18
ENDBRANCH  16  17
ENDBRANCH  15  16
ENDBRANCH  14  15
ENDBRANCH  13  14
ENDBRANCH   2  13
TORSDOF 15
ENDMDL
MODEL 8
REMARK VINA RESULT:    -4.881      1.336      2.077
REMARK INTER + INTRA:         -11.839
REMARK INTER:                  -9.394
REMARK INTRA:                  -2.445
REMARK UNBOUND:                -2.678
REMARK SMILES CCCCCCCCC=CCCCCCCCC(=O)[O-]
REMARK SMILES IDX 10 1 9 2 11 3 12 4 13 5 14 6 15 7 16 8 17 9 18 10 19 11
REMARK SMILES IDX 20 12 8 13 7 14 6 15 5 16 4 17 3 18 2 19 1 20
REMARK H PARENT
REMARK Flexibility Score: inf
ROOT
ATOM      1  C   UNL     1      36.391  18.505  34.011  1.00  0.00    -0.031 C 
ATOM      2  C   UNL     1      37.300  19.232  33.345  1.00  0.00    -0.031 C 
ENDROOT
BRANCH   1   3
ATOM      3  C   UNL     1      34.947  18.481  33.593  1.00  0.00     0.027 C 
BRANCH   3   4
ATOM      4  C   UNL     1      34.815  18.464  32.062  1.00  0.00     0.004 C 
BRANCH   4   5
ATOM      5  C   UNL     1      34.591  17.050  31.506  1.00  0.00     0.000 C 
BRANCH   5   6
ATOM      6  C   UNL     1      33.884  17.064  30.140  1.00  0.00     0.000 C 
BRANCH   6   7
ATOM      7  C   UNL     1      33.741  15.662  29.521  1.00  0.00     0.000 C 
BRANCH   7   8
ATOM      8  C   UNL     1      34.372  15.494  28.127  1.00  0.00     0.006 C 
BRANCH   8   9
ATOM      9  C   UNL     1      35.787  16.075  28.035  1.00  0.00     0.053 C 
BRANCH   9  10
ATOM     10  C   UNL     1      35.783  17.324  27.214  1.00  0.00     0.041 C 
ATOM     11  O   UNL     1      34.902  17.500  26.334  1.00  0.00    -0.550 OA
ATOM     12  O   UNL     1      36.715  18.323  27.462  1.00  0.00    -0.550 OA
ENDBRANCH   9  10
ENDBRANCH   8   9
ENDBRANCH   7   8
ENDBRANCH   6   7
ENDBRANCH   5   6
ENDBRANCH   4   5
ENDBRANCH   3   4
ENDBRANCH   1   3
BRANCH   2  13
ATOM     13  C   UNL     1      38.746  19.256  33.756  1.00  0.00     0.027 C 
BRANCH  13  14
ATOM     14  C   UNL     1      39.604  20.007  32.731  1.00  0.00     0.004 C 
BRANCH  14  15
ATOM     15  C   UNL     1      39.074  19.796  31.307  1.00  0.00     0.000 C 
BRANCH  15  16
ATOM     16  C   UNL     1      40.084  19.014  30.456  1.00  0.00     0.000 C 
BRANCH  16  17
ATOM     17  C   UNL     1      39.844  17.495  30.493  1.00  0.00    -0.000 C 
BRANCH  17  18
ATOM     18  C   UNL     1      38.363  17.075  30.561  1.00  0.00    -0.000 C 
BRANCH  18  19
ATOM     19  C   UNL     1      38.064  16.033  31.658  1.00  0.00    -0.003 C 
ATOM     20  C   UNL     1      37.483  14.738  31.090  1.00  0.00     0.004 C 
ENDBRANCH  18  19
ENDBRANCH  17  18
ENDBRANCH  16  17
ENDBRANCH  15  16
ENDBRANCH  14  15
ENDBRANCH  13  14
ENDBRANCH   2  13
TORSDOF 15
ENDMDL
MODEL 9
REMARK VINA RESULT:    -4.849      2.019      4.270
REMARK INTER + INTRA:         -11.780
REMARK INTER:                  -9.050
REMARK INTRA:                  -2.730
REMARK UNBOUND:                -2.678
REMARK SMILES CCCCCCCCC=CCCCCCCCC(=O)[O-]
REMARK SMILES IDX 10 1 9 2 11 3 12 4 13 5 14 6 15 7 16 8 17 9 18 10 19 11
REMARK SMILES IDX 20 12 8 13 7 14 6 15 5 16 4 17 3 18 2 19 1 20
REMARK H PARENT
REMARK Flexibility Score: inf
ROOT
ATOM      1  C   UNL     1      37.837  17.443  29.029  1.00  0.00    -0.031 C 
ATOM      2  C   UNL     1      37.393  18.629  29.469  1.00  0.00    -0.031 C 
ENDROOT
BRANCH   1   3
ATOM      3  C   UNL     1      37.233  16.778  27.824  1.00  0.00     0.027 C 
BRANCH   3   4
ATOM      4  C   UNL     1      36.135  17.654  27.201  1.00  0.00     0.004 C 
BRANCH   4   5
ATOM      5  C   UNL     1      34.764  16.961  27.187  1.00  0.00     0.000 C 
BRANCH   5   6
ATOM      6  C   UNL     1      34.779  15.622  27.945  1.00  0.00     0.000 C 
BRANCH   6   7
ATOM      7  C   UNL     1      33.928  15.646  29.227  1.00  0.00     0.000 C 
BRANCH   7   8
ATOM      8  C   UNL     1      34.471  14.796  30.390  1.00  0.00     0.006 C 
BRANCH   8   9
ATOM      9  C   UNL     1      35.702  15.415  31.061  1.00  0.00     0.053 C 
BRANCH   9  10
ATOM     10  C   UNL     1      36.875  14.495  30.941  1.00  0.00     0.041 C 
ATOM     11  O   UNL     1      36.811  13.481  30.200  1.00  0.00    -0.550 OA
ATOM     12  O   UNL     1      38.062  14.792  31.598  1.00  0.00    -0.550 OA
ENDBRANCH   9  10
ENDBRANCH   8   9
ENDBRANCH   7   8
ENDBRANCH   6   7
ENDBRANCH   5   6
ENDBRANCH   4   5
ENDBRANCH   3   4
ENDBRANCH   1   3
BRANCH   2  13
ATOM     13  C   UNL     1      37.996  19.301  30.671  1.00  0.00     0.027 C 
BRANCH  13  14
ATOM     14  C   UNL     1      39.036  18.401  31.348  1.00  0.00     0.004 C 
BRANCH  14  15
ATOM     15  C   UNL     1      38.885  18.435  32.874  1.00  0.00     0.000 C 
BRANCH  15  16
ATOM     16  C   UNL     1      38.052  19.646  33.317  1.00  0.00     0.000 C 
BRANCH  16  17
ATOM     17  C   UNL     1      36.852  19.255  34.194  1.00  0.00    -0.000 C 
BRANCH  17  18
ATOM     18  C   UNL     1      36.011  18.081  33.655  1.00  0.00    -0.000 C 
BRANCH  18  19
ATOM     19  C   UNL     1      34.565  18.471  33.288  1.00  0.00    -0.003 C 
ATOM     20  C   UNL     1      34.397  18.749  31.795  1.00  0.00     0.004 C 
ENDBRANCH  18  19
ENDBRANCH  17  18
ENDBRANCH  16  17
ENDBRANCH  15  16
ENDBRANCH  14  15
ENDBRANCH  13  14
ENDBRANCH   2  13
TORSDOF 15
ENDMDL
