MODEL 1
REMARK VINA RESULT:    -7.252      0.000      0.000
REMARK INTER + INTRA:         -12.404
REMARK INTER:                 -10.643
REMARK INTRA:                  -1.761
REMARK UNBOUND:                -1.761
REMARK SMILES O=c1c(O[C@@H]2O[C@@H](CO)[C@@H](O)[C@H](O)[C@@H]2O)c(-c2ccc(O)c(O)c2)oc2cc(O)cc(O)c12
REMARK SMILES IDX 4 1 3 2 16 3 25 4 2 5 26 6 1 7 33 8 27 9 31 10 28 11 30 12
REMARK SMILES IDX 17 13 18 14 19 15 20 16 24 17 22 18 21 19 23 21 32 23 29 25
REMARK SMILES IDX 5 27 14 28 6 29 12 30 7 31 10 32 15 33 13 35 8 37 9 38 11 40
REMARK H PARENT 21 20 23 22 32 24 29 26 15 34 13 36 9 39 11 41
REMARK Flexibility Score: inf
ROOT
ATOM      1  O   UNL     1     -22.651  59.708  32.608  1.00  0.00    -0.454 OA
ENDROOT
BRANCH   1   2
ATOM      2  C   UNL     1     -22.686  59.281  31.259  1.00  0.00     0.214 A 
ATOM      3  C   UNL     1     -23.764  59.686  30.410  1.00  0.00     0.180 A 
ATOM      4  O   UNL     1     -23.754  59.272  29.140  1.00  0.00    -0.452 OA
ATOM      5  C   UNL     1     -21.639  58.528  30.696  1.00  0.00     0.239 A 
ATOM      6  C   UNL     1     -22.876  58.400  28.649  1.00  0.00     0.146 A 
ATOM      7  O   UNL     1     -20.518  58.488  31.265  1.00  0.00    -0.285 OA
ATOM      8  C   UNL     1     -21.789  57.962  29.416  1.00  0.00     0.111 A 
ATOM      9  C   UNL     1     -23.051  57.954  27.341  1.00  0.00     0.094 A 
ATOM     10  C   UNL     1     -20.883  57.025  28.866  1.00  0.00     0.134 A 
ATOM     11  C   UNL     1     -22.172  57.012  26.796  1.00  0.00     0.123 A 
ATOM     12  C   UNL     1     -21.100  56.539  27.568  1.00  0.00     0.093 A 
BRANCH   3  13
ATOM     13  C   UNL     1     -24.962  60.508  30.818  1.00  0.00     0.025 A 
ATOM     14  C   UNL     1     -24.947  61.920  30.931  1.00  0.00     0.016 A 
ATOM     15  C   UNL     1     -25.945  62.598  31.643  1.00  0.00     0.051 A 
ATOM     16  C   UNL     1     -26.990  61.883  32.241  1.00  0.00     0.157 A 
ATOM     17  C   UNL     1     -26.057  59.815  31.379  1.00  0.00     0.062 A 
ATOM     18  C   UNL     1     -27.056  60.488  32.093  1.00  0.00     0.158 A 
BRANCH  16  19
ATOM     19  O   UNL     1     -27.903  62.573  33.034  1.00  0.00    -0.504 OA
ATOM     20  H   UNL     1     -28.322  63.452  32.743  1.00  0.00     0.293 HD
ENDBRANCH  16  19
BRANCH  18  21
ATOM     21  O   UNL     1     -28.125  59.764  32.636  1.00  0.00    -0.504 OA
ATOM     22  H   UNL     1     -27.987  58.860  33.082  1.00  0.00     0.293 HD
ENDBRANCH  18  21
ENDBRANCH   3  13
BRANCH  10  23
ATOM     23  O   UNL     1     -19.802  56.545  29.609  1.00  0.00    -0.507 OA
ATOM     24  H   UNL     1     -19.177  57.162  30.119  1.00  0.00     0.293 HD
ENDBRANCH  10  23
BRANCH  11  25
ATOM     25  O   UNL     1     -22.356  56.566  25.486  1.00  0.00    -0.508 OA
ATOM     26  H   UNL     1     -21.882  55.744  25.152  1.00  0.00     0.293 HD
ENDBRANCH  11  25
ENDBRANCH   1   2
BRANCH   1  27
ATOM     27  C   UNL     1     -22.292  60.996  33.141  1.00  0.00     0.339 C 
ATOM     28  C   UNL     1     -23.049  61.246  34.478  1.00  0.00     0.214 C 
ATOM     29  O   UNL     1     -20.887  61.165  33.288  1.00  0.00    -0.332 OA
ATOM     30  C   UNL     1     -22.379  60.597  35.729  1.00  0.00     0.180 C 
ATOM     31  C   UNL     1     -20.333  60.310  34.265  1.00  0.00     0.179 C 
ATOM     32  C   UNL     1     -20.830  60.717  35.674  1.00  0.00     0.177 C 
BRANCH  28  33
ATOM     33  O   UNL     1     -24.393  60.822  34.374  1.00  0.00    -0.384 OA
ATOM     34  H   UNL     1     -24.402  60.029  33.778  1.00  0.00     0.211 HD
ENDBRANCH  28  33
BRANCH  30  35
ATOM     35  O   UNL     1     -22.786  59.266  35.955  1.00  0.00    -0.387 OA
ATOM     36  H   UNL     1     -22.639  59.046  36.910  1.00  0.00     0.211 HD
ENDBRANCH  30  35
BRANCH  31  37
ATOM     37  C   UNL     1     -18.794  60.380  34.190  1.00  0.00     0.191 C 
BRANCH  37  38
ATOM     38  O   UNL     1     -18.380  61.689  33.901  1.00  0.00    -0.394 OA
ATOM     39  H   UNL     1     -19.035  62.053  33.253  1.00  0.00     0.210 HD
ENDBRANCH  37  38
ENDBRANCH  31  37
BRANCH  32  40
ATOM     40  O   UNL     1     -20.391  62.003  36.023  1.00  0.00    -0.387 OA
ATOM     41  H   UNL     1     -19.921  61.933  36.903  1.00  0.00     0.211 HD
ENDBRANCH  32  40
ENDBRANCH   1  27
TORSDOF 12
ENDMDL
MODEL 2
REMARK VINA RESULT:    -7.218      1.399      1.719
REMARK INTER + INTRA:         -12.355
REMARK INTER:                 -10.747
REMARK INTRA:                  -1.608
REMARK UNBOUND:                -1.761
REMARK SMILES O=c1c(O[C@@H]2O[C@@H](CO)[C@@H](O)[C@H](O)[C@@H]2O)c(-c2ccc(O)c(O)c2)oc2cc(O)cc(O)c12
REMARK SMILES IDX 4 1 3 2 16 3 25 4 2 5 26 6 1 7 33 8 27 9 31 10 28 11 30 12
REMARK SMILES IDX 17 13 18 14 19 15 20 16 24 17 22 18 21 19 23 21 32 23 29 25
REMARK SMILES IDX 5 27 14 28 6 29 12 30 7 31 10 32 15 33 13 35 8 37 9 38 11 40
REMARK H PARENT 21 20 23 22 32 24 29 26 15 34 13 36 9 39 11 41
REMARK Flexibility Score: inf
ROOT
ATOM      1  O   UNL     1     -21.910  59.631  31.223  1.00  0.00    -0.454 OA
ENDROOT
BRANCH   1   2
ATOM      2  C   UNL     1     -22.222  59.051  29.972  1.00  0.00     0.214 A 
ATOM      3  C   UNL     1     -23.448  59.386  29.314  1.00  0.00     0.180 A 
ATOM      4  O   UNL     1     -23.699  58.826  28.129  1.00  0.00    -0.452 OA
ATOM      5  C   UNL     1     -21.315  58.205  29.304  1.00  0.00     0.239 A 
ATOM      6  C   UNL     1     -22.945  57.875  27.580  1.00  0.00     0.146 A 
ATOM      7  O   UNL     1     -20.102  58.199  29.635  1.00  0.00    -0.285 OA
ATOM      8  C   UNL     1     -21.728  57.498  28.158  1.00  0.00     0.111 A 
ATOM      9  C   UNL     1     -23.386  57.285  26.397  1.00  0.00     0.094 A 
ATOM     10  C   UNL     1     -20.958  56.476  27.554  1.00  0.00     0.134 A 
ATOM     11  C   UNL     1     -22.642  56.259  25.805  1.00  0.00     0.123 A 
ATOM     12  C   UNL     1     -21.438  55.847  26.395  1.00  0.00     0.093 A 
BRANCH   3  13
ATOM     13  C   UNL     1     -24.533  60.286  29.854  1.00  0.00     0.025 A 
ATOM     14  C   UNL     1     -24.438  61.699  29.890  1.00  0.00     0.016 A 
ATOM     15  C   UNL     1     -25.286  62.458  30.707  1.00  0.00     0.051 A 
ATOM     16  C   UNL     1     -26.259  61.825  31.490  1.00  0.00     0.157 A 
ATOM     17  C   UNL     1     -25.560  59.676  30.606  1.00  0.00     0.062 A 
ATOM     18  C   UNL     1     -26.408  60.430  31.426  1.00  0.00     0.158 A 
BRANCH  16  19
ATOM     19  O   UNL     1     -27.010  62.596  32.374  1.00  0.00    -0.504 OA
ATOM     20  H   UNL     1     -27.815  63.139  32.074  1.00  0.00     0.293 HD
ENDBRANCH  16  19
BRANCH  18  21
ATOM     21  O   UNL     1     -27.414  59.788  32.158  1.00  0.00    -0.504 OA
ATOM     22  H   UNL     1     -27.699  58.833  31.952  1.00  0.00     0.293 HD
ENDBRANCH  18  21
ENDBRANCH   3  13
BRANCH  10  23
ATOM     23  O   UNL     1     -19.750  56.055  28.116  1.00  0.00    -0.507 OA
ATOM     24  H   UNL     1     -19.709  55.516  28.976  1.00  0.00     0.293 HD
ENDBRANCH  10  23
BRANCH  11  25
ATOM     25  O   UNL     1     -23.092  55.668  24.623  1.00  0.00    -0.508 OA
ATOM     26  H   UNL     1     -24.076  55.558  24.446  1.00  0.00     0.293 HD
ENDBRANCH  11  25
ENDBRANCH   1   2
BRANCH   1  27
ATOM     27  C   UNL     1     -21.290  60.900  31.504  1.00  0.00     0.339 C 
ATOM     28  C   UNL     1     -21.663  61.367  32.942  1.00  0.00     0.214 C 
ATOM     29  O   UNL     1     -19.882  60.888  31.300  1.00  0.00    -0.332 OA
ATOM     30  C   UNL     1     -20.783  60.744  34.069  1.00  0.00     0.180 C 
ATOM     31  C   UNL     1     -19.204  60.054  32.215  1.00  0.00     0.179 C 
ATOM     32  C   UNL     1     -19.291  60.646  33.643  1.00  0.00     0.177 C 
BRANCH  28  33
ATOM     33  O   UNL     1     -23.030  61.122  33.202  1.00  0.00    -0.384 OA
ATOM     34  H   UNL     1     -23.102  60.857  34.155  1.00  0.00     0.211 HD
ENDBRANCH  28  33
BRANCH  30  35
ATOM     35  O   UNL     1     -21.267  59.505  34.538  1.00  0.00    -0.387 OA
ATOM     36  H   UNL     1     -20.796  58.777  34.057  1.00  0.00     0.211 HD
ENDBRANCH  30  35
BRANCH  31  37
ATOM     37  C   UNL     1     -17.732  59.907  31.775  1.00  0.00     0.191 C 
BRANCH  37  38
ATOM     38  O   UNL     1     -17.226  61.144  31.349  1.00  0.00    -0.394 OA
ATOM     39  H   UNL     1     -17.969  61.794  31.429  1.00  0.00     0.210 HD
ENDBRANCH  37  38
ENDBRANCH  31  37
BRANCH  32  40
ATOM     40  O   UNL     1     -18.640  61.886  33.726  1.00  0.00    -0.387 OA
ATOM     41  H   UNL     1     -19.187  62.474  34.323  1.00  0.00     0.211 HD
ENDBRANCH  32  40
ENDBRANCH   1  27
TORSDOF 12
ENDMDL
MODEL 3
REMARK VINA RESULT:    -7.113      2.665      6.924
REMARK INTER + INTRA:         -12.201
REMARK INTER:                 -10.502
REMARK INTRA:                  -1.699
REMARK UNBOUND:                -1.761
REMARK SMILES O=c1c(O[C@@H]2O[C@@H](CO)[C@@H](O)[C@H](O)[C@@H]2O)c(-c2ccc(O)c(O)c2)oc2cc(O)cc(O)c12
REMARK SMILES IDX 4 1 3 2 16 3 25 4 2 5 26 6 1 7 33 8 27 9 31 10 28 11 30 12
REMARK SMILES IDX 17 13 18 14 19 15 20 16 24 17 22 18 21 19 23 21 32 23 29 25
REMARK SMILES IDX 5 27 14 28 6 29 12 30 7 31 10 32 15 33 13 35 8 37 9 38 11 40
REMARK H PARENT 21 20 23 22 32 24 29 26 15 34 13 36 9 39 11 41
REMARK Flexibility Score: inf
ROOT
ATOM      1  O   UNL     1     -21.238  61.270  31.663  1.00  0.00    -0.454 OA
ENDROOT
BRANCH   1   2
ATOM      2  C   UNL     1     -22.406  61.214  32.460  1.00  0.00     0.214 A 
ATOM      3  C   UNL     1     -22.299  60.986  33.868  1.00  0.00     0.180 A 
ATOM      4  O   UNL     1     -23.424  60.953  34.587  1.00  0.00    -0.452 OA
ATOM      5  C   UNL     1     -23.681  61.460  31.918  1.00  0.00     0.239 A 
ATOM      6  C   UNL     1     -24.646  60.986  34.058  1.00  0.00     0.146 A 
ATOM      7  O   UNL     1     -23.790  62.042  30.808  1.00  0.00    -0.285 OA
ATOM      8  C   UNL     1     -24.832  61.213  32.690  1.00  0.00     0.111 A 
ATOM      9  C   UNL     1     -25.737  60.817  34.908  1.00  0.00     0.094 A 
ATOM     10  C   UNL     1     -26.144  61.230  32.160  1.00  0.00     0.134 A 
ATOM     11  C   UNL     1     -27.036  60.811  34.391  1.00  0.00     0.123 A 
ATOM     12  C   UNL     1     -27.234  61.002  33.014  1.00  0.00     0.093 A 
BRANCH   3  13
ATOM     13  C   UNL     1     -21.026  60.724  34.637  1.00  0.00     0.025 A 
ATOM     14  C   UNL     1     -20.004  61.688  34.817  1.00  0.00     0.016 A 
ATOM     15  C   UNL     1     -18.715  61.306  35.214  1.00  0.00     0.051 A 
ATOM     16  C   UNL     1     -18.425  59.958  35.457  1.00  0.00     0.157 A 
ATOM     17  C   UNL     1     -20.726  59.380  34.945  1.00  0.00     0.062 A 
ATOM     18  C   UNL     1     -19.439  58.993  35.339  1.00  0.00     0.158 A 
BRANCH  16  19
ATOM     19  O   UNL     1     -17.110  59.599  35.739  1.00  0.00    -0.504 OA
ATOM     20  H   UNL     1     -16.810  59.318  36.669  1.00  0.00     0.293 HD
ENDBRANCH  16  19
BRANCH  18  21
ATOM     21  O   UNL     1     -19.180  57.649  35.634  1.00  0.00    -0.504 OA
ATOM     22  H   UNL     1     -19.829  57.087  36.181  1.00  0.00     0.293 HD
ENDBRANCH  18  21
ENDBRANCH   3  13
BRANCH  10  23
ATOM     23  O   UNL     1     -26.369  61.428  30.796  1.00  0.00    -0.507 OA
ATOM     24  H   UNL     1     -26.683  60.683  30.183  1.00  0.00     0.293 HD
ENDBRANCH  10  23
BRANCH  11  25
ATOM     25  O   UNL     1     -28.125  60.636  35.247  1.00  0.00    -0.508 OA
ATOM     26  H   UNL     1     -28.898  60.050  34.982  1.00  0.00     0.293 HD
ENDBRANCH  11  25
ENDBRANCH   1   2
BRANCH   1  27
ATOM     27  C   UNL     1     -20.895  60.490  30.503  1.00  0.00     0.339 C 
ATOM     28  C   UNL     1     -19.486  60.904  29.982  1.00  0.00     0.214 C 
ATOM     29  O   UNL     1     -20.984  59.088  30.729  1.00  0.00    -0.332 OA
ATOM     30  C   UNL     1     -18.298  60.224  30.730  1.00  0.00     0.180 C 
ATOM     31  C   UNL     1     -20.026  58.622  31.655  1.00  0.00     0.179 C 
ATOM     32  C   UNL     1     -18.604  58.734  31.055  1.00  0.00     0.177 C 
BRANCH  28  33
ATOM     33  O   UNL     1     -19.340  62.309  30.017  1.00  0.00    -0.384 OA
ATOM     34  H   UNL     1     -18.538  62.532  29.478  1.00  0.00     0.211 HD
ENDBRANCH  28  33
BRANCH  30  35
ATOM     35  O   UNL     1     -17.884  60.927  31.881  1.00  0.00    -0.387 OA
ATOM     36  H   UNL     1     -18.225  60.455  32.683  1.00  0.00     0.211 HD
ENDBRANCH  30  35
BRANCH  31  37
ATOM     37  C   UNL     1     -20.346  57.158  32.025  1.00  0.00     0.191 C 
BRANCH  37  38
ATOM     38  O   UNL     1     -19.274  56.588  32.727  1.00  0.00    -0.394 OA
ATOM     39  H   UNL     1     -19.605  56.404  33.642  1.00  0.00     0.210 HD
ENDBRANCH  37  38
ENDBRANCH  31  37
BRANCH  32  40
ATOM     40  O   UNL     1     -18.454  57.912  29.928  1.00  0.00    -0.387 OA
ATOM     41  H   UNL     1     -17.798  57.194  30.164  1.00  0.00     0.211 HD
ENDBRANCH  32  40
ENDBRANCH   1  27
TORSDOF 12
ENDMDL
MODEL 4
REMARK VINA RESULT:    -6.968      1.989      7.391
REMARK INTER + INTRA:         -11.988
REMARK INTER:                 -10.618
REMARK INTRA:                  -1.370
REMARK UNBOUND:                -1.761
REMARK SMILES O=c1c(O[C@@H]2O[C@@H](CO)[C@@H](O)[C@H](O)[C@@H]2O)c(-c2ccc(O)c(O)c2)oc2cc(O)cc(O)c12
REMARK SMILES IDX 4 1 3 2 16 3 25 4 2 5 26 6 1 7 33 8 27 9 31 10 28 11 30 12
REMARK SMILES IDX 17 13 18 14 19 15 20 16 24 17 22 18 21 19 23 21 32 23 29 25
REMARK SMILES IDX 5 27 14 28 6 29 12 30 7 31 10 32 15 33 13 35 8 37 9 38 11 40
REMARK H PARENT 21 20 23 22 32 24 29 26 15 34 13 36 9 39 11 41
REMARK Flexibility Score: inf
ROOT
ATOM      1  O   UNL     1     -23.027  60.481  30.879  1.00  0.00    -0.454 OA
ENDROOT
BRANCH   1   2
ATOM      2  C   UNL     1     -23.795  60.766  32.033  1.00  0.00     0.214 A 
ATOM      3  C   UNL     1     -23.198  60.672  33.330  1.00  0.00     0.180 A 
ATOM      4  O   UNL     1     -23.953  60.961  34.392  1.00  0.00    -0.452 OA
ATOM      5  C   UNL     1     -25.122  61.226  31.941  1.00  0.00     0.239 A 
ATOM      6  C   UNL     1     -25.260  61.205  34.332  1.00  0.00     0.146 A 
ATOM      7  O   UNL     1     -25.550  61.696  30.855  1.00  0.00    -0.285 OA
ATOM      8  C   UNL     1     -25.915  61.321  33.100  1.00  0.00     0.111 A 
ATOM      9  C   UNL     1     -25.956  61.370  35.528  1.00  0.00     0.094 A 
ATOM     10  C   UNL     1     -27.308  61.567  33.074  1.00  0.00     0.134 A 
ATOM     11  C   UNL     1     -27.337  61.593  35.512  1.00  0.00     0.123 A 
ATOM     12  C   UNL     1     -28.011  61.675  34.284  1.00  0.00     0.093 A 
BRANCH   3  13
ATOM     13  C   UNL     1     -21.790  60.221  33.633  1.00  0.00     0.025 A 
ATOM     14  C   UNL     1     -21.478  59.035  34.344  1.00  0.00     0.016 A 
ATOM     15  C   UNL     1     -20.209  58.843  34.905  1.00  0.00     0.051 A 
ATOM     16  C   UNL     1     -19.218  59.821  34.753  1.00  0.00     0.157 A 
ATOM     17  C   UNL     1     -20.757  61.164  33.443  1.00  0.00     0.062 A 
ATOM     18  C   UNL     1     -19.488  60.978  34.004  1.00  0.00     0.158 A 
BRANCH  16  19
ATOM     19  O   UNL     1     -18.006  59.650  35.417  1.00  0.00    -0.504 OA
ATOM     20  H   UNL     1     -17.123  59.555  34.922  1.00  0.00     0.293 HD
ENDBRANCH  16  19
BRANCH  18  21
ATOM     21  O   UNL     1     -18.490  61.938  33.795  1.00  0.00    -0.504 OA
ATOM     22  H   UNL     1     -17.867  62.233  34.543  1.00  0.00     0.293 HD
ENDBRANCH  18  21
ENDBRANCH   3  13
BRANCH  10  23
ATOM     23  O   UNL     1     -28.001  61.664  31.865  1.00  0.00    -0.507 OA
ATOM     24  H   UNL     1     -28.478  62.513  31.578  1.00  0.00     0.293 HD
ENDBRANCH  10  23
BRANCH  11  25
ATOM     25  O   UNL     1     -28.029  61.752  36.714  1.00  0.00    -0.508 OA
ATOM     26  H   UNL     1     -29.034  61.773  36.729  1.00  0.00     0.293 HD
ENDBRANCH  11  25
ENDBRANCH   1   2
BRANCH   1  27
ATOM     27  C   UNL     1     -23.220  59.446  29.897  1.00  0.00     0.339 C 
ATOM     28  C   UNL     1     -21.907  59.236  29.085  1.00  0.00     0.214 C 
ATOM     29  O   UNL     1     -23.697  58.229  30.457  1.00  0.00    -0.332 OA
ATOM     30  C   UNL     1     -20.861  58.311  29.781  1.00  0.00     0.180 C 
ATOM     31  C   UNL     1     -22.755  57.613  31.310  1.00  0.00     0.179 C 
ATOM     32  C   UNL     1     -21.543  57.106  30.489  1.00  0.00     0.177 C 
BRANCH  28  33
ATOM     33  O   UNL     1     -21.318  60.479  28.765  1.00  0.00    -0.384 OA
ATOM     34  H   UNL     1     -21.194  60.971  29.617  1.00  0.00     0.211 HD
ENDBRANCH  28  33
BRANCH  30  35
ATOM     35  O   UNL     1     -19.998  59.002  30.657  1.00  0.00    -0.387 OA
ATOM     36  H   UNL     1     -19.302  59.461  30.120  1.00  0.00     0.211 HD
ENDBRANCH  30  35
BRANCH  31  37
ATOM     37  C   UNL     1     -23.432  56.446  32.057  1.00  0.00     0.191 C 
BRANCH  37  38
ATOM     38  O   UNL     1     -24.190  56.931  33.133  1.00  0.00    -0.394 OA
ATOM     39  H   UNL     1     -25.111  56.592  33.003  1.00  0.00     0.210 HD
ENDBRANCH  37  38
ENDBRANCH  31  37
BRANCH  32  40
ATOM     40  O   UNL     1     -21.920  56.108  29.579  1.00  0.00    -0.387 OA
ATOM     41  H   UNL     1     -21.410  55.279  29.813  1.00  0.00     0.211 HD
ENDBRANCH  32  40
ENDBRANCH   1  27
TORSDOF 12
ENDMDL
MODEL 5
REMARK VINA RESULT:    -6.902      1.957      7.616
REMARK INTER + INTRA:         -11.891
REMARK INTER:                 -10.630
REMARK INTRA:                  -1.260
REMARK UNBOUND:                -1.761
REMARK SMILES O=c1c(O[C@@H]2O[C@@H](CO)[C@@H](O)[C@H](O)[C@@H]2O)c(-c2ccc(O)c(O)c2)oc2cc(O)cc(O)c12
REMARK SMILES IDX 4 1 3 2 16 3 25 4 2 5 26 6 1 7 33 8 27 9 31 10 28 11 30 12
REMARK SMILES IDX 17 13 18 14 19 15 20 16 24 17 22 18 21 19 23 21 32 23 29 25
REMARK SMILES IDX 5 27 14 28 6 29 12 30 7 31 10 32 15 33 13 35 8 37 9 38 11 40
REMARK H PARENT 21 20 23 22 32 24 29 26 15 34 13 36 9 39 11 41
REMARK Flexibility Score: inf
ROOT
ATOM      1  O   UNL     1     -23.093  58.811  31.662  1.00  0.00    -0.454 OA
ENDROOT
BRANCH   1   2
ATOM      2  C   UNL     1     -23.820  59.540  32.632  1.00  0.00     0.214 A 
ATOM      3  C   UNL     1     -23.149  60.071  33.778  1.00  0.00     0.180 A 
ATOM      4  O   UNL     1     -23.869  60.764  34.664  1.00  0.00    -0.452 OA
ATOM      5  C   UNL     1     -25.187  59.834  32.462  1.00  0.00     0.239 A 
ATOM      6  C   UNL     1     -25.195  60.880  34.616  1.00  0.00     0.146 A 
ATOM      7  O   UNL     1     -25.712  59.741  31.323  1.00  0.00    -0.285 OA
ATOM      8  C   UNL     1     -25.922  60.393  33.524  1.00  0.00     0.111 A 
ATOM      9  C   UNL     1     -25.839  61.524  35.671  1.00  0.00     0.094 A 
ATOM     10  C   UNL     1     -27.331  60.522  33.513  1.00  0.00     0.134 A 
ATOM     11  C   UNL     1     -27.232  61.638  35.679  1.00  0.00     0.123 A 
ATOM     12  C   UNL     1     -27.975  61.122  34.607  1.00  0.00     0.093 A 
BRANCH   3  13
ATOM     13  C   UNL     1     -21.692  59.885  34.125  1.00  0.00     0.025 A 
ATOM     14  C   UNL     1     -21.226  58.968  35.099  1.00  0.00     0.016 A 
ATOM     15  C   UNL     1     -19.936  59.079  35.635  1.00  0.00     0.051 A 
ATOM     16  C   UNL     1     -19.078  60.096  35.199  1.00  0.00     0.157 A 
ATOM     17  C   UNL     1     -20.789  60.864  33.658  1.00  0.00     0.062 A 
ATOM     18  C   UNL     1     -19.501  60.981  34.193  1.00  0.00     0.158 A 
BRANCH  16  19
ATOM     19  O   UNL     1     -17.847  60.248  35.831  1.00  0.00    -0.504 OA
ATOM     20  H   UNL     1     -17.254  61.058  35.680  1.00  0.00     0.293 HD
ENDBRANCH  16  19
BRANCH  18  21
ATOM     21  O   UNL     1     -18.635  61.968  33.705  1.00  0.00    -0.504 OA
ATOM     22  H   UNL     1     -17.658  61.767  33.498  1.00  0.00     0.293 HD
ENDBRANCH  18  21
ENDBRANCH   3  13
BRANCH  10  23
ATOM     23  O   UNL     1     -28.093  60.026  32.453  1.00  0.00    -0.507 OA
ATOM     24  H   UNL     1     -28.524  60.633  31.763  1.00  0.00     0.293 HD
ENDBRANCH  10  23
BRANCH  11  25
ATOM     25  O   UNL     1     -27.871  62.280  36.742  1.00  0.00    -0.508 OA
ATOM     26  H   UNL     1     -28.654  62.890  36.577  1.00  0.00     0.293 HD
ENDBRANCH  11  25
ENDBRANCH   1   2
BRANCH   1  27
ATOM     27  C   UNL     1     -22.147  59.292  30.688  1.00  0.00     0.339 C 
ATOM     28  C   UNL     1     -21.523  58.092  29.917  1.00  0.00     0.214 C 
ATOM     29  O   UNL     1     -22.703  60.259  29.805  1.00  0.00    -0.332 OA
ATOM     30  C   UNL     1     -22.395  57.563  28.735  1.00  0.00     0.180 C 
ATOM     31  C   UNL     1     -23.699  59.721  28.963  1.00  0.00     0.179 C 
ATOM     32  C   UNL     1     -23.069  58.728  27.956  1.00  0.00     0.177 C 
BRANCH  28  33
ATOM     33  O   UNL     1     -21.219  57.036  30.805  1.00  0.00    -0.384 OA
ATOM     34  H   UNL     1     -21.174  56.206  30.266  1.00  0.00     0.211 HD
ENDBRANCH  28  33
BRANCH  30  35
ATOM     35  O   UNL     1     -23.338  56.591  29.127  1.00  0.00    -0.387 OA
ATOM     36  H   UNL     1     -23.833  56.928  29.918  1.00  0.00     0.211 HD
ENDBRANCH  30  35
BRANCH  31  37
ATOM     37  C   UNL     1     -24.412  60.870  28.219  1.00  0.00     0.191 C 
BRANCH  37  38
ATOM     38  O   UNL     1     -23.482  61.838  27.815  1.00  0.00    -0.394 OA
ATOM     39  H   UNL     1     -22.695  61.737  28.409  1.00  0.00     0.210 HD
ENDBRANCH  37  38
ENDBRANCH  31  37
BRANCH  32  40
ATOM     40  O   UNL     1     -22.169  59.371  27.093  1.00  0.00    -0.387 OA
ATOM     41  H   UNL     1     -21.687  58.661  26.579  1.00  0.00     0.211 HD
ENDBRANCH  32  40
ENDBRANCH   1  27
TORSDOF 12
ENDMDL
MODEL 6
REMARK VINA RESULT:    -6.892      1.232      2.491
REMARK INTER + INTRA:         -11.876
REMARK INTER:                 -10.053
REMARK INTRA:                  -1.823
REMARK UNBOUND:                -1.761
REMARK SMILES O=c1c(O[C@@H]2O[C@@H](CO)[C@@H](O)[C@H](O)[C@@H]2O)c(-c2ccc(O)c(O)c2)oc2cc(O)cc(O)c12
REMARK SMILES IDX 4 1 3 2 16 3 25 4 2 5 26 6 1 7 33 8 27 9 31 10 28 11 30 12
REMARK SMILES IDX 17 13 18 14 19 15 20 16 24 17 22 18 21 19 23 21 32 23 29 25
REMARK SMILES IDX 5 27 14 28 6 29 12 30 7 31 10 32 15 33 13 35 8 37 9 38 11 40
REMARK H PARENT 21 20 23 22 32 24 29 26 15 34 13 36 9 39 11 41
REMARK Flexibility Score: inf
ROOT
ATOM      1  O   UNL     1     -21.977  60.006  31.285  1.00  0.00    -0.454 OA
ENDROOT
BRANCH   1   2
ATOM      2  C   UNL     1     -22.299  59.317  30.092  1.00  0.00     0.214 A 
ATOM      3  C   UNL     1     -23.572  59.520  29.471  1.00  0.00     0.180 A 
ATOM      4  O   UNL     1     -23.832  58.860  28.340  1.00  0.00    -0.452 OA
ATOM      5  C   UNL     1     -21.364  58.489  29.443  1.00  0.00     0.239 A 
ATOM      6  C   UNL     1     -23.036  57.926  27.823  1.00  0.00     0.146 A 
ATOM      7  O   UNL     1     -20.141  58.589  29.717  1.00  0.00    -0.285 OA
ATOM      8  C   UNL     1     -21.772  57.675  28.369  1.00  0.00     0.111 A 
ATOM      9  C   UNL     1     -23.483  57.223  26.706  1.00  0.00     0.094 A 
ATOM     10  C   UNL     1     -20.958  56.667  27.802  1.00  0.00     0.134 A 
ATOM     11  C   UNL     1     -22.694  56.210  26.152  1.00  0.00     0.123 A 
ATOM     12  C   UNL     1     -21.440  55.925  26.713  1.00  0.00     0.093 A 
BRANCH   3  13
ATOM     13  C   UNL     1     -24.695  60.381  29.997  1.00  0.00     0.025 A 
ATOM     14  C   UNL     1     -24.651  61.796  30.034  1.00  0.00     0.016 A 
ATOM     15  C   UNL     1     -25.535  62.525  30.840  1.00  0.00     0.051 A 
ATOM     16  C   UNL     1     -26.495  61.858  31.612  1.00  0.00     0.157 A 
ATOM     17  C   UNL     1     -25.708  59.735  30.737  1.00  0.00     0.062 A 
ATOM     18  C   UNL     1     -26.593  60.458  31.546  1.00  0.00     0.158 A 
BRANCH  16  19
ATOM     19  O   UNL     1     -27.282  62.602  32.486  1.00  0.00    -0.504 OA
ATOM     20  H   UNL     1     -27.065  62.689  33.475  1.00  0.00     0.293 HD
ENDBRANCH  16  19
BRANCH  18  21
ATOM     21  O   UNL     1     -27.584  59.781  32.268  1.00  0.00    -0.504 OA
ATOM     22  H   UNL     1     -28.571  59.877  32.039  1.00  0.00     0.293 HD
ENDBRANCH  18  21
ENDBRANCH   3  13
BRANCH  10  23
ATOM     23  O   UNL     1     -19.701  56.370  28.335  1.00  0.00    -0.507 OA
ATOM     24  H   UNL     1     -19.571  56.108  29.307  1.00  0.00     0.293 HD
ENDBRANCH  10  23
BRANCH  11  25
ATOM     25  O   UNL     1     -23.149  55.506  25.036  1.00  0.00    -0.508 OA
ATOM     26  H   UNL     1     -24.116  55.547  24.762  1.00  0.00     0.293 HD
ENDBRANCH  11  25
ENDBRANCH   1   2
BRANCH   1  27
ATOM     27  C   UNL     1     -21.675  59.471  32.587  1.00  0.00     0.339 C 
ATOM     28  C   UNL     1     -20.413  60.173  33.169  1.00  0.00     0.214 C 
ATOM     29  O   UNL     1     -22.778  59.535  33.484  1.00  0.00    -0.332 OA
ATOM     30  C   UNL     1     -20.699  61.546  33.855  1.00  0.00     0.180 C 
ATOM     31  C   UNL     1     -23.135  60.859  33.818  1.00  0.00     0.179 C 
ATOM     32  C   UNL     1     -22.021  61.513  34.671  1.00  0.00     0.177 C 
BRANCH  28  33
ATOM     33  O   UNL     1     -19.426  60.326  32.170  1.00  0.00    -0.384 OA
ATOM     34  H   UNL     1     -19.558  59.593  31.516  1.00  0.00     0.211 HD
ENDBRANCH  28  33
BRANCH  30  35
ATOM     35  O   UNL     1     -20.672  62.635  32.959  1.00  0.00    -0.387 OA
ATOM     36  H   UNL     1     -19.945  63.252  33.230  1.00  0.00     0.211 HD
ENDBRANCH  30  35
BRANCH  31  37
ATOM     37  C   UNL     1     -24.473  60.847  34.586  1.00  0.00     0.191 C 
BRANCH  37  38
ATOM     38  O   UNL     1     -25.189  59.676  34.298  1.00  0.00    -0.394 OA
ATOM     39  H   UNL     1     -25.446  59.282  35.171  1.00  0.00     0.210 HD
ENDBRANCH  37  38
ENDBRANCH  31  37
BRANCH  32  40
ATOM     40  O   UNL     1     -21.861  60.856  35.901  1.00  0.00    -0.387 OA
ATOM     41  H   UNL     1     -21.502  61.523  36.554  1.00  0.00     0.211 HD
ENDBRANCH  32  40
ENDBRANCH   1  27
TORSDOF 12
ENDMDL
MODEL 7
REMARK VINA RESULT:    -6.713      2.587      7.260
REMARK INTER + INTRA:         -11.614
REMARK INTER:                 -10.379
REMARK INTRA:                  -1.234
REMARK UNBOUND:                -1.761
REMARK SMILES O=c1c(O[C@@H]2O[C@@H](CO)[C@@H](O)[C@H](O)[C@@H]2O)c(-c2ccc(O)c(O)c2)oc2cc(O)cc(O)c12
REMARK SMILES IDX 4 1 3 2 16 3 25 4 2 5 26 6 1 7 33 8 27 9 31 10 28 11 30 12
REMARK SMILES IDX 17 13 18 14 19 15 20 16 24 17 22 18 21 19 23 21 32 23 29 25
REMARK SMILES IDX 5 27 14 28 6 29 12 30 7 31 10 32 15 33 13 35 8 37 9 38 11 40
REMARK H PARENT 21 20 23 22 32 24 29 26 15 34 13 36 9 39 11 41
REMARK Flexibility Score: inf
ROOT
ATOM      1  O   UNL     1     -24.140  59.083  30.812  1.00  0.00    -0.454 OA
ENDROOT
BRANCH   1   2
ATOM      2  C   UNL     1     -24.657  59.696  31.977  1.00  0.00     0.214 A 
ATOM      3  C   UNL     1     -24.125  59.355  33.261  1.00  0.00     0.180 A 
ATOM      4  O   UNL     1     -24.632  59.965  34.334  1.00  0.00    -0.452 OA
ATOM      5  C   UNL     1     -25.635  60.707  31.907  1.00  0.00     0.239 A 
ATOM      6  C   UNL     1     -25.690  60.774  34.300  1.00  0.00     0.146 A 
ATOM      7  O   UNL     1     -25.839  61.308  30.821  1.00  0.00    -0.285 OA
ATOM      8  C   UNL     1     -26.261  61.161  33.083  1.00  0.00     0.111 A 
ATOM      9  C   UNL     1     -26.196  61.247  35.509  1.00  0.00     0.094 A 
ATOM     10  C   UNL     1     -27.392  62.011  33.085  1.00  0.00     0.134 A 
ATOM     11  C   UNL     1     -27.326  62.071  35.522  1.00  0.00     0.123 A 
ATOM     12  C   UNL     1     -27.930  62.437  34.309  1.00  0.00     0.093 A 
BRANCH   3  13
ATOM     13  C   UNL     1     -23.064  58.318  33.540  1.00  0.00     0.025 A 
ATOM     14  C   UNL     1     -23.253  56.927  33.349  1.00  0.00     0.016 A 
ATOM     15  C   UNL     1     -22.394  55.994  33.945  1.00  0.00     0.051 A 
ATOM     16  C   UNL     1     -21.319  56.430  34.729  1.00  0.00     0.157 A 
ATOM     17  C   UNL     1     -21.939  58.733  34.284  1.00  0.00     0.062 A 
ATOM     18  C   UNL     1     -21.080  57.805  34.884  1.00  0.00     0.158 A 
BRANCH  16  19
ATOM     19  O   UNL     1     -20.553  55.478  35.398  1.00  0.00    -0.504 OA
ATOM     20  H   UNL     1     -20.906  54.550  35.615  1.00  0.00     0.293 HD
ENDBRANCH  16  19
BRANCH  18  21
ATOM     21  O   UNL     1     -19.975  58.256  35.617  1.00  0.00    -0.504 OA
ATOM     22  H   UNL     1     -19.540  57.682  36.336  1.00  0.00     0.293 HD
ENDBRANCH  18  21
ENDBRANCH   3  13
BRANCH  10  23
ATOM     23  O   UNL     1     -28.006  62.399  31.891  1.00  0.00    -0.507 OA
ATOM     24  H   UNL     1     -29.015  62.425  31.783  1.00  0.00     0.293 HD
ENDBRANCH  10  23
BRANCH  11  25
ATOM     25  O   UNL     1     -27.832  62.539  36.736  1.00  0.00    -0.508 OA
ATOM     26  H   UNL     1     -27.434  62.236  37.609  1.00  0.00     0.293 HD
ENDBRANCH  11  25
ENDBRANCH   1   2
BRANCH   1  27
ATOM     27  C   UNL     1     -22.791  59.087  30.309  1.00  0.00     0.339 C 
ATOM     28  C   UNL     1     -22.804  59.187  28.755  1.00  0.00     0.214 C 
ATOM     29  O   UNL     1     -21.981  60.096  30.898  1.00  0.00    -0.332 OA
ATOM     30  C   UNL     1     -22.959  60.639  28.206  1.00  0.00     0.180 C 
ATOM     31  C   UNL     1     -22.395  61.401  30.553  1.00  0.00     0.179 C 
ATOM     32  C   UNL     1     -22.143  61.661  29.048  1.00  0.00     0.177 C 
BRANCH  28  33
ATOM     33  O   UNL     1     -23.808  58.354  28.213  1.00  0.00    -0.384 OA
ATOM     34  H   UNL     1     -24.067  57.711  28.922  1.00  0.00     0.211 HD
ENDBRANCH  28  33
BRANCH  30  35
ATOM     35  O   UNL     1     -24.304  61.044  28.066  1.00  0.00    -0.387 OA
ATOM     36  H   UNL     1     -24.529  61.660  28.809  1.00  0.00     0.211 HD
ENDBRANCH  30  35
BRANCH  31  37
ATOM     37  C   UNL     1     -21.629  62.424  31.417  1.00  0.00     0.191 C 
BRANCH  37  38
ATOM     38  O   UNL     1     -20.301  62.012  31.596  1.00  0.00    -0.394 OA
ATOM     39  H   UNL     1     -20.246  61.629  32.508  1.00  0.00     0.210 HD
ENDBRANCH  37  38
ENDBRANCH  31  37
BRANCH  32  40
ATOM     40  O   UNL     1     -20.775  61.618  28.740  1.00  0.00    -0.387 OA
ATOM     41  H   UNL     1     -20.356  60.925  29.327  1.00  0.00     0.211 HD
ENDBRANCH  32  40
ENDBRANCH   1  27
TORSDOF 12
ENDMDL
MODEL 8
REMARK VINA RESULT:    -6.657      2.180      7.476
REMARK INTER + INTRA:         -11.531
REMARK INTER:                  -9.662
REMARK INTRA:                  -1.869
REMARK UNBOUND:                -1.761
REMARK SMILES O=c1c(O[C@@H]2O[C@@H](CO)[C@@H](O)[C@H](O)[C@@H]2O)c(-c2ccc(O)c(O)c2)oc2cc(O)cc(O)c12
REMARK SMILES IDX 4 1 3 2 16 3 25 4 2 5 26 6 1 7 33 8 27 9 31 10 28 11 30 12
REMARK SMILES IDX 17 13 18 14 19 15 20 16 24 17 22 18 21 19 23 21 32 23 29 25
REMARK SMILES IDX 5 27 14 28 6 29 12 30 7 31 10 32 15 33 13 35 8 37 9 38 11 40
REMARK H PARENT 21 20 23 22 32 24 29 26 15 34 13 36 9 39 11 41
REMARK Flexibility Score: inf
ROOT
ATOM      1  O   UNL     1     -23.636  60.027  30.903  1.00  0.00    -0.454 OA
ENDROOT
BRANCH   1   2
ATOM      2  C   UNL     1     -24.292  60.395  32.101  1.00  0.00     0.214 A 
ATOM      3  C   UNL     1     -23.727  60.035  33.365  1.00  0.00     0.180 A 
ATOM      4  O   UNL     1     -24.371  60.412  34.472  1.00  0.00    -0.452 OA
ATOM      5  C   UNL     1     -25.456  61.187  32.092  1.00  0.00     0.239 A 
ATOM      6  C   UNL     1     -25.572  60.987  34.475  1.00  0.00     0.146 A 
ATOM      7  O   UNL     1     -25.758  61.846  31.064  1.00  0.00    -0.285 OA
ATOM      8  C   UNL     1     -26.186  61.377  33.280  1.00  0.00     0.111 A 
ATOM      9  C   UNL     1     -26.189  61.217  35.703  1.00  0.00     0.094 A 
ATOM     10  C   UNL     1     -27.468  61.974  33.320  1.00  0.00     0.134 A 
ATOM     11  C   UNL     1     -27.465  61.788  35.751  1.00  0.00     0.123 A 
ATOM     12  C   UNL     1     -28.107  62.150  34.557  1.00  0.00     0.093 A 
BRANCH   3  13
ATOM     13  C   UNL     1     -22.480  59.212  33.584  1.00  0.00     0.025 A 
ATOM     14  C   UNL     1     -21.187  59.770  33.742  1.00  0.00     0.016 A 
ATOM     15  C   UNL     1     -20.039  58.983  33.584  1.00  0.00     0.051 A 
ATOM     16  C   UNL     1     -20.156  57.620  33.283  1.00  0.00     0.157 A 
ATOM     17  C   UNL     1     -22.573  57.825  33.340  1.00  0.00     0.062 A 
ATOM     18  C   UNL     1     -21.429  57.035  33.179  1.00  0.00     0.158 A 
BRANCH  16  19
ATOM     19  O   UNL     1     -18.998  56.893  33.022  1.00  0.00    -0.504 OA
ATOM     20  H   UNL     1     -19.021  55.931  32.696  1.00  0.00     0.293 HD
ENDBRANCH  16  19
BRANCH  18  21
ATOM     21  O   UNL     1     -21.562  55.663  32.936  1.00  0.00    -0.504 OA
ATOM     22  H   UNL     1     -20.800  55.012  33.113  1.00  0.00     0.293 HD
ENDBRANCH  18  21
ENDBRANCH   3  13
BRANCH  10  23
ATOM     23  O   UNL     1     -28.125  62.353  32.146  1.00  0.00    -0.507 OA
ATOM     24  H   UNL     1     -27.759  63.068  31.526  1.00  0.00     0.293 HD
ENDBRANCH  10  23
BRANCH  11  25
ATOM     25  O   UNL     1     -28.081  62.012  36.984  1.00  0.00    -0.508 OA
ATOM     26  H   UNL     1     -28.934  62.541  37.044  1.00  0.00     0.293 HD
ENDBRANCH  11  25
ENDBRANCH   1   2
BRANCH   1  27
ATOM     27  C   UNL     1     -23.896  58.907  30.035  1.00  0.00     0.339 C 
ATOM     28  C   UNL     1     -24.271  59.416  28.612  1.00  0.00     0.214 C 
ATOM     29  O   UNL     1     -22.826  57.972  29.999  1.00  0.00    -0.332 OA
ATOM     30  C   UNL     1     -23.046  59.766  27.711  1.00  0.00     0.180 C 
ATOM     31  C   UNL     1     -21.658  58.500  29.407  1.00  0.00     0.179 C 
ATOM     32  C   UNL     1     -21.888  58.745  27.896  1.00  0.00     0.177 C 
BRANCH  28  33
ATOM     33  O   UNL     1     -25.143  60.524  28.695  1.00  0.00    -0.384 OA
ATOM     34  H   UNL     1     -25.685  60.532  27.865  1.00  0.00     0.211 HD
ENDBRANCH  28  33
BRANCH  30  35
ATOM     35  O   UNL     1     -22.593  61.093  27.872  1.00  0.00    -0.387 OA
ATOM     36  H   UNL     1     -22.082  61.355  27.063  1.00  0.00     0.211 HD
ENDBRANCH  30  35
BRANCH  31  37
ATOM     37  C   UNL     1     -20.488  57.518  29.627  1.00  0.00     0.191 C 
BRANCH  37  38
ATOM     38  O   UNL     1     -19.361  58.203  30.105  1.00  0.00    -0.394 OA
ATOM     39  H   UNL     1     -18.586  57.863  29.591  1.00  0.00     0.210 HD
ENDBRANCH  37  38
ENDBRANCH  31  37
BRANCH  32  40
ATOM     40  O   UNL     1     -22.134  57.545  27.212  1.00  0.00    -0.387 OA
ATOM     41  H   UNL     1     -21.930  57.703  26.245  1.00  0.00     0.211 HD
ENDBRANCH  32  40
ENDBRANCH   1  27
TORSDOF 12
ENDMDL
MODEL 9
REMARK VINA RESULT:    -6.555      1.907      6.625
REMARK INTER + INTRA:         -11.381
REMARK INTER:                  -9.985
REMARK INTRA:                  -1.395
REMARK UNBOUND:                -1.761
REMARK SMILES O=c1c(O[C@@H]2O[C@@H](CO)[C@@H](O)[C@H](O)[C@@H]2O)c(-c2ccc(O)c(O)c2)oc2cc(O)cc(O)c12
REMARK SMILES IDX 4 1 3 2 16 3 25 4 2 5 26 6 1 7 33 8 27 9 31 10 28 11 30 12
REMARK SMILES IDX 17 13 18 14 19 15 20 16 24 17 22 18 21 19 23 21 32 23 29 25
REMARK SMILES IDX 5 27 14 28 6 29 12 30 7 31 10 32 15 33 13 35 8 37 9 38 11 40
REMARK H PARENT 21 20 23 22 32 24 29 26 15 34 13 36 9 39 11 41
REMARK Flexibility Score: inf
ROOT
ATOM      1  O   UNL     1     -22.801  61.459  31.029  1.00  0.00    -0.454 OA
ENDROOT
BRANCH   1   2
ATOM      2  C   UNL     1     -21.761  60.811  31.736  1.00  0.00     0.214 A 
ATOM      3  C   UNL     1     -21.420  59.457  31.423  1.00  0.00     0.180 A 
ATOM      4  O   UNL     1     -20.425  58.885  32.105  1.00  0.00    -0.452 OA
ATOM      5  C   UNL     1     -20.985  61.490  32.694  1.00  0.00     0.239 A 
ATOM      6  C   UNL     1     -19.816  59.449  33.146  1.00  0.00     0.146 A 
ATOM      7  O   UNL     1     -20.977  62.748  32.718  1.00  0.00    -0.285 OA
ATOM      8  C   UNL     1     -20.090  60.773  33.510  1.00  0.00     0.111 A 
ATOM      9  C   UNL     1     -18.879  58.695  33.850  1.00  0.00     0.094 A 
ATOM     10  C   UNL     1     -19.434  61.336  34.630  1.00  0.00     0.134 A 
ATOM     11  C   UNL     1     -18.241  59.236  34.971  1.00  0.00     0.123 A 
ATOM     12  C   UNL     1     -18.534  60.550  35.367  1.00  0.00     0.093 A 
BRANCH   3  13
ATOM     13  C   UNL     1     -22.115  58.571  30.417  1.00  0.00     0.025 A 
ATOM     14  C   UNL     1     -22.602  57.274  30.714  1.00  0.00     0.016 A 
ATOM     15  C   UNL     1     -22.907  56.367  29.691  1.00  0.00     0.051 A 
ATOM     16  C   UNL     1     -22.750  56.741  28.350  1.00  0.00     0.157 A 
ATOM     17  C   UNL     1     -22.022  58.945  29.059  1.00  0.00     0.062 A 
ATOM     18  C   UNL     1     -22.324  58.041  28.033  1.00  0.00     0.158 A 
BRANCH  16  19
ATOM     19  O   UNL     1     -22.954  55.781  27.362  1.00  0.00    -0.504 OA
ATOM     20  H   UNL     1     -22.242  55.545  26.678  1.00  0.00     0.293 HD
ENDBRANCH  16  19
BRANCH  18  21
ATOM     21  O   UNL     1     -22.218  58.449  26.697  1.00  0.00    -0.504 OA
ATOM     22  H   UNL     1     -21.638  59.240  26.424  1.00  0.00     0.293 HD
ENDBRANCH  18  21
ENDBRANCH   3  13
BRANCH  10  23
ATOM     23  O   UNL     1     -19.699  62.645  35.039  1.00  0.00    -0.507 OA
ATOM     24  H   UNL     1     -20.346  63.249  34.542  1.00  0.00     0.293 HD
ENDBRANCH  10  23
BRANCH  11  25
ATOM     25  O   UNL     1     -17.306  58.474  35.674  1.00  0.00    -0.508 OA
ATOM     26  H   UNL     1     -16.756  58.886  36.408  1.00  0.00     0.293 HD
ENDBRANCH  11  25
ENDBRANCH   1   2
BRANCH   1  27
ATOM     27  C   UNL     1     -24.050  61.974  31.526  1.00  0.00     0.339 C 
ATOM     28  C   UNL     1     -25.010  62.274  30.337  1.00  0.00     0.214 C 
ATOM     29  O   UNL     1     -24.655  61.126  32.494  1.00  0.00    -0.332 OA
ATOM     30  C   UNL     1     -25.790  61.030  29.810  1.00  0.00     0.180 C 
ATOM     31  C   UNL     1     -25.074  59.891  31.954  1.00  0.00     0.179 C 
ATOM     32  C   UNL     1     -26.252  60.108  30.974  1.00  0.00     0.177 C 
BRANCH  28  33
ATOM     33  O   UNL     1     -24.309  62.891  29.277  1.00  0.00    -0.384 OA
ATOM     34  H   UNL     1     -24.908  63.582  28.894  1.00  0.00     0.211 HD
ENDBRANCH  28  33
BRANCH  30  35
ATOM     35  O   UNL     1     -25.087  60.304  28.826  1.00  0.00    -0.387 OA
ATOM     36  H   UNL     1     -24.114  60.403  28.992  1.00  0.00     0.211 HD
ENDBRANCH  30  35
BRANCH  31  37
ATOM     37  C   UNL     1     -25.489  58.947  33.102  1.00  0.00     0.191 C 
BRANCH  37  38
ATOM     38  O   UNL     1     -26.352  59.609  33.987  1.00  0.00    -0.394 OA
ATOM     39  H   UNL     1     -26.625  60.449  33.538  1.00  0.00     0.210 HD
ENDBRANCH  37  38
ENDBRANCH  31  37
BRANCH  32  40
ATOM     40  O   UNL     1     -27.381  60.621  31.631  1.00  0.00    -0.387 OA
ATOM     41  H   UNL     1     -27.336  61.619  31.571  1.00  0.00     0.211 HD
ENDBRANCH  32  40
ENDBRANCH   1  27
TORSDOF 12
ENDMDL
