MODEL 1
REMARK VINA RESULT:    -6.304      0.000      0.000
REMARK INTER + INTRA:          -7.536
REMARK INTER:                  -7.409
REMARK INTRA:                  -0.127
REMARK UNBOUND:                -0.127
REMARK SMILES O=C([O-])C=Cc1ccc(O)c(O)c1
REMARK SMILES IDX 6 1 13 2 7 3 11 4 8 5 9 6 5 7 4 8 2 9 1 10 3 11 12 12 10 14
REMARK H PARENT 12 13 10 15
REMARK Flexibility Score: inf
ROOT
ATOM      1  C   UNL     1     -14.297 -34.054 -14.410  1.00  0.00    -0.022 A 
ATOM      2  C   UNL     1     -15.591 -34.539 -14.659  1.00  0.00     0.058 A 
ATOM      3  C   UNL     1     -13.215 -34.618 -15.111  1.00  0.00     0.012 A 
ATOM      4  C   UNL     1     -15.818 -35.546 -15.604  1.00  0.00     0.157 A 
ATOM      5  C   UNL     1     -13.434 -35.623 -16.056  1.00  0.00     0.051 A 
ATOM      6  C   UNL     1     -14.725 -36.094 -16.315  1.00  0.00     0.157 A 
ENDROOT
BRANCH   1   7
ATOM      7  C   UNL     1     -14.119 -32.992 -13.388  1.00  0.00     0.010 C 
ATOM      8  C   UNL     1     -14.507 -33.116 -12.110  1.00  0.00     0.025 C 
BRANCH   8   9
ATOM      9  C   UNL     1     -14.303 -32.045 -11.120  1.00  0.00     0.064 C 
ATOM     10  O   UNL     1     -13.388 -32.121 -10.255  1.00  0.00    -0.545 OA
ATOM     11  O   UNL     1     -15.131 -30.931 -11.140  1.00  0.00    -0.545 OA
ENDBRANCH   8   9
ENDBRANCH   1   7
BRANCH   4  12
ATOM     12  O   UNL     1     -17.135 -35.969 -15.802  1.00  0.00    -0.504 OA
ATOM     13  H   UNL     1     -17.394 -36.917 -16.033  1.00  0.00     0.293 HD
ENDBRANCH   4  12
BRANCH   6  14
ATOM     14  O   UNL     1     -14.874 -37.097 -17.274  1.00  0.00    -0.504 OA
ATOM     15  H   UNL     1     -14.131 -37.414 -17.881  1.00  0.00     0.293 HD
ENDBRANCH   6  14
TORSDOF 4
ENDMDL
MODEL 2
REMARK VINA RESULT:    -6.056      2.912      4.846
REMARK INTER + INTRA:          -7.245
REMARK INTER:                  -7.112
REMARK INTRA:                  -0.133
REMARK UNBOUND:                -0.127
REMARK SMILES O=C([O-])C=Cc1ccc(O)c(O)c1
REMARK SMILES IDX 6 1 13 2 7 3 11 4 8 5 9 6 5 7 4 8 2 9 1 10 3 11 12 12 10 14
REMARK H PARENT 12 13 10 15
REMARK Flexibility Score: inf
ROOT
ATOM      1  C   UNL     1     -16.429 -36.096 -15.010  1.00  0.00    -0.022 A 
ATOM      2  C   UNL     1     -15.883 -34.878 -14.574  1.00  0.00     0.058 A 
ATOM      3  C   UNL     1     -15.617 -36.977 -15.748  1.00  0.00     0.012 A 
ATOM      4  C   UNL     1     -14.550 -34.544 -14.840  1.00  0.00     0.157 A 
ATOM      5  C   UNL     1     -14.286 -36.652 -16.017  1.00  0.00     0.051 A 
ATOM      6  C   UNL     1     -13.739 -35.445 -15.568  1.00  0.00     0.157 A 
ENDROOT
BRANCH   1   7
ATOM      7  C   UNL     1     -17.853 -36.387 -14.706  1.00  0.00     0.010 C 
ATOM      8  C   UNL     1     -18.591 -35.675 -13.841  1.00  0.00     0.025 C 
BRANCH   8   9
ATOM      9  C   UNL     1     -20.005 -35.986 -13.574  1.00  0.00     0.064 C 
ATOM     10  O   UNL     1     -20.356 -37.125 -13.161  1.00  0.00    -0.545 OA
ATOM     11  O   UNL     1     -20.969 -35.009 -13.779  1.00  0.00    -0.545 OA
ENDBRANCH   8   9
ENDBRANCH   1   7
BRANCH   4  12
ATOM     12  O   UNL     1     -14.077 -33.318 -14.366  1.00  0.00    -0.504 OA
ATOM     13  H   UNL     1     -13.122 -33.152 -14.085  1.00  0.00     0.293 HD
ENDBRANCH   4  12
BRANCH   6  14
ATOM     14  O   UNL     1     -12.401 -35.184 -15.868  1.00  0.00    -0.504 OA
ATOM     15  H   UNL     1     -12.027 -35.159 -16.806  1.00  0.00     0.293 HD
ENDBRANCH   6  14
TORSDOF 4
ENDMDL
MODEL 3
REMARK VINA RESULT:    -6.036      0.713      1.146
REMARK INTER + INTRA:          -7.221
REMARK INTER:                  -7.090
REMARK INTRA:                  -0.131
REMARK UNBOUND:                -0.127
REMARK SMILES O=C([O-])C=Cc1ccc(O)c(O)c1
REMARK SMILES IDX 6 1 13 2 7 3 11 4 8 5 9 6 5 7 4 8 2 9 1 10 3 11 12 12 10 14
REMARK H PARENT 12 13 10 15
REMARK Flexibility Score: inf
ROOT
ATOM      1  C   UNL     1     -14.124 -33.745 -13.971  1.00  0.00    -0.022 A 
ATOM      2  C   UNL     1     -15.262 -34.565 -13.901  1.00  0.00     0.058 A 
ATOM      3  C   UNL     1     -13.156 -34.012 -14.956  1.00  0.00     0.012 A 
ATOM      4  C   UNL     1     -15.454 -35.616 -14.806  1.00  0.00     0.157 A 
ATOM      5  C   UNL     1     -13.341 -35.058 -15.863  1.00  0.00     0.051 A 
ATOM      6  C   UNL     1     -14.482 -35.864 -15.803  1.00  0.00     0.157 A 
ENDROOT
BRANCH   1   7
ATOM      7  C   UNL     1     -13.972 -32.653 -12.976  1.00  0.00     0.010 C 
ATOM      8  C   UNL     1     -14.534 -32.671 -11.759  1.00  0.00     0.025 C 
BRANCH   8   9
ATOM      9  C   UNL     1     -14.351 -31.574 -10.793  1.00  0.00     0.064 C 
ATOM     10  O   UNL     1     -15.104 -30.563 -10.803  1.00  0.00    -0.545 OA
ATOM     11  O   UNL     1     -13.331 -31.655  -9.855  1.00  0.00    -0.545 OA
ENDBRANCH   8   9
ENDBRANCH   1   7
BRANCH   4  12
ATOM     12  O   UNL     1     -16.616 -36.382 -14.678  1.00  0.00    -0.504 OA
ATOM     13  H   UNL     1     -17.373 -36.157 -14.049  1.00  0.00     0.293 HD
ENDBRANCH   4  12
BRANCH   6  14
ATOM     14  O   UNL     1     -14.607 -36.890 -16.741  1.00  0.00    -0.504 OA
ATOM     15  H   UNL     1     -15.360 -37.563 -16.745  1.00  0.00     0.293 HD
ENDBRANCH   6  14
TORSDOF 4
ENDMDL
MODEL 4
REMARK VINA RESULT:    -5.513      3.238      5.015
REMARK INTER + INTRA:          -6.606
REMARK INTER:                  -6.469
REMARK INTRA:                  -0.137
REMARK UNBOUND:                -0.127
REMARK SMILES O=C([O-])C=Cc1ccc(O)c(O)c1
REMARK SMILES IDX 6 1 13 2 7 3 11 4 8 5 9 6 5 7 4 8 2 9 1 10 3 11 12 12 10 14
REMARK H PARENT 12 13 10 15
REMARK Flexibility Score: inf
ROOT
ATOM      1  C   UNL     1     -16.878 -35.960 -14.844  1.00  0.00    -0.022 A 
ATOM      2  C   UNL     1     -16.278 -36.653 -15.908  1.00  0.00     0.058 A 
ATOM      3  C   UNL     1     -16.142 -34.955 -14.189  1.00  0.00     0.012 A 
ATOM      4  C   UNL     1     -14.981 -36.342 -16.336  1.00  0.00     0.157 A 
ATOM      5  C   UNL     1     -14.849 -34.639 -14.610  1.00  0.00     0.051 A 
ATOM      6  C   UNL     1     -14.258 -35.318 -15.681  1.00  0.00     0.157 A 
ENDROOT
BRANCH   1   7
ATOM      7  C   UNL     1     -18.251 -36.344 -14.430  1.00  0.00     0.010 C 
ATOM      8  C   UNL     1     -19.038 -35.578 -13.659  1.00  0.00     0.025 C 
BRANCH   8   9
ATOM      9  C   UNL     1     -20.400 -35.986 -13.278  1.00  0.00     0.064 C 
ATOM     10  O   UNL     1     -21.407 -35.319 -13.642  1.00  0.00    -0.545 OA
ATOM     11  O   UNL     1     -20.580 -37.125 -12.505  1.00  0.00    -0.545 OA
ENDBRANCH   8   9
ENDBRANCH   1   7
BRANCH   4  12
ATOM     12  O   UNL     1     -14.456 -37.069 -17.407  1.00  0.00    -0.504 OA
ATOM     13  H   UNL     1     -13.497 -37.007 -17.715  1.00  0.00     0.293 HD
ENDBRANCH   4  12
BRANCH   6  14
ATOM     14  O   UNL     1     -12.964 -34.951 -16.053  1.00  0.00    -0.504 OA
ATOM     15  H   UNL     1     -12.672 -33.997 -16.214  1.00  0.00     0.293 HD
ENDBRANCH   6  14
TORSDOF 4
ENDMDL
MODEL 5
REMARK VINA RESULT:    -5.478      2.090      6.868
REMARK INTER + INTRA:          -6.566
REMARK INTER:                  -6.436
REMARK INTRA:                  -0.130
REMARK UNBOUND:                -0.127
REMARK SMILES O=C([O-])C=Cc1ccc(O)c(O)c1
REMARK SMILES IDX 6 1 13 2 7 3 11 4 8 5 9 6 5 7 4 8 2 9 1 10 3 11 12 12 10 14
REMARK H PARENT 12 13 10 15
REMARK Flexibility Score: inf
ROOT
ATOM      1  C   UNL     1     -14.521 -32.038 -11.432  1.00  0.00    -0.022 A 
ATOM      2  C   UNL     1     -13.549 -31.887 -10.431  1.00  0.00     0.058 A 
ATOM      3  C   UNL     1     -15.539 -31.073 -11.541  1.00  0.00     0.012 A 
ATOM      4  C   UNL     1     -13.565 -30.786  -9.566  1.00  0.00     0.157 A 
ATOM      5  C   UNL     1     -15.562 -29.972 -10.682  1.00  0.00     0.051 A 
ATOM      6  C   UNL     1     -14.583 -29.813  -9.696  1.00  0.00     0.157 A 
ENDROOT
BRANCH   1   7
ATOM      7  C   UNL     1     -14.457 -33.233 -12.311  1.00  0.00     0.010 C 
ATOM      8  C   UNL     1     -14.366 -33.170 -13.648  1.00  0.00     0.025 C 
BRANCH   8   9
ATOM      9  C   UNL     1     -14.293 -34.378 -14.488  1.00  0.00     0.064 C 
ATOM     10  O   UNL     1     -15.207 -35.246 -14.463  1.00  0.00    -0.545 OA
ATOM     11  O   UNL     1     -13.199 -34.564 -15.322  1.00  0.00    -0.545 OA
ENDBRANCH   8   9
ENDBRANCH   1   7
BRANCH   4  12
ATOM     12  O   UNL     1     -12.558 -30.700  -8.602  1.00  0.00    -0.504 OA
ATOM     13  H   UNL     1     -12.318 -31.449  -7.969  1.00  0.00     0.293 HD
ENDBRANCH   4  12
BRANCH   6  14
ATOM     14  O   UNL     1     -14.662 -28.688  -8.873  1.00  0.00    -0.504 OA
ATOM     15  H   UNL     1     -14.738 -27.741  -9.216  1.00  0.00     0.293 HD
ENDBRANCH   6  14
TORSDOF 4
ENDMDL
MODEL 6
REMARK VINA RESULT:    -5.160      2.199      6.716
REMARK INTER + INTRA:          -6.192
REMARK INTER:                  -6.062
REMARK INTRA:                  -0.130
REMARK UNBOUND:                -0.127
REMARK SMILES O=C([O-])C=Cc1ccc(O)c(O)c1
REMARK SMILES IDX 6 1 13 2 7 3 11 4 8 5 9 6 5 7 4 8 2 9 1 10 3 11 12 12 10 14
REMARK H PARENT 12 13 10 15
REMARK Flexibility Score: inf
ROOT
ATOM      1  C   UNL     1     -14.363 -31.951 -11.275  1.00  0.00    -0.022 A 
ATOM      2  C   UNL     1     -15.073 -30.807 -11.670  1.00  0.00     0.058 A 
ATOM      3  C   UNL     1     -13.611 -31.906 -10.086  1.00  0.00     0.012 A 
ATOM      4  C   UNL     1     -15.065 -29.643 -10.891  1.00  0.00     0.157 A 
ATOM      5  C   UNL     1     -13.597 -30.749  -9.303  1.00  0.00     0.051 A 
ATOM      6  C   UNL     1     -14.320 -29.615  -9.689  1.00  0.00     0.157 A 
ENDROOT
BRANCH   1   7
ATOM      7  C   UNL     1     -14.402 -33.150 -12.149  1.00  0.00     0.010 C 
ATOM      8  C   UNL     1     -14.383 -33.096 -13.490  1.00  0.00     0.025 C 
BRANCH   8   9
ATOM      9  C   UNL     1     -14.412 -34.309 -14.325  1.00  0.00     0.064 C 
ATOM     10  O   UNL     1     -15.427 -35.056 -14.355  1.00  0.00    -0.545 OA
ATOM     11  O   UNL     1     -13.303 -34.634 -15.094  1.00  0.00    -0.545 OA
ENDBRANCH   8   9
ENDBRANCH   1   7
BRANCH   4  12
ATOM     12  O   UNL     1     -15.804 -28.549 -11.346  1.00  0.00    -0.504 OA
ATOM     13  H   UNL     1     -16.283 -28.521 -12.234  1.00  0.00     0.293 HD
ENDBRANCH   4  12
BRANCH   6  14
ATOM     14  O   UNL     1     -14.266 -28.494  -8.860  1.00  0.00    -0.504 OA
ATOM     15  H   UNL     1     -13.989 -27.574  -9.171  1.00  0.00     0.293 HD
ENDBRANCH   6  14
TORSDOF 4
ENDMDL
MODEL 7
REMARK VINA RESULT:    -5.126      1.292      2.292
REMARK INTER + INTRA:          -6.151
REMARK INTER:                  -6.026
REMARK INTRA:                  -0.125
REMARK UNBOUND:                -0.127
REMARK SMILES O=C([O-])C=Cc1ccc(O)c(O)c1
REMARK SMILES IDX 6 1 13 2 7 3 11 4 8 5 9 6 5 7 4 8 2 9 1 10 3 11 12 12 10 14
REMARK H PARENT 12 13 10 15
REMARK Flexibility Score: inf
ROOT
ATOM      1  C   UNL     1     -14.529 -33.646 -13.795  1.00  0.00    -0.022 A 
ATOM      2  C   UNL     1     -13.291 -33.968 -14.375  1.00  0.00     0.058 A 
ATOM      3  C   UNL     1     -15.680 -34.324 -14.236  1.00  0.00     0.012 A 
ATOM      4  C   UNL     1     -13.186 -34.961 -15.356  1.00  0.00     0.157 A 
ATOM      5  C   UNL     1     -15.584 -35.316 -15.215  1.00  0.00     0.051 A 
ATOM      6  C   UNL     1     -14.348 -35.647 -15.779  1.00  0.00     0.157 A 
ENDROOT
BRANCH   1   7
ATOM      7  C   UNL     1     -14.577 -32.576 -12.768  1.00  0.00     0.010 C 
ATOM      8  C   UNL     1     -14.590 -32.811 -11.447  1.00  0.00     0.025 C 
BRANCH   8   9
ATOM      9  C   UNL     1     -14.625 -31.723 -10.456  1.00  0.00     0.064 C 
ATOM     10  O   UNL     1     -15.690 -31.089 -10.221  1.00  0.00    -0.545 OA
ATOM     11  O   UNL     1     -13.467 -31.390  -9.767  1.00  0.00    -0.545 OA
ENDBRANCH   8   9
ENDBRANCH   1   7
BRANCH   4  12
ATOM     12  O   UNL     1     -11.919 -35.230 -15.879  1.00  0.00    -0.504 OA
ATOM     13  H   UNL     1     -11.711 -35.264 -16.866  1.00  0.00     0.293 HD
ENDBRANCH   4  12
BRANCH   6  14
ATOM     14  O   UNL     1     -14.322 -36.651 -16.750  1.00  0.00    -0.504 OA
ATOM     15  H   UNL     1     -13.475 -37.020 -17.158  1.00  0.00     0.293 HD
ENDBRANCH   6  14
TORSDOF 4
ENDMDL
MODEL 8
REMARK VINA RESULT:    -4.978      1.134      5.701
REMARK INTER + INTRA:          -5.978
REMARK INTER:                  -5.853
REMARK INTRA:                  -0.125
REMARK UNBOUND:                -0.127
REMARK SMILES O=C([O-])C=Cc1ccc(O)c(O)c1
REMARK SMILES IDX 6 1 13 2 7 3 11 4 8 5 9 6 5 7 4 8 2 9 1 10 3 11 12 12 10 14
REMARK H PARENT 12 13 10 15
REMARK Flexibility Score: inf
ROOT
ATOM      1  C   UNL     1     -14.264 -33.670 -13.876  1.00  0.00    -0.022 A 
ATOM      2  C   UNL     1     -15.047 -33.582 -12.714  1.00  0.00     0.058 A 
ATOM      3  C   UNL     1     -13.042 -32.975 -13.925  1.00  0.00     0.012 A 
ATOM      4  C   UNL     1     -14.619 -32.840 -11.606  1.00  0.00     0.157 A 
ATOM      5  C   UNL     1     -12.607 -32.233 -12.824  1.00  0.00     0.051 A 
ATOM      6  C   UNL     1     -13.380 -32.159 -11.661  1.00  0.00     0.157 A 
ENDROOT
BRANCH   1   7
ATOM      7  C   UNL     1     -14.778 -34.464 -15.021  1.00  0.00     0.010 C 
ATOM      8  C   UNL     1     -14.714 -35.802 -15.089  1.00  0.00     0.025 C 
BRANCH   8   9
ATOM      9  C   UNL     1     -15.245 -36.556 -16.236  1.00  0.00     0.064 C 
ATOM     10  O   UNL     1     -14.480 -37.005 -17.133  1.00  0.00    -0.545 OA
ATOM     11  O   UNL     1     -16.612 -36.779 -16.332  1.00  0.00    -0.545 OA
ENDBRANCH   8   9
ENDBRANCH   1   7
BRANCH   4  12
ATOM     12  O   UNL     1     -15.448 -32.807 -10.483  1.00  0.00    -0.504 OA
ATOM     13  H   UNL     1     -15.138 -32.542  -9.560  1.00  0.00     0.293 HD
ENDBRANCH   4  12
BRANCH   6  14
ATOM     14  O   UNL     1     -12.886 -31.403 -10.596  1.00  0.00    -0.504 OA
ATOM     15  H   UNL     1     -12.322 -31.781  -9.849  1.00  0.00     0.293 HD
ENDBRANCH   6  14
TORSDOF 4
ENDMDL
MODEL 9
REMARK VINA RESULT:    -4.553     13.979     15.680
REMARK INTER + INTRA:          -5.478
REMARK INTER:                  -5.345
REMARK INTRA:                  -0.133
REMARK UNBOUND:                -0.127
REMARK SMILES O=C([O-])C=Cc1ccc(O)c(O)c1
REMARK SMILES IDX 6 1 13 2 7 3 11 4 8 5 9 6 5 7 4 8 2 9 1 10 3 11 12 12 10 14
REMARK H PARENT 12 13 10 15
REMARK Flexibility Score: inf
ROOT
ATOM      1  C   UNL     1      -9.806 -20.858 -15.548  1.00  0.00    -0.022 A 
ATOM      2  C   UNL     1     -10.185 -19.709 -14.836  1.00  0.00     0.058 A 
ATOM      3  C   UNL     1      -9.140 -21.891 -14.863  1.00  0.00     0.012 A 
ATOM      4  C   UNL     1      -9.934 -19.591 -13.463  1.00  0.00     0.157 A 
ATOM      5  C   UNL     1      -8.886 -21.781 -13.494  1.00  0.00     0.051 A 
ATOM      6  C   UNL     1      -9.278 -20.643 -12.782  1.00  0.00     0.157 A 
ENDROOT
BRANCH   1   7
ATOM      7  C   UNL     1     -10.090 -20.919 -17.004  1.00  0.00     0.010 C 
ATOM      8  C   UNL     1     -10.655 -19.917 -17.695  1.00  0.00     0.025 C 
BRANCH   8   9
ATOM      9  C   UNL     1     -10.911 -20.009 -19.143  1.00  0.00     0.064 C 
ATOM     10  O   UNL     1     -11.883 -20.674 -19.592  1.00  0.00    -0.545 OA
ATOM     11  O   UNL     1     -10.068 -19.351 -20.027  1.00  0.00    -0.545 OA
ENDBRANCH   8   9
ENDBRANCH   1   7
BRANCH   4  12
ATOM     12  O   UNL     1     -10.349 -18.421 -12.823  1.00  0.00    -0.504 OA
ATOM     13  H   UNL     1     -10.896 -17.699 -13.267  1.00  0.00     0.293 HD
ENDBRANCH   4  12
BRANCH   6  14
ATOM     14  O   UNL     1      -8.997 -20.599 -11.416  1.00  0.00    -0.504 OA
ATOM     15  H   UNL     1      -9.364 -21.256 -10.742  1.00  0.00     0.293 HD
ENDBRANCH   6  14
TORSDOF 4
ENDMDL
