MODEL 1
REMARK VINA RESULT:    -5.425      0.000      0.000
REMARK INTER + INTRA:          -5.425
REMARK INTER:                  -5.425
REMARK INTRA:                   0.000
REMARK UNBOUND:                 0.000
REMARK SMILES CC1=CC[C@@]2(C)CCCC(C)(C)[C@@]23C[C@@H]13
REMARK SMILES IDX 1 1 2 2 3 3 4 4 5 5 7 6 8 7 9 8 10 9 13 10 15 11 14 12 11 13
REMARK SMILES IDX 12 14 6 15
REMARK H PARENT
REMARK Flexibility Score: inf
ROOT
ATOM      1  C   UNL     1     138.758 144.630 131.570  1.00  0.00     0.039 C 
ATOM      2  C   UNL     1     138.802 143.645 132.704  1.00  0.00    -0.074 C 
ATOM      3  C   UNL     1     139.204 144.064 133.924  1.00  0.00    -0.027 C 
ATOM      4  C   UNL     1     139.261 143.131 135.109  1.00  0.00     0.034 C 
ATOM      5  C   UNL     1     139.659 141.691 134.669  1.00  0.00    -0.022 C 
ATOM      6  C   UNL     1     139.530 140.742 135.885  1.00  0.00     0.008 C 
ATOM      7  C   UNL     1     139.756 139.262 135.528  1.00  0.00     0.001 C 
ATOM      8  C   UNL     1     138.814 138.774 134.416  1.00  0.00     0.007 C 
ATOM      9  C   UNL     1     138.847 139.623 133.113  1.00  0.00    -0.029 C 
ATOM     10  C   UNL     1     138.718 141.154 133.517  1.00  0.00    -0.012 C 
ATOM     11  C   UNL     1     138.391 142.203 132.444  1.00  0.00     0.022 C 
ATOM     12  C   UNL     1     137.285 141.742 133.391  1.00  0.00     0.017 C 
ATOM     13  C   UNL     1     137.694 139.089 132.211  1.00  0.00     0.012 C 
ATOM     14  C   UNL     1     140.157 139.369 132.325  1.00  0.00     0.012 C 
ATOM     15  C   UNL     1     141.147 141.771 134.203  1.00  0.00     0.012 C 
ENDROOT
TORSDOF 0
ENDMDL
MODEL 2
REMARK VINA RESULT:    -5.399      2.251      4.168
REMARK INTER + INTRA:          -5.399
REMARK INTER:                  -5.399
REMARK INTRA:                   0.000
REMARK UNBOUND:                 0.000
REMARK SMILES CC1=CC[C@@]2(C)CCCC(C)(C)[C@@]23C[C@@H]13
REMARK SMILES IDX 1 1 2 2 3 3 4 4 5 5 7 6 8 7 9 8 10 9 13 10 15 11 14 12 11 13
REMARK SMILES IDX 12 14 6 15
REMARK H PARENT
REMARK Flexibility Score: inf
ROOT
ATOM      1  C   UNL     1     144.582 143.149 131.610  1.00  0.00     0.039 C 
ATOM      2  C   UNL     1     143.621 143.274 132.758  1.00  0.00    -0.074 C 
ATOM      3  C   UNL     1     144.052 143.007 134.009  1.00  0.00    -0.027 C 
ATOM      4  C   UNL     1     143.143 143.123 135.208  1.00  0.00     0.034 C 
ATOM      5  C   UNL     1     141.682 142.723 134.844  1.00  0.00    -0.022 C 
ATOM      6  C   UNL     1     140.764 143.029 136.052  1.00  0.00     0.008 C 
ATOM      7  C   UNL     1     139.270 142.810 135.751  1.00  0.00     0.001 C 
ATOM      8  C   UNL     1     138.788 143.628 134.541  1.00  0.00     0.007 C 
ATOM      9  C   UNL     1     139.608 143.411 133.237  1.00  0.00    -0.029 C 
ATOM     10  C   UNL     1     141.150 143.537 133.596  1.00  0.00    -0.012 C 
ATOM     11  C   UNL     1     142.187 143.698 132.475  1.00  0.00     0.022 C 
ATOM     12  C   UNL     1     141.780 144.924 133.289  1.00  0.00     0.017 C 
ATOM     13  C   UNL     1     139.091 144.464 132.213  1.00  0.00     0.012 C 
ATOM     14  C   UNL     1     139.297 142.026 132.617  1.00  0.00     0.012 C 
ATOM     15  C   UNL     1     141.707 141.188 134.560  1.00  0.00     0.012 C 
ENDROOT
TORSDOF 0
ENDMDL
MODEL 3
REMARK VINA RESULT:    -5.387      2.415      4.227
REMARK INTER + INTRA:          -5.387
REMARK INTER:                  -5.387
REMARK INTRA:                   0.000
REMARK UNBOUND:                 0.000
REMARK SMILES CC1=CC[C@@]2(C)CCCC(C)(C)[C@@]23C[C@@H]13
REMARK SMILES IDX 1 1 2 2 3 3 4 4 5 5 7 6 8 7 9 8 10 9 13 10 15 11 14 12 11 13
REMARK SMILES IDX 12 14 6 15
REMARK H PARENT
REMARK Flexibility Score: inf
ROOT
ATOM      1  C   UNL     1     137.653 138.748 131.752  1.00  0.00     0.039 C 
ATOM      2  C   UNL     1     138.669 138.739 132.858  1.00  0.00    -0.074 C 
ATOM      3  C   UNL     1     138.288 139.092 134.105  1.00  0.00    -0.027 C 
ATOM      4  C   UNL     1     139.254 139.095 135.264  1.00  0.00     0.034 C 
ATOM      5  C   UNL     1     140.684 139.504 134.800  1.00  0.00    -0.022 C 
ATOM      6  C   UNL     1     141.666 139.318 135.982  1.00  0.00     0.008 C 
ATOM      7  C   UNL     1     143.137 139.552 135.593  1.00  0.00     0.001 C 
ATOM      8  C   UNL     1     143.587 138.654 134.429  1.00  0.00     0.007 C 
ATOM      9  C   UNL     1     142.702 138.746 133.153  1.00  0.00    -0.029 C 
ATOM     10  C   UNL     1     141.183 138.608 133.595  1.00  0.00    -0.012 C 
ATOM     11  C   UNL     1     140.101 138.332 132.540  1.00  0.00     0.022 C 
ATOM     12  C   UNL     1     140.582 137.185 133.427  1.00  0.00     0.017 C 
ATOM     13  C   UNL     1     143.203 137.629 132.190  1.00  0.00     0.012 C 
ATOM     14  C   UNL     1     142.942 140.086 132.413  1.00  0.00     0.012 C 
ATOM     15  C   UNL     1     140.601 141.010 134.399  1.00  0.00     0.012 C 
ENDROOT
TORSDOF 0
ENDMDL
MODEL 4
REMARK VINA RESULT:    -5.320      3.108      5.807
REMARK INTER + INTRA:          -5.320
REMARK INTER:                  -5.320
REMARK INTRA:                   0.000
REMARK UNBOUND:                 0.000
REMARK SMILES CC1=CC[C@@]2(C)CCCC(C)(C)[C@@]23C[C@@H]13
REMARK SMILES IDX 1 1 2 2 3 3 4 4 5 5 7 6 8 7 9 8 10 9 13 10 15 11 14 12 11 13
REMARK SMILES IDX 12 14 6 15
REMARK H PARENT
REMARK Flexibility Score: inf
ROOT
ATOM      1  C   UNL     1     142.942 137.589 131.532  1.00  0.00     0.039 C 
ATOM      2  C   UNL     1     143.131 138.511 132.703  1.00  0.00    -0.074 C 
ATOM      3  C   UNL     1     142.896 138.049 133.949  1.00  0.00    -0.027 C 
ATOM      4  C   UNL     1     143.076 138.917 135.170  1.00  0.00     0.034 C 
ATOM      5  C   UNL     1     142.702 140.398 134.863  1.00  0.00    -0.022 C 
ATOM      6  C   UNL     1     143.072 141.271 136.087  1.00  0.00     0.008 C 
ATOM      7  C   UNL     1     142.882 142.778 135.838  1.00  0.00     0.001 C 
ATOM      8  C   UNL     1     143.670 143.276 134.615  1.00  0.00     0.007 C 
ATOM      9  C   UNL     1     143.388 142.502 133.296  1.00  0.00    -0.029 C 
ATOM     10  C   UNL     1     143.486 140.947 133.604  1.00  0.00    -0.012 C 
ATOM     11  C   UNL     1     143.582 139.942 132.447  1.00  0.00     0.022 C 
ATOM     12  C   UNL     1     144.845 140.294 133.231  1.00  0.00     0.017 C 
ATOM     13  C   UNL     1     144.418 143.025 132.251  1.00  0.00     0.012 C 
ATOM     14  C   UNL     1     141.990 142.866 132.734  1.00  0.00     0.012 C 
ATOM     15  C   UNL     1     141.158 140.420 134.633  1.00  0.00     0.012 C 
ENDROOT
TORSDOF 0
ENDMDL
MODEL 5
REMARK VINA RESULT:    -5.270      1.573      4.482
REMARK INTER + INTRA:          -5.270
REMARK INTER:                  -5.270
REMARK INTRA:                   0.000
REMARK UNBOUND:                 0.000
REMARK SMILES CC1=CC[C@@]2(C)CCCC(C)(C)[C@@]23C[C@@H]13
REMARK SMILES IDX 1 1 2 2 3 3 4 4 5 5 7 6 8 7 9 8 10 9 13 10 15 11 14 12 11 13
REMARK SMILES IDX 12 14 6 15
REMARK H PARENT
REMARK Flexibility Score: inf
ROOT
ATOM      1  C   UNL     1     142.493 137.618 131.912  1.00  0.00     0.039 C 
ATOM      2  C   UNL     1     141.386 138.336 132.630  1.00  0.00    -0.074 C 
ATOM      3  C   UNL     1     140.592 137.643 133.475  1.00  0.00    -0.027 C 
ATOM      4  C   UNL     1     139.469 138.303 134.236  1.00  0.00     0.034 C 
ATOM      5  C   UNL     1     138.816 139.441 133.396  1.00  0.00    -0.022 C 
ATOM      6  C   UNL     1     137.799 140.198 134.284  1.00  0.00     0.008 C 
ATOM      7  C   UNL     1     137.200 141.440 133.599  1.00  0.00     0.001 C 
ATOM      8  C   UNL     1     138.279 142.429 133.128  1.00  0.00     0.007 C 
ATOM      9  C   UNL     1     139.370 141.814 132.205  1.00  0.00    -0.029 C 
ATOM     10  C   UNL     1     139.895 140.478 132.883  1.00  0.00    -0.012 C 
ATOM     11  C   UNL     1     141.193 139.825 132.384  1.00  0.00     0.022 C 
ATOM     12  C   UNL     1     141.220 140.630 133.682  1.00  0.00     0.017 C 
ATOM     13  C   UNL     1     140.454 142.916 132.013  1.00  0.00     0.012 C 
ATOM     14  C   UNL     1     138.798 141.529 130.793  1.00  0.00     0.012 C 
ATOM     15  C   UNL     1     138.082 138.743 132.209  1.00  0.00     0.012 C 
ENDROOT
TORSDOF 0
ENDMDL
MODEL 6
REMARK VINA RESULT:    -5.266      1.578      4.706
REMARK INTER + INTRA:          -5.266
REMARK INTER:                  -5.266
REMARK INTRA:                   0.000
REMARK UNBOUND:                 0.000
REMARK SMILES CC1=CC[C@@]2(C)CCCC(C)(C)[C@@]23C[C@@H]13
REMARK SMILES IDX 1 1 2 2 3 3 4 4 5 5 7 6 8 7 9 8 10 9 13 10 15 11 14 12 11 13
REMARK SMILES IDX 12 14 6 15
REMARK H PARENT
REMARK Flexibility Score: inf
ROOT
ATOM      1  C   UNL     1     142.486 138.514 136.573  1.00  0.00     0.039 C 
ATOM      2  C   UNL     1     141.327 138.539 135.616  1.00  0.00    -0.074 C 
ATOM      3  C   UNL     1     141.308 137.671 134.583  1.00  0.00    -0.027 C 
ATOM      4  C   UNL     1     140.171 137.634 133.592  1.00  0.00     0.034 C 
ATOM      5  C   UNL     1     139.592 139.060 133.352  1.00  0.00    -0.022 C 
ATOM      6  C   UNL     1     138.323 138.944 132.473  1.00  0.00     0.008 C 
ATOM      7  C   UNL     1     137.581 140.281 132.295  1.00  0.00     0.001 C 
ATOM      8  C   UNL     1     137.198 140.924 133.638  1.00  0.00     0.007 C 
ATOM      9  C   UNL     1     138.381 141.125 134.627  1.00  0.00    -0.029 C 
ATOM     10  C   UNL     1     139.192 139.762 134.712  1.00  0.00    -0.012 C 
ATOM     11  C   UNL     1     140.208 139.544 135.843  1.00  0.00     0.022 C 
ATOM     12  C   UNL     1     138.840 138.869 135.934  1.00  0.00     0.017 C 
ATOM     13  C   UNL     1     137.752 141.592 135.974  1.00  0.00     0.012 C 
ATOM     14  C   UNL     1     139.297 142.284 134.160  1.00  0.00     0.012 C 
ATOM     15  C   UNL     1     140.699 139.861 132.597  1.00  0.00     0.012 C 
ENDROOT
TORSDOF 0
ENDMDL
MODEL 7
REMARK VINA RESULT:    -5.232      1.834      4.152
REMARK INTER + INTRA:          -5.232
REMARK INTER:                  -5.232
REMARK INTRA:                   0.000
REMARK UNBOUND:                 0.000
REMARK SMILES CC1=CC[C@@]2(C)CCCC(C)(C)[C@@]23C[C@@H]13
REMARK SMILES IDX 1 1 2 2 3 3 4 4 5 5 7 6 8 7 9 8 10 9 13 10 15 11 14 12 11 13
REMARK SMILES IDX 12 14 6 15
REMARK H PARENT
REMARK Flexibility Score: inf
ROOT
ATOM      1  C   UNL     1     137.634 139.688 132.023  1.00  0.00     0.039 C 
ATOM      2  C   UNL     1     138.377 140.806 132.699  1.00  0.00    -0.074 C 
ATOM      3  C   UNL     1     137.714 141.613 133.554  1.00  0.00    -0.027 C 
ATOM      4  C   UNL     1     138.401 142.748 134.274  1.00  0.00     0.034 C 
ATOM      5  C   UNL     1     139.509 143.386 133.385  1.00  0.00    -0.022 C 
ATOM      6  C   UNL     1     140.296 144.417 134.230  1.00  0.00     0.008 C 
ATOM      7  C   UNL     1     141.514 145.004 133.493  1.00  0.00     0.001 C 
ATOM      8  C   UNL     1     142.486 143.917 133.005  1.00  0.00     0.007 C 
ATOM      9  C   UNL     1     141.839 142.812 132.122  1.00  0.00    -0.029 C 
ATOM     10  C   UNL     1     140.527 142.299 132.854  1.00  0.00    -0.012 C 
ATOM     11  C   UNL     1     139.857 140.994 132.397  1.00  0.00     0.022 C 
ATOM     12  C   UNL     1     140.706 140.987 133.667  1.00  0.00     0.017 C 
ATOM     13  C   UNL     1     142.934 141.725 131.908  1.00  0.00     0.012 C 
ATOM     14  C   UNL     1     141.505 143.362 130.712  1.00  0.00     0.012 C 
ATOM     15  C   UNL     1     138.770 144.102 132.212  1.00  0.00     0.012 C 
ENDROOT
TORSDOF 0
ENDMDL
MODEL 8
REMARK VINA RESULT:    -5.209      2.398      4.841
REMARK INTER + INTRA:          -5.209
REMARK INTER:                  -5.209
REMARK INTRA:                   0.000
REMARK UNBOUND:                 0.000
REMARK SMILES CC1=CC[C@@]2(C)CCCC(C)(C)[C@@]23C[C@@H]13
REMARK SMILES IDX 1 1 2 2 3 3 4 4 5 5 7 6 8 7 9 8 10 9 13 10 15 11 14 12 11 13
REMARK SMILES IDX 12 14 6 15
REMARK H PARENT
REMARK Flexibility Score: inf
ROOT
ATOM      1  C   UNL     1     143.625 137.669 131.461  1.00  0.00     0.039 C 
ATOM      2  C   UNL     1     142.220 137.990 131.883  1.00  0.00    -0.074 C 
ATOM      3  C   UNL     1     141.328 138.390 130.952  1.00  0.00    -0.027 C 
ATOM      4  C   UNL     1     139.898 138.718 131.304  1.00  0.00     0.034 C 
ATOM      5  C   UNL     1     139.803 139.359 132.721  1.00  0.00    -0.022 C 
ATOM      6  C   UNL     1     138.311 139.509 133.104  1.00  0.00     0.008 C 
ATOM      7  C   UNL     1     138.100 139.996 134.549  1.00  0.00     0.001 C 
ATOM      8  C   UNL     1     138.789 139.089 135.582  1.00  0.00     0.007 C 
ATOM      9  C   UNL     1     140.308 138.858 135.338  1.00  0.00    -0.029 C 
ATOM     10  C   UNL     1     140.509 138.460 133.814  1.00  0.00    -0.012 C 
ATOM     11  C   UNL     1     141.842 137.854 133.351  1.00  0.00     0.022 C 
ATOM     12  C   UNL     1     140.640 136.934 133.552  1.00  0.00     0.017 C 
ATOM     13  C   UNL     1     140.755 137.770 136.360  1.00  0.00     0.012 C 
ATOM     14  C   UNL     1     141.120 140.131 135.688  1.00  0.00     0.012 C 
ATOM     15  C   UNL     1     140.476 140.763 132.612  1.00  0.00     0.012 C 
ENDROOT
TORSDOF 0
ENDMDL
MODEL 9
REMARK VINA RESULT:    -5.194      1.370      3.355
REMARK INTER + INTRA:          -5.194
REMARK INTER:                  -5.194
REMARK INTRA:                   0.000
REMARK UNBOUND:                 0.000
REMARK SMILES CC1=CC[C@@]2(C)CCCC(C)(C)[C@@]23C[C@@H]13
REMARK SMILES IDX 1 1 2 2 3 3 4 4 5 5 7 6 8 7 9 8 10 9 13 10 15 11 14 12 11 13
REMARK SMILES IDX 12 14 6 15
REMARK H PARENT
REMARK Flexibility Score: inf
ROOT
ATOM      1  C   UNL     1     143.309 143.267 135.693  1.00  0.00     0.039 C 
ATOM      2  C   UNL     1     142.025 143.063 134.939  1.00  0.00    -0.074 C 
ATOM      3  C   UNL     1     141.382 144.137 134.432  1.00  0.00    -0.027 C 
ATOM      4  C   UNL     1     140.096 144.004 133.655  1.00  0.00     0.034 C 
ATOM      5  C   UNL     1     139.228 142.834 134.206  1.00  0.00    -0.022 C 
ATOM      6  C   UNL     1     138.013 142.627 133.269  1.00  0.00     0.008 C 
ATOM      7  C   UNL     1     137.164 141.396 133.636  1.00  0.00     0.001 C 
ATOM      8  C   UNL     1     137.992 140.101 133.669  1.00  0.00     0.007 C 
ATOM      9  C   UNL     1     139.245 140.149 134.589  1.00  0.00    -0.029 C 
ATOM     10  C   UNL     1     140.046 141.481 134.265  1.00  0.00    -0.012 C 
ATOM     11  C   UNL     1     141.487 141.650 134.769  1.00  0.00     0.022 C 
ATOM     12  C   UNL     1     141.251 141.298 133.302  1.00  0.00     0.017 C 
ATOM     13  C   UNL     1     140.035 138.833 134.323  1.00  0.00     0.012 C 
ATOM     14  C   UNL     1     138.832 140.103 136.082  1.00  0.00     0.012 C 
ATOM     15  C   UNL     1     138.747 143.275 135.624  1.00  0.00     0.012 C 
ENDROOT
TORSDOF 0
ENDMDL
