MODEL 1
REMARK VINA RESULT:    -3.229      0.000      0.000
REMARK INTER + INTRA:          -5.014
REMARK INTER:                  -4.551
REMARK INTRA:                  -0.463
REMARK UNBOUND:                -0.463
REMARK SMILES CCCCCCCCC(=O)[O-]
REMARK SMILES IDX 6 1 7 2 8 3 9 4 10 5 11 6 5 7 4 8 3 9 2 10 1 11
REMARK H PARENT
REMARK Flexibility Score: inf
ROOT
ATOM      1  C   UNL     1       7.437  -2.280  19.972  1.00  0.00     0.000 C 
ENDROOT
BRANCH   1   2
ATOM      2  C   UNL     1       6.653  -2.961  18.843  1.00  0.00     0.006 C 
BRANCH   2   3
ATOM      3  C   UNL     1       5.714  -1.969  18.150  1.00  0.00     0.053 C 
BRANCH   3   4
ATOM      4  C   UNL     1       5.928  -1.992  16.669  1.00  0.00     0.041 C 
ATOM      5  O   UNL     1       5.038  -1.552  15.895  1.00  0.00    -0.550 OA
ATOM      6  O   UNL     1       7.087  -2.545  16.143  1.00  0.00    -0.550 OA
ENDBRANCH   3   4
ENDBRANCH   2   3
ENDBRANCH   1   2
BRANCH   1   7
ATOM      7  C   UNL     1       8.684  -3.090  20.343  1.00  0.00     0.000 C 
BRANCH   7   8
ATOM      8  C   UNL     1       9.072  -4.054  19.213  1.00  0.00    -0.000 C 
BRANCH   8   9
ATOM      9  C   UNL     1       9.602  -5.404  19.729  1.00  0.00    -0.000 C 
BRANCH   9  10
ATOM     10  C   UNL     1       9.347  -6.600  18.795  1.00  0.00    -0.003 C 
ATOM     11  C   UNL     1       8.137  -6.398  17.883  1.00  0.00     0.004 C 
ENDBRANCH   9  10
ENDBRANCH   8   9
ENDBRANCH   7   8
ENDBRANCH   1   7
TORSDOF 7
ENDMDL
MODEL 2
REMARK VINA RESULT:    -3.196      8.429      9.171
REMARK INTER + INTRA:          -4.967
REMARK INTER:                  -4.621
REMARK INTRA:                  -0.346
REMARK UNBOUND:                -0.463
REMARK SMILES CCCCCCCCC(=O)[O-]
REMARK SMILES IDX 6 1 7 2 8 3 9 4 10 5 11 6 5 7 4 8 3 9 2 10 1 11
REMARK H PARENT
REMARK Flexibility Score: inf
ROOT
ATOM      1  C   UNL     1      -0.831  -3.136  23.986  1.00  0.00     0.000 C 
ENDROOT
BRANCH   1   2
ATOM      2  C   UNL     1      -0.030  -2.816  22.718  1.00  0.00     0.006 C 
BRANCH   2   3
ATOM      3  C   UNL     1      -0.070  -1.316  22.408  1.00  0.00     0.053 C 
BRANCH   3   4
ATOM      4  C   UNL     1      -0.569  -1.082  21.017  1.00  0.00     0.041 C 
ATOM      5  O   UNL     1      -1.805  -1.006  20.792  1.00  0.00    -0.550 OA
ATOM      6  O   UNL     1       0.329  -0.998  19.962  1.00  0.00    -0.550 OA
ENDBRANCH   3   4
ENDBRANCH   2   3
ENDBRANCH   1   2
BRANCH   1   7
ATOM      7  C   UNL     1      -0.095  -4.158  24.860  1.00  0.00     0.000 C 
BRANCH   7   8
ATOM      8  C   UNL     1       1.030  -4.846  24.073  1.00  0.00    -0.000 C 
BRANCH   8   9
ATOM      9  C   UNL     1       0.855  -6.372  23.983  1.00  0.00    -0.000 C 
BRANCH   9  10
ATOM     10  C   UNL     1       0.130  -7.012  25.180  1.00  0.00    -0.003 C 
ATOM     11  C   UNL     1      -0.155  -8.501  24.981  1.00  0.00     0.004 C 
ENDBRANCH   9  10
ENDBRANCH   8   9
ENDBRANCH   7   8
ENDBRANCH   1   7
TORSDOF 7
ENDMDL
MODEL 3
REMARK VINA RESULT:    -3.174      0.392      1.049
REMARK INTER + INTRA:          -4.937
REMARK INTER:                  -4.518
REMARK INTRA:                  -0.419
REMARK UNBOUND:                -0.463
REMARK SMILES CCCCCCCCC(=O)[O-]
REMARK SMILES IDX 6 1 7 2 8 3 9 4 10 5 11 6 5 7 4 8 3 9 2 10 1 11
REMARK H PARENT
REMARK Flexibility Score: inf
ROOT
ATOM      1  C   UNL     1       7.088  -2.157  19.864  1.00  0.00     0.000 C 
ENDROOT
BRANCH   1   2
ATOM      2  C   UNL     1       6.590  -2.778  18.553  1.00  0.00     0.006 C 
BRANCH   2   3
ATOM      3  C   UNL     1       5.553  -1.877  17.877  1.00  0.00     0.053 C 
BRANCH   3   4
ATOM      4  C   UNL     1       5.772  -1.843  16.398  1.00  0.00     0.041 C 
ATOM      5  O   UNL     1       6.786  -2.395  15.895  1.00  0.00    -0.550 OA
ATOM      6  O   UNL     1       4.883  -1.159  15.579  1.00  0.00    -0.550 OA
ENDBRANCH   3   4
ENDBRANCH   2   3
ENDBRANCH   1   2
BRANCH   1   7
ATOM      7  C   UNL     1       8.337  -2.882  20.378  1.00  0.00     0.000 C 
BRANCH   7   8
ATOM      8  C   UNL     1       8.901  -3.831  19.311  1.00  0.00    -0.000 C 
BRANCH   8   9
ATOM      9  C   UNL     1       9.657  -5.030  19.912  1.00  0.00    -0.000 C 
BRANCH   9  10
ATOM     10  C   UNL     1       9.473  -6.357  19.153  1.00  0.00    -0.003 C 
ATOM     11  C   UNL     1       8.334  -6.309  18.134  1.00  0.00     0.004 C 
ENDBRANCH   9  10
ENDBRANCH   8   9
ENDBRANCH   7   8
ENDBRANCH   1   7
TORSDOF 7
ENDMDL
MODEL 4
REMARK VINA RESULT:    -3.157      8.511     10.024
REMARK INTER + INTRA:          -4.913
REMARK INTER:                  -4.575
REMARK INTRA:                  -0.338
REMARK UNBOUND:                -0.463
REMARK SMILES CCCCCCCCC(=O)[O-]
REMARK SMILES IDX 6 1 7 2 8 3 9 4 10 5 11 6 5 7 4 8 3 9 2 10 1 11
REMARK H PARENT
REMARK Flexibility Score: inf
ROOT
ATOM      1  C   UNL     1      -0.167  -2.644  22.590  1.00  0.00     0.000 C 
ENDROOT
BRANCH   1   2
ATOM      2  C   UNL     1       0.211  -2.810  24.067  1.00  0.00     0.006 C 
BRANCH   2   3
ATOM      3  C   UNL     1       1.274  -3.898  24.243  1.00  0.00     0.053 C 
BRANCH   3   4
ATOM      4  C   UNL     1       0.638  -5.252  24.276  1.00  0.00     0.041 C 
ATOM      5  O   UNL     1       1.100  -6.186  23.570  1.00  0.00    -0.550 OA
ATOM      6  O   UNL     1      -0.496  -5.468  25.048  1.00  0.00    -0.550 OA
ENDBRANCH   3   4
ENDBRANCH   2   3
ENDBRANCH   1   2
BRANCH   1   7
ATOM      7  C   UNL     1      -1.449  -1.819  22.438  1.00  0.00     0.000 C 
BRANCH   7   8
ATOM      8  C   UNL     1      -1.418  -0.983  21.150  1.00  0.00    -0.000 C 
BRANCH   8   9
ATOM      9  C   UNL     1      -0.022  -0.927  20.504  1.00  0.00    -0.000 C 
BRANCH   9  10
ATOM     10  C   UNL     1       0.717   0.412  20.675  1.00  0.00    -0.003 C 
ATOM     11  C   UNL     1       1.381   0.897  19.387  1.00  0.00     0.004 C 
ENDBRANCH   9  10
ENDBRANCH   8   9
ENDBRANCH   7   8
ENDBRANCH   1   7
TORSDOF 7
ENDMDL
MODEL 5
REMARK VINA RESULT:    -3.116      8.003      8.737
REMARK INTER + INTRA:          -4.854
REMARK INTER:                  -4.517
REMARK INTRA:                  -0.337
REMARK UNBOUND:                -0.463
REMARK SMILES CCCCCCCCC(=O)[O-]
REMARK SMILES IDX 6 1 7 2 8 3 9 4 10 5 11 6 5 7 4 8 3 9 2 10 1 11
REMARK H PARENT
REMARK Flexibility Score: inf
ROOT
ATOM      1  C   UNL     1      -1.473  -1.560  22.364  1.00  0.00     0.000 C 
ENDROOT
BRANCH   1   2
ATOM      2  C   UNL     1      -1.390  -0.741  21.070  1.00  0.00     0.006 C 
BRANCH   2   3
ATOM      3  C   UNL     1      -0.024  -0.911  20.399  1.00  0.00     0.053 C 
BRANCH   3   4
ATOM      4  C   UNL     1       0.671   0.409  20.285  1.00  0.00     0.041 C 
ATOM      5  O   UNL     1       0.168   1.437  20.809  1.00  0.00    -0.550 OA
ATOM      6  O   UNL     1       1.850   0.513  19.557  1.00  0.00    -0.550 OA
ENDBRANCH   3   4
ENDBRANCH   2   3
ENDBRANCH   1   2
BRANCH   1   7
ATOM      7  C   UNL     1      -0.283  -2.518  22.487  1.00  0.00     0.000 C 
BRANCH   7   8
ATOM      8  C   UNL     1       0.320  -2.469  23.898  1.00  0.00    -0.000 C 
BRANCH   8   9
ATOM      9  C   UNL     1       1.159  -3.715  24.237  1.00  0.00    -0.000 C 
BRANCH   9  10
ATOM     10  C   UNL     1       0.340  -4.960  24.623  1.00  0.00    -0.003 C 
ATOM     11  C   UNL     1       0.825  -6.233  23.930  1.00  0.00     0.004 C 
ENDBRANCH   9  10
ENDBRANCH   8   9
ENDBRANCH   7   8
ENDBRANCH   1   7
TORSDOF 7
ENDMDL
MODEL 6
REMARK VINA RESULT:    -3.062      8.052      9.304
REMARK INTER + INTRA:          -4.779
REMARK INTER:                  -4.460
REMARK INTRA:                  -0.319
REMARK UNBOUND:                -0.463
REMARK SMILES CCCCCCCCC(=O)[O-]
REMARK SMILES IDX 6 1 7 2 8 3 9 4 10 5 11 6 5 7 4 8 3 9 2 10 1 11
REMARK H PARENT
REMARK Flexibility Score: inf
ROOT
ATOM      1  C   UNL     1       2.964  -1.739  25.886  1.00  0.00     0.000 C 
ENDROOT
BRANCH   1   2
ATOM      2  C   UNL     1       4.343  -2.063  26.474  1.00  0.00     0.006 C 
BRANCH   2   3
ATOM      3  C   UNL     1       5.041  -3.160  25.664  1.00  0.00     0.053 C 
BRANCH   3   4
ATOM      4  C   UNL     1       6.499  -3.210  25.997  1.00  0.00     0.041 C 
ATOM      5  O   UNL     1       7.264  -2.280  25.630  1.00  0.00    -0.550 OA
ATOM      6  O   UNL     1       7.021  -4.307  26.669  1.00  0.00    -0.550 OA
ENDBRANCH   3   4
ENDBRANCH   2   3
ENDBRANCH   1   2
BRANCH   1   7
ATOM      7  C   UNL     1       2.502  -2.839  24.925  1.00  0.00     0.000 C 
BRANCH   7   8
ATOM      8  C   UNL     1       1.031  -2.643  24.530  1.00  0.00    -0.000 C 
BRANCH   8   9
ATOM      9  C   UNL     1       0.489  -3.782  23.647  1.00  0.00    -0.000 C 
BRANCH   9  10
ATOM     10  C   UNL     1       0.980  -5.189  24.032  1.00  0.00    -0.003 C 
ATOM     11  C   UNL     1       0.063  -5.888  25.036  1.00  0.00     0.004 C 
ENDBRANCH   9  10
ENDBRANCH   8   9
ENDBRANCH   7   8
ENDBRANCH   1   7
TORSDOF 7
ENDMDL
MODEL 7
REMARK VINA RESULT:    -3.016      8.582      9.621
REMARK INTER + INTRA:          -4.714
REMARK INTER:                  -4.112
REMARK INTRA:                  -0.602
REMARK UNBOUND:                -0.463
REMARK SMILES CCCCCCCCC(=O)[O-]
REMARK SMILES IDX 6 1 7 2 8 3 9 4 10 5 11 6 5 7 4 8 3 9 2 10 1 11
REMARK H PARENT
REMARK Flexibility Score: inf
ROOT
ATOM      1  C   UNL     1       0.835  -2.504  23.968  1.00  0.00     0.000 C 
ENDROOT
BRANCH   1   2
ATOM      2  C   UNL     1      -0.071  -2.781  22.762  1.00  0.00     0.006 C 
BRANCH   2   3
ATOM      3  C   UNL     1      -1.112  -1.671  22.589  1.00  0.00     0.053 C 
BRANCH   3   4
ATOM      4  C   UNL     1      -1.157  -1.211  21.166  1.00  0.00     0.041 C 
ATOM      5  O   UNL     1      -2.214  -0.719  20.693  1.00  0.00    -0.550 OA
ATOM      6  O   UNL     1      -0.046  -1.372  20.349  1.00  0.00    -0.550 OA
ENDBRANCH   3   4
ENDBRANCH   2   3
ENDBRANCH   1   2
BRANCH   1   7
ATOM      7  C   UNL     1       1.542  -3.781  24.432  1.00  0.00     0.000 C 
BRANCH   7   8
ATOM      8  C   UNL     1       0.773  -5.032  23.981  1.00  0.00    -0.000 C 
BRANCH   8   9
ATOM      9  C   UNL     1       0.041  -5.736  25.138  1.00  0.00    -0.000 C 
BRANCH   9  10
ATOM     10  C   UNL     1      -1.346  -5.158  25.474  1.00  0.00    -0.003 C 
ATOM     11  C   UNL     1      -1.325  -4.216  26.677  1.00  0.00     0.004 C 
ENDBRANCH   9  10
ENDBRANCH   8   9
ENDBRANCH   7   8
ENDBRANCH   1   7
TORSDOF 7
ENDMDL
MODEL 8
REMARK VINA RESULT:    -3.007      8.978     10.751
REMARK INTER + INTRA:          -4.701
REMARK INTER:                  -4.217
REMARK INTRA:                  -0.484
REMARK UNBOUND:                -0.463
REMARK SMILES CCCCCCCCC(=O)[O-]
REMARK SMILES IDX 6 1 7 2 8 3 9 4 10 5 11 6 5 7 4 8 3 9 2 10 1 11
REMARK H PARENT
REMARK Flexibility Score: inf
ROOT
ATOM      1  C   UNL     1      -0.280  -1.721  23.151  1.00  0.00     0.000 C 
ENDROOT
BRANCH   1   2
ATOM      2  C   UNL     1       0.062  -3.194  22.897  1.00  0.00     0.006 C 
BRANCH   2   3
ATOM      3  C   UNL     1       0.975  -3.744  23.997  1.00  0.00     0.053 C 
BRANCH   3   4
ATOM      4  C   UNL     1       0.624  -5.165  24.307  1.00  0.00     0.041 C 
ATOM      5  O   UNL     1       1.128  -6.102  23.635  1.00  0.00    -0.550 OA
ATOM      6  O   UNL     1      -0.298  -5.452  25.305  1.00  0.00    -0.550 OA
ENDBRANCH   3   4
ENDBRANCH   2   3
ENDBRANCH   1   2
BRANCH   1   7
ATOM      7  C   UNL     1       0.073  -0.855  21.936  1.00  0.00     0.000 C 
BRANCH   7   8
ATOM      8  C   UNL     1      -0.995  -0.984  20.840  1.00  0.00    -0.000 C 
BRANCH   8   9
ATOM      9  C   UNL     1      -2.401  -0.579  21.319  1.00  0.00    -0.000 C 
BRANCH   9  10
ATOM     10  C   UNL     1      -3.492  -1.640  21.092  1.00  0.00    -0.003 C 
ATOM     11  C   UNL     1      -3.939  -2.324  22.384  1.00  0.00     0.004 C 
ENDBRANCH   9  10
ENDBRANCH   8   9
ENDBRANCH   7   8
ENDBRANCH   1   7
TORSDOF 7
ENDMDL
MODEL 9
REMARK VINA RESULT:    -2.903      8.995     10.250
REMARK INTER + INTRA:          -4.554
REMARK INTER:                  -4.239
REMARK INTRA:                  -0.315
REMARK UNBOUND:                -0.463
REMARK SMILES CCCCCCCCC(=O)[O-]
REMARK SMILES IDX 6 1 7 2 8 3 9 4 10 5 11 6 5 7 4 8 3 9 2 10 1 11
REMARK H PARENT
REMARK Flexibility Score: inf
ROOT
ATOM      1  C   UNL     1       1.212  -3.161  24.397  1.00  0.00     0.000 C 
ENDROOT
BRANCH   1   2
ATOM      2  C   UNL     1       0.226  -4.275  24.026  1.00  0.00     0.006 C 
BRANCH   2   3
ATOM      3  C   UNL     1       0.922  -5.638  23.997  1.00  0.00     0.053 C 
BRANCH   3   4
ATOM      4  C   UNL     1       0.240  -6.595  24.923  1.00  0.00     0.041 C 
ATOM      5  O   UNL     1      -0.632  -6.181  25.731  1.00  0.00    -0.550 OA
ATOM      6  O   UNL     1       0.603  -7.935  24.928  1.00  0.00    -0.550 OA
ENDBRANCH   3   4
ENDBRANCH   2   3
ENDBRANCH   1   2
BRANCH   1   7
ATOM      7  C   UNL     1       0.764  -1.813  23.821  1.00  0.00     0.000 C 
BRANCH   7   8
ATOM      8  C   UNL     1      -0.396  -1.995  22.831  1.00  0.00    -0.000 C 
BRANCH   8   9
ATOM      9  C   UNL     1      -0.597  -0.778  21.911  1.00  0.00    -0.000 C 
BRANCH   9  10
ATOM     10  C   UNL     1      -0.078  -0.961  20.473  1.00  0.00    -0.003 C 
ATOM     11  C   UNL     1       0.942   0.103  20.066  1.00  0.00     0.004 C 
ENDBRANCH   9  10
ENDBRANCH   8   9
ENDBRANCH   7   8
ENDBRANCH   1   7
TORSDOF 7
ENDMDL
