MODEL 1
REMARK VINA RESULT:    -4.416      0.000      0.000
REMARK INTER + INTRA:          -4.545
REMARK INTER:                  -4.545
REMARK INTRA:                   0.000
REMARK UNBOUND:                 0.000
REMARK SMILES C=C1[C@H](O)C[C@@]23C[C@@H]1C(C)(C)[C@@H]2CC[C@@H]3C
REMARK SMILES IDX 16 1 15 2 14 3 13 4 12 5 6 6 7 7 8 8 9 9 10 10 11 11 2 12
REMARK SMILES IDX 1 13 3 14 5 15 4 16
REMARK H PARENT 4 17
REMARK Flexibility Score: inf
ROOT
ATOM      1  C   UNL     1       5.600   0.224  -0.382  1.00  0.00     0.008 C 
ATOM      2  C   UNL     1       5.774   1.747  -0.250  1.00  0.00    -0.008 C 
ATOM      3  C   UNL     1       6.648   2.100   0.960  1.00  0.00     0.004 C 
ATOM      4  C   UNL     1       8.024   2.401   0.398  1.00  0.00     0.005 C 
ATOM      5  C   UNL     1       7.754   3.084  -0.949  1.00  0.00     0.002 C 
ATOM      6  C   UNL     1       6.440   2.460  -1.472  1.00  0.00    -0.020 C 
ATOM      7  C   UNL     1       6.889   1.574  -2.643  1.00  0.00     0.016 C 
ATOM      8  C   UNL     1       7.947   2.449  -3.298  1.00  0.00     0.023 C 
ATOM      9  C   UNL     1       8.814   2.925  -2.095  1.00  0.00    -0.025 C 
ATOM     10  C   UNL     1       9.913   1.865  -1.812  1.00  0.00     0.012 C 
ATOM     11  C   UNL     1       9.552   4.260  -2.365  1.00  0.00     0.012 C 
ATOM     12  C   UNL     1       7.218   3.600  -3.989  1.00  0.00    -0.045 C 
ATOM     13  C   UNL     1       7.629   4.021  -5.194  1.00  0.00     0.011 C 
ATOM     14  C   UNL     1       6.055   4.311  -3.293  1.00  0.00     0.140 C 
ATOM     15  C   UNL     1       5.491   3.547  -2.059  1.00  0.00     0.044 C 
ENDROOT
BRANCH  14  16
ATOM     16  O   UNL     1       6.451   5.599  -2.894  1.00  0.00    -0.389 OA
ATOM     17  H   UNL     1       5.939   6.248  -3.444  1.00  0.00     0.211 HD
ENDBRANCH  14  16
TORSDOF 1
ENDMDL
MODEL 2
REMARK VINA RESULT:    -4.339     10.588     12.558
REMARK INTER + INTRA:          -4.466
REMARK INTER:                  -4.466
REMARK INTRA:                   0.000
REMARK UNBOUND:                 0.000
REMARK SMILES C=C1[C@H](O)C[C@@]23C[C@@H]1C(C)(C)[C@@H]2CC[C@@H]3C
REMARK SMILES IDX 16 1 15 2 14 3 13 4 12 5 6 6 7 7 8 8 9 9 10 10 11 11 2 12
REMARK SMILES IDX 1 13 3 14 5 15 4 16
REMARK H PARENT 4 17
REMARK Flexibility Score: inf
ROOT
ATOM      1  C   UNL     1       0.359  -8.331  -4.845  1.00  0.00     0.008 C 
ATOM      2  C   UNL     1       0.952  -7.023  -5.396  1.00  0.00    -0.008 C 
ATOM      3  C   UNL     1       1.555  -7.234  -6.790  1.00  0.00     0.004 C 
ATOM      4  C   UNL     1       0.524  -6.702  -7.768  1.00  0.00     0.005 C 
ATOM      5  C   UNL     1      -0.100  -5.495  -7.055  1.00  0.00     0.002 C 
ATOM      6  C   UNL     1      -0.054  -5.836  -5.548  1.00  0.00    -0.020 C 
ATOM      7  C   UNL     1      -1.521  -6.107  -5.183  1.00  0.00     0.016 C 
ATOM      8  C   UNL     1      -2.237  -5.022  -5.973  1.00  0.00     0.023 C 
ATOM      9  C   UNL     1      -1.588  -5.120  -7.385  1.00  0.00    -0.025 C 
ATOM     10  C   UNL     1      -2.350  -6.185  -8.220  1.00  0.00     0.012 C 
ATOM     11  C   UNL     1      -1.667  -3.796  -8.186  1.00  0.00     0.012 C 
ATOM     12  C   UNL     1      -1.943  -3.691  -5.283  1.00  0.00    -0.045 C 
ATOM     13  C   UNL     1      -2.916  -2.775  -5.161  1.00  0.00     0.011 C 
ATOM     14  C   UNL     1      -0.535  -3.373  -4.776  1.00  0.00     0.140 C 
ATOM     15  C   UNL     1       0.408  -4.610  -4.705  1.00  0.00     0.044 C 
ENDROOT
BRANCH  14  16
ATOM     16  O   UNL     1       0.057  -2.392  -5.590  1.00  0.00    -0.389 OA
ATOM     17  H   UNL     1      -0.575  -2.206  -6.333  1.00  0.00     0.211 HD
ENDBRANCH  14  16
TORSDOF 1
ENDMDL
MODEL 3
REMARK VINA RESULT:    -4.259      1.690      2.377
REMARK INTER + INTRA:          -4.383
REMARK INTER:                  -4.383
REMARK INTRA:                   0.000
REMARK UNBOUND:                 0.000
REMARK SMILES C=C1[C@H](O)C[C@@]23C[C@@H]1C(C)(C)[C@@H]2CC[C@@H]3C
REMARK SMILES IDX 16 1 15 2 14 3 13 4 12 5 6 6 7 7 8 8 9 9 10 10 11 11 2 12
REMARK SMILES IDX 1 13 3 14 5 15 4 16
REMARK H PARENT 4 17
REMARK Flexibility Score: inf
ROOT
ATOM      1  C   UNL     1       5.651  -1.689  -1.159  1.00  0.00     0.008 C 
ATOM      2  C   UNL     1       6.130  -0.594  -0.190  1.00  0.00    -0.008 C 
ATOM      3  C   UNL     1       7.537  -0.901   0.337  1.00  0.00     0.004 C 
ATOM      4  C   UNL     1       8.477  -0.027  -0.471  1.00  0.00     0.005 C 
ATOM      5  C   UNL     1       7.694   1.270  -0.709  1.00  0.00     0.002 C 
ATOM      6  C   UNL     1       6.209   0.849  -0.787  1.00  0.00    -0.020 C 
ATOM      7  C   UNL     1       5.851   1.016  -2.271  1.00  0.00     0.016 C 
ATOM      8  C   UNL     1       6.575   2.309  -2.614  1.00  0.00     0.023 C 
ATOM      9  C   UNL     1       7.994   2.098  -2.009  1.00  0.00    -0.025 C 
ATOM     10  C   UNL     1       8.884   1.363  -3.048  1.00  0.00     0.012 C 
ATOM     11  C   UNL     1       8.719   3.425  -1.672  1.00  0.00     0.012 C 
ATOM     12  C   UNL     1       5.813   3.447  -1.939  1.00  0.00    -0.045 C 
ATOM     13  C   UNL     1       5.633   4.607  -2.589  1.00  0.00     0.011 C 
ATOM     14  C   UNL     1       5.296   3.294  -0.507  1.00  0.00     0.140 C 
ATOM     15  C   UNL     1       5.301   1.827   0.016  1.00  0.00     0.044 C 
ENDROOT
BRANCH  14  16
ATOM     16  O   UNL     1       6.056   4.093   0.365  1.00  0.00    -0.389 OA
ATOM     17  H   UNL     1       6.490   4.797  -0.184  1.00  0.00     0.211 HD
ENDBRANCH  14  16
TORSDOF 1
ENDMDL
MODEL 4
REMARK VINA RESULT:    -4.195      1.697      4.235
REMARK INTER + INTRA:          -4.318
REMARK INTER:                  -4.318
REMARK INTRA:                   0.000
REMARK UNBOUND:                 0.000
REMARK SMILES C=C1[C@H](O)C[C@@]23C[C@@H]1C(C)(C)[C@@H]2CC[C@@H]3C
REMARK SMILES IDX 16 1 15 2 14 3 13 4 12 5 6 6 7 7 8 8 9 9 10 10 11 11 2 12
REMARK SMILES IDX 1 13 3 14 5 15 4 16
REMARK H PARENT 4 17
REMARK Flexibility Score: inf
ROOT
ATOM      1  C   UNL     1       7.805   3.746  -4.723  1.00  0.00     0.008 C 
ATOM      2  C   UNL     1       6.473   3.456  -4.010  1.00  0.00    -0.008 C 
ATOM      3  C   UNL     1       5.666   2.388  -4.759  1.00  0.00     0.004 C 
ATOM      4  C   UNL     1       5.888   1.096  -3.996  1.00  0.00     0.005 C 
ATOM      5  C   UNL     1       5.970   1.523  -2.525  1.00  0.00     0.002 C 
ATOM      6  C   UNL     1       6.592   2.939  -2.539  1.00  0.00    -0.020 C 
ATOM      7  C   UNL     1       8.006   2.730  -1.980  1.00  0.00     0.016 C 
ATOM      8  C   UNL     1       7.747   1.729  -0.864  1.00  0.00     0.023 C 
ATOM      9  C   UNL     1       6.840   0.661  -1.543  1.00  0.00    -0.025 C 
ATOM     10  C   UNL     1       7.737  -0.398  -2.240  1.00  0.00     0.012 C 
ATOM     11  C   UNL     1       5.949  -0.112  -0.538  1.00  0.00     0.012 C 
ATOM     12  C   UNL     1       7.033   2.478   0.259  1.00  0.00    -0.045 C 
ATOM     13  C   UNL     1       7.355   2.228   1.537  1.00  0.00     0.011 C 
ATOM     14  C   UNL     1       5.916   3.474  -0.060  1.00  0.00     0.140 C 
ATOM     15  C   UNL     1       5.848   3.893  -1.558  1.00  0.00     0.044 C 
ENDROOT
BRANCH  14  16
ATOM     16  O   UNL     1       4.674   2.941   0.324  1.00  0.00    -0.389 OA
ATOM     17  H   UNL     1       4.306   3.531   1.033  1.00  0.00     0.211 HD
ENDBRANCH  14  16
TORSDOF 1
ENDMDL
MODEL 5
REMARK VINA RESULT:    -4.184      2.038      4.138
REMARK INTER + INTRA:          -4.306
REMARK INTER:                  -4.306
REMARK INTRA:                   0.000
REMARK UNBOUND:                 0.000
REMARK SMILES C=C1[C@H](O)C[C@@]23C[C@@H]1C(C)(C)[C@@H]2CC[C@@H]3C
REMARK SMILES IDX 16 1 15 2 14 3 13 4 12 5 6 6 7 7 8 8 9 9 10 10 11 11 2 12
REMARK SMILES IDX 1 13 3 14 5 15 4 16
REMARK H PARENT 4 17
REMARK Flexibility Score: inf
ROOT
ATOM      1  C   UNL     1       5.960   5.579  -3.411  1.00  0.00     0.008 C 
ATOM      2  C   UNL     1       5.233   4.339  -2.865  1.00  0.00    -0.008 C 
ATOM      3  C   UNL     1       4.636   3.502  -4.003  1.00  0.00     0.004 C 
ATOM      4  C   UNL     1       5.596   2.346  -4.208  1.00  0.00     0.005 C 
ATOM      5  C   UNL     1       6.106   2.009  -2.801  1.00  0.00     0.002 C 
ATOM      6  C   UNL     1       6.114   3.350  -2.032  1.00  0.00    -0.020 C 
ATOM      7  C   UNL     1       7.604   3.689  -1.888  1.00  0.00     0.016 C 
ATOM      8  C   UNL     1       8.198   2.322  -1.582  1.00  0.00     0.023 C 
ATOM      9  C   UNL     1       7.545   1.400  -2.653  1.00  0.00    -0.025 C 
ATOM     10  C   UNL     1       8.399   1.443  -3.950  1.00  0.00     0.012 C 
ATOM     11  C   UNL     1       7.481  -0.087  -2.221  1.00  0.00     0.012 C 
ATOM     12  C   UNL     1       7.782   1.956  -0.159  1.00  0.00    -0.045 C 
ATOM     13  C   UNL     1       8.660   1.355   0.658  1.00  0.00     0.011 C 
ATOM     14  C   UNL     1       6.355   2.223   0.326  1.00  0.00     0.140 C 
ATOM     15  C   UNL     1       5.542   3.181  -0.594  1.00  0.00     0.044 C 
ENDROOT
BRANCH  14  16
ATOM     16  O   UNL     1       5.659   1.010   0.455  1.00  0.00    -0.389 OA
ATOM     17  H   UNL     1       6.325   0.311   0.687  1.00  0.00     0.211 HD
ENDBRANCH  14  16
TORSDOF 1
ENDMDL
MODEL 6
REMARK VINA RESULT:    -4.159      2.058      4.205
REMARK INTER + INTRA:          -4.281
REMARK INTER:                  -4.281
REMARK INTRA:                   0.000
REMARK UNBOUND:                 0.000
REMARK SMILES C=C1[C@H](O)C[C@@]23C[C@@H]1C(C)(C)[C@@H]2CC[C@@H]3C
REMARK SMILES IDX 16 1 15 2 14 3 13 4 12 5 6 6 7 7 8 8 9 9 10 10 11 11 2 12
REMARK SMILES IDX 1 13 3 14 5 15 4 16
REMARK H PARENT 4 17
REMARK Flexibility Score: inf
ROOT
ATOM      1  C   UNL     1       5.026   4.119  -3.015  1.00  0.00     0.008 C 
ATOM      2  C   UNL     1       5.467   2.648  -2.924  1.00  0.00    -0.008 C 
ATOM      3  C   UNL     1       6.366   2.266  -4.106  1.00  0.00     0.004 C 
ATOM      4  C   UNL     1       7.785   2.301  -3.570  1.00  0.00     0.005 C 
ATOM      5  C   UNL     1       7.666   1.801  -2.124  1.00  0.00     0.002 C 
ATOM      6  C   UNL     1       6.273   2.263  -1.640  1.00  0.00    -0.020 C 
ATOM      7  C   UNL     1       6.579   3.386  -0.639  1.00  0.00     0.016 C 
ATOM      8  C   UNL     1       7.789   2.822   0.090  1.00  0.00     0.023 C 
ATOM      9  C   UNL     1       8.703   2.321  -1.066  1.00  0.00    -0.025 C 
ATOM     10  C   UNL     1       9.590   3.498  -1.558  1.00  0.00     0.012 C 
ATOM     11  C   UNL     1       9.673   1.193  -0.633  1.00  0.00     0.012 C 
ATOM     12  C   UNL     1       7.291   1.685   0.980  1.00  0.00    -0.045 C 
ATOM     13  C   UNL     1       7.794   1.536   2.215  1.00  0.00     0.011 C 
ATOM     14  C   UNL     1       6.261   0.682   0.456  1.00  0.00     0.140 C 
ATOM     15  C   UNL     1       5.546   1.133  -0.852  1.00  0.00     0.044 C 
ENDROOT
BRANCH  14  16
ATOM     16  O   UNL     1       6.873  -0.564   0.238  1.00  0.00    -0.389 OA
ATOM     17  H   UNL     1       7.828  -0.471   0.490  1.00  0.00     0.211 HD
ENDBRANCH  14  16
TORSDOF 1
ENDMDL
MODEL 7
REMARK VINA RESULT:    -4.146      1.705      3.448
REMARK INTER + INTRA:          -4.267
REMARK INTER:                  -4.267
REMARK INTRA:                   0.000
REMARK UNBOUND:                 0.000
REMARK SMILES C=C1[C@H](O)C[C@@]23C[C@@H]1C(C)(C)[C@@H]2CC[C@@H]3C
REMARK SMILES IDX 16 1 15 2 14 3 13 4 12 5 6 6 7 7 8 8 9 9 10 10 11 11 2 12
REMARK SMILES IDX 1 13 3 14 5 15 4 16
REMARK H PARENT 4 17
REMARK Flexibility Score: inf
ROOT
ATOM      1  C   UNL     1       7.914   1.594   2.671  1.00  0.00     0.008 C 
ATOM      2  C   UNL     1       8.581   1.447   1.292  1.00  0.00    -0.008 C 
ATOM      3  C   UNL     1       8.991  -0.007   1.028  1.00  0.00     0.004 C 
ATOM      4  C   UNL     1       7.919  -0.577   0.119  1.00  0.00     0.005 C 
ATOM      5  C   UNL     1       7.519   0.592  -0.790  1.00  0.00     0.002 C 
ATOM      6  C   UNL     1       7.701   1.865   0.068  1.00  0.00    -0.020 C 
ATOM      7  C   UNL     1       6.266   2.327   0.360  1.00  0.00     0.016 C 
ATOM      8  C   UNL     1       5.588   2.075  -0.979  1.00  0.00     0.023 C 
ATOM      9  C   UNL     1       6.054   0.636  -1.351  1.00  0.00    -0.025 C 
ATOM     10  C   UNL     1       5.086  -0.393  -0.705  1.00  0.00     0.012 C 
ATOM     11  C   UNL     1       6.030   0.362  -2.876  1.00  0.00     0.012 C 
ATOM     12  C   UNL     1       6.105   3.130  -1.954  1.00  0.00    -0.045 C 
ATOM     13  C   UNL     1       5.261   3.704  -2.825  1.00  0.00     0.011 C 
ATOM     14  C   UNL     1       7.590   3.502  -1.981  1.00  0.00     0.140 C 
ATOM     15  C   UNL     1       8.392   3.001  -0.744  1.00  0.00     0.044 C 
ENDROOT
BRANCH  14  16
ATOM     16  O   UNL     1       8.188   2.999  -3.149  1.00  0.00    -0.389 OA
ATOM     17  H   UNL     1       8.145   2.009  -3.099  1.00  0.00     0.211 HD
ENDBRANCH  14  16
TORSDOF 1
ENDMDL
MODEL 8
REMARK VINA RESULT:    -4.097      9.155     11.180
REMARK INTER + INTRA:          -4.217
REMARK INTER:                  -4.217
REMARK INTRA:                   0.000
REMARK UNBOUND:                 0.000
REMARK SMILES C=C1[C@H](O)C[C@@]23C[C@@H]1C(C)(C)[C@@H]2CC[C@@H]3C
REMARK SMILES IDX 16 1 15 2 14 3 13 4 12 5 6 6 7 7 8 8 9 9 10 10 11 11 2 12
REMARK SMILES IDX 1 13 3 14 5 15 4 16
REMARK H PARENT 4 17
REMARK Flexibility Score: inf
ROOT
ATOM      1  C   UNL     1      -1.142   9.268  -1.109  1.00  0.00     0.008 C 
ATOM      2  C   UNL     1      -1.657   8.058  -0.310  1.00  0.00    -0.008 C 
ATOM      3  C   UNL     1      -2.947   8.403   0.445  1.00  0.00     0.004 C 
ATOM      4  C   UNL     1      -4.075   7.820  -0.385  1.00  0.00     0.005 C 
ATOM      5  C   UNL     1      -3.501   6.520  -0.963  1.00  0.00     0.002 C 
ATOM      6  C   UNL     1      -1.989   6.784  -1.153  1.00  0.00    -0.020 C 
ATOM      7  C   UNL     1      -1.817   6.884  -2.675  1.00  0.00     0.016 C 
ATOM      8  C   UNL     1      -2.738   5.774  -3.159  1.00  0.00     0.023 C 
ATOM      9  C   UNL     1      -4.044   6.012  -2.345  1.00  0.00    -0.025 C 
ATOM     10  C   UNL     1      -4.934   7.036  -3.102  1.00  0.00     0.012 C 
ATOM     11  C   UNL     1      -4.899   4.731  -2.174  1.00  0.00     0.012 C 
ATOM     12  C   UNL     1      -2.066   4.446  -2.816  1.00  0.00    -0.045 C 
ATOM     13  C   UNL     1      -2.113   3.430  -3.690  1.00  0.00     0.011 C 
ATOM     14  C   UNL     1      -1.385   4.248  -1.460  1.00  0.00     0.140 C 
ATOM     15  C   UNL     1      -1.139   5.570  -0.674  1.00  0.00     0.044 C 
ENDROOT
BRANCH  14  16
ATOM     16  O   UNL     1      -2.148   3.376  -0.663  1.00  0.00    -0.389 OA
ATOM     17  H   UNL     1      -1.513   2.773  -0.197  1.00  0.00     0.211 HD
ENDBRANCH  14  16
TORSDOF 1
ENDMDL
MODEL 9
REMARK VINA RESULT:    -4.079      2.298      3.739
REMARK INTER + INTRA:          -4.198
REMARK INTER:                  -4.198
REMARK INTRA:                   0.000
REMARK UNBOUND:                 0.000
REMARK SMILES C=C1[C@H](O)C[C@@]23C[C@@H]1C(C)(C)[C@@H]2CC[C@@H]3C
REMARK SMILES IDX 16 1 15 2 14 3 13 4 12 5 6 6 7 7 8 8 9 9 10 10 11 11 2 12
REMARK SMILES IDX 1 13 3 14 5 15 4 16
REMARK H PARENT 4 17
REMARK Flexibility Score: inf
ROOT
ATOM      1  C   UNL     1       7.523   2.242   1.285  1.00  0.00     0.008 C 
ATOM      2  C   UNL     1       6.223   2.003   0.498  1.00  0.00    -0.008 C 
ATOM      3  C   UNL     1       5.587   3.330   0.065  1.00  0.00     0.004 C 
ATOM      4  C   UNL     1       5.959   3.506  -1.395  1.00  0.00     0.005 C 
ATOM      5  C   UNL     1       5.943   2.085  -1.974  1.00  0.00     0.002 C 
ATOM      6  C   UNL     1       6.370   1.160  -0.811  1.00  0.00    -0.020 C 
ATOM      7  C   UNL     1       7.784   0.704  -1.198  1.00  0.00     0.016 C 
ATOM      8  C   UNL     1       7.631   0.476  -2.694  1.00  0.00     0.023 C 
ATOM      9  C   UNL     1       6.894   1.758  -3.179  1.00  0.00    -0.025 C 
ATOM     10  C   UNL     1       7.943   2.861  -3.489  1.00  0.00     0.012 C 
ATOM     11  C   UNL     1       6.088   1.542  -4.485  1.00  0.00     0.012 C 
ATOM     12  C   UNL     1       6.794  -0.788  -2.875  1.00  0.00    -0.045 C 
ATOM     13  C   UNL     1       7.112  -1.666  -3.839  1.00  0.00     0.011 C 
ATOM     14  C   UNL     1       5.562  -1.036  -2.001  1.00  0.00     0.140 C 
ATOM     15  C   UNL     1       5.479  -0.116  -0.747  1.00  0.00     0.044 C 
ENDROOT
BRANCH  14  16
ATOM     16  O   UNL     1       4.393  -0.877  -2.764  1.00  0.00    -0.389 OA
ATOM     17  H   UNL     1       3.675  -0.582  -2.146  1.00  0.00     0.211 HD
ENDBRANCH  14  16
TORSDOF 1
ENDMDL
