MODEL 1
REMARK VINA RESULT:    -6.263      0.000      0.000
REMARK INTER + INTRA:          -6.263
REMARK INTER:                  -6.263
REMARK INTRA:                   0.000
REMARK UNBOUND:                 0.000
REMARK SMILES O=c1ccc2ccccc2o1
REMARK SMILES IDX 7 1 8 2 9 3 10 4 5 5 6 6 4 7 3 8 2 9 1 10 11 11
REMARK H PARENT
REMARK Flexibility Score: inf
ROOT
ATOM      1  C   UNL     1      17.990  29.613  21.002  1.00  0.00     0.001 A 
ATOM      2  C   UNL     1      19.104  28.868  21.398  1.00  0.00     0.004 A 
ATOM      3  C   UNL     1      19.850  29.257  22.517  1.00  0.00     0.048 A 
ATOM      4  C   UNL     1      19.480  30.394  23.243  1.00  0.00     0.138 A 
ATOM      5  C   UNL     1      18.354  31.148  22.843  1.00  0.00     0.018 A 
ATOM      6  C   UNL     1      17.612  30.752  21.721  1.00  0.00     0.012 A 
ATOM      7  C   UNL     1      18.010  32.280  23.588  1.00  0.00     0.019 A 
ATOM      8  C   UNL     1      18.782  32.630  24.696  1.00  0.00     0.094 A 
ATOM      9  C   UNL     1      19.884  31.836  25.033  1.00  0.00     0.336 A 
ATOM     10  O   UNL     1      20.592  32.137  26.030  1.00  0.00    -0.246 OA
ATOM     11  O   UNL     1      20.190  30.764  24.307  1.00  0.00    -0.423 OA
ENDROOT
TORSDOF 0
ENDMDL
MODEL 2
REMARK VINA RESULT:    -6.112      1.690      4.068
REMARK INTER + INTRA:          -6.112
REMARK INTER:                  -6.112
REMARK INTRA:                   0.000
REMARK UNBOUND:                 0.000
REMARK SMILES O=c1ccc2ccccc2o1
REMARK SMILES IDX 7 1 8 2 9 3 10 4 5 5 6 6 4 7 3 8 2 9 1 10 11 11
REMARK H PARENT
REMARK Flexibility Score: inf
ROOT
ATOM      1  C   UNL     1      19.124  32.680  26.874  1.00  0.00     0.001 A 
ATOM      2  C   UNL     1      19.610  31.474  27.387  1.00  0.00     0.004 A 
ATOM      3  C   UNL     1      19.828  30.383  26.536  1.00  0.00     0.048 A 
ATOM      4  C   UNL     1      19.559  30.498  25.168  1.00  0.00     0.138 A 
ATOM      5  C   UNL     1      19.067  31.717  24.649  1.00  0.00     0.018 A 
ATOM      6  C   UNL     1      18.851  32.805  25.507  1.00  0.00     0.012 A 
ATOM      7  C   UNL     1      18.807  31.801  23.278  1.00  0.00     0.019 A 
ATOM      8  C   UNL     1      19.038  30.689  22.468  1.00  0.00     0.094 A 
ATOM      9  C   UNL     1      19.527  29.515  23.052  1.00  0.00     0.336 A 
ATOM     10  O   UNL     1      19.742  28.501  22.337  1.00  0.00    -0.246 OA
ATOM     11  O   UNL     1      19.766  29.461  24.360  1.00  0.00    -0.423 OA
ENDROOT
TORSDOF 0
ENDMDL
MODEL 3
REMARK VINA RESULT:    -6.072      1.999      4.057
REMARK INTER + INTRA:          -6.072
REMARK INTER:                  -6.072
REMARK INTRA:                   0.000
REMARK UNBOUND:                 0.000
REMARK SMILES O=c1ccc2ccccc2o1
REMARK SMILES IDX 7 1 8 2 9 3 10 4 5 5 6 6 4 7 3 8 2 9 1 10 11 11
REMARK H PARENT
REMARK Flexibility Score: inf
ROOT
ATOM      1  C   UNL     1      17.992  31.898  23.830  1.00  0.00     0.001 A 
ATOM      2  C   UNL     1      19.239  31.479  24.304  1.00  0.00     0.004 A 
ATOM      3  C   UNL     1      19.944  30.470  23.637  1.00  0.00     0.048 A 
ATOM      4  C   UNL     1      19.401  29.878  22.492  1.00  0.00     0.138 A 
ATOM      5  C   UNL     1      18.140  30.300  22.013  1.00  0.00     0.018 A 
ATOM      6  C   UNL     1      17.440  31.311  22.687  1.00  0.00     0.012 A 
ATOM      7  C   UNL     1      17.623  29.688  20.867  1.00  0.00     0.019 A 
ATOM      8  C   UNL     1      18.359  28.686  20.235  1.00  0.00     0.094 A 
ATOM      9  C   UNL     1      19.601  28.320  20.766  1.00  0.00     0.336 A 
ATOM     10  O   UNL     1      20.280  27.418  20.208  1.00  0.00    -0.246 OA
ATOM     11  O   UNL     1      20.071  28.918  21.858  1.00  0.00    -0.423 OA
ENDROOT
TORSDOF 0
ENDMDL
MODEL 4
REMARK VINA RESULT:    -6.048      1.931      4.214
REMARK INTER + INTRA:          -6.048
REMARK INTER:                  -6.048
REMARK INTRA:                   0.000
REMARK UNBOUND:                 0.000
REMARK SMILES O=c1ccc2ccccc2o1
REMARK SMILES IDX 7 1 8 2 9 3 10 4 5 5 6 6 4 7 3 8 2 9 1 10 11 11
REMARK H PARENT
REMARK Flexibility Score: inf
ROOT
ATOM      1  C   UNL     1      19.077  31.731  26.258  1.00  0.00     0.001 A 
ATOM      2  C   UNL     1      19.584  32.560  25.252  1.00  0.00     0.004 A 
ATOM      3  C   UNL     1      19.735  32.073  23.949  1.00  0.00     0.048 A 
ATOM      4  C   UNL     1      19.378  30.754  23.649  1.00  0.00     0.138 A 
ATOM      5  C   UNL     1      18.866  29.916  24.665  1.00  0.00     0.018 A 
ATOM      6  C   UNL     1      18.718  30.411  25.969  1.00  0.00     0.012 A 
ATOM      7  C   UNL     1      18.520  28.603  24.335  1.00  0.00     0.019 A 
ATOM      8  C   UNL     1      18.688  28.160  23.023  1.00  0.00     0.094 A 
ATOM      9  C   UNL     1      19.200  29.046  22.068  1.00  0.00     0.336 A 
ATOM     10  O   UNL     1      19.358  28.664  20.879  1.00  0.00    -0.246 OA
ATOM     11  O   UNL     1      19.522  30.292  22.409  1.00  0.00    -0.423 OA
ENDROOT
TORSDOF 0
ENDMDL
MODEL 5
REMARK VINA RESULT:    -6.021      2.093      4.209
REMARK INTER + INTRA:          -6.021
REMARK INTER:                  -6.021
REMARK INTRA:                   0.000
REMARK UNBOUND:                 0.000
REMARK SMILES O=c1ccc2ccccc2o1
REMARK SMILES IDX 7 1 8 2 9 3 10 4 5 5 6 6 4 7 3 8 2 9 1 10 11 11
REMARK H PARENT
REMARK Flexibility Score: inf
ROOT
ATOM      1  C   UNL     1      19.129  32.776  26.424  1.00  0.00     0.001 A 
ATOM      2  C   UNL     1      19.114  31.623  27.214  1.00  0.00     0.004 A 
ATOM      3  C   UNL     1      18.841  30.377  26.637  1.00  0.00     0.048 A 
ATOM      4  C   UNL     1      18.582  30.283  25.266  1.00  0.00     0.138 A 
ATOM      5  C   UNL     1      18.596  31.448  24.466  1.00  0.00     0.018 A 
ATOM      6  C   UNL     1      18.870  32.693  25.051  1.00  0.00     0.012 A 
ATOM      7  C   UNL     1      18.333  31.323  23.099  1.00  0.00     0.019 A 
ATOM      8  C   UNL     1      18.065  30.061  22.567  1.00  0.00     0.094 A 
ATOM      9  C   UNL     1      18.068  28.951  23.419  1.00  0.00     0.336 A 
ATOM     10  O   UNL     1      17.829  27.805  22.957  1.00  0.00    -0.246 OA
ATOM     11  O   UNL     1      18.322  29.098  24.717  1.00  0.00    -0.423 OA
ENDROOT
TORSDOF 0
ENDMDL
MODEL 6
REMARK VINA RESULT:    -5.811      1.785      2.813
REMARK INTER + INTRA:          -5.811
REMARK INTER:                  -5.811
REMARK INTRA:                   0.000
REMARK UNBOUND:                 0.000
REMARK SMILES O=c1ccc2ccccc2o1
REMARK SMILES IDX 7 1 8 2 9 3 10 4 5 5 6 6 4 7 3 8 2 9 1 10 11 11
REMARK H PARENT
REMARK Flexibility Score: inf
ROOT
ATOM      1  C   UNL     1      18.280  29.799  22.985  1.00  0.00     0.001 A 
ATOM      2  C   UNL     1      18.120  31.119  22.551  1.00  0.00     0.004 A 
ATOM      3  C   UNL     1      18.298  32.181  23.445  1.00  0.00     0.048 A 
ATOM      4  C   UNL     1      18.638  31.924  24.777  1.00  0.00     0.138 A 
ATOM      5  C   UNL     1      18.800  30.591  25.217  1.00  0.00     0.018 A 
ATOM      6  C   UNL     1      18.619  29.532  24.315  1.00  0.00     0.012 A 
ATOM      7  C   UNL     1      19.139  30.366  26.554  1.00  0.00     0.019 A 
ATOM      8  C   UNL     1      19.306  31.455  27.410  1.00  0.00     0.094 A 
ATOM      9  C   UNL     1      19.130  32.748  26.905  1.00  0.00     0.336 A 
ATOM     10  O   UNL     1      19.277  33.743  27.662  1.00  0.00    -0.246 OA
ATOM     11  O   UNL     1      18.807  32.935  25.627  1.00  0.00    -0.423 OA
ENDROOT
TORSDOF 0
ENDMDL
MODEL 7
REMARK VINA RESULT:    -5.809      1.737      1.824
REMARK INTER + INTRA:          -5.809
REMARK INTER:                  -5.809
REMARK INTRA:                   0.000
REMARK UNBOUND:                 0.000
REMARK SMILES O=c1ccc2ccccc2o1
REMARK SMILES IDX 7 1 8 2 9 3 10 4 5 5 6 6 4 7 3 8 2 9 1 10 11 11
REMARK H PARENT
REMARK Flexibility Score: inf
ROOT
ATOM      1  C   UNL     1      18.475  29.088  21.840  1.00  0.00     0.001 A 
ATOM      2  C   UNL     1      18.032  28.144  22.771  1.00  0.00     0.004 A 
ATOM      3  C   UNL     1      18.021  28.452  24.136  1.00  0.00     0.048 A 
ATOM      4  C   UNL     1      18.453  29.709  24.573  1.00  0.00     0.138 A 
ATOM      5  C   UNL     1      18.901  30.664  23.632  1.00  0.00     0.018 A 
ATOM      6  C   UNL     1      18.909  30.347  22.266  1.00  0.00     0.012 A 
ATOM      7  C   UNL     1      19.327  31.911  24.098  1.00  0.00     0.019 A 
ATOM      8  C   UNL     1      19.300  32.175  25.468  1.00  0.00     0.094 A 
ATOM      9  C   UNL     1      18.843  31.181  26.341  1.00  0.00     0.336 A 
ATOM     10  O   UNL     1      18.811  31.402  27.580  1.00  0.00    -0.246 OA
ATOM     11  O   UNL     1      18.443  30.003  25.871  1.00  0.00    -0.423 OA
ENDROOT
TORSDOF 0
ENDMDL
MODEL 8
REMARK VINA RESULT:    -5.764      1.774      2.072
REMARK INTER + INTRA:          -5.764
REMARK INTER:                  -5.764
REMARK INTRA:                   0.000
REMARK UNBOUND:                 0.000
REMARK SMILES O=c1ccc2ccccc2o1
REMARK SMILES IDX 7 1 8 2 9 3 10 4 5 5 6 6 4 7 3 8 2 9 1 10 11 11
REMARK H PARENT
REMARK Flexibility Score: inf
ROOT
ATOM      1  C   UNL     1      16.971  27.770  22.289  1.00  0.00     0.001 A 
ATOM      2  C   UNL     1      17.562  28.449  21.218  1.00  0.00     0.004 A 
ATOM      3  C   UNL     1      18.412  29.536  21.456  1.00  0.00     0.048 A 
ATOM      4  C   UNL     1      18.672  29.946  22.768  1.00  0.00     0.138 A 
ATOM      5  C   UNL     1      18.075  29.261  23.850  1.00  0.00     0.018 A 
ATOM      6  C   UNL     1      17.225  28.173  23.604  1.00  0.00     0.012 A 
ATOM      7  C   UNL     1      18.354  29.696  25.149  1.00  0.00     0.019 A 
ATOM      8  C   UNL     1      19.206  30.784  25.339  1.00  0.00     0.094 A 
ATOM      9  C   UNL     1      19.761  31.413  24.220  1.00  0.00     0.336 A 
ATOM     10  O   UNL     1      20.533  32.397  24.372  1.00  0.00    -0.246 OA
ATOM     11  O   UNL     1      19.480  30.980  22.993  1.00  0.00    -0.423 OA
ENDROOT
TORSDOF 0
ENDMDL
MODEL 9
REMARK VINA RESULT:    -5.232     11.635     12.771
REMARK INTER + INTRA:          -5.232
REMARK INTER:                  -5.232
REMARK INTRA:                   0.000
REMARK UNBOUND:                 0.000
REMARK SMILES O=c1ccc2ccccc2o1
REMARK SMILES IDX 7 1 8 2 9 3 10 4 5 5 6 6 4 7 3 8 2 9 1 10 11 11
REMARK H PARENT
REMARK Flexibility Score: inf
ROOT
ATOM      1  C   UNL     1      26.877  22.110  15.602  1.00  0.00     0.001 A 
ATOM      2  C   UNL     1      28.150  22.221  16.170  1.00  0.00     0.004 A 
ATOM      3  C   UNL     1      28.309  22.166  17.560  1.00  0.00     0.048 A 
ATOM      4  C   UNL     1      27.192  21.999  18.385  1.00  0.00     0.138 A 
ATOM      5  C   UNL     1      25.905  21.887  17.812  1.00  0.00     0.018 A 
ATOM      6  C   UNL     1      25.754  21.944  16.419  1.00  0.00     0.012 A 
ATOM      7  C   UNL     1      24.808  21.722  18.663  1.00  0.00     0.019 A 
ATOM      8  C   UNL     1      25.013  21.673  20.042  1.00  0.00     0.094 A 
ATOM      9  C   UNL     1      26.316  21.790  20.538  1.00  0.00     0.336 A 
ATOM     10  O   UNL     1      26.520  21.747  21.780  1.00  0.00    -0.246 OA
ATOM     11  O   UNL     1      27.343  21.946  19.707  1.00  0.00    -0.423 OA
ENDROOT
TORSDOF 0
ENDMDL
