MODEL 1
REMARK VINA RESULT:    -3.496      0.000      0.000
REMARK INTER + INTRA:          -6.092
REMARK INTER:                  -5.335
REMARK INTRA:                  -0.756
REMARK UNBOUND:                -0.756
REMARK SMILES O=C([O-])CCCCCCCCC(=O)[O-]
REMARK SMILES IDX 7 1 6 2 5 3 4 4 2 5 1 6 3 7 8 8 9 9 10 10 11 11 12 12 13 13
REMARK SMILES IDX 14 14
REMARK H PARENT
REMARK Flexibility Score: inf
ROOT
ATOM      1  C   UNL     1      -1.178   7.088  -1.513  1.00  0.00     0.000 C 
ENDROOT
BRANCH   1   2
ATOM      2  C   UNL     1      -1.243   7.772  -0.131  1.00  0.00     0.000 C 
BRANCH   2   3
ATOM      3  C   UNL     1      -2.051   9.080  -0.127  1.00  0.00     0.006 C 
BRANCH   3   4
ATOM      4  C   UNL     1      -2.268   9.643   1.282  1.00  0.00     0.053 C 
BRANCH   4   5
ATOM      5  C   UNL     1      -3.604  10.310   1.378  1.00  0.00     0.041 C 
ATOM      6  O   UNL     1      -4.175  10.738   0.341  1.00  0.00    -0.550 OA
ATOM      7  O   UNL     1      -4.241  10.415   2.608  1.00  0.00    -0.550 OA
ENDBRANCH   4   5
ENDBRANCH   3   4
ENDBRANCH   2   3
ENDBRANCH   1   2
BRANCH   1   8
ATOM      8  C   UNL     1      -1.187   8.104  -2.665  1.00  0.00     0.000 C 
BRANCH   8   9
ATOM      9  C   UNL     1      -1.926   7.542  -3.889  1.00  0.00     0.000 C 
BRANCH   9  10
ATOM     10  C   UNL     1      -3.139   8.393  -4.292  1.00  0.00     0.006 C 
BRANCH  10  11
ATOM     11  C   UNL     1      -4.470   7.772  -3.847  1.00  0.00     0.053 C 
BRANCH  11  12
ATOM     12  C   UNL     1      -4.954   8.421  -2.588  1.00  0.00     0.041 C 
ATOM     13  O   UNL     1      -5.321   9.626  -2.597  1.00  0.00    -0.550 OA
ATOM     14  O   UNL     1      -4.954   7.711  -1.395  1.00  0.00    -0.550 OA
ENDBRANCH  11  12
ENDBRANCH  10  11
ENDBRANCH   9  10
ENDBRANCH   8   9
ENDBRANCH   1   8
TORSDOF 9
ENDMDL
MODEL 2
REMARK VINA RESULT:    -3.444      1.847      3.125
REMARK INTER + INTRA:          -6.013
REMARK INTER:                  -5.089
REMARK INTRA:                  -0.924
REMARK UNBOUND:                -0.756
REMARK SMILES O=C([O-])CCCCCCCCC(=O)[O-]
REMARK SMILES IDX 7 1 6 2 5 3 4 4 2 5 1 6 3 7 8 8 9 9 10 10 11 11 12 12 13 13
REMARK SMILES IDX 14 14
REMARK H PARENT
REMARK Flexibility Score: inf
ROOT
ATOM      1  C   UNL     1      -1.577   8.245   0.415  1.00  0.00     0.000 C 
ENDROOT
BRANCH   1   2
ATOM      2  C   UNL     1      -2.278   9.513   0.949  1.00  0.00     0.000 C 
BRANCH   2   3
ATOM      3  C   UNL     1      -3.787   9.553   0.657  1.00  0.00     0.006 C 
BRANCH   3   4
ATOM      4  C   UNL     1      -4.114  10.146  -0.719  1.00  0.00     0.053 C 
BRANCH   4   5
ATOM      5  C   UNL     1      -4.829   9.140  -1.564  1.00  0.00     0.041 C 
ATOM      6  O   UNL     1      -4.840   7.925  -1.233  1.00  0.00    -0.550 OA
ATOM      7  O   UNL     1      -5.525   9.552  -2.694  1.00  0.00    -0.550 OA
ENDBRANCH   4   5
ENDBRANCH   3   4
ENDBRANCH   2   3
ENDBRANCH   1   2
BRANCH   1   8
ATOM      8  C   UNL     1      -0.912   8.479  -0.949  1.00  0.00     0.000 C 
BRANCH   8   9
ATOM      9  C   UNL     1      -1.456   7.502  -2.002  1.00  0.00     0.000 C 
BRANCH   9  10
ATOM     10  C   UNL     1      -1.094   7.914  -3.437  1.00  0.00     0.006 C 
BRANCH  10  11
ATOM     11  C   UNL     1      -2.313   8.381  -4.243  1.00  0.00     0.053 C 
BRANCH  11  12
ATOM     12  C   UNL     1      -3.103   7.203  -4.722  1.00  0.00     0.041 C 
ATOM     13  O   UNL     1      -4.344   7.147  -4.514  1.00  0.00    -0.550 OA
ATOM     14  O   UNL     1      -2.463   6.146  -5.355  1.00  0.00    -0.550 OA
ENDBRANCH  11  12
ENDBRANCH  10  11
ENDBRANCH   9  10
ENDBRANCH   8   9
ENDBRANCH   1   8
TORSDOF 9
ENDMDL
MODEL 3
REMARK VINA RESULT:    -3.346      3.171      5.938
REMARK INTER + INTRA:          -5.864
REMARK INTER:                  -5.149
REMARK INTRA:                  -0.714
REMARK UNBOUND:                -0.756
REMARK SMILES O=C([O-])CCCCCCCCC(=O)[O-]
REMARK SMILES IDX 7 1 6 2 5 3 4 4 2 5 1 6 3 7 8 8 9 9 10 10 11 11 12 12 13 13
REMARK SMILES IDX 14 14
REMARK H PARENT
REMARK Flexibility Score: inf
ROOT
ATOM      1  C   UNL     1      -3.297   7.927  -4.152  1.00  0.00     0.000 C 
ENDROOT
BRANCH   1   2
ATOM      2  C   UNL     1      -3.080   6.637  -4.970  1.00  0.00     0.000 C 
BRANCH   2   3
ATOM      3  C   UNL     1      -1.658   6.498  -5.538  1.00  0.00     0.006 C 
BRANCH   3   4
ATOM      4  C   UNL     1      -0.875   5.338  -4.912  1.00  0.00     0.053 C 
BRANCH   4   5
ATOM      5  C   UNL     1      -1.300   4.036  -5.513  1.00  0.00     0.041 C 
ATOM      6  O   UNL     1      -1.683   3.986  -6.712  1.00  0.00    -0.550 OA
ATOM      7  O   UNL     1      -1.228   2.868  -4.764  1.00  0.00    -0.550 OA
ENDBRANCH   4   5
ENDBRANCH   3   4
ENDBRANCH   2   3
ENDBRANCH   1   2
BRANCH   1   8
ATOM      8  C   UNL     1      -2.027   8.788  -4.076  1.00  0.00     0.000 C 
BRANCH   8   9
ATOM      9  C   UNL     1      -1.529   8.908  -2.629  1.00  0.00     0.000 C 
BRANCH   9  10
ATOM     10  C   UNL     1      -2.129   7.838  -1.704  1.00  0.00     0.006 C 
BRANCH  10  11
ATOM     11  C   UNL     1      -2.618   8.418  -0.369  1.00  0.00     0.053 C 
BRANCH  11  12
ATOM     12  C   UNL     1      -4.013   8.942  -0.508  1.00  0.00     0.041 C 
ATOM     13  O   UNL     1      -4.327  10.051   0.000  1.00  0.00    -0.550 OA
ATOM     14  O   UNL     1      -4.979   8.184  -1.156  1.00  0.00    -0.550 OA
ENDBRANCH  11  12
ENDBRANCH  10  11
ENDBRANCH   9  10
ENDBRANCH   8   9
ENDBRANCH   1   8
TORSDOF 9
ENDMDL
MODEL 4
REMARK VINA RESULT:    -3.307      1.757      4.664
REMARK INTER + INTRA:          -5.804
REMARK INTER:                  -4.997
REMARK INTRA:                  -0.807
REMARK UNBOUND:                -0.756
REMARK SMILES O=C([O-])CCCCCCCCC(=O)[O-]
REMARK SMILES IDX 7 1 6 2 5 3 4 4 2 5 1 6 3 7 8 8 9 9 10 10 11 11 12 12 13 13
REMARK SMILES IDX 14 14
REMARK H PARENT
REMARK Flexibility Score: inf
ROOT
ATOM      1  C   UNL     1      -1.623   7.966  -0.074  1.00  0.00     0.000 C 
ENDROOT
BRANCH   1   2
ATOM      2  C   UNL     1      -1.095   8.457  -1.440  1.00  0.00     0.000 C 
BRANCH   2   3
ATOM      3  C   UNL     1      -1.500   7.556  -2.618  1.00  0.00     0.006 C 
BRANCH   3   4
ATOM      4  C   UNL     1      -2.211   8.322  -3.739  1.00  0.00     0.053 C 
BRANCH   4   5
ATOM      5  C   UNL     1      -3.162   7.424  -4.465  1.00  0.00     0.041 C 
ATOM      6  O   UNL     1      -2.726   6.509  -5.212  1.00  0.00    -0.550 OA
ATOM      7  O   UNL     1      -4.531   7.566  -4.278  1.00  0.00    -0.550 OA
ENDBRANCH   4   5
ENDBRANCH   3   4
ENDBRANCH   2   3
ENDBRANCH   1   2
BRANCH   1   8
ATOM      8  C   UNL     1      -1.120   8.834   1.089  1.00  0.00     0.000 C 
BRANCH   8   9
ATOM      9  C   UNL     1      -2.149   9.913   1.457  1.00  0.00     0.000 C 
BRANCH   9  10
ATOM     10  C   UNL     1      -3.557   9.592   0.932  1.00  0.00     0.006 C 
BRANCH  10  11
ATOM     11  C   UNL     1      -4.000  10.541  -0.189  1.00  0.00     0.053 C 
BRANCH  11  12
ATOM     12  C   UNL     1      -4.643   9.772  -1.300  1.00  0.00     0.041 C 
ATOM     13  O   UNL     1      -4.944   8.559  -1.139  1.00  0.00    -0.550 OA
ATOM     14  O   UNL     1      -4.866  10.378  -2.529  1.00  0.00    -0.550 OA
ENDBRANCH  11  12
ENDBRANCH  10  11
ENDBRANCH   9  10
ENDBRANCH   8   9
ENDBRANCH   1   8
TORSDOF 9
ENDMDL
MODEL 5
REMARK VINA RESULT:    -3.241      3.005      3.925
REMARK INTER + INTRA:          -5.703
REMARK INTER:                  -5.108
REMARK INTRA:                  -0.595
REMARK UNBOUND:                -0.756
REMARK SMILES O=C([O-])CCCCCCCCC(=O)[O-]
REMARK SMILES IDX 7 1 6 2 5 3 4 4 2 5 1 6 3 7 8 8 9 9 10 10 11 11 12 12 13 13
REMARK SMILES IDX 14 14
REMARK H PARENT
REMARK Flexibility Score: inf
ROOT
ATOM      1  C   UNL     1      -4.639   7.888  -2.681  1.00  0.00     0.000 C 
ENDROOT
BRANCH   1   2
ATOM      2  C   UNL     1      -5.052   9.355  -2.437  1.00  0.00     0.000 C 
BRANCH   2   3
ATOM      3  C   UNL     1      -4.204  10.065  -1.368  1.00  0.00     0.006 C 
BRANCH   3   4
ATOM      4  C   UNL     1      -3.024   9.216  -0.881  1.00  0.00     0.053 C 
BRANCH   4   5
ATOM      5  C   UNL     1      -2.883   9.321   0.604  1.00  0.00     0.041 C 
ATOM      6  O   UNL     1      -1.844   8.895   1.175  1.00  0.00    -0.550 OA
ATOM      7  O   UNL     1      -3.877   9.934   1.355  1.00  0.00    -0.550 OA
ENDBRANCH   4   5
ENDBRANCH   3   4
ENDBRANCH   2   3
ENDBRANCH   1   2
BRANCH   1   8
ATOM      8  C   UNL     1      -4.231   7.635  -4.140  1.00  0.00     0.000 C 
BRANCH   8   9
ATOM      9  C   UNL     1      -3.078   8.560  -4.558  1.00  0.00     0.000 C 
BRANCH   9  10
ATOM     10  C   UNL     1      -1.942   7.809  -5.270  1.00  0.00     0.006 C 
BRANCH  10  11
ATOM     11  C   UNL     1      -1.838   6.342  -4.830  1.00  0.00     0.053 C 
BRANCH  11  12
ATOM     12  C   UNL     1      -1.589   5.460  -6.013  1.00  0.00     0.041 C 
ATOM     13  O   UNL     1      -1.114   5.943  -7.075  1.00  0.00    -0.550 OA
ATOM     14  O   UNL     1      -1.927   4.114  -5.961  1.00  0.00    -0.550 OA
ENDBRANCH  11  12
ENDBRANCH  10  11
ENDBRANCH   9  10
ENDBRANCH   8   9
ENDBRANCH   1   8
TORSDOF 9
ENDMDL
MODEL 6
REMARK VINA RESULT:    -3.240      3.785      4.972
REMARK INTER + INTRA:          -5.700
REMARK INTER:                  -5.303
REMARK INTRA:                  -0.398
REMARK UNBOUND:                -0.756
REMARK SMILES O=C([O-])CCCCCCCCC(=O)[O-]
REMARK SMILES IDX 7 1 6 2 5 3 4 4 2 5 1 6 3 7 8 8 9 9 10 10 11 11 12 12 13 13
REMARK SMILES IDX 14 14
REMARK H PARENT
REMARK Flexibility Score: inf
ROOT
ATOM      1  C   UNL     1      -2.849   7.585  -4.250  1.00  0.00     0.000 C 
ENDROOT
BRANCH   1   2
ATOM      2  C   UNL     1      -2.875   9.128  -4.271  1.00  0.00     0.000 C 
BRANCH   2   3
ATOM      3  C   UNL     1      -2.898   9.764  -2.871  1.00  0.00     0.006 C 
BRANCH   3   4
ATOM      4  C   UNL     1      -4.318   9.986  -2.339  1.00  0.00     0.053 C 
BRANCH   4   5
ATOM      5  C   UNL     1      -4.581   9.097  -1.165  1.00  0.00     0.041 C 
ATOM      6  O   UNL     1      -4.395   9.521   0.007  1.00  0.00    -0.550 OA
ATOM      7  O   UNL     1      -5.078   7.815  -1.362  1.00  0.00    -0.550 OA
ENDBRANCH   4   5
ENDBRANCH   3   4
ENDBRANCH   2   3
ENDBRANCH   1   2
BRANCH   1   8
ATOM      8  C   UNL     1      -1.422   7.029  -4.137  1.00  0.00     0.000 C 
BRANCH   8   9
ATOM      9  C   UNL     1      -1.072   6.159  -5.354  1.00  0.00     0.000 C 
BRANCH   9  10
ATOM     10  C   UNL     1      -2.110   5.056  -5.611  1.00  0.00     0.006 C 
BRANCH  10  11
ATOM     11  C   UNL     1      -1.577   3.945  -6.527  1.00  0.00     0.053 C 
BRANCH  11  12
ATOM     12  C   UNL     1      -1.331   2.695  -5.741  1.00  0.00     0.041 C 
ATOM     13  O   UNL     1      -1.268   2.740  -4.484  1.00  0.00    -0.550 OA
ATOM     14  O   UNL     1      -1.124   1.490  -6.398  1.00  0.00    -0.550 OA
ENDBRANCH  11  12
ENDBRANCH  10  11
ENDBRANCH   9  10
ENDBRANCH   8   9
ENDBRANCH   1   8
TORSDOF 9
ENDMDL
MODEL 7
REMARK VINA RESULT:    -3.185      3.675      6.312
REMARK INTER + INTRA:          -5.617
REMARK INTER:                  -5.112
REMARK INTRA:                  -0.505
REMARK UNBOUND:                -0.756
REMARK SMILES O=C([O-])CCCCCCCCC(=O)[O-]
REMARK SMILES IDX 7 1 6 2 5 3 4 4 2 5 1 6 3 7 8 8 9 9 10 10 11 11 12 12 13 13
REMARK SMILES IDX 14 14
REMARK H PARENT
REMARK Flexibility Score: inf
ROOT
ATOM      1  C   UNL     1      -1.804   7.045  -4.737  1.00  0.00     0.000 C 
ENDROOT
BRANCH   1   2
ATOM      2  C   UNL     1      -0.886   6.760  -5.944  1.00  0.00     0.000 C 
BRANCH   2   3
ATOM      3  C   UNL     1      -1.099   5.369  -6.566  1.00  0.00     0.006 C 
BRANCH   3   4
ATOM      4  C   UNL     1      -2.006   4.469  -5.720  1.00  0.00     0.053 C 
BRANCH   4   5
ATOM      5  C   UNL     1      -1.475   3.072  -5.691  1.00  0.00     0.041 C 
ATOM      6  O   UNL     1      -0.973   2.561  -6.728  1.00  0.00    -0.550 OA
ATOM      7  O   UNL     1      -1.490   2.347  -4.506  1.00  0.00    -0.550 OA
ENDBRANCH   4   5
ENDBRANCH   3   4
ENDBRANCH   2   3
ENDBRANCH   1   2
BRANCH   1   8
ATOM      8  C   UNL     1      -1.016   7.166  -3.424  1.00  0.00     0.000 C 
BRANCH   8   9
ATOM      9  C   UNL     1      -1.759   8.056  -2.416  1.00  0.00     0.000 C 
BRANCH   9  10
ATOM     10  C   UNL     1      -2.407   9.284  -3.073  1.00  0.00     0.006 C 
BRANCH  10  11
ATOM     11  C   UNL     1      -3.816   9.567  -2.536  1.00  0.00     0.053 C 
BRANCH  11  12
ATOM     12  C   UNL     1      -4.650   8.325  -2.580  1.00  0.00     0.041 C 
ATOM     13  O   UNL     1      -5.003   7.762  -1.510  1.00  0.00    -0.550 OA
ATOM     14  O   UNL     1      -4.996   7.761  -3.801  1.00  0.00    -0.550 OA
ENDBRANCH  11  12
ENDBRANCH  10  11
ENDBRANCH   9  10
ENDBRANCH   8   9
ENDBRANCH   1   8
TORSDOF 9
ENDMDL
MODEL 8
REMARK VINA RESULT:    -3.135      3.077      6.069
REMARK INTER + INTRA:          -5.540
REMARK INTER:                  -5.050
REMARK INTRA:                  -0.490
REMARK UNBOUND:                -0.756
REMARK SMILES O=C([O-])CCCCCCCCC(=O)[O-]
REMARK SMILES IDX 7 1 6 2 5 3 4 4 2 5 1 6 3 7 8 8 9 9 10 10 11 11 12 12 13 13
REMARK SMILES IDX 14 14
REMARK H PARENT
REMARK Flexibility Score: inf
ROOT
ATOM      1  C   UNL     1      -4.476   7.728  -3.599  1.00  0.00     0.000 C 
ENDROOT
BRANCH   1   2
ATOM      2  C   UNL     1      -3.596   7.572  -4.858  1.00  0.00     0.000 C 
BRANCH   2   3
ATOM      3  C   UNL     1      -2.087   7.623  -4.566  1.00  0.00     0.006 C 
BRANCH   3   4
ATOM      4  C   UNL     1      -1.238   7.052  -5.707  1.00  0.00     0.053 C 
BRANCH   4   5
ATOM      5  C   UNL     1      -1.274   5.557  -5.687  1.00  0.00     0.041 C 
ATOM      6  O   UNL     1      -1.623   4.916  -6.713  1.00  0.00    -0.550 OA
ATOM      7  O   UNL     1      -0.875   4.867  -4.548  1.00  0.00    -0.550 OA
ENDBRANCH   4   5
ENDBRANCH   3   4
ENDBRANCH   2   3
ENDBRANCH   1   2
BRANCH   1   8
ATOM      8  C   UNL     1      -3.769   8.523  -2.491  1.00  0.00     0.000 C 
BRANCH   8   9
ATOM      9  C   UNL     1      -4.556   8.450  -1.174  1.00  0.00     0.000 C 
BRANCH   9  10
ATOM     10  C   UNL     1      -3.893   9.250  -0.042  1.00  0.00     0.006 C 
BRANCH  10  11
ATOM     11  C   UNL     1      -2.410   9.537  -0.312  1.00  0.00     0.053 C 
BRANCH  11  12
ATOM     12  C   UNL     1      -1.550   8.505   0.348  1.00  0.00     0.041 C 
ATOM     13  O   UNL     1      -1.109   8.698   1.512  1.00  0.00    -0.550 OA
ATOM     14  O   UNL     1      -1.196   7.352  -0.340  1.00  0.00    -0.550 OA
ENDBRANCH  11  12
ENDBRANCH  10  11
ENDBRANCH   9  10
ENDBRANCH   8   9
ENDBRANCH   1   8
TORSDOF 9
ENDMDL
