MODEL 1
REMARK VINA RESULT:    -4.053      0.000      0.000
REMARK INTER + INTRA:          -6.182
REMARK INTER:                  -5.475
REMARK INTRA:                  -0.707
REMARK UNBOUND:                -0.707
REMARK SMILES CC(=O)CCC=C(C)CCC=C(C)C
REMARK SMILES IDX 7 1 6 2 8 3 9 4 10 5 11 6 13 7 12 8 14 9 5 10 4 11 2 12 3 13
REMARK SMILES IDX 1 14
REMARK H PARENT
REMARK Flexibility Score: inf
ROOT
ATOM      1  C   UNL     1      27.807  38.988  18.906  1.00  0.00    -0.077 C 
ATOM      2  C   UNL     1      26.505  38.739  19.178  1.00  0.00    -0.028 C 
ATOM      3  C   UNL     1      28.251  38.935  17.465  1.00  0.00     0.039 C 
ENDROOT
BRANCH   1   4
ATOM      4  C   UNL     1      28.835  39.317  19.974  1.00  0.00     0.034 C 
BRANCH   4   5
ATOM      5  C   UNL     1      28.525  40.637  20.696  1.00  0.00     0.032 C 
BRANCH   5   6
ATOM      6  C   UNL     1      28.164  41.739  19.727  1.00  0.00    -0.028 C 
ATOM      7  C   UNL     1      26.145  42.454  21.025  1.00  0.00     0.039 C 
ATOM      8  C   UNL     1      27.077  42.535  19.842  1.00  0.00    -0.080 C 
ATOM      9  C   UNL     1      26.801  43.580  18.792  1.00  0.00     0.039 C 
ENDBRANCH   5   6
ENDBRANCH   4   5
ENDBRANCH   1   4
BRANCH   2  10
ATOM     10  C   UNL     1      25.872  38.773  20.552  1.00  0.00     0.035 C 
BRANCH  10  11
ATOM     11  C   UNL     1      25.352  37.389  20.962  1.00  0.00     0.079 C 
BRANCH  11  12
ATOM     12  C   UNL     1      23.865  37.265  20.748  1.00  0.00     0.130 C 
ATOM     13  O   UNL     1      23.430  36.434  19.964  1.00  0.00    -0.300 OA
ATOM     14  C   UNL     1      22.916  38.171  21.471  1.00  0.00     0.087 C 
ENDBRANCH  11  12
ENDBRANCH  10  11
ENDBRANCH   2  10
TORSDOF 6
ENDMDL
MODEL 2
REMARK VINA RESULT:    -4.036      1.799      2.292
REMARK INTER + INTRA:          -6.159
REMARK INTER:                  -5.314
REMARK INTRA:                  -0.845
REMARK UNBOUND:                -0.707
REMARK SMILES CC(=O)CCC=C(C)CCC=C(C)C
REMARK SMILES IDX 7 1 6 2 8 3 9 4 10 5 11 6 13 7 12 8 14 9 5 10 4 11 2 12 3 13
REMARK SMILES IDX 1 14
REMARK H PARENT
REMARK Flexibility Score: inf
ROOT
ATOM      1  C   UNL     1      28.690  38.663  18.290  1.00  0.00    -0.077 C 
ATOM      2  C   UNL     1      28.849  37.415  18.787  1.00  0.00    -0.028 C 
ATOM      3  C   UNL     1      28.710  38.837  16.792  1.00  0.00     0.039 C 
ENDROOT
BRANCH   1   4
ATOM      4  C   UNL     1      28.494  39.891  19.163  1.00  0.00     0.034 C 
BRANCH   4   5
ATOM      5  C   UNL     1      27.124  40.550  18.944  1.00  0.00     0.032 C 
BRANCH   5   6
ATOM      6  C   UNL     1      27.156  42.030  19.246  1.00  0.00    -0.028 C 
ATOM      7  C   UNL     1      25.984  41.783  21.445  1.00  0.00     0.039 C 
ATOM      8  C   UNL     1      26.612  42.601  20.345  1.00  0.00    -0.080 C 
ATOM      9  C   UNL     1      26.677  44.096  20.521  1.00  0.00     0.039 C 
ENDBRANCH   5   6
ENDBRANCH   4   5
ENDBRANCH   1   4
BRANCH   2  10
ATOM     10  C   UNL     1      28.832  37.043  20.253  1.00  0.00     0.035 C 
BRANCH  10  11
ATOM     11  C   UNL     1      27.691  36.068  20.569  1.00  0.00     0.079 C 
BRANCH  11  12
ATOM     12  C   UNL     1      26.635  36.704  21.437  1.00  0.00     0.130 C 
ATOM     13  O   UNL     1      26.453  36.293  22.573  1.00  0.00    -0.300 OA
ATOM     14  C   UNL     1      25.790  37.822  20.907  1.00  0.00     0.087 C 
ENDBRANCH  11  12
ENDBRANCH  10  11
ENDBRANCH   2  10
TORSDOF 6
ENDMDL
MODEL 3
REMARK VINA RESULT:    -4.036     10.519     12.492
REMARK INTER + INTRA:          -6.158
REMARK INTER:                  -5.247
REMARK INTRA:                  -0.911
REMARK UNBOUND:                -0.707
REMARK SMILES CC(=O)CCC=C(C)CCC=C(C)C
REMARK SMILES IDX 7 1 6 2 8 3 9 4 10 5 11 6 13 7 12 8 14 9 5 10 4 11 2 12 3 13
REMARK SMILES IDX 1 14
REMARK H PARENT
REMARK Flexibility Score: inf
ROOT
ATOM      1  C   UNL     1      27.065  28.632  24.348  1.00  0.00    -0.077 C 
ATOM      2  C   UNL     1      27.361  27.730  25.313  1.00  0.00    -0.028 C 
ATOM      3  C   UNL     1      25.896  29.557  24.578  1.00  0.00     0.039 C 
ENDROOT
BRANCH   1   4
ATOM      4  C   UNL     1      27.847  28.755  23.052  1.00  0.00     0.034 C 
BRANCH   4   5
ATOM      5  C   UNL     1      29.102  29.628  23.209  1.00  0.00     0.032 C 
BRANCH   5   6
ATOM      6  C   UNL     1      28.785  31.100  23.078  1.00  0.00    -0.028 C 
ATOM      7  C   UNL     1      28.995  31.540  25.534  1.00  0.00     0.039 C 
ATOM      8  C   UNL     1      28.694  31.960  24.118  1.00  0.00    -0.080 C 
ATOM      9  C   UNL     1      28.337  33.402  23.866  1.00  0.00     0.039 C 
ENDBRANCH   5   6
ENDBRANCH   4   5
ENDBRANCH   1   4
BRANCH   2  10
ATOM     10  C   UNL     1      28.507  26.743  25.271  1.00  0.00     0.035 C 
BRANCH  10  11
ATOM     11  C   UNL     1      28.389  25.702  26.392  1.00  0.00     0.079 C 
BRANCH  11  12
ATOM     12  C   UNL     1      27.157  24.848  26.234  1.00  0.00     0.130 C 
ATOM     13  O   UNL     1      27.017  24.161  25.233  1.00  0.00    -0.300 OA
ATOM     14  C   UNL     1      26.090  24.854  27.285  1.00  0.00     0.087 C 
ENDBRANCH  11  12
ENDBRANCH  10  11
ENDBRANCH   2  10
TORSDOF 6
ENDMDL
MODEL 4
REMARK VINA RESULT:    -3.955      3.164      5.414
REMARK INTER + INTRA:          -6.049
REMARK INTER:                  -4.727
REMARK INTRA:                  -1.322
REMARK UNBOUND:                -0.707
REMARK SMILES CC(=O)CCC=C(C)CCC=C(C)C
REMARK SMILES IDX 7 1 6 2 8 3 9 4 10 5 11 6 13 7 12 8 14 9 5 10 4 11 2 12 3 13
REMARK SMILES IDX 1 14
REMARK H PARENT
REMARK Flexibility Score: inf
ROOT
ATOM      1  C   UNL     1      27.339  42.613  20.008  1.00  0.00    -0.077 C 
ATOM      2  C   UNL     1      26.360  42.681  20.939  1.00  0.00    -0.028 C 
ATOM      3  C   UNL     1      27.036  43.130  18.623  1.00  0.00     0.039 C 
ENDROOT
BRANCH   1   4
ATOM      4  C   UNL     1      28.720  42.046  20.287  1.00  0.00     0.034 C 
BRANCH   4   5
ATOM      5  C   UNL     1      28.900  40.635  19.707  1.00  0.00     0.032 C 
BRANCH   5   6
ATOM      6  C   UNL     1      28.262  39.580  20.581  1.00  0.00    -0.028 C 
ATOM      7  C   UNL     1      26.570  38.927  18.854  1.00  0.00     0.039 C 
ATOM      8  C   UNL     1      27.191  38.835  20.225  1.00  0.00    -0.080 C 
ATOM      9  C   UNL     1      26.620  37.835  21.197  1.00  0.00     0.039 C 
ENDBRANCH   5   6
ENDBRANCH   4   5
ENDBRANCH   1   4
BRANCH   2  10
ATOM     10  C   UNL     1      26.486  42.238  22.380  1.00  0.00     0.035 C 
BRANCH  10  11
ATOM     11  C   UNL     1      27.114  43.336  23.249  1.00  0.00     0.079 C 
BRANCH  11  12
ATOM     12  C   UNL     1      28.117  42.772  24.222  1.00  0.00     0.130 C 
ATOM     13  O   UNL     1      28.293  43.321  25.300  1.00  0.00    -0.300 OA
ATOM     14  C   UNL     1      28.918  41.557  23.868  1.00  0.00     0.087 C 
ENDBRANCH  11  12
ENDBRANCH  10  11
ENDBRANCH   2  10
TORSDOF 6
ENDMDL
MODEL 5
REMARK VINA RESULT:    -3.864      2.335      3.982
REMARK INTER + INTRA:          -5.926
REMARK INTER:                  -5.233
REMARK INTRA:                  -0.694
REMARK UNBOUND:                -0.707
REMARK SMILES CC(=O)CCC=C(C)CCC=C(C)C
REMARK SMILES IDX 7 1 6 2 8 3 9 4 10 5 11 6 13 7 12 8 14 9 5 10 4 11 2 12 3 13
REMARK SMILES IDX 1 14
REMARK H PARENT
REMARK Flexibility Score: inf
ROOT
ATOM      1  C   UNL     1      27.220  42.863  19.382  1.00  0.00    -0.077 C 
ATOM      2  C   UNL     1      27.215  41.733  18.639  1.00  0.00    -0.028 C 
ATOM      3  C   UNL     1      26.573  44.096  18.801  1.00  0.00     0.039 C 
ENDROOT
BRANCH   1   4
ATOM      4  C   UNL     1      27.842  42.951  20.766  1.00  0.00     0.034 C 
BRANCH   4   5
ATOM      5  C   UNL     1      26.858  42.546  21.875  1.00  0.00     0.032 C 
BRANCH   5   6
ATOM      6  C   UNL     1      27.109  43.307  23.156  1.00  0.00    -0.028 C 
ATOM      7  C   UNL     1      28.803  41.666  24.000  1.00  0.00     0.039 C 
ATOM      8  C   UNL     1      27.949  42.902  24.135  1.00  0.00    -0.080 C 
ATOM      9  C   UNL     1      28.092  43.729  25.387  1.00  0.00     0.039 C 
ENDBRANCH   5   6
ENDBRANCH   4   5
ENDBRANCH   1   4
BRANCH   2  10
ATOM     10  C   UNL     1      27.789  40.399  19.064  1.00  0.00     0.035 C 
BRANCH  10  11
ATOM     11  C   UNL     1      26.853  39.243  18.689  1.00  0.00     0.079 C 
BRANCH  11  12
ATOM     12  C   UNL     1      26.304  38.549  19.910  1.00  0.00     0.130 C 
ATOM     13  O   UNL     1      26.617  37.391  20.143  1.00  0.00    -0.300 OA
ATOM     14  C   UNL     1      25.358  39.262  20.827  1.00  0.00     0.087 C 
ENDBRANCH  11  12
ENDBRANCH  10  11
ENDBRANCH   2  10
TORSDOF 6
ENDMDL
MODEL 6
REMARK VINA RESULT:    -3.851      2.786      3.382
REMARK INTER + INTRA:          -5.909
REMARK INTER:                  -5.421
REMARK INTRA:                  -0.488
REMARK UNBOUND:                -0.707
REMARK SMILES CC(=O)CCC=C(C)CCC=C(C)C
REMARK SMILES IDX 7 1 6 2 8 3 9 4 10 5 11 6 13 7 12 8 14 9 5 10 4 11 2 12 3 13
REMARK SMILES IDX 1 14
REMARK H PARENT
REMARK Flexibility Score: inf
ROOT
ATOM      1  C   UNL     1      28.669  38.625  18.357  1.00  0.00    -0.077 C 
ATOM      2  C   UNL     1      28.910  37.356  18.759  1.00  0.00    -0.028 C 
ATOM      3  C   UNL     1      28.545  38.887  16.877  1.00  0.00     0.039 C 
ENDROOT
BRANCH   1   4
ATOM      4  C   UNL     1      28.517  39.792  19.318  1.00  0.00     0.034 C 
BRANCH   4   5
ATOM      5  C   UNL     1      27.230  40.592  19.067  1.00  0.00     0.032 C 
BRANCH   5   6
ATOM      6  C   UNL     1      26.975  41.606  20.158  1.00  0.00    -0.028 C 
ATOM      7  C   UNL     1      26.941  43.550  18.580  1.00  0.00     0.039 C 
ATOM      8  C   UNL     1      26.883  42.940  19.957  1.00  0.00    -0.080 C 
ATOM      9  C   UNL     1      26.660  43.859  21.131  1.00  0.00     0.039 C 
ENDBRANCH   5   6
ENDBRANCH   4   5
ENDBRANCH   1   4
BRANCH   2  10
ATOM     10  C   UNL     1      29.038  36.899  20.196  1.00  0.00     0.035 C 
BRANCH  10  11
ATOM     11  C   UNL     1      27.867  35.995  20.601  1.00  0.00     0.079 C 
BRANCH  11  12
ATOM     12  C   UNL     1      28.323  34.588  20.893  1.00  0.00     0.130 C 
ATOM     13  O   UNL     1      28.481  33.796  19.975  1.00  0.00    -0.300 OA
ATOM     14  C   UNL     1      28.559  34.144  22.304  1.00  0.00     0.087 C 
ENDBRANCH  11  12
ENDBRANCH  10  11
ENDBRANCH   2  10
TORSDOF 6
ENDMDL
MODEL 7
REMARK VINA RESULT:    -3.738      5.237      7.888
REMARK INTER + INTRA:          -5.756
REMARK INTER:                  -5.335
REMARK INTRA:                  -0.421
REMARK UNBOUND:                -0.707
REMARK SMILES CC(=O)CCC=C(C)CCC=C(C)C
REMARK SMILES IDX 7 1 6 2 8 3 9 4 10 5 11 6 13 7 12 8 14 9 5 10 4 11 2 12 3 13
REMARK SMILES IDX 1 14
REMARK H PARENT
REMARK Flexibility Score: inf
ROOT
ATOM      1  C   UNL     1      28.167  34.701  21.455  1.00  0.00    -0.077 C 
ATOM      2  C   UNL     1      27.593  35.763  20.844  1.00  0.00    -0.028 C 
ATOM      3  C   UNL     1      29.008  33.772  20.616  1.00  0.00     0.039 C 
ENDROOT
BRANCH   1   4
ATOM      4  C   UNL     1      28.007  34.401  22.936  1.00  0.00     0.034 C 
BRANCH   4   5
ATOM      5  C   UNL     1      29.010  33.347  23.430  1.00  0.00     0.032 C 
BRANCH   5   6
ATOM      6  C   UNL     1      28.382  31.978  23.537  1.00  0.00    -0.028 C 
ATOM      7  C   UNL     1      29.125  31.633  25.904  1.00  0.00     0.039 C 
ATOM      8  C   UNL     1      28.461  31.181  24.628  1.00  0.00    -0.080 C 
ATOM      9  C   UNL     1      27.821  29.817  24.605  1.00  0.00     0.039 C 
ENDBRANCH   5   6
ENDBRANCH   4   5
ENDBRANCH   1   4
BRANCH   2  10
ATOM     10  C   UNL     1      26.741  36.813  21.524  1.00  0.00     0.035 C 
BRANCH  10  11
ATOM     11  C   UNL     1      25.981  37.665  20.500  1.00  0.00     0.079 C 
BRANCH  11  12
ATOM     12  C   UNL     1      26.912  38.539  19.698  1.00  0.00     0.130 C 
ATOM     13  O   UNL     1      26.916  38.465  18.478  1.00  0.00    -0.300 OA
ATOM     14  C   UNL     1      27.851  39.480  20.389  1.00  0.00     0.087 C 
ENDBRANCH  11  12
ENDBRANCH  10  11
ENDBRANCH   2  10
TORSDOF 6
ENDMDL
