MODEL 1
REMARK VINA RESULT:    -4.035      0.000      0.000
REMARK INTER + INTRA:          -4.796
REMARK INTER:                  -4.743
REMARK INTRA:                  -0.053
REMARK UNBOUND:                -0.053
REMARK SMILES O=C([O-])CCC(=O)[O-]
REMARK SMILES IDX 4 1 2 2 1 3 3 4 5 5 6 6 7 7 8 8
REMARK H PARENT
REMARK Flexibility Score: inf
ROOT
ATOM      1  C   UNL     1     -21.875 -61.790   0.417  1.00  0.00     0.059 C 
ENDROOT
BRANCH   1   2
ATOM      2  C   UNL     1     -22.654 -62.347   1.570  1.00  0.00     0.042 C 
ATOM      3  O   UNL     1     -23.267 -61.575   2.352  1.00  0.00    -0.550 OA
ATOM      4  O   UNL     1     -22.737 -63.721   1.754  1.00  0.00    -0.550 OA
ENDBRANCH   1   2
BRANCH   1   5
ATOM      5  C   UNL     1     -21.887 -60.259   0.413  1.00  0.00     0.059 C 
BRANCH   5   6
ATOM      6  C   UNL     1     -22.055 -59.713  -0.972  1.00  0.00     0.042 C 
ATOM      7  O   UNL     1     -21.891 -60.460  -1.973  1.00  0.00    -0.550 OA
ATOM      8  O   UNL     1     -22.353 -58.369  -1.159  1.00  0.00    -0.550 OA
ENDBRANCH   5   6
ENDBRANCH   1   5
TORSDOF 3
ENDMDL
MODEL 2
REMARK VINA RESULT:    -3.967      3.224      5.224
REMARK INTER + INTRA:          -4.716
REMARK INTER:                  -4.643
REMARK INTRA:                  -0.073
REMARK UNBOUND:                -0.053
REMARK SMILES O=C([O-])CCC(=O)[O-]
REMARK SMILES IDX 4 1 2 2 1 3 3 4 5 5 6 6 7 7 8 8
REMARK H PARENT
REMARK Flexibility Score: inf
ROOT
ATOM      1  C   UNL     1     -25.017 -58.303  -1.730  1.00  0.00     0.059 C 
ENDROOT
BRANCH   1   2
ATOM      2  C   UNL     1     -25.945 -58.508  -2.889  1.00  0.00     0.042 C 
ATOM      3  O   UNL     1     -25.848 -59.540  -3.604  1.00  0.00    -0.550 OA
ATOM      4  O   UNL     1     -26.944 -57.580  -3.152  1.00  0.00    -0.550 OA
ENDBRANCH   1   2
BRANCH   1   5
ATOM      5  C   UNL     1     -24.356 -59.615  -1.296  1.00  0.00     0.059 C 
BRANCH   5   6
ATOM      6  C   UNL     1     -22.862 -59.512  -1.316  1.00  0.00     0.042 C 
ATOM      7  O   UNL     1     -22.303 -58.383  -1.342  1.00  0.00    -0.550 OA
ATOM      8  O   UNL     1     -22.085 -60.663  -1.348  1.00  0.00    -0.550 OA
ENDBRANCH   5   6
ENDBRANCH   1   5
TORSDOF 3
ENDMDL
MODEL 3
REMARK VINA RESULT:    -3.878      3.252      5.040
REMARK INTER + INTRA:          -4.611
REMARK INTER:                  -4.569
REMARK INTRA:                  -0.042
REMARK UNBOUND:                -0.053
REMARK SMILES O=C([O-])CCC(=O)[O-]
REMARK SMILES IDX 4 1 2 2 1 3 3 4 5 5 6 6 7 7 8 8
REMARK H PARENT
REMARK Flexibility Score: inf
ROOT
ATOM      1  C   UNL     1     -24.852 -58.220  -2.042  1.00  0.00     0.059 C 
ENDROOT
BRANCH   1   2
ATOM      2  C   UNL     1     -25.974 -58.455  -3.006  1.00  0.00     0.042 C 
ATOM      3  O   UNL     1     -26.909 -57.619  -3.106  1.00  0.00    -0.550 OA
ATOM      4  O   UNL     1     -25.963 -59.578  -3.825  1.00  0.00    -0.550 OA
ENDBRANCH   1   2
BRANCH   1   5
ATOM      5  C   UNL     1     -24.298 -59.535  -1.485  1.00  0.00     0.059 C 
BRANCH   5   6
ATOM      6  C   UNL     1     -22.811 -59.478  -1.314  1.00  0.00     0.042 C 
ATOM      7  O   UNL     1     -22.106 -60.497  -1.538  1.00  0.00    -0.550 OA
ATOM      8  O   UNL     1     -22.207 -58.310  -0.866  1.00  0.00    -0.550 OA
ENDBRANCH   5   6
ENDBRANCH   1   5
TORSDOF 3
ENDMDL
MODEL 4
REMARK VINA RESULT:    -3.853      3.040      4.440
REMARK INTER + INTRA:          -4.582
REMARK INTER:                  -4.497
REMARK INTRA:                  -0.085
REMARK UNBOUND:                -0.053
REMARK SMILES O=C([O-])CCC(=O)[O-]
REMARK SMILES IDX 4 1 2 2 1 3 3 4 5 5 6 6 7 7 8 8
REMARK H PARENT
REMARK Flexibility Score: inf
ROOT
ATOM      1  C   UNL     1     -24.305 -59.803  -1.163  1.00  0.00     0.059 C 
ENDROOT
BRANCH   1   2
ATOM      2  C   UNL     1     -22.829 -59.583  -1.294  1.00  0.00     0.042 C 
ATOM      3  O   UNL     1     -22.052 -60.564  -1.440  1.00  0.00    -0.550 OA
ATOM      4  O   UNL     1     -22.315 -58.293  -1.297  1.00  0.00    -0.550 OA
ENDBRANCH   1   2
BRANCH   1   5
ATOM      5  C   UNL     1     -25.094 -58.519  -1.434  1.00  0.00     0.059 C 
BRANCH   5   6
ATOM      6  C   UNL     1     -25.707 -58.527  -2.802  1.00  0.00     0.042 C 
ATOM      7  O   UNL     1     -26.120 -59.605  -3.306  1.00  0.00    -0.550 OA
ATOM      8  O   UNL     1     -25.784 -57.352  -3.536  1.00  0.00    -0.550 OA
ENDBRANCH   5   6
ENDBRANCH   1   5
TORSDOF 3
ENDMDL
MODEL 5
REMARK VINA RESULT:    -3.569      2.907      4.394
REMARK INTER + INTRA:          -4.248
REMARK INTER:                  -4.147
REMARK INTRA:                  -0.101
REMARK UNBOUND:                -0.053
REMARK SMILES O=C([O-])CCC(=O)[O-]
REMARK SMILES IDX 4 1 2 2 1 3 3 4 5 5 6 6 7 7 8 8
REMARK H PARENT
REMARK Flexibility Score: inf
ROOT
ATOM      1  C   UNL     1     -24.239 -59.625  -0.803  1.00  0.00     0.059 C 
ENDROOT
BRANCH   1   2
ATOM      2  C   UNL     1     -22.815 -59.474  -1.242  1.00  0.00     0.042 C 
ATOM      3  O   UNL     1     -22.307 -58.328  -1.364  1.00  0.00    -0.550 OA
ATOM      4  O   UNL     1     -22.036 -60.600  -1.475  1.00  0.00    -0.550 OA
ENDBRANCH   1   2
BRANCH   1   5
ATOM      5  C   UNL     1     -25.216 -59.103  -1.861  1.00  0.00     0.059 C 
BRANCH   5   6
ATOM      6  C   UNL     1     -25.803 -57.782  -1.466  1.00  0.00     0.042 C 
ATOM      7  O   UNL     1     -26.974 -57.720  -1.007  1.00  0.00    -0.550 OA
ATOM      8  O   UNL     1     -25.071 -56.616  -1.642  1.00  0.00    -0.550 OA
ENDBRANCH   5   6
ENDBRANCH   1   5
TORSDOF 3
ENDMDL
MODEL 6
REMARK VINA RESULT:    -3.495      1.647      1.834
REMARK INTER + INTRA:          -4.161
REMARK INTER:                  -4.012
REMARK INTRA:                  -0.149
REMARK UNBOUND:                -0.053
REMARK SMILES O=C([O-])CCC(=O)[O-]
REMARK SMILES IDX 4 1 2 2 1 3 3 4 5 5 6 6 7 7 8 8
REMARK H PARENT
REMARK Flexibility Score: inf
ROOT
ATOM      1  C   UNL     1     -21.876 -60.173   0.844  1.00  0.00     0.059 C 
ENDROOT
BRANCH   1   2
ATOM      2  C   UNL     1     -23.032 -60.304   1.787  1.00  0.00     0.042 C 
ATOM      3  O   UNL     1     -23.230 -59.431   2.673  1.00  0.00    -0.550 OA
ATOM      4  O   UNL     1     -23.915 -61.369   1.662  1.00  0.00    -0.550 OA
ENDBRANCH   1   2
BRANCH   1   5
ATOM      5  C   UNL     1     -22.256 -60.596  -0.579  1.00  0.00     0.059 C 
BRANCH   5   6
ATOM      6  C   UNL     1     -23.064 -59.541  -1.270  1.00  0.00     0.042 C 
ATOM      7  O   UNL     1     -24.172 -59.831  -1.794  1.00  0.00    -0.550 OA
ATOM      8  O   UNL     1     -22.575 -58.245  -1.372  1.00  0.00    -0.550 OA
ENDBRANCH   5   6
ENDBRANCH   1   5
TORSDOF 3
ENDMDL
MODEL 7
REMARK VINA RESULT:    -3.215      1.654      2.356
REMARK INTER + INTRA:          -3.832
REMARK INTER:                  -3.715
REMARK INTRA:                  -0.117
REMARK UNBOUND:                -0.053
REMARK SMILES O=C([O-])CCC(=O)[O-]
REMARK SMILES IDX 4 1 2 2 1 3 3 4 5 5 6 6 7 7 8 8
REMARK H PARENT
REMARK Flexibility Score: inf
ROOT
ATOM      1  C   UNL     1     -23.616 -60.196   0.665  1.00  0.00     0.059 C 
ENDROOT
BRANCH   1   2
ATOM      2  C   UNL     1     -22.628 -61.322   0.641  1.00  0.00     0.042 C 
ATOM      3  O   UNL     1     -22.503 -62.077   1.642  1.00  0.00    -0.550 OA
ATOM      4  O   UNL     1     -21.875 -61.563  -0.501  1.00  0.00    -0.550 OA
ENDBRANCH   1   2
BRANCH   1   5
ATOM      5  C   UNL     1     -24.139 -59.873  -0.738  1.00  0.00     0.059 C 
BRANCH   5   6
ATOM      6  C   UNL     1     -23.616 -58.557  -1.231  1.00  0.00     0.042 C 
ATOM      7  O   UNL     1     -24.413 -57.626  -1.521  1.00  0.00    -0.550 OA
ATOM      8  O   UNL     1     -22.251 -58.374  -1.408  1.00  0.00    -0.550 OA
ENDBRANCH   5   6
ENDBRANCH   1   5
TORSDOF 3
ENDMDL
