MODEL 1
REMARK VINA RESULT:     2.456      0.000      0.000
REMARK INTER + INTRA:           3.461
REMARK INTER:                   4.611
REMARK INTRA:                  -1.149
REMARK UNBOUND:                -1.149
REMARK SMILES CCCCCCCCC=CCCCCCCCC(=O)[O-]
REMARK SMILES IDX 10 1 9 2 11 3 12 4 13 5 14 6 15 7 16 8 17 9 18 10 19 11
REMARK SMILES IDX 20 12 8 13 7 14 6 15 5 16 4 17 3 18 2 19 1 20
REMARK H PARENT
REMARK Flexibility Score: inf
ROOT
ATOM      1  C   UNL     1     -14.800 -16.192  15.549  1.00  0.00    -0.031 C 
ATOM      2  C   UNL     1     -14.709 -15.875  14.248  1.00  0.00    -0.031 C 
ENDROOT
BRANCH   1   3
ATOM      3  C   UNL     1     -13.681 -15.901  16.510  1.00  0.00     0.027 C 
BRANCH   3   4
ATOM      4  C   UNL     1     -12.440 -15.377  15.770  1.00  0.00     0.004 C 
BRANCH   4   5
ATOM      5  C   UNL     1     -12.172 -13.887  16.043  1.00  0.00     0.000 C 
BRANCH   5   6
ATOM      6  C   UNL     1     -10.960 -13.355  15.261  1.00  0.00     0.000 C 
BRANCH   6   7
ATOM      7  C   UNL     1     -10.228 -14.454  14.469  1.00  0.00     0.000 C 
BRANCH   7   8
ATOM      8  C   UNL     1      -8.988 -13.982  13.683  1.00  0.00     0.006 C 
BRANCH   8   9
ATOM      9  C   UNL     1      -7.645 -14.275  14.372  1.00  0.00     0.053 C 
BRANCH   9  10
ATOM     10  C   UNL     1      -7.363 -15.745  14.452  1.00  0.00     0.041 C 
ATOM     11  O   UNL     1      -6.819 -16.229  15.479  1.00  0.00    -0.550 OA
ATOM     12  O   UNL     1      -7.670 -16.572  13.379  1.00  0.00    -0.550 OA
ENDBRANCH   9  10
ENDBRANCH   8   9
ENDBRANCH   7   8
ENDBRANCH   6   7
ENDBRANCH   5   6
ENDBRANCH   4   5
ENDBRANCH   3   4
ENDBRANCH   1   3
BRANCH   2  13
ATOM     13  C   UNL     1     -15.827 -16.166  13.287  1.00  0.00     0.027 C 
BRANCH  13  14
ATOM     14  C   UNL     1     -16.431 -14.868  12.731  1.00  0.00     0.004 C 
BRANCH  14  15
ATOM     15  C   UNL     1     -16.392 -13.715  13.747  1.00  0.00     0.000 C 
BRANCH  15  16
ATOM     16  C   UNL     1     -17.733 -13.519  14.468  1.00  0.00     0.000 C 
BRANCH  16  17
ATOM     17  C   UNL     1     -18.896 -14.052  13.620  1.00  0.00    -0.000 C 
BRANCH  17  18
ATOM     18  C   UNL     1     -20.214 -14.159  14.409  1.00  0.00    -0.000 C 
BRANCH  18  19
ATOM     19  C   UNL     1     -20.022 -14.130  15.940  1.00  0.00    -0.003 C 
ATOM     20  C   UNL     1     -21.130 -13.352  16.651  1.00  0.00     0.004 C 
ENDBRANCH  18  19
ENDBRANCH  17  18
ENDBRANCH  16  17
ENDBRANCH  15  16
ENDBRANCH  14  15
ENDBRANCH  13  14
ENDBRANCH   2  13
TORSDOF 15
ENDMDL
MODEL 2
REMARK VINA RESULT:     2.626      4.262      9.296
REMARK INTER + INTRA:           3.780
REMARK INTER:                   4.530
REMARK INTRA:                  -0.750
REMARK UNBOUND:                -1.149
REMARK SMILES CCCCCCCCC=CCCCCCCCC(=O)[O-]
REMARK SMILES IDX 10 1 9 2 11 3 12 4 13 5 14 6 15 7 16 8 17 9 18 10 19 11
REMARK SMILES IDX 20 12 8 13 7 14 6 15 5 16 4 17 3 18 2 19 1 20
REMARK H PARENT
REMARK Flexibility Score: inf
ROOT
ATOM      1  C   UNL     1     -14.648 -16.033  15.601  1.00  0.00    -0.031 C 
ATOM      2  C   UNL     1     -13.612 -15.277  15.208  1.00  0.00    -0.031 C 
ENDROOT
BRANCH   1   3
ATOM      3  C   UNL     1     -15.824 -16.287  14.699  1.00  0.00     0.027 C 
BRANCH   3   4
ATOM      4  C   UNL     1     -15.493 -15.917  13.245  1.00  0.00     0.004 C 
BRANCH   4   5
ATOM      5  C   UNL     1     -16.172 -14.612  12.796  1.00  0.00     0.000 C 
BRANCH   5   6
ATOM      6  C   UNL     1     -16.525 -13.696  13.979  1.00  0.00     0.000 C 
BRANCH   6   7
ATOM      7  C   UNL     1     -17.967 -13.160  13.912  1.00  0.00     0.000 C 
BRANCH   7   8
ATOM      8  C   UNL     1     -19.065 -14.238  13.805  1.00  0.00     0.006 C 
BRANCH   8   9
ATOM      9  C   UNL     1     -20.389 -13.873  14.496  1.00  0.00     0.053 C 
BRANCH   9  10
ATOM     10  C   UNL     1     -20.259 -13.862  15.988  1.00  0.00     0.041 C 
ATOM     11  O   UNL     1     -19.270 -14.411  16.541  1.00  0.00    -0.550 OA
ATOM     12  O   UNL     1     -21.247 -13.276  16.769  1.00  0.00    -0.550 OA
ENDBRANCH   9  10
ENDBRANCH   8   9
ENDBRANCH   7   8
ENDBRANCH   6   7
ENDBRANCH   5   6
ENDBRANCH   4   5
ENDBRANCH   3   4
ENDBRANCH   1   3
BRANCH   2  13
ATOM     13  C   UNL     1     -12.436 -15.023  16.111  1.00  0.00     0.027 C 
BRANCH  13  14
ATOM     14  C   UNL     1     -12.085 -13.528  16.154  1.00  0.00     0.004 C 
BRANCH  14  15
ATOM     15  C   UNL     1     -10.994 -13.147  15.141  1.00  0.00     0.000 C 
BRANCH  15  16
ATOM     16  C   UNL     1     -10.302 -14.374  14.530  1.00  0.00     0.000 C 
BRANCH  16  17
ATOM     17  C   UNL     1      -9.054 -13.962  13.736  1.00  0.00    -0.000 C 
BRANCH  17  18
ATOM     18  C   UNL     1      -7.743 -14.420  14.400  1.00  0.00    -0.000 C 
BRANCH  18  19
ATOM     19  C   UNL     1      -7.612 -15.952  14.517  1.00  0.00    -0.003 C 
ATOM     20  C   UNL     1      -6.854 -16.564  13.339  1.00  0.00     0.004 C 
ENDBRANCH  18  19
ENDBRANCH  17  18
ENDBRANCH  16  17
ENDBRANCH  15  16
ENDBRANCH  14  15
ENDBRANCH  13  14
ENDBRANCH   2  13
TORSDOF 15
ENDMDL
MODEL 3
REMARK VINA RESULT:     3.300      0.846      1.463
REMARK INTER + INTRA:           5.045
REMARK INTER:                   5.722
REMARK INTRA:                  -0.677
REMARK UNBOUND:                -1.149
REMARK SMILES CCCCCCCCC=CCCCCCCCC(=O)[O-]
REMARK SMILES IDX 10 1 9 2 11 3 12 4 13 5 14 6 15 7 16 8 17 9 18 10 19 11
REMARK SMILES IDX 20 12 8 13 7 14 6 15 5 16 4 17 3 18 2 19 1 20
REMARK H PARENT
REMARK Flexibility Score: inf
ROOT
ATOM      1  C   UNL     1     -13.802 -15.084  15.293  1.00  0.00    -0.031 C 
ATOM      2  C   UNL     1     -14.565 -16.185  15.363  1.00  0.00    -0.031 C 
ENDROOT
BRANCH   1   3
ATOM      3  C   UNL     1     -12.552 -14.938  16.117  1.00  0.00     0.027 C 
BRANCH   3   4
ATOM      4  C   UNL     1     -12.119 -13.467  16.207  1.00  0.00     0.004 C 
BRANCH   4   5
ATOM      5  C   UNL     1     -10.953 -13.133  15.262  1.00  0.00     0.000 C 
BRANCH   5   6
ATOM      6  C   UNL     1     -10.473 -14.357  14.465  1.00  0.00     0.000 C 
BRANCH   6   7
ATOM      7  C   UNL     1      -9.287 -14.039  13.536  1.00  0.00     0.000 C 
BRANCH   7   8
ATOM      8  C   UNL     1      -7.942 -13.789  14.250  1.00  0.00     0.006 C 
BRANCH   8   9
ATOM      9  C   UNL     1      -7.314 -15.040  14.886  1.00  0.00     0.053 C 
BRANCH   9  10
ATOM     10  C   UNL     1      -7.546 -16.267  14.060  1.00  0.00     0.041 C 
ATOM     11  O   UNL     1      -6.714 -16.599  13.174  1.00  0.00    -0.550 OA
ATOM     12  O   UNL     1      -8.696 -17.024  14.243  1.00  0.00    -0.550 OA
ENDBRANCH   9  10
ENDBRANCH   8   9
ENDBRANCH   7   8
ENDBRANCH   6   7
ENDBRANCH   5   6
ENDBRANCH   4   5
ENDBRANCH   3   4
ENDBRANCH   1   3
BRANCH   2  13
ATOM     13  C   UNL     1     -15.814 -16.331  14.540  1.00  0.00     0.027 C 
BRANCH  13  14
ATOM     14  C   UNL     1     -15.589 -15.839  13.102  1.00  0.00     0.004 C 
BRANCH  14  15
ATOM     15  C   UNL     1     -16.473 -14.633  12.744  1.00  0.00     0.000 C 
BRANCH  15  16
ATOM     16  C   UNL     1     -16.385 -13.507  13.784  1.00  0.00     0.000 C 
BRANCH  16  17
ATOM     17  C   UNL     1     -17.782 -13.101  14.274  1.00  0.00    -0.000 C 
BRANCH  17  18
ATOM     18  C   UNL     1     -18.875 -14.105  13.867  1.00  0.00    -0.000 C 
BRANCH  18  19
ATOM     19  C   UNL     1     -20.209 -13.905  14.614  1.00  0.00    -0.003 C 
ATOM     20  C   UNL     1     -20.072 -14.129  16.121  1.00  0.00     0.004 C 
ENDBRANCH  18  19
ENDBRANCH  17  18
ENDBRANCH  16  17
ENDBRANCH  15  16
ENDBRANCH  14  15
ENDBRANCH  13  14
ENDBRANCH   2  13
TORSDOF 15
ENDMDL
MODEL 4
REMARK VINA RESULT:     4.831      4.505      7.634
REMARK INTER + INTRA:           7.919
REMARK INTER:                   9.605
REMARK INTRA:                  -1.686
REMARK UNBOUND:                -1.149
REMARK SMILES CCCCCCCCC=CCCCCCCCC(=O)[O-]
REMARK SMILES IDX 10 1 9 2 11 3 12 4 13 5 14 6 15 7 16 8 17 9 18 10 19 11
REMARK SMILES IDX 20 12 8 13 7 14 6 15 5 16 4 17 3 18 2 19 1 20
REMARK H PARENT
REMARK Flexibility Score: inf
ROOT
ATOM      1  C   UNL     1     -12.972 -12.582  16.101  1.00  0.00    -0.031 C 
ATOM      2  C   UNL     1     -12.034 -13.419  15.633  1.00  0.00    -0.031 C 
ENDROOT
BRANCH   1   3
ATOM      3  C   UNL     1     -12.904 -11.102  15.846  1.00  0.00     0.027 C 
BRANCH   3   4
ATOM      4  C   UNL     1     -14.216 -10.587  15.233  1.00  0.00     0.004 C 
BRANCH   4   5
ATOM      5  C   UNL     1     -15.337 -11.640  15.260  1.00  0.00     0.000 C 
BRANCH   5   6
ATOM      6  C   UNL     1     -15.907 -11.927  13.861  1.00  0.00     0.000 C 
BRANCH   6   7
ATOM      7  C   UNL     1     -17.420 -12.213  13.879  1.00  0.00     0.000 C 
BRANCH   7   8
ATOM      8  C   UNL     1     -17.812 -13.656  14.256  1.00  0.00     0.006 C 
BRANCH   8   9
ATOM      9  C   UNL     1     -19.326 -13.905  14.346  1.00  0.00     0.053 C 
BRANCH   9  10
ATOM     10  C   UNL     1     -19.797 -13.996  15.765  1.00  0.00     0.041 C 
ATOM     11  O   UNL     1     -18.992 -14.314  16.679  1.00  0.00    -0.550 OA
ATOM     12  O   UNL     1     -21.131 -13.763  16.072  1.00  0.00    -0.550 OA
ENDBRANCH   9  10
ENDBRANCH   8   9
ENDBRANCH   7   8
ENDBRANCH   6   7
ENDBRANCH   5   6
ENDBRANCH   4   5
ENDBRANCH   3   4
ENDBRANCH   1   3
BRANCH   2  13
ATOM     13  C   UNL     1     -12.101 -14.899  15.888  1.00  0.00     0.027 C 
BRANCH  13  14
ATOM     14  C   UNL     1     -13.557 -15.379  15.976  1.00  0.00     0.004 C 
BRANCH  14  15
ATOM     15  C   UNL     1     -14.317 -15.212  14.650  1.00  0.00     0.000 C 
BRANCH  15  16
ATOM     16  C   UNL     1     -15.478 -16.207  14.506  1.00  0.00     0.000 C 
BRANCH  16  17
ATOM     17  C   UNL     1     -15.763 -16.507  13.028  1.00  0.00    -0.000 C 
BRANCH  17  18
ATOM     18  C   UNL     1     -15.348 -15.357  12.093  1.00  0.00    -0.000 C 
BRANCH  18  19
ATOM     19  C   UNL     1     -14.526 -15.818  10.871  1.00  0.00    -0.003 C 
ATOM     20  C   UNL     1     -14.818 -14.984   9.624  1.00  0.00     0.004 C 
ENDBRANCH  18  19
ENDBRANCH  17  18
ENDBRANCH  16  17
ENDBRANCH  15  16
ENDBRANCH  14  15
ENDBRANCH  13  14
ENDBRANCH   2  13
TORSDOF 15
ENDMDL
