MODEL 1
REMARK VINA RESULT:    -6.153      0.000      0.000
REMARK INTER + INTRA:          -6.513
REMARK INTER:                  -6.513
REMARK INTRA:                   0.000
REMARK UNBOUND:                 0.000
REMARK SMILES O=c1ccc2cc(O)c(O)cc2o1
REMARK SMILES IDX 4 1 3 2 2 3 1 4 13 5 12 6 11 7 9 8 7 9 6 10 5 11 8 12 10 14
REMARK H PARENT 8 13 10 15
REMARK Flexibility Score: inf
ROOT
ATOM      1  C   UNL     1     -32.571   8.875 -33.881  1.00  0.00     0.019 A 
ATOM      2  C   UNL     1     -32.279   9.265 -32.574  1.00  0.00     0.094 A 
ATOM      3  C   UNL     1     -32.531  10.584 -32.187  1.00  0.00     0.336 A 
ATOM      4  O   UNL     1     -32.274  10.955 -31.012  1.00  0.00    -0.246 OA
ATOM      5  O   UNL     1     -33.043  11.455 -33.054  1.00  0.00    -0.423 OA
ATOM      6  C   UNL     1     -33.336  11.125 -34.311  1.00  0.00     0.142 A 
ATOM      7  C   UNL     1     -33.872  12.082 -35.177  1.00  0.00     0.098 A 
ATOM      8  C   UNL     1     -34.183  11.744 -36.500  1.00  0.00     0.161 A 
ATOM      9  C   UNL     1     -33.956  10.433 -36.961  1.00  0.00     0.158 A 
ATOM     10  C   UNL     1     -33.419   9.470 -36.094  1.00  0.00     0.062 A 
ATOM     11  C   UNL     1     -33.108   9.811 -34.771  1.00  0.00     0.022 A 
ENDROOT
BRANCH   9  12
ATOM     12  O   UNL     1     -34.266  10.094 -38.278  1.00  0.00    -0.504 OA
ATOM     13  H   UNL     1     -33.690   9.453 -38.810  1.00  0.00     0.293 HD
ENDBRANCH   9  12
BRANCH   8  14
ATOM     14  O   UNL     1     -34.716  12.721 -37.340  1.00  0.00    -0.504 OA
ATOM     15  H   UNL     1     -34.174  13.519 -37.648  1.00  0.00     0.293 HD
ENDBRANCH   8  14
TORSDOF 2
ENDMDL
MODEL 2
REMARK VINA RESULT:    -6.074      1.526      4.477
REMARK INTER + INTRA:          -6.429
REMARK INTER:                  -6.429
REMARK INTRA:                   0.000
REMARK UNBOUND:                 0.000
REMARK SMILES O=c1ccc2cc(O)c(O)cc2o1
REMARK SMILES IDX 4 1 3 2 2 3 1 4 13 5 12 6 11 7 9 8 7 9 6 10 5 11 8 12 10 14
REMARK H PARENT 8 13 10 15
REMARK Flexibility Score: inf
ROOT
ATOM      1  C   UNL     1     -31.526   8.904 -34.766  1.00  0.00     0.019 A 
ATOM      2  C   UNL     1     -31.835   8.875 -36.126  1.00  0.00     0.094 A 
ATOM      3  C   UNL     1     -32.870   9.686 -36.604  1.00  0.00     0.336 A 
ATOM      4  O   UNL     1     -33.164   9.674 -37.827  1.00  0.00    -0.246 OA
ATOM      5  O   UNL     1     -33.548  10.473 -35.772  1.00  0.00    -0.423 OA
ATOM      6  C   UNL     1     -33.286  10.531 -34.468  1.00  0.00     0.142 A 
ATOM      7  C   UNL     1     -34.032  11.376 -33.642  1.00  0.00     0.098 A 
ATOM      8  C   UNL     1     -33.763  11.443 -32.269  1.00  0.00     0.161 A 
ATOM      9  C   UNL     1     -32.736  10.656 -31.717  1.00  0.00     0.158 A 
ATOM     10  C   UNL     1     -31.985   9.806 -32.542  1.00  0.00     0.062 A 
ATOM     11  C   UNL     1     -32.255   9.741 -33.915  1.00  0.00     0.022 A 
ENDROOT
BRANCH   9  12
ATOM     12  O   UNL     1     -32.466  10.721 -30.350  1.00  0.00    -0.504 OA
ATOM     13  H   UNL     1     -31.588  11.082 -29.999  1.00  0.00     0.293 HD
ENDBRANCH   9  12
BRANCH   8  14
ATOM     14  O   UNL     1     -34.525  12.297 -31.472  1.00  0.00    -0.504 OA
ATOM     15  H   UNL     1     -35.336  11.972 -30.959  1.00  0.00     0.293 HD
ENDBRANCH   8  14
TORSDOF 2
ENDMDL
MODEL 3
REMARK VINA RESULT:    -5.953      1.510      4.996
REMARK INTER + INTRA:          -6.301
REMARK INTER:                  -6.301
REMARK INTRA:                   0.000
REMARK UNBOUND:                 0.000
REMARK SMILES O=c1ccc2cc(O)c(O)cc2o1
REMARK SMILES IDX 4 1 3 2 2 3 1 4 13 5 12 6 11 7 9 8 7 9 6 10 5 11 8 12 10 14
REMARK H PARENT 8 13 10 15
REMARK Flexibility Score: inf
ROOT
ATOM      1  C   UNL     1     -33.972  11.885 -36.230  1.00  0.00     0.019 A 
ATOM      2  C   UNL     1     -34.258  11.178 -37.398  1.00  0.00     0.094 A 
ATOM      3  C   UNL     1     -34.417   9.790 -37.328  1.00  0.00     0.336 A 
ATOM      4  O   UNL     1     -34.676   9.134 -38.370  1.00  0.00    -0.246 OA
ATOM      5  O   UNL     1     -34.296   9.156 -36.165  1.00  0.00    -0.423 OA
ATOM      6  C   UNL     1     -34.023   9.792 -35.027  1.00  0.00     0.142 A 
ATOM      7  C   UNL     1     -33.908   9.073 -33.835  1.00  0.00     0.098 A 
ATOM      8  C   UNL     1     -33.621   9.734 -32.634  1.00  0.00     0.161 A 
ATOM      9  C   UNL     1     -33.448  11.131 -32.626  1.00  0.00     0.158 A 
ATOM     10  C   UNL     1     -33.563  11.856 -33.821  1.00  0.00     0.062 A 
ATOM     11  C   UNL     1     -33.850  11.193 -35.022  1.00  0.00     0.022 A 
ENDROOT
BRANCH   9  12
ATOM     12  O   UNL     1     -33.162  11.791 -31.432  1.00  0.00    -0.504 OA
ATOM     13  H   UNL     1     -33.658  11.577 -30.575  1.00  0.00     0.293 HD
ENDBRANCH   9  12
BRANCH   8  14
ATOM     14  O   UNL     1     -33.512   8.988 -31.460  1.00  0.00    -0.504 OA
ATOM     15  H   UNL     1     -34.297   8.481 -31.071  1.00  0.00     0.293 HD
ENDBRANCH   8  14
TORSDOF 2
ENDMDL
MODEL 4
REMARK VINA RESULT:    -5.685      1.057      4.531
REMARK INTER + INTRA:          -6.017
REMARK INTER:                  -6.017
REMARK INTRA:                   0.000
REMARK UNBOUND:                 0.000
REMARK SMILES O=c1ccc2cc(O)c(O)cc2o1
REMARK SMILES IDX 4 1 3 2 2 3 1 4 13 5 12 6 11 7 9 8 7 9 6 10 5 11 8 12 10 14
REMARK H PARENT 8 13 10 15
REMARK Flexibility Score: inf
ROOT
ATOM      1  C   UNL     1     -33.086   9.627 -36.157  1.00  0.00     0.019 A 
ATOM      2  C   UNL     1     -33.685  10.356 -37.184  1.00  0.00     0.094 A 
ATOM      3  C   UNL     1     -34.258  11.597 -36.890  1.00  0.00     0.336 A 
ATOM      4  O   UNL     1     -34.802  12.271 -37.803  1.00  0.00    -0.246 OA
ATOM      5  O   UNL     1     -34.231  12.075 -35.648  1.00  0.00    -0.423 OA
ATOM      6  C   UNL     1     -33.670  11.411 -34.638  1.00  0.00     0.142 A 
ATOM      7  C   UNL     1     -33.673  11.962 -33.353  1.00  0.00     0.098 A 
ATOM      8  C   UNL     1     -33.086  11.272 -32.286  1.00  0.00     0.161 A 
ATOM      9  C   UNL     1     -32.489  10.016 -32.506  1.00  0.00     0.158 A 
ATOM     10  C   UNL     1     -32.485   9.460 -33.794  1.00  0.00     0.062 A 
ATOM     11  C   UNL     1     -33.073  10.153 -34.861  1.00  0.00     0.022 A 
ENDROOT
BRANCH   9  12
ATOM     12  O   UNL     1     -31.904   9.327 -31.445  1.00  0.00    -0.504 OA
ATOM     13  H   UNL     1     -32.441   8.701 -30.858  1.00  0.00     0.293 HD
ENDBRANCH   9  12
BRANCH   8  14
ATOM     14  O   UNL     1     -33.104  11.848 -31.016  1.00  0.00    -0.504 OA
ATOM     15  H   UNL     1     -33.819  12.509 -30.736  1.00  0.00     0.293 HD
ENDBRANCH   8  14
TORSDOF 2
ENDMDL
MODEL 5
REMARK VINA RESULT:    -5.211      1.153      2.281
REMARK INTER + INTRA:          -5.516
REMARK INTER:                  -5.516
REMARK INTRA:                   0.000
REMARK UNBOUND:                 0.000
REMARK SMILES O=c1ccc2cc(O)c(O)cc2o1
REMARK SMILES IDX 4 1 3 2 2 3 1 4 13 5 12 6 11 7 9 8 7 9 6 10 5 11 8 12 10 14
REMARK H PARENT 8 13 10 15
REMARK Flexibility Score: inf
ROOT
ATOM      1  C   UNL     1     -33.937  11.944 -33.331  1.00  0.00     0.019 A 
ATOM      2  C   UNL     1     -33.385  11.594 -32.099  1.00  0.00     0.094 A 
ATOM      3  C   UNL     1     -32.485  10.525 -32.039  1.00  0.00     0.336 A 
ATOM      4  O   UNL     1     -31.976  10.194 -30.936  1.00  0.00    -0.246 OA
ATOM      5  O   UNL     1     -32.160   9.854 -33.141  1.00  0.00    -0.423 OA
ATOM      6  C   UNL     1     -32.664  10.156 -34.337  1.00  0.00     0.142 A 
ATOM      7  C   UNL     1     -32.286   9.415 -35.460  1.00  0.00     0.098 A 
ATOM      8  C   UNL     1     -32.811   9.725 -36.721  1.00  0.00     0.161 A 
ATOM      9  C   UNL     1     -33.723  10.788 -36.860  1.00  0.00     0.158 A 
ATOM     10  C   UNL     1     -34.104  11.533 -35.734  1.00  0.00     0.062 A 
ATOM     11  C   UNL     1     -33.578  11.222 -34.473  1.00  0.00     0.022 A 
ENDROOT
BRANCH   9  12
ATOM     12  O   UNL     1     -34.246  11.098 -38.114  1.00  0.00    -0.504 OA
ATOM     13  H   UNL     1     -33.653  11.403 -38.876  1.00  0.00     0.293 HD
ENDBRANCH   9  12
BRANCH   8  14
ATOM     14  O   UNL     1     -32.415   8.967 -37.823  1.00  0.00    -0.504 OA
ATOM     15  H   UNL     1     -33.054   8.351 -38.309  1.00  0.00     0.293 HD
ENDBRANCH   8  14
TORSDOF 2
ENDMDL
MODEL 6
REMARK VINA RESULT:    -5.132      0.899      0.951
REMARK INTER + INTRA:          -5.432
REMARK INTER:                  -5.432
REMARK INTRA:                   0.000
REMARK UNBOUND:                 0.000
REMARK SMILES O=c1ccc2cc(O)c(O)cc2o1
REMARK SMILES IDX 4 1 3 2 2 3 1 4 13 5 12 6 11 7 9 8 7 9 6 10 5 11 8 12 10 14
REMARK H PARENT 8 13 10 15
REMARK Flexibility Score: inf
ROOT
ATOM      1  C   UNL     1     -32.172   9.208 -34.156  1.00  0.00     0.019 A 
ATOM      2  C   UNL     1     -32.159   9.849 -32.918  1.00  0.00     0.094 A 
ATOM      3  C   UNL     1     -32.864  11.047 -32.767  1.00  0.00     0.336 A 
ATOM      4  O   UNL     1     -32.865  11.640 -31.657  1.00  0.00    -0.246 OA
ATOM      5  O   UNL     1     -33.536  11.567 -33.791  1.00  0.00    -0.423 OA
ATOM      6  C   UNL     1     -33.574  10.989 -34.990  1.00  0.00     0.142 A 
ATOM      7  C   UNL     1     -34.297  11.582 -36.029  1.00  0.00     0.098 A 
ATOM      8  C   UNL     1     -34.342  10.980 -37.293  1.00  0.00     0.161 A 
ATOM      9  C   UNL     1     -33.656   9.772 -37.520  1.00  0.00     0.158 A 
ATOM     10  C   UNL     1     -32.930   9.174 -36.479  1.00  0.00     0.062 A 
ATOM     11  C   UNL     1     -32.886   9.778 -35.215  1.00  0.00     0.022 A 
ENDROOT
BRANCH   9  12
ATOM     12  O   UNL     1     -33.699   9.172 -38.778  1.00  0.00    -0.504 OA
ATOM     13  H   UNL     1     -34.136   9.629 -39.569  1.00  0.00     0.293 HD
ENDBRANCH   9  12
BRANCH   8  14
ATOM     14  O   UNL     1     -35.071  11.596 -38.309  1.00  0.00    -0.504 OA
ATOM     15  H   UNL     1     -34.633  12.198 -38.996  1.00  0.00     0.293 HD
ENDBRANCH   8  14
TORSDOF 2
ENDMDL
MODEL 7
REMARK VINA RESULT:    -4.895      1.358      2.453
REMARK INTER + INTRA:          -5.181
REMARK INTER:                  -5.181
REMARK INTRA:                   0.000
REMARK UNBOUND:                 0.000
REMARK SMILES O=c1ccc2cc(O)c(O)cc2o1
REMARK SMILES IDX 4 1 3 2 2 3 1 4 13 5 12 6 11 7 9 8 7 9 6 10 5 11 8 12 10 14
REMARK H PARENT 8 13 10 15
REMARK Flexibility Score: inf
ROOT
ATOM      1  C   UNL     1     -33.596  11.831 -34.199  1.00  0.00     0.019 A 
ATOM      2  C   UNL     1     -32.952  11.225 -33.120  1.00  0.00     0.094 A 
ATOM      3  C   UNL     1     -32.472   9.920 -33.263  1.00  0.00     0.336 A 
ATOM      4  O   UNL     1     -31.888   9.356 -32.301  1.00  0.00    -0.246 OA
ATOM      5  O   UNL     1     -32.627   9.267 -34.412  1.00  0.00    -0.423 OA
ATOM      6  C   UNL     1     -33.236   9.807 -35.466  1.00  0.00     0.142 A 
ATOM      7  C   UNL     1     -33.371   9.073 -36.648  1.00  0.00     0.098 A 
ATOM      8  C   UNL     1     -34.009   9.633 -37.761  1.00  0.00     0.161 A 
ATOM      9  C   UNL     1     -34.518  10.944 -37.691  1.00  0.00     0.158 A 
ATOM     10  C   UNL     1     -34.385  11.684 -36.507  1.00  0.00     0.062 A 
ATOM     11  C   UNL     1     -33.746  11.121 -35.394  1.00  0.00     0.022 A 
ENDROOT
BRANCH   9  12
ATOM     12  O   UNL     1     -35.154  11.504 -38.798  1.00  0.00    -0.504 OA
ATOM     13  H   UNL     1     -35.639  10.931 -39.478  1.00  0.00     0.293 HD
ENDBRANCH   9  12
BRANCH   8  14
ATOM     14  O   UNL     1     -34.128   8.875 -38.925  1.00  0.00    -0.504 OA
ATOM     15  H   UNL     1     -34.967   8.888 -39.492  1.00  0.00     0.293 HD
ENDBRANCH   8  14
TORSDOF 2
ENDMDL
MODEL 8
REMARK VINA RESULT:    -4.862      1.766      2.825
REMARK INTER + INTRA:          -5.146
REMARK INTER:                  -5.146
REMARK INTRA:                   0.000
REMARK UNBOUND:                 0.000
REMARK SMILES O=c1ccc2cc(O)c(O)cc2o1
REMARK SMILES IDX 4 1 3 2 2 3 1 4 13 5 12 6 11 7 9 8 7 9 6 10 5 11 8 12 10 14
REMARK H PARENT 8 13 10 15
REMARK Flexibility Score: inf
ROOT
ATOM      1  C   UNL     1     -34.031  12.107 -32.796  1.00  0.00     0.019 A 
ATOM      2  C   UNL     1     -33.689  12.166 -31.446  1.00  0.00     0.094 A 
ATOM      3  C   UNL     1     -32.594  11.424 -30.990  1.00  0.00     0.336 A 
ATOM      4  O   UNL     1     -32.269  11.464 -29.775  1.00  0.00    -0.246 OA
ATOM      5  O   UNL     1     -31.891  10.673 -31.835  1.00  0.00    -0.423 OA
ATOM      6  C   UNL     1     -32.184  10.588 -33.131  1.00  0.00     0.142 A 
ATOM      7  C   UNL     1     -31.409   9.783 -33.971  1.00  0.00     0.098 A 
ATOM      8  C   UNL     1     -31.710   9.687 -35.335  1.00  0.00     0.161 A 
ATOM      9  C   UNL     1     -32.798  10.406 -35.865  1.00  0.00     0.158 A 
ATOM     10  C   UNL     1     -33.577  11.215 -35.026  1.00  0.00     0.062 A 
ATOM     11  C   UNL     1     -33.275  11.309 -33.661  1.00  0.00     0.022 A 
ENDROOT
BRANCH   9  12
ATOM     12  O   UNL     1     -33.099  10.312 -37.224  1.00  0.00    -0.504 OA
ATOM     13  H   UNL     1     -32.376  10.357 -37.932  1.00  0.00     0.293 HD
ENDBRANCH   9  12
BRANCH   8  14
ATOM     14  O   UNL     1     -30.918   8.875 -36.147  1.00  0.00    -0.504 OA
ATOM     15  H   UNL     1     -29.962   9.114 -36.376  1.00  0.00     0.293 HD
ENDBRANCH   8  14
TORSDOF 2
ENDMDL
