MODEL 1
REMARK VINA RESULT:    -8.856      0.000      0.000
REMARK INTER + INTRA:         -13.413
REMARK INTER:                 -12.222
REMARK INTRA:                  -1.192
REMARK UNBOUND:                -1.192
REMARK SMILES O=C([O-])[C@H]1O[C@H](Oc2cc3oc(-c4ccccc4)cc(=O)c3c(O)c2O)[C@H](O)[C@@H](O)[C@H]1O
REMARK SMILES IDX 7 1 6 2 4 3 31 4 5 5 29 6 27 7 2 8 1 9 3 10 32 11 30 13
REMARK SMILES IDX 28 15 8 17 25 18 9 19 23 20 10 21 22 22 11 23 20 24 12 25
REMARK SMILES IDX 19 26 21 27 26 28 24 30 13 32 14 33 18 34 15 35 17 36 16 37
REMARK H PARENT 32 12 30 14 28 16 26 29 24 31
REMARK Flexibility Score: inf
ROOT
ATOM      1  O   UNL     1      16.084  27.290  -2.651  1.00  0.00    -0.458 OA
ENDROOT
BRANCH   1   2
ATOM      2  C   UNL     1      16.128  26.473  -1.471  1.00  0.00     0.339 C 
ATOM      3  C   UNL     1      18.005  27.619  -0.639  1.00  0.00     0.199 C 
ATOM      4  C   UNL     1      17.232  28.220   0.552  1.00  0.00     0.180 C 
ATOM      5  O   UNL     1      17.467  26.357  -1.011  1.00  0.00    -0.328 OA
ATOM      6  C   UNL     1      15.751  28.368   0.167  1.00  0.00     0.181 C 
ATOM      7  C   UNL     1      15.209  27.025  -0.351  1.00  0.00     0.214 C 
BRANCH   3   8
ATOM      8  C   UNL     1      19.455  27.458  -0.282  1.00  0.00     0.073 C 
ATOM      9  O   UNL     1      19.983  28.193   0.595  1.00  0.00    -0.547 OA
ATOM     10  O   UNL     1      20.239  26.539  -0.972  1.00  0.00    -0.547 OA
ENDBRANCH   3   8
BRANCH   4  11
ATOM     11  O   UNL     1      17.364  27.383   1.676  1.00  0.00    -0.387 OA
ATOM     12  H   UNL     1      17.368  27.971   2.476  1.00  0.00     0.211 HD
ENDBRANCH   4  11
BRANCH   6  13
ATOM     13  O   UNL     1      15.013  28.792   1.284  1.00  0.00    -0.387 OA
ATOM     14  H   UNL     1      14.452  29.555   0.986  1.00  0.00     0.211 HD
ENDBRANCH   6  13
BRANCH   7  15
ATOM     15  O   UNL     1      13.898  27.200  -0.820  1.00  0.00    -0.384 OA
ATOM     16  H   UNL     1      13.668  28.156  -0.680  1.00  0.00     0.211 HD
ENDBRANCH   7  15
ENDBRANCH   1   2
BRANCH   1  17
ATOM     17  C   UNL     1      16.364  26.889  -3.970  1.00  0.00     0.172 A 
ATOM     18  C   UNL     1      15.291  26.490  -4.787  1.00  0.00     0.201 A 
ATOM     19  C   UNL     1      17.667  26.886  -4.498  1.00  0.00     0.098 A 
ATOM     20  C   UNL     1      15.518  26.072  -6.112  1.00  0.00     0.176 A 
ATOM     21  C   UNL     1      17.904  26.467  -5.807  1.00  0.00     0.146 A 
ATOM     22  C   UNL     1      16.834  26.052  -6.629  1.00  0.00     0.111 A 
ATOM     23  O   UNL     1      19.152  26.463  -6.266  1.00  0.00    -0.456 OA
ATOM     24  C   UNL     1      17.144  25.627  -7.937  1.00  0.00     0.197 A 
ATOM     25  C   UNL     1      19.478  26.077  -7.497  1.00  0.00     0.138 A 
ATOM     26  C   UNL     1      18.470  25.638  -8.370  1.00  0.00     0.100 A 
ATOM     27  O   UNL     1      16.246  25.229  -8.728  1.00  0.00    -0.289 OA
BRANCH  18  28
ATOM     28  O   UNL     1      13.985  26.498  -4.290  1.00  0.00    -0.502 OA
ATOM     29  H   UNL     1      13.205  26.110  -4.805  1.00  0.00     0.293 HD
ENDBRANCH  18  28
BRANCH  20  30
ATOM     30  O   UNL     1      14.441  25.677  -6.910  1.00  0.00    -0.504 OA
ATOM     31  H   UNL     1      14.390  24.764  -7.344  1.00  0.00     0.293 HD
ENDBRANCH  20  30
BRANCH  25  32
ATOM     32  C   UNL     1      20.908  26.108  -7.899  1.00  0.00     0.017 A 
ATOM     33  C   UNL     1      21.547  27.349  -8.086  1.00  0.00     0.012 A 
ATOM     34  C   UNL     1      21.644  24.926  -8.125  1.00  0.00     0.012 A 
ATOM     35  C   UNL     1      22.892  27.407  -8.466  1.00  0.00     0.001 A 
ATOM     36  C   UNL     1      22.989  24.990  -8.503  1.00  0.00     0.001 A 
ATOM     37  C   UNL     1      23.613  26.228  -8.671  1.00  0.00     0.000 A 
ENDBRANCH  25  32
ENDBRANCH   1  17
TORSDOF 9
ENDMDL
MODEL 2
REMARK VINA RESULT:    -8.790      2.864      5.858
REMARK INTER + INTRA:         -13.322
REMARK INTER:                 -12.002
REMARK INTRA:                  -1.320
REMARK UNBOUND:                -1.192
REMARK SMILES O=C([O-])[C@H]1O[C@H](Oc2cc3oc(-c4ccccc4)cc(=O)c3c(O)c2O)[C@H](O)[C@@H](O)[C@H]1O
REMARK SMILES IDX 7 1 6 2 4 3 31 4 5 5 29 6 27 7 2 8 1 9 3 10 32 11 30 13
REMARK SMILES IDX 28 15 8 17 25 18 9 19 23 20 10 21 22 22 11 23 20 24 12 25
REMARK SMILES IDX 19 26 21 27 26 28 24 30 13 32 14 33 18 34 15 35 17 36 16 37
REMARK H PARENT 32 12 30 14 28 16 26 29 24 31
REMARK Flexibility Score: inf
ROOT
ATOM      1  O   UNL     1      18.101  25.904  -2.749  1.00  0.00    -0.458 OA
ENDROOT
BRANCH   1   2
ATOM      2  C   UNL     1      18.130  26.519  -1.453  1.00  0.00     0.339 C 
ATOM      3  C   UNL     1      16.204  25.362  -0.761  1.00  0.00     0.199 C 
ATOM      4  C   UNL     1      16.963  24.532   0.295  1.00  0.00     0.180 C 
ATOM      5  O   UNL     1      16.810  26.634  -0.940  1.00  0.00    -0.328 OA
ATOM      6  C   UNL     1      18.424  24.366  -0.153  1.00  0.00     0.181 C 
ATOM      7  C   UNL     1      19.036  25.742  -0.464  1.00  0.00     0.214 C 
BRANCH   3   8
ATOM      8  C   UNL     1      14.774  25.544  -0.340  1.00  0.00     0.073 C 
ATOM      9  O   UNL     1      14.142  26.588  -0.654  1.00  0.00    -0.547 OA
ATOM     10  O   UNL     1      14.163  24.587   0.463  1.00  0.00    -0.547 OA
ENDBRANCH   3   8
BRANCH   4  11
ATOM     11  O   UNL     1      16.904  25.182   1.542  1.00  0.00    -0.387 OA
ATOM     12  H   UNL     1      16.005  24.998   1.922  1.00  0.00     0.211 HD
ENDBRANCH   4  11
BRANCH   6  13
ATOM     13  O   UNL     1      19.157  23.724   0.859  1.00  0.00    -0.387 OA
ATOM     14  H   UNL     1      18.847  22.782   0.886  1.00  0.00     0.211 HD
ENDBRANCH   6  13
BRANCH   7  15
ATOM     15  O   UNL     1      20.325  25.572  -0.993  1.00  0.00    -0.384 OA
ATOM     16  H   UNL     1      20.959  25.636  -0.231  1.00  0.00     0.211 HD
ENDBRANCH   7  15
ENDBRANCH   1   2
BRANCH   1  17
ATOM     17  C   UNL     1      18.031  26.555  -3.995  1.00  0.00     0.172 A 
ATOM     18  C   UNL     1      19.235  26.930  -4.618  1.00  0.00     0.201 A 
ATOM     19  C   UNL     1      16.810  26.829  -4.636  1.00  0.00     0.098 A 
ATOM     20  C   UNL     1      19.220  27.592  -5.861  1.00  0.00     0.176 A 
ATOM     21  C   UNL     1      16.784  27.489  -5.864  1.00  0.00     0.146 A 
ATOM     22  C   UNL     1      17.987  27.882  -6.490  1.00  0.00     0.111 A 
ATOM     23  O   UNL     1      15.610  27.746  -6.433  1.00  0.00    -0.456 OA
ATOM     24  C   UNL     1      17.890  28.558  -7.724  1.00  0.00     0.197 A 
ATOM     25  C   UNL     1      15.482  28.373  -7.600  1.00  0.00     0.138 A 
ATOM     26  C   UNL     1      16.633  28.806  -8.277  1.00  0.00     0.100 A 
ATOM     27  O   UNL     1      18.917  28.953  -8.339  1.00  0.00    -0.289 OA
BRANCH  18  28
ATOM     28  O   UNL     1      20.461  26.656  -4.008  1.00  0.00    -0.502 OA
ATOM     29  H   UNL     1      20.544  26.044  -3.205  1.00  0.00     0.293 HD
ENDBRANCH  18  28
BRANCH  20  30
ATOM     30  O   UNL     1      20.424  27.959  -6.467  1.00  0.00    -0.504 OA
ATOM     31  H   UNL     1      20.818  27.453  -7.250  1.00  0.00     0.293 HD
ENDBRANCH  20  30
BRANCH  25  32
ATOM     32  C   UNL     1      14.117  28.610  -8.136  1.00  0.00     0.017 A 
ATOM     33  C   UNL     1      13.158  27.582  -8.066  1.00  0.00     0.012 A 
ATOM     34  C   UNL     1      13.757  29.833  -8.741  1.00  0.00     0.012 A 
ATOM     35  C   UNL     1      11.867  27.778  -8.565  1.00  0.00     0.001 A 
ATOM     36  C   UNL     1      12.463  30.024  -9.237  1.00  0.00     0.001 A 
ATOM     37  C   UNL     1      11.519  28.999  -9.147  1.00  0.00     0.000 A 
ENDBRANCH  25  32
ENDBRANCH   1  17
TORSDOF 9
ENDMDL
MODEL 3
REMARK VINA RESULT:    -8.594      1.945      3.020
REMARK INTER + INTRA:         -13.052
REMARK INTER:                 -11.975
REMARK INTRA:                  -1.077
REMARK UNBOUND:                -1.192
REMARK SMILES O=C([O-])[C@H]1O[C@H](Oc2cc3oc(-c4ccccc4)cc(=O)c3c(O)c2O)[C@H](O)[C@@H](O)[C@H]1O
REMARK SMILES IDX 7 1 6 2 4 3 31 4 5 5 29 6 27 7 2 8 1 9 3 10 32 11 30 13
REMARK SMILES IDX 28 15 8 17 25 18 9 19 23 20 10 21 22 22 11 23 20 24 12 25
REMARK SMILES IDX 19 26 21 27 26 28 24 30 13 32 14 33 18 34 15 35 17 36 16 37
REMARK H PARENT 32 12 30 14 28 16 26 29 24 31
REMARK Flexibility Score: inf
ROOT
ATOM      1  O   UNL     1      17.561  26.099  -2.888  1.00  0.00    -0.458 OA
ENDROOT
BRANCH   1   2
ATOM      2  C   UNL     1      18.443  26.138  -1.756  1.00  0.00     0.339 C 
ATOM      3  C   UNL     1      16.819  27.176  -0.411  1.00  0.00     0.199 C 
ATOM      4  C   UNL     1      16.673  25.957   0.523  1.00  0.00     0.180 C 
ATOM      5  O   UNL     1      18.136  27.258  -0.939  1.00  0.00    -0.328 OA
ATOM      6  C   UNL     1      17.011  24.679  -0.262  1.00  0.00     0.181 C 
ATOM      7  C   UNL     1      18.387  24.826  -0.933  1.00  0.00     0.214 C 
BRANCH   3   8
ATOM      8  C   UNL     1      16.501  28.438   0.339  1.00  0.00     0.073 C 
ATOM      9  O   UNL     1      17.422  29.119   0.865  1.00  0.00    -0.547 OA
ATOM     10  O   UNL     1      15.176  28.822   0.515  1.00  0.00    -0.547 OA
ENDBRANCH   3   8
BRANCH   4  11
ATOM     11  O   UNL     1      17.537  26.097   1.625  1.00  0.00    -0.387 OA
ATOM     12  H   UNL     1      18.465  26.037   1.275  1.00  0.00     0.211 HD
ENDBRANCH   4  11
BRANCH   6  13
ATOM     13  O   UNL     1      17.007  23.577   0.608  1.00  0.00    -0.387 OA
ATOM     14  H   UNL     1      16.635  23.893   1.472  1.00  0.00     0.211 HD
ENDBRANCH   6  13
BRANCH   7  15
ATOM     15  O   UNL     1      18.629  23.711  -1.750  1.00  0.00    -0.384 OA
ATOM     16  H   UNL     1      17.743  23.343  -2.005  1.00  0.00     0.211 HD
ENDBRANCH   7  15
ENDBRANCH   1   2
BRANCH   1  17
ATOM     17  C   UNL     1      17.774  26.685  -4.149  1.00  0.00     0.172 A 
ATOM     18  C   UNL     1      16.657  27.162  -4.859  1.00  0.00     0.201 A 
ATOM     19  C   UNL     1      19.055  26.819  -4.713  1.00  0.00     0.098 A 
ATOM     20  C   UNL     1      16.814  27.749  -6.129  1.00  0.00     0.176 A 
ATOM     21  C   UNL     1      19.221  27.393  -5.973  1.00  0.00     0.146 A 
ATOM     22  C   UNL     1      18.104  27.862  -6.698  1.00  0.00     0.111 A 
ATOM     23  O   UNL     1      20.446  27.489  -6.481  1.00  0.00    -0.456 OA
ATOM     24  C   UNL     1      18.340  28.418  -7.972  1.00  0.00     0.197 A 
ATOM     25  C   UNL     1      20.706  28.017  -7.675  1.00  0.00     0.138 A 
ATOM     26  C   UNL     1      19.644  28.493  -8.461  1.00  0.00     0.100 A 
ATOM     27  O   UNL     1      17.394  28.847  -8.687  1.00  0.00    -0.289 OA
BRANCH  18  28
ATOM     28  O   UNL     1      15.376  27.053  -4.314  1.00  0.00    -0.502 OA
ATOM     29  H   UNL     1      15.000  26.174  -3.977  1.00  0.00     0.293 HD
ENDBRANCH  18  28
BRANCH  20  30
ATOM     30  O   UNL     1      15.694  28.216  -6.821  1.00  0.00    -0.504 OA
ATOM     31  H   UNL     1      15.692  29.094  -7.325  1.00  0.00     0.293 HD
ENDBRANCH  20  30
BRANCH  25  32
ATOM     32  C   UNL     1      22.115  28.065  -8.142  1.00  0.00     0.017 A 
ATOM     33  C   UNL     1      22.757  26.872  -8.529  1.00  0.00     0.012 A 
ATOM     34  C   UNL     1      22.845  29.272  -8.185  1.00  0.00     0.012 A 
ATOM     35  C   UNL     1      24.083  26.889  -8.971  1.00  0.00     0.001 A 
ATOM     36  C   UNL     1      24.171  29.283  -8.628  1.00  0.00     0.001 A 
ATOM     37  C   UNL     1      24.788  28.094  -9.024  1.00  0.00     0.000 A 
ENDBRANCH  25  32
ENDBRANCH   1  17
TORSDOF 9
ENDMDL
MODEL 4
REMARK VINA RESULT:    -8.518      2.772      5.636
REMARK INTER + INTRA:         -12.947
REMARK INTER:                 -11.900
REMARK INTRA:                  -1.047
REMARK UNBOUND:                -1.192
REMARK SMILES O=C([O-])[C@H]1O[C@H](Oc2cc3oc(-c4ccccc4)cc(=O)c3c(O)c2O)[C@H](O)[C@@H](O)[C@H]1O
REMARK SMILES IDX 7 1 6 2 4 3 31 4 5 5 29 6 27 7 2 8 1 9 3 10 32 11 30 13
REMARK SMILES IDX 28 15 8 17 25 18 9 19 23 20 10 21 22 22 11 23 20 24 12 25
REMARK SMILES IDX 19 26 21 27 26 28 24 30 13 32 14 33 18 34 15 35 17 36 16 37
REMARK H PARENT 32 12 30 14 28 16 26 29 24 31
REMARK Flexibility Score: inf
ROOT
ATOM      1  O   UNL     1      16.858  27.010  -2.744  1.00  0.00    -0.458 OA
ENDROOT
BRANCH   1   2
ATOM      2  C   UNL     1      15.899  26.862  -1.686  1.00  0.00     0.339 C 
ATOM      3  C   UNL     1      17.368  25.535  -0.418  1.00  0.00     0.199 C 
ATOM      4  C   UNL     1      17.516  26.590   0.696  1.00  0.00     0.180 C 
ATOM      5  O   UNL     1      16.088  25.617  -1.030  1.00  0.00    -0.328 OA
ATOM      6  C   UNL     1      17.304  27.989   0.094  1.00  0.00     0.181 C 
ATOM      7  C   UNL     1      15.972  28.033  -0.672  1.00  0.00     0.214 C 
BRANCH   3   8
ATOM      8  C   UNL     1      17.563  24.158   0.149  1.00  0.00     0.073 C 
ATOM      9  O   UNL     1      16.571  23.427   0.412  1.00  0.00    -0.547 OA
ATOM     10  O   UNL     1      18.845  23.711   0.454  1.00  0.00    -0.547 OA
ENDBRANCH   3   8
BRANCH   4  11
ATOM     11  O   UNL     1      16.572  26.346   1.711  1.00  0.00    -0.387 OA
ATOM     12  H   UNL     1      16.972  26.667   2.562  1.00  0.00     0.211 HD
ENDBRANCH   4  11
BRANCH   6  13
ATOM     13  O   UNL     1      17.309  28.949   1.119  1.00  0.00    -0.387 OA
ATOM     14  H   UNL     1      17.902  28.603   1.836  1.00  0.00     0.211 HD
ENDBRANCH   6  13
BRANCH   7  15
ATOM     15  O   UNL     1      15.847  29.269  -1.324  1.00  0.00    -0.384 OA
ATOM     16  H   UNL     1      16.476  29.253  -2.093  1.00  0.00     0.211 HD
ENDBRANCH   7  15
ENDBRANCH   1   2
BRANCH   1  17
ATOM     17  C   UNL     1      16.693  26.650  -4.094  1.00  0.00     0.172 A 
ATOM     18  C   UNL     1      17.836  26.298  -4.834  1.00  0.00     0.201 A 
ATOM     19  C   UNL     1      15.434  26.619  -4.719  1.00  0.00     0.098 A 
ATOM     20  C   UNL     1      17.727  25.938  -6.191  1.00  0.00     0.176 A 
ATOM     21  C   UNL     1      15.315  26.270  -6.064  1.00  0.00     0.146 A 
ATOM     22  C   UNL     1      16.459  25.929  -6.817  1.00  0.00     0.111 A 
ATOM     23  O   UNL     1      14.109  26.266  -6.624  1.00  0.00    -0.456 OA
ATOM     24  C   UNL     1      16.271  25.600  -8.175  1.00  0.00     0.197 A 
ATOM     25  C   UNL     1      13.895  25.952  -7.900  1.00  0.00     0.138 A 
ATOM     26  C   UNL     1      14.985  25.614  -8.717  1.00  0.00     0.100 A 
ATOM     27  O   UNL     1      17.243  25.297  -8.918  1.00  0.00    -0.289 OA
BRANCH  18  28
ATOM     28  O   UNL     1      19.097  26.308  -4.232  1.00  0.00    -0.502 OA
ATOM     29  H   UNL     1      19.238  26.594  -3.271  1.00  0.00     0.293 HD
ENDBRANCH  18  28
BRANCH  20  30
ATOM     30  O   UNL     1      18.872  25.593  -6.912  1.00  0.00    -0.504 OA
ATOM     31  H   UNL     1      18.840  25.016  -7.743  1.00  0.00     0.293 HD
ENDBRANCH  20  30
BRANCH  25  32
ATOM     32  C   UNL     1      12.503  25.989  -8.419  1.00  0.00     0.017 A 
ATOM     33  C   UNL     1      11.785  24.786  -8.558  1.00  0.00     0.012 A 
ATOM     34  C   UNL     1      11.885  27.197  -8.805  1.00  0.00     0.012 A 
ATOM     35  C   UNL     1      10.475  24.793  -9.046  1.00  0.00     0.001 A 
ATOM     36  C   UNL     1      10.574  27.198  -9.292  1.00  0.00     0.001 A 
ATOM     37  C   UNL     1       9.868  25.998  -9.409  1.00  0.00     0.000 A 
ENDBRANCH  25  32
ENDBRANCH   1  17
TORSDOF 9
ENDMDL
MODEL 5
REMARK VINA RESULT:    -8.180      1.973      3.106
REMARK INTER + INTRA:         -12.480
REMARK INTER:                 -11.426
REMARK INTRA:                  -1.054
REMARK UNBOUND:                -1.192
REMARK SMILES O=C([O-])[C@H]1O[C@H](Oc2cc3oc(-c4ccccc4)cc(=O)c3c(O)c2O)[C@H](O)[C@@H](O)[C@H]1O
REMARK SMILES IDX 7 1 6 2 4 3 31 4 5 5 29 6 27 7 2 8 1 9 3 10 32 11 30 13
REMARK SMILES IDX 28 15 8 17 25 18 9 19 23 20 10 21 22 22 11 23 20 24 12 25
REMARK SMILES IDX 19 26 21 27 26 28 24 30 13 32 14 33 18 34 15 35 17 36 16 37
REMARK H PARENT 32 12 30 14 28 16 26 29 24 31
REMARK Flexibility Score: inf
ROOT
ATOM      1  O   UNL     1      16.596  26.216  -2.329  1.00  0.00    -0.458 OA
ENDROOT
BRANCH   1   2
ATOM      2  C   UNL     1      17.740  26.320  -1.468  1.00  0.00     0.339 C 
ATOM      3  C   UNL     1      16.393  26.530   0.447  1.00  0.00     0.199 C 
ATOM      4  C   UNL     1      16.844  25.177   1.033  1.00  0.00     0.180 C 
ATOM      5  O   UNL     1      17.424  27.116  -0.335  1.00  0.00    -0.328 OA
ATOM      6  C   UNL     1      17.237  24.237  -0.118  1.00  0.00     0.181 C 
ATOM      7  C   UNL     1      18.264  24.928  -1.031  1.00  0.00     0.214 C 
BRANCH   3   8
ATOM      8  C   UNL     1      16.012  27.469   1.556  1.00  0.00     0.073 C 
ATOM      9  O   UNL     1      16.075  27.098   2.759  1.00  0.00    -0.547 OA
ATOM     10  O   UNL     1      15.519  28.734   1.252  1.00  0.00    -0.547 OA
ENDBRANCH   3   8
BRANCH   4  11
ATOM     11  O   UNL     1      17.937  25.375   1.897  1.00  0.00    -0.387 OA
ATOM     12  H   UNL     1      17.704  26.137   2.490  1.00  0.00     0.211 HD
ENDBRANCH   4  11
BRANCH   6  13
ATOM     13  O   UNL     1      17.771  23.049   0.405  1.00  0.00    -0.387 OA
ATOM     14  H   UNL     1      17.678  23.101   1.392  1.00  0.00     0.211 HD
ENDBRANCH   6  13
BRANCH   7  15
ATOM     15  O   UNL     1      18.518  24.116  -2.147  1.00  0.00    -0.384 OA
ATOM     16  H   UNL     1      18.290  24.652  -2.951  1.00  0.00     0.211 HD
ENDBRANCH   7  15
ENDBRANCH   1   2
BRANCH   1  17
ATOM     17  C   UNL     1      16.511  26.612  -3.676  1.00  0.00     0.172 A 
ATOM     18  C   UNL     1      15.248  26.599  -4.296  1.00  0.00     0.201 A 
ATOM     19  C   UNL     1      17.633  27.028  -4.414  1.00  0.00     0.098 A 
ATOM     20  C   UNL     1      15.109  26.978  -5.645  1.00  0.00     0.176 A 
ATOM     21  C   UNL     1      17.508  27.399  -5.752  1.00  0.00     0.146 A 
ATOM     22  C   UNL     1      16.247  27.376  -6.385  1.00  0.00     0.111 A 
ATOM     23  O   UNL     1      18.594  27.772  -6.422  1.00  0.00    -0.456 OA
ATOM     24  C   UNL     1      16.191  27.749  -7.744  1.00  0.00     0.197 A 
ATOM     25  C   UNL     1      18.577  28.139  -7.701  1.00  0.00     0.138 A 
ATOM     26  C   UNL     1      17.361  28.129  -8.403  1.00  0.00     0.100 A 
ATOM     27  O   UNL     1      15.105  27.742  -8.383  1.00  0.00    -0.289 OA
BRANCH  18  28
ATOM     28  O   UNL     1      14.116  26.204  -3.580  1.00  0.00    -0.502 OA
ATOM     29  H   UNL     1      13.243  26.717  -3.615  1.00  0.00     0.293 HD
ENDBRANCH  18  28
BRANCH  20  30
ATOM     30  O   UNL     1      13.848  26.958  -6.245  1.00  0.00    -0.504 OA
ATOM     31  H   UNL     1      12.999  27.171  -5.737  1.00  0.00     0.293 HD
ENDBRANCH  20  30
BRANCH  25  32
ATOM     32  C   UNL     1      19.856  28.530  -8.348  1.00  0.00     0.017 A 
ATOM     33  C   UNL     1      21.075  28.205  -7.723  1.00  0.00     0.012 A 
ATOM     34  C   UNL     1      19.887  29.245  -9.564  1.00  0.00     0.012 A 
ATOM     35  C   UNL     1      22.293  28.562  -8.309  1.00  0.00     0.001 A 
ATOM     36  C   UNL     1      21.109  29.600 -10.146  1.00  0.00     0.001 A 
ATOM     37  C   UNL     1      22.310  29.256  -9.522  1.00  0.00     0.000 A 
ENDBRANCH  25  32
ENDBRANCH   1  17
TORSDOF 9
ENDMDL
MODEL 6
REMARK VINA RESULT:    -7.988      2.755      5.636
REMARK INTER + INTRA:         -12.215
REMARK INTER:                 -11.371
REMARK INTRA:                  -0.844
REMARK UNBOUND:                -1.192
REMARK SMILES O=C([O-])[C@H]1O[C@H](Oc2cc3oc(-c4ccccc4)cc(=O)c3c(O)c2O)[C@H](O)[C@@H](O)[C@H]1O
REMARK SMILES IDX 7 1 6 2 4 3 31 4 5 5 29 6 27 7 2 8 1 9 3 10 32 11 30 13
REMARK SMILES IDX 28 15 8 17 25 18 9 19 23 20 10 21 22 22 11 23 20 24 12 25
REMARK SMILES IDX 19 26 21 27 26 28 24 30 13 32 14 33 18 34 15 35 17 36 16 37
REMARK H PARENT 32 12 30 14 28 16 26 29 24 31
REMARK Flexibility Score: inf
ROOT
ATOM      1  O   UNL     1      18.068  26.081  -2.641  1.00  0.00    -0.458 OA
ENDROOT
BRANCH   1   2
ATOM      2  C   UNL     1      18.718  26.632  -1.486  1.00  0.00     0.339 C 
ATOM      3  C   UNL     1      16.668  27.240  -0.510  1.00  0.00     0.199 C 
ATOM      4  C   UNL     1      16.810  26.235   0.651  1.00  0.00     0.180 C 
ATOM      5  O   UNL     1      17.940  27.693  -0.951  1.00  0.00    -0.328 OA
ATOM      6  C   UNL     1      17.665  25.046   0.184  1.00  0.00     0.181 C 
ATOM      7  C   UNL     1      18.991  25.554  -0.406  1.00  0.00     0.214 C 
BRANCH   3   8
ATOM      8  C   UNL     1      15.842  28.416  -0.073  1.00  0.00     0.073 C 
ATOM      9  O   UNL     1      14.590  28.406  -0.212  1.00  0.00    -0.547 OA
ATOM     10  O   UNL     1      16.469  29.554   0.425  1.00  0.00    -0.547 OA
ENDBRANCH   3   8
BRANCH   4  11
ATOM     11  O   UNL     1      17.414  26.867   1.755  1.00  0.00    -0.387 OA
ATOM     12  H   UNL     1      16.746  26.864   2.490  1.00  0.00     0.211 HD
ENDBRANCH   4  11
BRANCH   6  13
ATOM     13  O   UNL     1      17.911  24.187   1.268  1.00  0.00    -0.387 OA
ATOM     14  H   UNL     1      18.712  23.650   1.033  1.00  0.00     0.211 HD
ENDBRANCH   6  13
BRANCH   7  15
ATOM     15  O   UNL     1      19.707  24.474  -0.946  1.00  0.00    -0.384 OA
ATOM     16  H   UNL     1      20.665  24.737  -0.950  1.00  0.00     0.211 HD
ENDBRANCH   7  15
ENDBRANCH   1   2
BRANCH   1  17
ATOM     17  C   UNL     1      17.989  26.654  -3.923  1.00  0.00     0.172 A 
ATOM     18  C   UNL     1      19.188  26.986  -4.579  1.00  0.00     0.201 A 
ATOM     19  C   UNL     1      16.763  26.893  -4.570  1.00  0.00     0.098 A 
ATOM     20  C   UNL     1      19.164  27.570  -5.860  1.00  0.00     0.176 A 
ATOM     21  C   UNL     1      16.728  27.477  -5.836  1.00  0.00     0.146 A 
ATOM     22  C   UNL     1      17.926  27.826  -6.495  1.00  0.00     0.111 A 
ATOM     23  O   UNL     1      15.550  27.702  -6.409  1.00  0.00    -0.456 OA
ATOM     24  C   UNL     1      17.820  28.426  -7.767  1.00  0.00     0.197 A 
ATOM     25  C   UNL     1      15.413  28.257  -7.611  1.00  0.00     0.138 A 
ATOM     26  C   UNL     1      16.560  28.643  -8.324  1.00  0.00     0.100 A 
ATOM     27  O   UNL     1      18.843  28.778  -8.414  1.00  0.00    -0.289 OA
BRANCH  18  28
ATOM     28  O   UNL     1      20.419  26.746  -3.964  1.00  0.00    -0.502 OA
ATOM     29  H   UNL     1      20.855  27.414  -3.341  1.00  0.00     0.293 HD
ENDBRANCH  18  28
BRANCH  20  30
ATOM     30  O   UNL     1      20.364  27.896  -6.498  1.00  0.00    -0.504 OA
ATOM     31  H   UNL     1      21.153  27.262  -6.531  1.00  0.00     0.293 HD
ENDBRANCH  20  30
BRANCH  25  32
ATOM     32  C   UNL     1      14.044  28.466  -8.148  1.00  0.00     0.017 A 
ATOM     33  C   UNL     1      13.115  27.408  -8.106  1.00  0.00     0.012 A 
ATOM     34  C   UNL     1      13.651  29.690  -8.729  1.00  0.00     0.012 A 
ATOM     35  C   UNL     1      11.821  27.577  -8.606  1.00  0.00     0.001 A 
ATOM     36  C   UNL     1      12.355  29.854  -9.227  1.00  0.00     0.001 A 
ATOM     37  C   UNL     1      11.440  28.801  -9.163  1.00  0.00     0.000 A 
ENDBRANCH  25  32
ENDBRANCH   1  17
TORSDOF 9
ENDMDL
MODEL 7
REMARK VINA RESULT:    -7.874      1.965      2.961
REMARK INTER + INTRA:         -12.058
REMARK INTER:                 -10.921
REMARK INTRA:                  -1.137
REMARK UNBOUND:                -1.192
REMARK SMILES O=C([O-])[C@H]1O[C@H](Oc2cc3oc(-c4ccccc4)cc(=O)c3c(O)c2O)[C@H](O)[C@@H](O)[C@H]1O
REMARK SMILES IDX 7 1 6 2 4 3 31 4 5 5 29 6 27 7 2 8 1 9 3 10 32 11 30 13
REMARK SMILES IDX 28 15 8 17 25 18 9 19 23 20 10 21 22 22 11 23 20 24 12 25
REMARK SMILES IDX 19 26 21 27 26 28 24 30 13 32 14 33 18 34 15 35 17 36 16 37
REMARK H PARENT 32 12 30 14 28 16 26 29 24 31
REMARK Flexibility Score: inf
ROOT
ATOM      1  O   UNL     1      17.376  26.183  -2.931  1.00  0.00    -0.458 OA
ENDROOT
BRANCH   1   2
ATOM      2  C   UNL     1      18.345  26.274  -1.877  1.00  0.00     0.339 C 
ATOM      3  C   UNL     1      16.802  27.286  -0.422  1.00  0.00     0.199 C 
ATOM      4  C   UNL     1      16.773  26.084   0.543  1.00  0.00     0.180 C 
ATOM      5  O   UNL     1      18.067  27.400  -1.057  1.00  0.00    -0.328 OA
ATOM      6  C   UNL     1      17.089  24.801  -0.244  1.00  0.00     0.181 C 
ATOM      7  C   UNL     1      18.400  24.978  -1.028  1.00  0.00     0.214 C 
BRANCH   3   8
ATOM      8  C   UNL     1      16.503  28.553   0.328  1.00  0.00     0.073 C 
ATOM      9  O   UNL     1      17.439  29.291   0.736  1.00  0.00    -0.547 OA
ATOM     10  O   UNL     1      15.187  28.880   0.637  1.00  0.00    -0.547 OA
ENDBRANCH   3   8
BRANCH   4  11
ATOM     11  O   UNL     1      17.719  26.274   1.568  1.00  0.00    -0.387 OA
ATOM     12  H   UNL     1      18.605  26.371   1.129  1.00  0.00     0.211 HD
ENDBRANCH   4  11
BRANCH   6  13
ATOM     13  O   UNL     1      17.194  23.717   0.643  1.00  0.00    -0.387 OA
ATOM     14  H   UNL     1      16.459  23.089   0.417  1.00  0.00     0.211 HD
ENDBRANCH   6  13
BRANCH   7  15
ATOM     15  O   UNL     1      18.613  23.855  -1.842  1.00  0.00    -0.384 OA
ATOM     16  H   UNL     1      17.720  23.553  -2.155  1.00  0.00     0.211 HD
ENDBRANCH   7  15
ENDBRANCH   1   2
BRANCH   1  17
ATOM     17  C   UNL     1      17.584  26.442  -4.298  1.00  0.00     0.172 A 
ATOM     18  C   UNL     1      16.823  27.456  -4.907  1.00  0.00     0.201 A 
ATOM     19  C   UNL     1      18.527  25.736  -5.066  1.00  0.00     0.098 A 
ATOM     20  C   UNL     1      16.986  27.750  -6.275  1.00  0.00     0.176 A 
ATOM     21  C   UNL     1      18.692  26.014  -6.423  1.00  0.00     0.146 A 
ATOM     22  C   UNL     1      17.923  27.021  -7.045  1.00  0.00     0.111 A 
ATOM     23  O   UNL     1      19.583  25.315  -7.120  1.00  0.00    -0.456 OA
ATOM     24  C   UNL     1      18.129  27.242  -8.422  1.00  0.00     0.197 A 
ATOM     25  C   UNL     1      19.809  25.503  -8.418  1.00  0.00     0.138 A 
ATOM     26  C   UNL     1      19.073  26.479  -9.109  1.00  0.00     0.100 A 
ATOM     27  O   UNL     1      17.472  28.114  -9.053  1.00  0.00    -0.289 OA
BRANCH  18  28
ATOM     28  O   UNL     1      15.890  28.182  -4.163  1.00  0.00    -0.502 OA
ATOM     29  H   UNL     1      15.462  29.033  -4.507  1.00  0.00     0.293 HD
ENDBRANCH  18  28
BRANCH  20  30
ATOM     30  O   UNL     1      16.222  28.759  -6.865  1.00  0.00    -0.504 OA
ATOM     31  H   UNL     1      16.635  29.525  -7.381  1.00  0.00     0.293 HD
ENDBRANCH  20  30
BRANCH  25  32
ATOM     32  C   UNL     1      20.825  24.657  -9.095  1.00  0.00     0.017 A 
ATOM     33  C   UNL     1      20.533  24.100 -10.355  1.00  0.00     0.012 A 
ATOM     34  C   UNL     1      22.071  24.369  -8.499  1.00  0.00     0.012 A 
ATOM     35  C   UNL     1      21.470  23.298 -11.012  1.00  0.00     0.001 A 
ATOM     36  C   UNL     1      23.005  23.567  -9.162  1.00  0.00     0.001 A 
ATOM     37  C   UNL     1      22.707  23.035 -10.418  1.00  0.00     0.000 A 
ENDBRANCH  25  32
ENDBRANCH   1  17
TORSDOF 9
ENDMDL
MODEL 8
REMARK VINA RESULT:    -7.817      3.295      6.477
REMARK INTER + INTRA:         -11.980
REMARK INTER:                 -10.810
REMARK INTRA:                  -1.169
REMARK UNBOUND:                -1.192
REMARK SMILES O=C([O-])[C@H]1O[C@H](Oc2cc3oc(-c4ccccc4)cc(=O)c3c(O)c2O)[C@H](O)[C@@H](O)[C@H]1O
REMARK SMILES IDX 7 1 6 2 4 3 31 4 5 5 29 6 27 7 2 8 1 9 3 10 32 11 30 13
REMARK SMILES IDX 28 15 8 17 25 18 9 19 23 20 10 21 22 22 11 23 20 24 12 25
REMARK SMILES IDX 19 26 21 27 26 28 24 30 13 32 14 33 18 34 15 35 17 36 16 37
REMARK H PARENT 32 12 30 14 28 16 26 29 24 31
REMARK Flexibility Score: inf
ROOT
ATOM      1  O   UNL     1      16.963  26.258  -3.780  1.00  0.00    -0.458 OA
ENDROOT
BRANCH   1   2
ATOM      2  C   UNL     1      17.266  27.051  -2.622  1.00  0.00     0.339 C 
ATOM      3  C   UNL     1      15.926  25.704  -1.238  1.00  0.00     0.199 C 
ATOM      4  C   UNL     1      17.126  25.172  -0.428  1.00  0.00     0.180 C 
ATOM      5  O   UNL     1      16.176  27.020  -1.713  1.00  0.00    -0.328 OA
ATOM      6  C   UNL     1      18.379  25.186  -1.319  1.00  0.00     0.181 C 
ATOM      7  C   UNL     1      18.572  26.585  -1.929  1.00  0.00     0.214 C 
BRANCH   3   8
ATOM      8  C   UNL     1      14.691  25.708  -0.383  1.00  0.00     0.073 C 
ATOM      9  O   UNL     1      13.880  26.671  -0.433  1.00  0.00    -0.547 OA
ATOM     10  O   UNL     1      14.474  24.673   0.522  1.00  0.00    -0.547 OA
ENDBRANCH   3   8
BRANCH   4  11
ATOM     11  O   UNL     1      17.326  25.977   0.709  1.00  0.00    -0.387 OA
ATOM     12  H   UNL     1      16.426  26.226   1.049  1.00  0.00     0.211 HD
ENDBRANCH   4  11
BRANCH   6  13
ATOM     13  O   UNL     1      19.503  24.827  -0.557  1.00  0.00    -0.387 OA
ATOM     14  H   UNL     1      19.660  23.859  -0.715  1.00  0.00     0.211 HD
ENDBRANCH   6  13
BRANCH   7  15
ATOM     15  O   UNL     1      19.640  26.554  -2.839  1.00  0.00    -0.384 OA
ATOM     16  H   UNL     1      19.986  27.483  -2.906  1.00  0.00     0.211 HD
ENDBRANCH   7  15
ENDBRANCH   1   2
BRANCH   1  17
ATOM     17  C   UNL     1      16.482  26.719  -5.020  1.00  0.00     0.172 A 
ATOM     18  C   UNL     1      17.331  27.514  -5.810  1.00  0.00     0.201 A 
ATOM     19  C   UNL     1      15.197  26.403  -5.495  1.00  0.00     0.098 A 
ATOM     20  C   UNL     1      16.895  28.007  -7.055  1.00  0.00     0.176 A 
ATOM     21  C   UNL     1      14.753  26.892  -6.724  1.00  0.00     0.146 A 
ATOM     22  C   UNL     1      15.594  27.702  -7.517  1.00  0.00     0.111 A 
ATOM     23  O   UNL     1      13.526  26.586  -7.134  1.00  0.00    -0.456 OA
ATOM     24  C   UNL     1      15.079  28.175  -8.741  1.00  0.00     0.197 A 
ATOM     25  C   UNL     1      13.011  27.007  -8.287  1.00  0.00     0.138 A 
ATOM     26  C   UNL     1      13.783  27.828  -9.125  1.00  0.00     0.100 A 
ATOM     27  O   UNL     1      15.762  28.914  -9.500  1.00  0.00    -0.289 OA
BRANCH  18  28
ATOM     28  O   UNL     1      18.617  27.829  -5.366  1.00  0.00    -0.502 OA
ATOM     29  H   UNL     1      19.079  28.697  -5.608  1.00  0.00     0.293 HD
ENDBRANCH  18  28
BRANCH  20  30
ATOM     30  O   UNL     1      17.751  28.797  -7.826  1.00  0.00    -0.504 OA
ATOM     31  H   UNL     1      18.522  29.317  -7.427  1.00  0.00     0.293 HD
ENDBRANCH  20  30
BRANCH  25  32
ATOM     32  C   UNL     1      11.624  26.606  -8.638  1.00  0.00     0.017 A 
ATOM     33  C   UNL     1      10.662  27.600  -8.899  1.00  0.00     0.012 A 
ATOM     34  C   UNL     1      11.232  25.251  -8.691  1.00  0.00     0.012 A 
ATOM     35  C   UNL     1       9.350  27.250  -9.229  1.00  0.00     0.001 A 
ATOM     36  C   UNL     1       9.918  24.908  -9.023  1.00  0.00     0.001 A 
ATOM     37  C   UNL     1       8.978  25.905  -9.295  1.00  0.00     0.000 A 
ENDBRANCH  25  32
ENDBRANCH   1  17
TORSDOF 9
ENDMDL
MODEL 9
REMARK VINA RESULT:    -7.785      5.547      8.807
REMARK INTER + INTRA:         -11.934
REMARK INTER:                 -10.769
REMARK INTRA:                  -1.165
REMARK UNBOUND:                -1.192
REMARK SMILES O=C([O-])[C@H]1O[C@H](Oc2cc3oc(-c4ccccc4)cc(=O)c3c(O)c2O)[C@H](O)[C@@H](O)[C@H]1O
REMARK SMILES IDX 7 1 6 2 4 3 31 4 5 5 29 6 27 7 2 8 1 9 3 10 32 11 30 13
REMARK SMILES IDX 28 15 8 17 25 18 9 19 23 20 10 21 22 22 11 23 20 24 12 25
REMARK SMILES IDX 19 26 21 27 26 28 24 30 13 32 14 33 18 34 15 35 17 36 16 37
REMARK H PARENT 32 12 30 14 28 16 26 29 24 31
REMARK Flexibility Score: inf
ROOT
ATOM      1  O   UNL     1      10.910  28.457  -9.080  1.00  0.00    -0.458 OA
ENDROOT
BRANCH   1   2
ATOM      2  C   UNL     1      10.554  27.772 -10.290  1.00  0.00     0.339 C 
ATOM      3  C   UNL     1      10.685  25.670  -9.246  1.00  0.00     0.199 C 
ATOM      4  C   UNL     1       9.172  25.402  -9.375  1.00  0.00     0.180 C 
ATOM      5  O   UNL     1      11.151  26.484 -10.313  1.00  0.00    -0.328 OA
ATOM      6  C   UNL     1       8.423  26.744  -9.385  1.00  0.00     0.181 C 
ATOM      7  C   UNL     1       9.017  27.667 -10.463  1.00  0.00     0.214 C 
BRANCH   3   8
ATOM      8  C   UNL     1      11.438  24.371  -9.242  1.00  0.00     0.073 C 
ATOM      9  O   UNL     1      12.697  24.360  -9.283  1.00  0.00    -0.547 OA
ATOM     10  O   UNL     1      10.740  23.167  -9.264  1.00  0.00    -0.547 OA
ENDBRANCH   3   8
BRANCH   4  11
ATOM     11  O   UNL     1       8.916  24.690 -10.562  1.00  0.00    -0.387 OA
ATOM     12  H   UNL     1       8.452  23.851 -10.302  1.00  0.00     0.211 HD
ENDBRANCH   4  11
BRANCH   6  13
ATOM     13  O   UNL     1       7.058  26.521  -9.633  1.00  0.00    -0.387 OA
ATOM     14  H   UNL     1       6.554  27.046  -8.958  1.00  0.00     0.211 HD
ENDBRANCH   6  13
BRANCH   7  15
ATOM     15  O   UNL     1       8.415  28.932 -10.379  1.00  0.00    -0.384 OA
ATOM     16  H   UNL     1       7.434  28.788 -10.441  1.00  0.00     0.211 HD
ENDBRANCH   7  15
ENDBRANCH   1   2
BRANCH   1  17
ATOM     17  C   UNL     1      12.133  29.089  -8.793  1.00  0.00     0.172 A 
ATOM     18  C   UNL     1      12.160  30.495  -8.741  1.00  0.00     0.201 A 
ATOM     19  C   UNL     1      13.316  28.370  -8.547  1.00  0.00     0.098 A 
ATOM     20  C   UNL     1      13.361  31.177  -8.466  1.00  0.00     0.176 A 
ATOM     21  C   UNL     1      14.512  29.036  -8.280  1.00  0.00     0.146 A 
ATOM     22  C   UNL     1      14.551  30.447  -8.240  1.00  0.00     0.111 A 
ATOM     23  O   UNL     1      15.614  28.322  -8.068  1.00  0.00    -0.456 OA
ATOM     24  C   UNL     1      15.795  31.057  -7.979  1.00  0.00     0.197 A 
ATOM     25  C   UNL     1      16.801  28.866  -7.811  1.00  0.00     0.138 A 
ATOM     26  C   UNL     1      16.922  30.264  -7.767  1.00  0.00     0.100 A 
ATOM     27  O   UNL     1      15.915  32.312  -7.940  1.00  0.00    -0.289 OA
BRANCH  18  28
ATOM     28  O   UNL     1      10.996  31.232  -8.967  1.00  0.00    -0.502 OA
ATOM     29  H   UNL     1      10.779  32.078  -8.454  1.00  0.00     0.293 HD
ENDBRANCH  18  28
BRANCH  20  30
ATOM     30  O   UNL     1      13.371  32.573  -8.419  1.00  0.00    -0.504 OA
ATOM     31  H   UNL     1      14.189  33.104  -8.145  1.00  0.00     0.293 HD
ENDBRANCH  20  30
BRANCH  25  32
ATOM     32  C   UNL     1      17.965  27.967  -7.597  1.00  0.00     0.017 A 
ATOM     33  C   UNL     1      17.773  26.572  -7.608  1.00  0.00     0.012 A 
ATOM     34  C   UNL     1      19.260  28.472  -7.355  1.00  0.00     0.012 A 
ATOM     35  C   UNL     1      18.851  25.705  -7.407  1.00  0.00     0.001 A 
ATOM     36  C   UNL     1      20.334  27.599  -7.156  1.00  0.00     0.001 A 
ATOM     37  C   UNL     1      20.131  26.217  -7.185  1.00  0.00     0.000 A 
ENDBRANCH  25  32
ENDBRANCH   1  17
TORSDOF 9
ENDMDL
