MODEL 1
REMARK VINA RESULT:    -3.628      0.000      0.000
REMARK INTER + INTRA:          -5.081
REMARK INTER:                  -4.900
REMARK INTRA:                  -0.181
REMARK UNBOUND:                -0.181
REMARK SMILES CCCCCCCC(=O)[O-]
REMARK SMILES IDX 5 1 6 2 7 3 8 4 9 5 10 6 4 7 3 8 2 9 1 10
REMARK H PARENT
REMARK Flexibility Score: inf
ROOT
ATOM      1  C   UNL     1      36.855 106.059 262.288  1.00  0.00     0.000 C 
ENDROOT
BRANCH   1   2
ATOM      2  C   UNL     1      35.643 106.246 263.219  1.00  0.00     0.006 C 
BRANCH   2   3
ATOM      3  C   UNL     1      35.172 104.920 263.830  1.00  0.00     0.053 C 
BRANCH   3   4
ATOM      4  C   UNL     1      34.958 105.035 265.309  1.00  0.00     0.041 C 
ATOM      5  O   UNL     1      34.880 106.168 265.854  1.00  0.00    -0.550 OA
ATOM      6  O   UNL     1      34.875 103.889 266.090  1.00  0.00    -0.550 OA
ENDBRANCH   3   4
ENDBRANCH   2   3
ENDBRANCH   1   2
BRANCH   1   7
ATOM      7  C   UNL     1      36.477 105.406 260.949  1.00  0.00     0.000 C 
BRANCH   7   8
ATOM      8  C   UNL     1      37.704 105.115 260.066  1.00  0.00    -0.000 C 
BRANCH   8   9
ATOM      9  C   UNL     1      37.369 105.140 258.567  1.00  0.00    -0.003 C 
ATOM     10  C   UNL     1      36.339 106.211 258.206  1.00  0.00     0.004 C 
ENDBRANCH   8   9
ENDBRANCH   7   8
ENDBRANCH   1   7
TORSDOF 6
ENDMDL
MODEL 2
REMARK VINA RESULT:    -3.470      0.475      1.128
REMARK INTER + INTRA:          -4.868
REMARK INTER:                  -4.712
REMARK INTRA:                  -0.156
REMARK UNBOUND:                -0.181
REMARK SMILES CCCCCCCC(=O)[O-]
REMARK SMILES IDX 5 1 6 2 7 3 8 4 9 5 10 6 4 7 3 8 2 9 1 10
REMARK H PARENT
REMARK Flexibility Score: inf
ROOT
ATOM      1  C   UNL     1      36.724 105.872 262.749  1.00  0.00     0.000 C 
ENDROOT
BRANCH   1   2
ATOM      2  C   UNL     1      35.412 106.137 263.508  1.00  0.00     0.006 C 
BRANCH   2   3
ATOM      3  C   UNL     1      34.875 104.874 264.194  1.00  0.00     0.053 C 
BRANCH   3   4
ATOM      4  C   UNL     1      34.927 104.987 265.687  1.00  0.00     0.041 C 
ATOM      5  O   UNL     1      34.990 103.951 266.401  1.00  0.00    -0.550 OA
ATOM      6  O   UNL     1      34.875 106.236 266.293  1.00  0.00    -0.550 OA
ENDBRANCH   3   4
ENDBRANCH   2   3
ENDBRANCH   1   2
BRANCH   1   7
ATOM      7  C   UNL     1      36.541 105.902 261.223  1.00  0.00     0.000 C 
BRANCH   7   8
ATOM      8  C   UNL     1      37.853 105.628 260.465  1.00  0.00    -0.000 C 
BRANCH   8   9
ATOM      9  C   UNL     1      37.621 105.349 258.971  1.00  0.00    -0.003 C 
ATOM     10  C   UNL     1      36.321 105.959 258.448  1.00  0.00     0.004 C 
ENDBRANCH   8   9
ENDBRANCH   7   8
ENDBRANCH   1   7
TORSDOF 6
ENDMDL
MODEL 3
REMARK VINA RESULT:    -3.301      3.585      5.920
REMARK INTER + INTRA:          -4.641
REMARK INTER:                  -4.434
REMARK INTRA:                  -0.206
REMARK UNBOUND:                -0.181
REMARK SMILES CCCCCCCC(=O)[O-]
REMARK SMILES IDX 5 1 6 2 7 3 8 4 9 5 10 6 4 7 3 8 2 9 1 10
REMARK H PARENT
REMARK Flexibility Score: inf
ROOT
ATOM      1  C   UNL     1      36.746 106.154 262.777  1.00  0.00     0.000 C 
ENDROOT
BRANCH   1   2
ATOM      2  C   UNL     1      36.401 105.606 261.380  1.00  0.00     0.006 C 
BRANCH   2   3
ATOM      3  C   UNL     1      37.554 105.790 260.385  1.00  0.00     0.053 C 
BRANCH   3   4
ATOM      4  C   UNL     1      37.072 105.775 258.966  1.00  0.00     0.041 C 
ATOM      5  O   UNL     1      37.561 104.962 258.138  1.00  0.00    -0.550 OA
ATOM      6  O   UNL     1      36.104 106.680 258.552  1.00  0.00    -0.550 OA
ENDBRANCH   3   4
ENDBRANCH   2   3
ENDBRANCH   1   2
BRANCH   1   7
ATOM      7  C   UNL     1      35.560 106.079 263.752  1.00  0.00     0.000 C 
BRANCH   7   8
ATOM      8  C   UNL     1      34.876 104.701 263.747  1.00  0.00    -0.000 C 
BRANCH   8   9
ATOM      9  C   UNL     1      35.308 103.826 264.935  1.00  0.00    -0.003 C 
ATOM     10  C   UNL     1      34.875 104.401 266.284  1.00  0.00     0.004 C 
ENDBRANCH   8   9
ENDBRANCH   7   8
ENDBRANCH   1   7
TORSDOF 6
ENDMDL
MODEL 4
REMARK VINA RESULT:    -3.179      3.608      6.178
REMARK INTER + INTRA:          -4.475
REMARK INTER:                  -4.357
REMARK INTRA:                  -0.118
REMARK UNBOUND:                -0.181
REMARK SMILES CCCCCCCC(=O)[O-]
REMARK SMILES IDX 5 1 6 2 7 3 8 4 9 5 10 6 4 7 3 8 2 9 1 10
REMARK H PARENT
REMARK Flexibility Score: inf
ROOT
ATOM      1  C   UNL     1      36.292 106.142 263.397  1.00  0.00     0.000 C 
ENDROOT
BRANCH   1   2
ATOM      2  C   UNL     1      36.294 105.599 261.957  1.00  0.00     0.006 C 
BRANCH   2   3
ATOM      3  C   UNL     1      37.512 106.081 261.158  1.00  0.00     0.053 C 
BRANCH   3   4
ATOM      4  C   UNL     1      37.380 105.769 259.699  1.00  0.00     0.041 C 
ATOM      5  O   UNL     1      36.416 106.235 259.035  1.00  0.00    -0.550 OA
ATOM      6  O   UNL     1      38.304 104.938 259.078  1.00  0.00    -0.550 OA
ENDBRANCH   3   4
ENDBRANCH   2   3
ENDBRANCH   1   2
BRANCH   1   7
ATOM      7  C   UNL     1      34.880 106.482 263.900  1.00  0.00     0.000 C 
BRANCH   7   8
ATOM      8  C   UNL     1      34.896 107.236 265.241  1.00  0.00    -0.000 C 
BRANCH   8   9
ATOM      9  C   UNL     1      34.877 106.287 266.450  1.00  0.00    -0.003 C 
ATOM     10  C   UNL     1      35.110 107.009 267.776  1.00  0.00     0.004 C 
ENDBRANCH   8   9
ENDBRANCH   7   8
ENDBRANCH   1   7
TORSDOF 6
ENDMDL
MODEL 5
REMARK VINA RESULT:    -2.799      1.941      2.777
REMARK INTER + INTRA:          -3.963
REMARK INTER:                  -3.840
REMARK INTRA:                  -0.122
REMARK UNBOUND:                -0.181
REMARK SMILES CCCCCCCC(=O)[O-]
REMARK SMILES IDX 5 1 6 2 7 3 8 4 9 5 10 6 4 7 3 8 2 9 1 10
REMARK H PARENT
REMARK Flexibility Score: inf
ROOT
ATOM      1  C   UNL     1      34.908 106.054 263.548  1.00  0.00     0.000 C 
ENDROOT
BRANCH   1   2
ATOM      2  C   UNL     1      35.487 106.876 264.714  1.00  0.00     0.006 C 
BRANCH   2   3
ATOM      3  C   UNL     1      34.875 106.477 266.063  1.00  0.00     0.053 C 
BRANCH   3   4
ATOM      4  C   UNL     1      34.934 107.599 267.054  1.00  0.00     0.041 C 
ATOM      5  O   UNL     1      34.876 107.359 268.290  1.00  0.00    -0.550 OA
ATOM      6  O   UNL     1      35.022 108.913 266.613  1.00  0.00    -0.550 OA
ENDBRANCH   3   4
ENDBRANCH   2   3
ENDBRANCH   1   2
BRANCH   1   7
ATOM      7  C   UNL     1      35.964 105.170 262.866  1.00  0.00     0.000 C 
BRANCH   7   8
ATOM      8  C   UNL     1      36.843 105.956 261.877  1.00  0.00    -0.000 C 
BRANCH   8   9
ATOM      9  C   UNL     1      36.758 105.402 260.445  1.00  0.00    -0.003 C 
ATOM     10  C   UNL     1      38.121 105.324 259.757  1.00  0.00     0.004 C 
ENDBRANCH   8   9
ENDBRANCH   7   8
ENDBRANCH   1   7
TORSDOF 6
ENDMDL
MODEL 6
REMARK VINA RESULT:    -2.652      3.261      6.453
REMARK INTER + INTRA:          -3.764
REMARK INTER:                  -3.639
REMARK INTRA:                  -0.125
REMARK UNBOUND:                -0.181
REMARK SMILES CCCCCCCC(=O)[O-]
REMARK SMILES IDX 5 1 6 2 7 3 8 4 9 5 10 6 4 7 3 8 2 9 1 10
REMARK H PARENT
REMARK Flexibility Score: inf
ROOT
ATOM      1  C   UNL     1      35.828 106.654 265.034  1.00  0.00     0.000 C 
ENDROOT
BRANCH   1   2
ATOM      2  C   UNL     1      35.165 106.602 263.646  1.00  0.00     0.006 C 
BRANCH   2   3
ATOM      3  C   UNL     1      35.773 105.512 262.755  1.00  0.00     0.053 C 
BRANCH   3   4
ATOM      4  C   UNL     1      36.886 106.045 261.905  1.00  0.00     0.041 C 
ATOM      5  O   UNL     1      36.774 106.062 260.650  1.00  0.00    -0.550 OA
ATOM      6  O   UNL     1      38.060 106.493 262.496  1.00  0.00    -0.550 OA
ENDBRANCH   3   4
ENDBRANCH   2   3
ENDBRANCH   1   2
BRANCH   1   7
ATOM      7  C   UNL     1      35.005 107.457 266.054  1.00  0.00     0.000 C 
BRANCH   7   8
ATOM      8  C   UNL     1      35.744 107.652 267.390  1.00  0.00    -0.000 C 
BRANCH   8   9
ATOM      9  C   UNL     1      34.875 107.282 268.602  1.00  0.00    -0.003 C 
ATOM     10  C   UNL     1      35.135 105.863 269.109  1.00  0.00     0.004 C 
ENDBRANCH   8   9
ENDBRANCH   7   8
ENDBRANCH   1   7
TORSDOF 6
ENDMDL
MODEL 7
REMARK VINA RESULT:    -1.479      2.068      3.466
REMARK INTER + INTRA:          -2.179
REMARK INTER:                  -1.897
REMARK INTRA:                  -0.282
REMARK UNBOUND:                -0.181
REMARK SMILES CCCCCCCC(=O)[O-]
REMARK SMILES IDX 5 1 6 2 7 3 8 4 9 5 10 6 4 7 3 8 2 9 1 10
REMARK H PARENT
REMARK Flexibility Score: inf
ROOT
ATOM      1  C   UNL     1      35.780 104.142 265.013  1.00  0.00     0.000 C 
ENDROOT
BRANCH   1   2
ATOM      2  C   UNL     1      34.988 104.263 266.327  1.00  0.00     0.006 C 
BRANCH   2   3
ATOM      3  C   UNL     1      34.875 105.717 266.803  1.00  0.00     0.053 C 
BRANCH   3   4
ATOM      4  C   UNL     1      35.062 105.833 268.286  1.00  0.00     0.041 C 
ATOM      5  O   UNL     1      35.350 106.944 268.804  1.00  0.00    -0.550 OA
ATOM      6  O   UNL     1      34.947 104.707 269.091  1.00  0.00    -0.550 OA
ENDBRANCH   3   4
ENDBRANCH   2   3
ENDBRANCH   1   2
BRANCH   1   7
ATOM      7  C   UNL     1      34.876 104.170 263.771  1.00  0.00     0.000 C 
BRANCH   7   8
ATOM      8  C   UNL     1      35.051 105.453 262.940  1.00  0.00    -0.000 C 
BRANCH   8   9
ATOM      9  C   UNL     1      36.529 105.789 262.682  1.00  0.00    -0.003 C 
ATOM     10  C   UNL     1      36.956 105.522 261.239  1.00  0.00     0.004 C 
ENDBRANCH   8   9
ENDBRANCH   7   8
ENDBRANCH   1   7
TORSDOF 6
ENDMDL
