MODEL 1
REMARK VINA RESULT:    -3.820      0.000      0.000
REMARK INTER + INTRA:          -5.711
REMARK INTER:                  -5.830
REMARK INTRA:                   0.119
REMARK UNBOUND:                 0.119
REMARK SMILES CC1=CCC[C@H](C)C(=O)C[C@@H](C(C)C)C(=O)C1
REMARK SMILES IDX 8 1 9 2 6 3 7 4 5 5 4 6 3 7 2 8 1 9 10 11 11 12 15 13 16 14
REMARK SMILES IDX 17 15 12 17 13 18 14 19
REMARK H PARENT
REMARK Flexibility Score: 70.00
ROOT
ATOM      1  C   UNL     1      -4.036  29.737  27.502  1.00  0.00     0.136 C 
ATOM      2  O   UNL     1      -4.486  29.385  26.420  1.00  0.00    -0.299 OA
ENDROOT
BRANCH   1   3
ATOM      3  C   UNL     1      -4.730  30.841  28.276  1.00  0.00     0.053 C 
ATOM      4  C   UNL     1      -5.005  32.025  27.344  1.00  0.00     0.016 C 
BRANCH   3   5
ATOM      5  C   UNL     1      -6.042  30.352  28.925  1.00  0.00     0.015 C 
BRANCH   5   6
ATOM      6  C   UNL     1      -5.869  29.704  30.310  1.00  0.00     0.028 C 
BRANCH   6   7
ATOM      7  C   UNL     1      -4.546  30.020  30.970  1.00  0.00    -0.028 C 
ATOM      8  C   UNL     1      -3.592  29.142  31.376  1.00  0.00    -0.070 CG0
ATOM      9  C   UNL     1      -2.394  29.687  32.116  1.00  0.00     0.039 C 
ATOM     10  G   UNL     1      -3.541  27.665  31.008  1.00  0.00     0.000 G0
ENDBRANCH   6   7
ENDBRANCH   5   6
ENDBRANCH   3   5
ENDBRANCH   1   3
BRANCH   1  11
ATOM     11  C   UNL     1      -2.778  29.085  28.019  1.00  0.00     0.087 C 
BRANCH  11  12
ATOM     12  C   UNL     1      -2.989  27.590  28.382  1.00  0.00     0.066 C 
BRANCH  12  13
ATOM     13  C   UNL     1      -3.912  27.342  29.576  1.00  0.00     0.140 C 
ATOM     14  O   UNL     1      -4.983  26.787  29.378  1.00  0.00    -0.299 OA
BRANCH  13  15
ATOM     15  C   UNL     1      -3.528  27.663  31.002  1.00  0.00     0.106 CG0
ATOM     16  G   UNL     1      -3.602  29.138  31.374  1.00  0.00     0.000 G0
ENDBRANCH  13  15
ENDBRANCH  12  13
BRANCH  12  17
ATOM     17  C   UNL     1      -1.625  26.845  28.523  1.00  0.00    -0.006 C 
ATOM     18  C   UNL     1      -0.493  27.798  28.939  1.00  0.00     0.008 C 
ATOM     19  C   UNL     1      -1.216  26.063  27.264  1.00  0.00     0.008 C 
ENDBRANCH  12  17
ENDBRANCH  11  12
ENDBRANCH   1  11
TORSDOF 1
ENDMDL
MODEL 2
REMARK VINA RESULT:    -2.922      1.599      3.441
REMARK INTER + INTRA:          -4.341
REMARK INTER:                  -6.884
REMARK INTRA:                   2.543
REMARK UNBOUND:                 0.119
REMARK SMILES CC1=CCC[C@H](C)C(=O)C[C@@H](C(C)C)C(=O)C1
REMARK SMILES IDX 8 1 9 2 6 3 7 4 5 5 4 6 3 7 2 8 1 9 10 11 11 12 15 13 16 14
REMARK SMILES IDX 17 15 12 17 13 18 14 19
REMARK H PARENT
REMARK Flexibility Score: 70.00
ROOT
ATOM      1  C   UNL     1      -3.471  27.620  30.214  1.00  0.00     0.136 C 
ATOM      2  O   UNL     1      -4.193  26.942  29.497  1.00  0.00    -0.299 OA
ENDROOT
BRANCH   1   3
ATOM      3  C   UNL     1      -4.094  28.574  31.215  1.00  0.00     0.053 C 
ATOM      4  C   UNL     1      -3.015  29.512  31.768  1.00  0.00     0.016 C 
BRANCH   3   5
ATOM      5  C   UNL     1      -5.246  29.390  30.591  1.00  0.00     0.015 C 
BRANCH   5   6
ATOM      6  C   UNL     1      -5.588  29.009  29.141  1.00  0.00     0.028 C 
BRANCH   6   7
ATOM      7  C   UNL     1      -5.373  30.129  28.149  1.00  0.00    -0.028 C 
ATOM      8  C   UNL     1      -4.203  30.745  27.835  1.00  0.00    -0.070 CG0
ATOM      9  C   UNL     1      -4.250  31.922  26.891  1.00  0.00     0.039 C 
ATOM     10  G   UNL     1      -2.816  30.250  28.225  1.00  0.00     0.000 G0
ENDBRANCH   6   7
ENDBRANCH   5   6
ENDBRANCH   3   5
ENDBRANCH   1   3
BRANCH   1  11
ATOM     11  C   UNL     1      -1.974  27.514  30.057  1.00  0.00     0.087 C 
BRANCH  11  12
ATOM     12  C   UNL     1      -1.492  27.951  28.647  1.00  0.00     0.066 C 
BRANCH  12  13
ATOM     13  C   UNL     1      -2.484  28.817  27.868  1.00  0.00     0.140 C 
ATOM     14  O   UNL     1      -3.109  28.304  26.951  1.00  0.00    -0.299 OA
BRANCH  13  15
ATOM     15  C   UNL     1      -2.800  30.248  28.235  1.00  0.00     0.106 CG0
ATOM     16  G   UNL     1      -4.186  30.728  27.824  1.00  0.00     0.000 G0
ENDBRANCH  13  15
ENDBRANCH  12  13
BRANCH  12  17
ATOM     17  C   UNL     1      -0.994  26.728  27.815  1.00  0.00    -0.006 C 
ATOM     18  C   UNL     1      -2.112  25.700  27.583  1.00  0.00     0.008 C 
ATOM     19  C   UNL     1       0.239  26.034  28.418  1.00  0.00     0.008 C 
ENDBRANCH  12  17
ENDBRANCH  11  12
ENDBRANCH   1  11
TORSDOF 1
ENDMDL
MODEL 3
REMARK VINA RESULT:    -2.810      1.440      4.000
REMARK INTER + INTRA:          -4.170
REMARK INTER:                  -3.953
REMARK INTRA:                  -0.217
REMARK UNBOUND:                 0.119
REMARK SMILES CC1=CCC[C@H](C)C(=O)C[C@@H](C(C)C)C(=O)C1
REMARK SMILES IDX 8 1 9 2 6 3 7 4 5 5 4 6 3 7 2 8 1 9 10 11 11 12 15 13 16 14
REMARK SMILES IDX 17 15 12 17 13 18 14 19
REMARK H PARENT
REMARK Flexibility Score: 70.00
ROOT
ATOM      1  C   UNL     1      -2.442  28.447  27.676  1.00  0.00     0.136 C 
ATOM      2  O   UNL     1      -1.593  29.122  27.112  1.00  0.00    -0.299 OA
ENDROOT
BRANCH   1   3
ATOM      3  C   UNL     1      -2.052  27.117  28.292  1.00  0.00     0.053 C 
ATOM      4  C   UNL     1      -1.697  26.123  27.181  1.00  0.00     0.016 C 
BRANCH   3   5
ATOM      5  C   UNL     1      -0.874  27.263  29.278  1.00  0.00     0.015 C 
BRANCH   5   6
ATOM      6  C   UNL     1      -1.228  26.970  30.746  1.00  0.00     0.028 C 
BRANCH   6   7
ATOM      7  C   UNL     1      -1.549  28.206  31.554  1.00  0.00    -0.028 C 
ATOM      8  C   UNL     1      -2.721  28.894  31.587  1.00  0.00    -0.070 CG0
ATOM      9  C   UNL     1      -2.774  30.172  32.389  1.00  0.00     0.039 C 
ATOM     10  G   UNL     1      -4.045  28.404  31.015  1.00  0.00     0.000 G0
ENDBRANCH   6   7
ENDBRANCH   5   6
ENDBRANCH   3   5
ENDBRANCH   1   3
BRANCH   1  11
ATOM     11  C   UNL     1      -3.867  28.941  27.710  1.00  0.00     0.087 C 
BRANCH  11  12
ATOM     12  C   UNL     1      -4.115  29.964  28.852  1.00  0.00     0.066 C 
BRANCH  12  13
ATOM     13  C   UNL     1      -4.761  29.380  30.110  1.00  0.00     0.140 C 
ATOM     14  O   UNL     1      -5.930  29.653  30.342  1.00  0.00    -0.299 OA
BRANCH  13  15
ATOM     15  C   UNL     1      -4.058  28.407  31.027  1.00  0.00     0.106 CG0
ATOM     16  G   UNL     1      -2.734  28.899  31.596  1.00  0.00     0.000 G0
ENDBRANCH  13  15
ENDBRANCH  12  13
BRANCH  12  17
ATOM     17  C   UNL     1      -4.870  31.224  28.328  1.00  0.00    -0.006 C 
ATOM     18  C   UNL     1      -5.854  30.873  27.200  1.00  0.00     0.008 C 
ATOM     19  C   UNL     1      -3.937  32.359  27.874  1.00  0.00     0.008 C 
ENDBRANCH  12  17
ENDBRANCH  11  12
ENDBRANCH   1  11
TORSDOF 1
ENDMDL
MODEL 4
REMARK VINA RESULT:    -2.094      1.596      4.601
REMARK INTER + INTRA:          -3.077
REMARK INTER:                  -5.298
REMARK INTRA:                   2.220
REMARK UNBOUND:                 0.119
REMARK SMILES CC1=CCC[C@H](C)C(=O)C[C@@H](C(C)C)C(=O)C1
REMARK SMILES IDX 8 1 9 2 6 3 7 4 5 5 4 6 3 7 2 8 1 9 10 11 11 12 15 13 16 14
REMARK SMILES IDX 17 15 12 17 13 18 14 19
REMARK H PARENT
REMARK Flexibility Score: 70.00
ROOT
ATOM      1  C   UNL     1      -4.430  29.253  30.273  1.00  0.00     0.136 C 
ATOM      2  O   UNL     1      -5.211  28.391  30.648  1.00  0.00    -0.299 OA
ENDROOT
BRANCH   1   3
ATOM      3  C   UNL     1      -3.029  29.297  30.852  1.00  0.00     0.053 C 
ATOM      4  C   UNL     1      -3.081  29.862  32.275  1.00  0.00     0.016 C 
BRANCH   3   5
ATOM      5  C   UNL     1      -2.362  27.905  30.851  1.00  0.00     0.015 C 
BRANCH   5   6
ATOM      6  C   UNL     1      -0.950  27.871  30.241  1.00  0.00     0.028 C 
BRANCH   6   7
ATOM      7  C   UNL     1      -0.864  27.095  28.947  1.00  0.00    -0.028 C 
ATOM      8  C   UNL     1      -1.859  26.865  28.050  1.00  0.00    -0.070 CG0
ATOM      9  C   UNL     1      -1.563  25.962  26.876  1.00  0.00     0.039 C 
ATOM     10  G   UNL     1      -3.209  27.570  28.033  1.00  0.00     0.000 G0
ENDBRANCH   6   7
ENDBRANCH   5   6
ENDBRANCH   3   5
ENDBRANCH   1   3
BRANCH   1  11
ATOM     11  C   UNL     1      -4.896  30.276  29.267  1.00  0.00     0.087 C 
BRANCH  11  12
ATOM     12  C   UNL     1      -4.427  29.948  27.823  1.00  0.00     0.066 C 
BRANCH  12  13
ATOM     13  C   UNL     1      -3.191  29.051  27.737  1.00  0.00     0.140 C 
ATOM     14  O   UNL     1      -2.111  29.570  27.496  1.00  0.00    -0.299 OA
BRANCH  13  15
ATOM     15  C   UNL     1      -3.221  27.569  28.030  1.00  0.00     0.106 CG0
ATOM     16  G   UNL     1      -1.858  26.889  28.059  1.00  0.00     0.000 G0
ENDBRANCH  13  15
ENDBRANCH  12  13
BRANCH  12  17
ATOM     17  C   UNL     1      -4.278  31.245  26.969  1.00  0.00    -0.006 C 
ATOM     18  C   UNL     1      -3.612  32.380  27.763  1.00  0.00     0.008 C 
ATOM     19  C   UNL     1      -5.601  31.738  26.361  1.00  0.00     0.008 C 
ENDBRANCH  12  17
ENDBRANCH  11  12
ENDBRANCH   1  11
TORSDOF 1
ENDMDL
MODEL 5
REMARK VINA RESULT:    -1.837      1.778      3.342
REMARK INTER + INTRA:          -2.685
REMARK INTER:                  -3.991
REMARK INTRA:                   1.307
REMARK UNBOUND:                 0.119
REMARK SMILES CC1=CCC[C@H](C)C(=O)C[C@@H](C(C)C)C(=O)C1
REMARK SMILES IDX 8 1 9 2 6 3 7 4 5 5 4 6 3 7 2 8 1 9 10 11 11 12 15 13 16 14
REMARK SMILES IDX 17 15 12 17 13 18 14 19
REMARK H PARENT
REMARK Flexibility Score: 70.00
ROOT
ATOM      1  C   UNL     1      -5.701  30.212  29.646  1.00  0.00     0.136 C 
ATOM      2  O   UNL     1      -6.124  31.129  30.337  1.00  0.00    -0.299 OA
ENDROOT
BRANCH   1   3
ATOM      3  C   UNL     1      -5.356  30.470  28.192  1.00  0.00     0.053 C 
ATOM      4  C   UNL     1      -5.970  31.802  27.748  1.00  0.00     0.016 C 
BRANCH   3   5
ATOM      5  C   UNL     1      -3.831  30.476  27.955  1.00  0.00     0.015 C 
BRANCH   5   6
ATOM      6  C   UNL     1      -3.310  29.303  27.105  1.00  0.00     0.028 C 
BRANCH   6   7
ATOM      7  C   UNL     1      -2.012  28.715  27.609  1.00  0.00    -0.028 C 
ATOM      8  C   UNL     1      -1.842  27.572  28.324  1.00  0.00    -0.070 CG0
ATOM      9  C   UNL     1      -0.453  27.241  28.815  1.00  0.00     0.039 C 
ATOM     10  G   UNL     1      -2.905  26.502  28.539  1.00  0.00     0.000 G0
ENDBRANCH   6   7
ENDBRANCH   5   6
ENDBRANCH   3   5
ENDBRANCH   1   3
BRANCH   1  11
ATOM     11  C   UNL     1      -5.570  28.838  30.254  1.00  0.00     0.087 C 
BRANCH  11  12
ATOM     12  C   UNL     1      -4.124  28.280  30.155  1.00  0.00     0.066 C 
BRANCH  12  13
ATOM     13  C   UNL     1      -4.013  26.893  29.519  1.00  0.00     0.140 C 
ATOM     14  O   UNL     1      -4.899  26.080  29.737  1.00  0.00    -0.299 OA
BRANCH  13  15
ATOM     15  C   UNL     1      -2.912  26.508  28.558  1.00  0.00     0.106 CG0
ATOM     16  G   UNL     1      -1.852  27.578  28.330  1.00  0.00     0.000 G0
ENDBRANCH  13  15
ENDBRANCH  12  13
BRANCH  12  17
ATOM     17  C   UNL     1      -3.391  28.361  31.530  1.00  0.00    -0.006 C 
ATOM     18  C   UNL     1      -2.995  29.805  31.882  1.00  0.00     0.008 C 
ATOM     19  C   UNL     1      -2.162  27.442  31.629  1.00  0.00     0.008 C 
ENDBRANCH  12  17
ENDBRANCH  11  12
ENDBRANCH   1  11
TORSDOF 1
ENDMDL
MODEL 6
REMARK VINA RESULT:    -1.674      1.851      4.727
REMARK INTER + INTRA:          -2.435
REMARK INTER:                  -3.959
REMARK INTRA:                   1.523
REMARK UNBOUND:                 0.119
REMARK SMILES CC1=CCC[C@H](C)C(=O)C[C@@H](C(C)C)C(=O)C1
REMARK SMILES IDX 8 1 9 2 6 3 7 4 5 5 4 6 3 7 2 8 1 9 10 11 11 12 15 13 16 14
REMARK SMILES IDX 17 15 12 17 13 18 14 19
REMARK H PARENT
REMARK Flexibility Score: 70.00
ROOT
ATOM      1  C   UNL     1      -0.869  27.116  29.958  1.00  0.00     0.136 C 
ATOM      2  O   UNL     1      -0.436  26.381  30.835  1.00  0.00    -0.299 OA
ENDROOT
BRANCH   1   3
ATOM      3  C   UNL     1      -0.551  26.817  28.506  1.00  0.00     0.053 C 
ATOM      4  C   UNL     1       0.623  25.834  28.431  1.00  0.00     0.016 C 
BRANCH   3   5
ATOM      5  C   UNL     1      -1.774  26.250  27.754  1.00  0.00     0.015 C 
BRANCH   5   6
ATOM      6  C   UNL     1      -2.356  27.186  26.680  1.00  0.00     0.028 C 
BRANCH   6   7
ATOM      7  C   UNL     1      -2.451  28.630  27.117  1.00  0.00    -0.028 C 
ATOM      8  C   UNL     1      -3.444  29.214  27.839  1.00  0.00    -0.070 CG0
ATOM      9  C   UNL     1      -3.378  30.706  28.062  1.00  0.00     0.039 C 
ATOM     10  G   UNL     1      -4.541  28.469  28.589  1.00  0.00     0.000 G0
ENDBRANCH   6   7
ENDBRANCH   5   6
ENDBRANCH   3   5
ENDBRANCH   1   3
BRANCH   1  11
ATOM     11  C   UNL     1      -1.679  28.326  30.352  1.00  0.00     0.087 C 
BRANCH  11  12
ATOM     12  C   UNL     1      -3.119  27.958  30.801  1.00  0.00     0.066 C 
BRANCH  12  13
ATOM     13  C   UNL     1      -4.058  27.538  29.669  1.00  0.00     0.140 C 
ATOM     14  O   UNL     1      -4.500  26.398  29.673  1.00  0.00    -0.299 OA
BRANCH  13  15
ATOM     15  C   UNL     1      -4.544  28.488  28.599  1.00  0.00     0.106 CG0
ATOM     16  G   UNL     1      -3.444  29.202  27.824  1.00  0.00     0.000 G0
ENDBRANCH  13  15
ENDBRANCH  12  13
BRANCH  12  17
ATOM     17  C   UNL     1      -3.735  29.077  31.698  1.00  0.00    -0.006 C 
ATOM     18  C   UNL     1      -4.900  29.795  30.996  1.00  0.00     0.008 C 
ATOM     19  C   UNL     1      -2.706  30.107  32.193  1.00  0.00     0.008 C 
ENDBRANCH  12  17
ENDBRANCH  11  12
ENDBRANCH   1  11
TORSDOF 1
ENDMDL
