MODEL 1
REMARK VINA RESULT:    -3.918      0.000      0.000
REMARK INTER + INTRA:          -8.538
REMARK INTER:                  -6.896
REMARK INTRA:                  -1.642
REMARK UNBOUND:                -1.642
REMARK SMILES CCCCCCC=CCCCCCCCC(=O)[O-]
REMARK SMILES IDX 10 1 11 2 12 3 13 4 14 5 15 6 16 7 17 8 18 9 9 10 8 11 7 12
REMARK SMILES IDX 6 13 5 14 4 15 3 16 2 17 1 18
REMARK H PARENT
REMARK Flexibility Score: inf
ROOT
ATOM      1  C   UNL     1       8.671   0.094  -6.972  1.00  0.00     0.004 C 
ENDROOT
BRANCH   1   2
ATOM      2  C   UNL     1       7.259   0.242  -7.562  1.00  0.00     0.000 C 
BRANCH   2   3
ATOM      3  C   UNL     1       6.691  -1.093  -8.077  1.00  0.00     0.000 C 
BRANCH   3   4
ATOM      4  C   UNL     1       5.184  -1.020  -8.370  1.00  0.00     0.000 C 
BRANCH   4   5
ATOM      5  C   UNL     1       4.726   0.394  -8.766  1.00  0.00     0.006 C 
BRANCH   5   6
ATOM      6  C   UNL     1       3.386   0.381  -9.514  1.00  0.00     0.053 C 
BRANCH   6   7
ATOM      7  C   UNL     1       2.650   1.677  -9.362  1.00  0.00     0.041 C 
ATOM      8  O   UNL     1       2.803   2.597 -10.209  1.00  0.00    -0.550 OA
ATOM      9  O   UNL     1       1.818   1.881  -8.269  1.00  0.00    -0.550 OA
ENDBRANCH   6   7
ENDBRANCH   5   6
ENDBRANCH   4   5
ENDBRANCH   3   4
ENDBRANCH   2   3
ENDBRANCH   1   2
BRANCH   1  10
ATOM     10  C   UNL     1       9.230   1.424  -6.444  1.00  0.00     0.027 C 
BRANCH  10  11
ATOM     11  C   UNL     1       9.872   2.219  -7.548  1.00  0.00    -0.031 C 
ATOM     12  C   UNL     1      10.654   1.638  -8.471  1.00  0.00    -0.031 C 
BRANCH  12  13
ATOM     13  C   UNL     1      11.297   2.432  -9.574  1.00  0.00     0.027 C 
BRANCH  13  14
ATOM     14  C   UNL     1      11.022   1.798 -10.945  1.00  0.00     0.004 C 
BRANCH  14  15
ATOM     15  C   UNL     1       9.625   1.161 -11.033  1.00  0.00     0.000 C 
BRANCH  15  16
ATOM     16  C   UNL     1       8.557   2.144 -11.537  1.00  0.00    -0.000 C 
BRANCH  16  17
ATOM     17  C   UNL     1       7.348   2.168 -10.594  1.00  0.00    -0.003 C 
ATOM     18  C   UNL     1       6.174   2.911 -11.224  1.00  0.00     0.004 C 
ENDBRANCH  16  17
ENDBRANCH  15  16
ENDBRANCH  14  15
ENDBRANCH  13  14
ENDBRANCH  12  13
ENDBRANCH  10  11
ENDBRANCH   1  10
TORSDOF 13
ENDMDL
MODEL 2
REMARK VINA RESULT:    -3.912      1.597      3.110
REMARK INTER + INTRA:          -8.527
REMARK INTER:                  -7.206
REMARK INTRA:                  -1.321
REMARK UNBOUND:                -1.642
REMARK SMILES CCCCCCC=CCCCCCCCC(=O)[O-]
REMARK SMILES IDX 10 1 11 2 12 3 13 4 14 5 15 6 16 7 17 8 18 9 9 10 8 11 7 12
REMARK SMILES IDX 6 13 5 14 4 15 3 16 2 17 1 18
REMARK H PARENT
REMARK Flexibility Score: inf
ROOT
ATOM      1  C   UNL     1       6.678   0.519  -8.290  1.00  0.00     0.004 C 
ENDROOT
BRANCH   1   2
ATOM      2  C   UNL     1       5.233   0.199  -8.706  1.00  0.00     0.000 C 
BRANCH   2   3
ATOM      3  C   UNL     1       4.790  -1.209  -8.271  1.00  0.00     0.000 C 
BRANCH   3   4
ATOM      4  C   UNL     1       3.261  -1.362  -8.232  1.00  0.00     0.000 C 
BRANCH   4   5
ATOM      5  C   UNL     1       2.527  -0.057  -8.586  1.00  0.00     0.006 C 
BRANCH   5   6
ATOM      6  C   UNL     1       1.195   0.079  -7.837  1.00  0.00     0.053 C 
BRANCH   6   7
ATOM      7  C   UNL     1       0.785   1.513  -7.685  1.00  0.00     0.041 C 
ATOM      8  O   UNL     1      -0.018   1.849  -6.774  1.00  0.00    -0.550 OA
ATOM      9  O   UNL     1       1.265   2.472  -8.567  1.00  0.00    -0.550 OA
ENDBRANCH   6   7
ENDBRANCH   5   6
ENDBRANCH   4   5
ENDBRANCH   3   4
ENDBRANCH   2   3
ENDBRANCH   1   2
BRANCH   1  10
ATOM     10  C   UNL     1       7.380  -0.679  -7.633  1.00  0.00     0.027 C 
BRANCH  10  11
ATOM     11  C   UNL     1       8.584  -0.238  -6.847  1.00  0.00    -0.031 C 
ATOM     12  C   UNL     1       8.796   1.054  -6.550  1.00  0.00    -0.031 C 
BRANCH  12  13
ATOM     13  C   UNL     1      10.000   1.496  -5.765  1.00  0.00     0.027 C 
BRANCH  13  14
ATOM     14  C   UNL     1      11.035   2.175  -6.675  1.00  0.00     0.004 C 
BRANCH  14  15
ATOM     15  C   UNL     1      10.413   2.731  -7.966  1.00  0.00     0.000 C 
BRANCH  15  16
ATOM     16  C   UNL     1      11.303   2.503  -9.198  1.00  0.00    -0.000 C 
BRANCH  16  17
ATOM     17  C   UNL     1      10.461   2.087 -10.410  1.00  0.00    -0.003 C 
ATOM     18  C   UNL     1       9.850   0.704 -10.207  1.00  0.00     0.004 C 
ENDBRANCH  16  17
ENDBRANCH  15  16
ENDBRANCH  14  15
ENDBRANCH  13  14
ENDBRANCH  12  13
ENDBRANCH  10  11
ENDBRANCH   1  10
TORSDOF 13
ENDMDL
MODEL 3
REMARK VINA RESULT:    -3.848      2.860      6.177
REMARK INTER + INTRA:          -8.415
REMARK INTER:                  -6.574
REMARK INTRA:                  -1.841
REMARK UNBOUND:                -1.642
REMARK SMILES CCCCCCC=CCCCCCCCC(=O)[O-]
REMARK SMILES IDX 10 1 11 2 12 3 13 4 14 5 15 6 16 7 17 8 18 9 9 10 8 11 7 12
REMARK SMILES IDX 6 13 5 14 4 15 3 16 2 17 1 18
REMARK H PARENT
REMARK Flexibility Score: inf
ROOT
ATOM      1  C   UNL     1       9.590   1.334  -5.789  1.00  0.00     0.004 C 
ENDROOT
BRANCH   1   2
ATOM      2  C   UNL     1      10.605   2.382  -6.274  1.00  0.00     0.000 C 
BRANCH   2   3
ATOM      3  C   UNL     1      10.319   2.865  -7.707  1.00  0.00     0.000 C 
BRANCH   3   4
ATOM      4  C   UNL     1      11.484   2.584  -8.669  1.00  0.00     0.000 C 
BRANCH   4   5
ATOM      5  C   UNL     1      11.006   2.186 -10.076  1.00  0.00     0.006 C 
BRANCH   5   6
ATOM      6  C   UNL     1       9.511   1.844 -10.105  1.00  0.00     0.053 C 
BRANCH   6   7
ATOM      7  C   UNL     1       9.271   0.431 -10.543  1.00  0.00     0.041 C 
ATOM      8  O   UNL     1      10.099  -0.472 -10.250  1.00  0.00    -0.550 OA
ATOM      9  O   UNL     1       8.149   0.117 -11.299  1.00  0.00    -0.550 OA
ENDBRANCH   6   7
ENDBRANCH   5   6
ENDBRANCH   4   5
ENDBRANCH   3   4
ENDBRANCH   2   3
ENDBRANCH   1   2
BRANCH   1  10
ATOM     10  C   UNL     1       9.729  -0.005  -6.527  1.00  0.00     0.027 C 
BRANCH  10  11
ATOM     11  C   UNL     1       8.400  -0.477  -7.050  1.00  0.00    -0.031 C 
ATOM     12  C   UNL     1       7.471   0.385  -7.493  1.00  0.00    -0.031 C 
BRANCH  12  13
ATOM     13  C   UNL     1       6.142  -0.086  -8.014  1.00  0.00     0.027 C 
BRANCH  13  14
ATOM     14  C   UNL     1       6.199  -1.566  -8.420  1.00  0.00     0.004 C 
BRANCH  14  15
ATOM     15  C   UNL     1       4.928  -2.337  -8.027  1.00  0.00     0.000 C 
BRANCH  15  16
ATOM     16  C   UNL     1       5.229  -3.756  -7.520  1.00  0.00    -0.000 C 
BRANCH  16  17
ATOM     17  C   UNL     1       6.608  -3.817  -6.853  1.00  0.00    -0.003 C 
ATOM     18  C   UNL     1       7.361  -5.080  -7.262  1.00  0.00     0.004 C 
ENDBRANCH  16  17
ENDBRANCH  15  16
ENDBRANCH  14  15
ENDBRANCH  13  14
ENDBRANCH  12  13
ENDBRANCH  10  11
ENDBRANCH   1  10
TORSDOF 13
ENDMDL
MODEL 4
REMARK VINA RESULT:    -3.843      3.879      6.606
REMARK INTER + INTRA:          -8.405
REMARK INTER:                  -6.319
REMARK INTRA:                  -2.086
REMARK UNBOUND:                -1.642
REMARK SMILES CCCCCCC=CCCCCCCCC(=O)[O-]
REMARK SMILES IDX 10 1 11 2 12 3 13 4 14 5 15 6 16 7 17 8 18 9 9 10 8 11 7 12
REMARK SMILES IDX 6 13 5 14 4 15 3 16 2 17 1 18
REMARK H PARENT
REMARK Flexibility Score: inf
ROOT
ATOM      1  C   UNL     1      10.317   2.235 -11.038  1.00  0.00     0.004 C 
ENDROOT
BRANCH   1   2
ATOM      2  C   UNL     1      10.786   1.548  -9.744  1.00  0.00     0.000 C 
BRANCH   2   3
ATOM      3  C   UNL     1      11.216   2.555  -8.662  1.00  0.00     0.000 C 
BRANCH   3   4
ATOM      4  C   UNL     1      10.171   2.705  -7.546  1.00  0.00     0.000 C 
BRANCH   4   5
ATOM      5  C   UNL     1      10.803   2.733  -6.143  1.00  0.00     0.006 C 
BRANCH   5   6
ATOM      6  C   UNL     1      10.208   1.664  -5.218  1.00  0.00     0.053 C 
BRANCH   6   7
ATOM      7  C   UNL     1      10.565   1.907  -3.783  1.00  0.00     0.041 C 
ATOM      8  O   UNL     1      10.920   3.055  -3.404  1.00  0.00    -0.550 OA
ATOM      9  O   UNL     1      10.535   0.861  -2.870  1.00  0.00    -0.550 OA
ENDBRANCH   6   7
ENDBRANCH   5   6
ENDBRANCH   4   5
ENDBRANCH   3   4
ENDBRANCH   2   3
ENDBRANCH   1   2
BRANCH   1  10
ATOM     10  C   UNL     1       8.850   1.927 -11.368  1.00  0.00     0.027 C 
BRANCH  10  11
ATOM     11  C   UNL     1       8.224   1.065 -10.307  1.00  0.00    -0.031 C 
ATOM     12  C   UNL     1       7.117   1.449  -9.651  1.00  0.00    -0.031 C 
BRANCH  12  13
ATOM     13  C   UNL     1       6.491   0.588  -8.589  1.00  0.00     0.027 C 
BRANCH  13  14
ATOM     14  C   UNL     1       7.486   0.293  -7.457  1.00  0.00     0.004 C 
BRANCH  14  15
ATOM     15  C   UNL     1       7.896  -1.187  -7.400  1.00  0.00     0.000 C 
BRANCH  15  16
ATOM     16  C   UNL     1       9.161  -1.419  -6.558  1.00  0.00    -0.000 C 
BRANCH  16  17
ATOM     17  C   UNL     1      10.392  -1.588  -7.457  1.00  0.00    -0.003 C 
ATOM     18  C   UNL     1       9.987  -1.940  -8.885  1.00  0.00     0.004 C 
ENDBRANCH  16  17
ENDBRANCH  15  16
ENDBRANCH  14  15
ENDBRANCH  13  14
ENDBRANCH  12  13
ENDBRANCH  10  11
ENDBRANCH   1  10
TORSDOF 13
ENDMDL
MODEL 5
REMARK VINA RESULT:    -3.807      1.327      2.188
REMARK INTER + INTRA:          -8.341
REMARK INTER:                  -6.106
REMARK INTRA:                  -2.236
REMARK UNBOUND:                -1.642
REMARK SMILES CCCCCCC=CCCCCCCCC(=O)[O-]
REMARK SMILES IDX 10 1 11 2 12 3 13 4 14 5 15 6 16 7 17 8 18 9 9 10 8 11 7 12
REMARK SMILES IDX 6 13 5 14 4 15 3 16 2 17 1 18
REMARK H PARENT
REMARK Flexibility Score: inf
ROOT
ATOM      1  C   UNL     1       9.262   0.933  -6.502  1.00  0.00     0.004 C 
ENDROOT
BRANCH   1   2
ATOM      2  C   UNL     1       7.933   0.723  -7.247  1.00  0.00     0.000 C 
BRANCH   2   3
ATOM      3  C   UNL     1       7.638  -0.763  -7.522  1.00  0.00     0.000 C 
BRANCH   3   4
ATOM      4  C   UNL     1       6.240  -0.986  -8.120  1.00  0.00     0.000 C 
BRANCH   4   5
ATOM      5  C   UNL     1       5.516   0.333  -8.441  1.00  0.00     0.006 C 
BRANCH   5   6
ATOM      6  C   UNL     1       4.698   0.245  -9.737  1.00  0.00     0.053 C 
BRANCH   6   7
ATOM      7  C   UNL     1       3.750   1.396  -9.877  1.00  0.00     0.041 C 
ATOM      8  O   UNL     1       3.759   2.101 -10.922  1.00  0.00    -0.550 OA
ATOM      9  O   UNL     1       2.876   1.709  -8.845  1.00  0.00    -0.550 OA
ENDBRANCH   6   7
ENDBRANCH   5   6
ENDBRANCH   4   5
ENDBRANCH   3   4
ENDBRANCH   2   3
ENDBRANCH   1   2
BRANCH   1  10
ATOM     10  C   UNL     1      10.203   1.898  -7.239  1.00  0.00     0.027 C 
BRANCH  10  11
ATOM     11  C   UNL     1       9.824   2.025  -8.688  1.00  0.00    -0.031 C 
ATOM     12  C   UNL     1      10.752   2.069  -9.657  1.00  0.00    -0.031 C 
BRANCH  12  13
ATOM     13  C   UNL     1      10.374   2.197 -11.107  1.00  0.00     0.027 C 
BRANCH  13  14
ATOM     14  C   UNL     1       8.848   2.176 -11.285  1.00  0.00     0.004 C 
BRANCH  14  15
ATOM     15  C   UNL     1       8.362   0.949 -12.073  1.00  0.00     0.000 C 
BRANCH  15  16
ATOM     16  C   UNL     1       8.139  -0.280 -11.177  1.00  0.00    -0.000 C 
BRANCH  16  17
ATOM     17  C   UNL     1       9.235  -1.328 -11.405  1.00  0.00    -0.003 C 
ATOM     18  C   UNL     1      10.076  -1.527 -10.147  1.00  0.00     0.004 C 
ENDBRANCH  16  17
ENDBRANCH  15  16
ENDBRANCH  14  15
ENDBRANCH  13  14
ENDBRANCH  12  13
ENDBRANCH  10  11
ENDBRANCH   1  10
TORSDOF 13
ENDMDL
MODEL 6
REMARK VINA RESULT:    -3.775      4.076      6.579
REMARK INTER + INTRA:          -8.286
REMARK INTER:                  -6.789
REMARK INTRA:                  -1.496
REMARK UNBOUND:                -1.642
REMARK SMILES CCCCCCC=CCCCCCCCC(=O)[O-]
REMARK SMILES IDX 10 1 11 2 12 3 13 4 14 5 15 6 16 7 17 8 18 9 9 10 8 11 7 12
REMARK SMILES IDX 6 13 5 14 4 15 3 16 2 17 1 18
REMARK H PARENT
REMARK Flexibility Score: inf
ROOT
ATOM      1  C   UNL     1       9.923  -0.504  -6.574  1.00  0.00     0.004 C 
ENDROOT
BRANCH   1   2
ATOM      2  C   UNL     1       9.314   0.904  -6.466  1.00  0.00     0.000 C 
BRANCH   2   3
ATOM      3  C   UNL     1      10.375   1.988  -6.205  1.00  0.00     0.000 C 
BRANCH   3   4
ATOM      4  C   UNL     1      10.242   3.186  -7.158  1.00  0.00     0.000 C 
BRANCH   4   5
ATOM      5  C   UNL     1      11.383   4.205  -6.990  1.00  0.00     0.006 C 
BRANCH   5   6
ATOM      6  C   UNL     1      11.961   4.198  -5.568  1.00  0.00     0.053 C 
BRANCH   6   7
ATOM      7  C   UNL     1      11.661   5.472  -4.838  1.00  0.00     0.041 C 
ATOM      8  O   UNL     1      11.368   5.446  -3.613  1.00  0.00    -0.550 OA
ATOM      9  O   UNL     1      11.677   6.684  -5.516  1.00  0.00    -0.550 OA
ENDBRANCH   6   7
ENDBRANCH   5   6
ENDBRANCH   4   5
ENDBRANCH   3   4
ENDBRANCH   2   3
ENDBRANCH   1   2
BRANCH   1  10
ATOM     10  C   UNL     1       8.896  -1.556  -7.019  1.00  0.00     0.027 C 
BRANCH  10  11
ATOM     11  C   UNL     1       7.548  -0.933  -7.255  1.00  0.00    -0.031 C 
ATOM     12  C   UNL     1       6.691  -1.431  -8.160  1.00  0.00    -0.031 C 
BRANCH  12  13
ATOM     13  C   UNL     1       5.343  -0.808  -8.397  1.00  0.00     0.027 C 
BRANCH  13  14
ATOM     14  C   UNL     1       5.481   0.655  -8.847  1.00  0.00     0.004 C 
BRANCH  14  15
ATOM     15  C   UNL     1       5.857   0.784 -10.332  1.00  0.00     0.000 C 
BRANCH  15  16
ATOM     16  C   UNL     1       6.850   1.926 -10.595  1.00  0.00    -0.000 C 
BRANCH  16  17
ATOM     17  C   UNL     1       8.150   1.710  -9.811  1.00  0.00    -0.003 C 
ATOM     18  C   UNL     1       9.371   1.931 -10.699  1.00  0.00     0.004 C 
ENDBRANCH  16  17
ENDBRANCH  15  16
ENDBRANCH  14  15
ENDBRANCH  13  14
ENDBRANCH  12  13
ENDBRANCH  10  11
ENDBRANCH   1  10
TORSDOF 13
ENDMDL
MODEL 7
REMARK VINA RESULT:    -3.775      3.623      5.552
REMARK INTER + INTRA:          -8.285
REMARK INTER:                  -5.994
REMARK INTRA:                  -2.292
REMARK UNBOUND:                -1.642
REMARK SMILES CCCCCCC=CCCCCCCCC(=O)[O-]
REMARK SMILES IDX 10 1 11 2 12 3 13 4 14 5 15 6 16 7 17 8 18 9 9 10 8 11 7 12
REMARK SMILES IDX 6 13 5 14 4 15 3 16 2 17 1 18
REMARK H PARENT
REMARK Flexibility Score: inf
ROOT
ATOM      1  C   UNL     1       5.842   0.353  -8.411  1.00  0.00     0.004 C 
ENDROOT
BRANCH   1   2
ATOM      2  C   UNL     1       6.503  -0.994  -8.078  1.00  0.00     0.000 C 
BRANCH   2   3
ATOM      3  C   UNL     1       7.827  -0.831  -7.311  1.00  0.00     0.000 C 
BRANCH   3   4
ATOM      4  C   UNL     1       8.246   0.640  -7.163  1.00  0.00     0.000 C 
BRANCH   4   5
ATOM      5  C   UNL     1       9.748   0.800  -6.865  1.00  0.00     0.006 C 
BRANCH   5   6
ATOM      6  C   UNL     1      10.038   2.036  -6.003  1.00  0.00     0.053 C 
BRANCH   6   7
ATOM      7  C   UNL     1      10.560   1.662  -4.649  1.00  0.00     0.041 C 
ATOM      8  O   UNL     1      11.042   2.544  -3.890  1.00  0.00    -0.550 OA
ATOM      9  O   UNL     1      10.540   0.336  -4.237  1.00  0.00    -0.550 OA
ENDBRANCH   6   7
ENDBRANCH   5   6
ENDBRANCH   4   5
ENDBRANCH   3   4
ENDBRANCH   2   3
ENDBRANCH   1   2
BRANCH   1  10
ATOM     10  C   UNL     1       5.000   0.295  -9.694  1.00  0.00     0.027 C 
BRANCH  10  11
ATOM     11  C   UNL     1       5.655   1.064 -10.808  1.00  0.00    -0.031 C 
ATOM     12  C   UNL     1       6.716   1.856 -10.588  1.00  0.00    -0.031 C 
BRANCH  12  13
ATOM     13  C   UNL     1       7.372   2.626 -11.701  1.00  0.00     0.027 C 
BRANCH  13  14
ATOM     14  C   UNL     1       8.891   2.398 -11.711  1.00  0.00     0.004 C 
BRANCH  14  15
ATOM     15  C   UNL     1       9.334   1.314 -10.715  1.00  0.00     0.000 C 
BRANCH  15  16
ATOM     16  C   UNL     1       9.728   0.000 -11.407  1.00  0.00    -0.000 C 
BRANCH  16  17
ATOM     17  C   UNL     1       9.133  -1.206 -10.670  1.00  0.00    -0.003 C 
ATOM     18  C   UNL     1       7.955  -1.794 -11.440  1.00  0.00     0.004 C 
ENDBRANCH  16  17
ENDBRANCH  15  16
ENDBRANCH  14  15
ENDBRANCH  13  14
ENDBRANCH  12  13
ENDBRANCH  10  11
ENDBRANCH   1  10
TORSDOF 13
ENDMDL
MODEL 8
REMARK VINA RESULT:    -3.770      3.980      5.524
REMARK INTER + INTRA:          -8.277
REMARK INTER:                  -6.135
REMARK INTRA:                  -2.141
REMARK UNBOUND:                -1.642
REMARK SMILES CCCCCCC=CCCCCCCCC(=O)[O-]
REMARK SMILES IDX 10 1 11 2 12 3 13 4 14 5 15 6 16 7 17 8 18 9 9 10 8 11 7 12
REMARK SMILES IDX 6 13 5 14 4 15 3 16 2 17 1 18
REMARK H PARENT
REMARK Flexibility Score: inf
ROOT
ATOM      1  C   UNL     1       6.543  -1.021  -9.736  1.00  0.00     0.004 C 
ENDROOT
BRANCH   1   2
ATOM      2  C   UNL     1       6.306  -2.521  -9.978  1.00  0.00     0.000 C 
BRANCH   2   3
ATOM      3  C   UNL     1       7.359  -3.406  -9.288  1.00  0.00     0.000 C 
BRANCH   3   4
ATOM      4  C   UNL     1       6.735  -4.414  -8.310  1.00  0.00     0.000 C 
BRANCH   4   5
ATOM      5  C   UNL     1       6.600  -3.850  -6.885  1.00  0.00     0.006 C 
BRANCH   5   6
ATOM      6  C   UNL     1       7.960  -3.704  -6.188  1.00  0.00     0.053 C 
BRANCH   6   7
ATOM      7  C   UNL     1       8.073  -4.601  -4.994  1.00  0.00     0.041 C 
ATOM      8  O   UNL     1       8.507  -4.148  -3.900  1.00  0.00    -0.550 OA
ATOM      9  O   UNL     1       7.728  -5.942  -5.094  1.00  0.00    -0.550 OA
ENDBRANCH   6   7
ENDBRANCH   5   6
ENDBRANCH   4   5
ENDBRANCH   3   4
ENDBRANCH   2   3
ENDBRANCH   1   2
BRANCH   1  10
ATOM     10  C   UNL     1       5.940  -0.536  -8.410  1.00  0.00     0.027 C 
BRANCH  10  11
ATOM     11  C   UNL     1       6.903   0.349  -7.668  1.00  0.00    -0.031 C 
ATOM     12  C   UNL     1       8.125  -0.081  -7.316  1.00  0.00    -0.031 C 
BRANCH  12  13
ATOM     13  C   UNL     1       9.089   0.803  -6.573  1.00  0.00     0.027 C 
BRANCH  13  14
ATOM     14  C   UNL     1       9.600   1.941  -7.469  1.00  0.00     0.004 C 
BRANCH  14  15
ATOM     15  C   UNL     1      10.281   1.427  -8.748  1.00  0.00     0.000 C 
BRANCH  15  16
ATOM     16  C   UNL     1       9.618   1.962 -10.027  1.00  0.00    -0.000 C 
BRANCH  16  17
ATOM     17  C   UNL     1       9.366   0.827 -11.027  1.00  0.00    -0.003 C 
ATOM     18  C   UNL     1      10.126  -0.435 -10.631  1.00  0.00     0.004 C 
ENDBRANCH  16  17
ENDBRANCH  15  16
ENDBRANCH  14  15
ENDBRANCH  13  14
ENDBRANCH  12  13
ENDBRANCH  10  11
ENDBRANCH   1  10
TORSDOF 13
ENDMDL
MODEL 9
REMARK VINA RESULT:    -3.733      1.963      5.052
REMARK INTER + INTRA:          -8.212
REMARK INTER:                  -6.336
REMARK INTRA:                  -1.876
REMARK UNBOUND:                -1.642
REMARK SMILES CCCCCCC=CCCCCCCCC(=O)[O-]
REMARK SMILES IDX 10 1 11 2 12 3 13 4 14 5 15 6 16 7 17 8 18 9 9 10 8 11 7 12
REMARK SMILES IDX 6 13 5 14 4 15 3 16 2 17 1 18
REMARK H PARENT
REMARK Flexibility Score: inf
ROOT
ATOM      1  C   UNL     1      10.259   2.852  -7.525  1.00  0.00     0.004 C 
ENDROOT
BRANCH   1   2
ATOM      2  C   UNL     1      11.100   2.073  -8.549  1.00  0.00     0.000 C 
BRANCH   2   3
ATOM      3  C   UNL     1      10.447   2.031  -9.942  1.00  0.00     0.000 C 
BRANCH   3   4
ATOM      4  C   UNL     1       9.952   0.627 -10.322  1.00  0.00     0.000 C 
BRANCH   4   5
ATOM      5  C   UNL     1       8.558   0.647 -10.974  1.00  0.00     0.006 C 
BRANCH   5   6
ATOM      6  C   UNL     1       7.943   2.053 -10.983  1.00  0.00     0.053 C 
BRANCH   6   7
ATOM      7  C   UNL     1       6.468   2.014 -11.242  1.00  0.00     0.041 C 
ATOM      8  O   UNL     1       5.919   0.944 -11.621  1.00  0.00    -0.550 OA
ATOM      9  O   UNL     1       5.703   3.164 -11.096  1.00  0.00    -0.550 OA
ENDBRANCH   6   7
ENDBRANCH   5   6
ENDBRANCH   4   5
ENDBRANCH   3   4
ENDBRANCH   2   3
ENDBRANCH   1   2
BRANCH   1  10
ATOM     10  C   UNL     1       9.897   2.006  -6.295  1.00  0.00     0.027 C 
BRANCH  10  11
ATOM     11  C   UNL     1       9.208   0.731  -6.698  1.00  0.00    -0.031 C 
ATOM     12  C   UNL     1       7.962   0.733  -7.199  1.00  0.00    -0.031 C 
BRANCH  12  13
ATOM     13  C   UNL     1       7.272  -0.541  -7.601  1.00  0.00     0.027 C 
BRANCH  13  14
ATOM     14  C   UNL     1       5.940  -0.249  -8.309  1.00  0.00     0.004 C 
BRANCH  14  15
ATOM     15  C   UNL     1       5.330  -1.500  -8.963  1.00  0.00     0.000 C 
BRANCH  15  16
ATOM     16  C   UNL     1       4.365  -2.245  -8.028  1.00  0.00    -0.000 C 
BRANCH  16  17
ATOM     17  C   UNL     1       4.711  -3.738  -7.963  1.00  0.00    -0.003 C 
ATOM     18  C   UNL     1       6.035  -3.964  -7.238  1.00  0.00     0.004 C 
ENDBRANCH  16  17
ENDBRANCH  15  16
ENDBRANCH  14  15
ENDBRANCH  13  14
ENDBRANCH  12  13
ENDBRANCH  10  11
ENDBRANCH   1  10
TORSDOF 13
ENDMDL
