MODEL 1
REMARK VINA RESULT:    -4.685      0.000      0.000
REMARK INTER + INTRA:          -4.822
REMARK INTER:                  -4.822
REMARK INTRA:                   0.000
REMARK UNBOUND:                 0.000
REMARK SMILES Nc1ncnc2nc[nH]c12
REMARK SMILES IDX 8 1 7 2 6 3 5 4 4 5 3 6 2 7 10 8 9 9 1 11
REMARK H PARENT 9 10 1 12 1 13
REMARK Flexibility Score: inf
ROOT
ATOM      1  C   UNL     1     -20.623  -5.837  -7.517  1.00  0.00     0.199 A 
ATOM      2  N   UNL     1     -20.354  -4.504  -7.567  1.00  0.00    -0.217 NA
ATOM      3  C   UNL     1     -20.634  -4.111  -6.313  1.00  0.00     0.182 A 
ATOM      4  N   UNL     1     -20.532  -2.853  -5.819  1.00  0.00    -0.215 NA
ATOM      5  C   UNL     1     -20.864  -2.646  -4.509  1.00  0.00     0.226 A 
ATOM      6  N   UNL     1     -21.286  -3.689  -3.723  1.00  0.00    -0.217 NA
ATOM      7  C   UNL     1     -21.388  -4.959  -4.221  1.00  0.00     0.152 A 
ATOM      8  C   UNL     1     -21.047  -5.153  -5.556  1.00  0.00     0.127 A 
ATOM      9  N   UNL     1     -21.049  -6.264  -6.302  1.00  0.00    -0.340 N 
ATOM     10  H   UNL     1     -21.313  -7.236  -6.026  1.00  0.00     0.168 HD
ENDROOT
BRANCH   7  11
ATOM     11  N   UNL     1     -21.829  -6.029  -3.384  1.00  0.00    -0.382 N 
ATOM     12  H   UNL     1     -21.812  -5.947  -2.343  1.00  0.00     0.158 HD
ATOM     13  H   UNL     1     -22.177  -6.916  -3.810  1.00  0.00     0.158 HD
ENDBRANCH   7  11
TORSDOF 1
ENDMDL
MODEL 2
REMARK VINA RESULT:    -4.609      1.182      2.498
REMARK INTER + INTRA:          -4.744
REMARK INTER:                  -4.744
REMARK INTRA:                   0.000
REMARK UNBOUND:                 0.000
REMARK SMILES Nc1ncnc2nc[nH]c12
REMARK SMILES IDX 8 1 7 2 6 3 5 4 4 5 3 6 2 7 10 8 9 9 1 11
REMARK H PARENT 9 10 1 12 1 13
REMARK Flexibility Score: inf
ROOT
ATOM      1  C   UNL     1     -21.448  -3.339  -7.874  1.00  0.00     0.199 A 
ATOM      2  N   UNL     1     -21.226  -4.669  -7.695  1.00  0.00    -0.217 NA
ATOM      3  C   UNL     1     -21.210  -4.779  -6.357  1.00  0.00     0.182 A 
ATOM      4  N   UNL     1     -21.022  -5.913  -5.640  1.00  0.00    -0.215 NA
ATOM      5  C   UNL     1     -21.038  -5.825  -4.276  1.00  0.00     0.226 A 
ATOM      6  N   UNL     1     -21.240  -4.617  -3.658  1.00  0.00    -0.217 NA
ATOM      7  C   UNL     1     -21.431  -3.471  -4.380  1.00  0.00     0.152 A 
ATOM      8  C   UNL     1     -21.411  -3.578  -5.767  1.00  0.00     0.127 A 
ATOM      9  N   UNL     1     -21.566  -2.644  -6.714  1.00  0.00    -0.340 N 
ATOM     10  H   UNL     1     -21.736  -1.620  -6.600  1.00  0.00     0.168 HD
ENDROOT
BRANCH   7  11
ATOM     11  N   UNL     1     -21.640  -2.225  -3.714  1.00  0.00    -0.382 N 
ATOM     12  H   UNL     1     -22.542  -1.707  -3.803  1.00  0.00     0.158 HD
ATOM     13  H   UNL     1     -20.883  -1.814  -3.125  1.00  0.00     0.158 HD
ENDBRANCH   7  11
TORSDOF 1
ENDMDL
MODEL 3
REMARK VINA RESULT:    -4.586      1.888      2.306
REMARK INTER + INTRA:          -4.720
REMARK INTER:                  -4.720
REMARK INTRA:                   0.000
REMARK UNBOUND:                 0.000
REMARK SMILES Nc1ncnc2nc[nH]c12
REMARK SMILES IDX 8 1 7 2 6 3 5 4 4 5 3 6 2 7 10 8 9 9 1 11
REMARK H PARENT 9 10 1 12 1 13
REMARK Flexibility Score: inf
ROOT
ATOM      1  C   UNL     1     -17.862  -5.338  -4.959  1.00  0.00     0.199 A 
ATOM      2  N   UNL     1     -18.236  -4.835  -6.167  1.00  0.00    -0.217 NA
ATOM      3  C   UNL     1     -19.575  -4.832  -6.073  1.00  0.00     0.182 A 
ATOM      4  N   UNL     1     -20.452  -4.418  -7.019  1.00  0.00    -0.215 NA
ATOM      5  C   UNL     1     -21.788  -4.491  -6.739  1.00  0.00     0.226 A 
ATOM      6  N   UNL     1     -22.220  -4.971  -5.527  1.00  0.00    -0.217 NA
ATOM      7  C   UNL     1     -21.337  -5.388  -4.570  1.00  0.00     0.152 A 
ATOM      8  C   UNL     1     -19.980  -5.307  -4.872  1.00  0.00     0.127 A 
ATOM      9  N   UNL     1     -18.906  -5.637  -4.145  1.00  0.00    -0.340 N 
ATOM     10  H   UNL     1     -18.867  -6.032  -3.180  1.00  0.00     0.168 HD
ENDROOT
BRANCH   7  11
ATOM     11  N   UNL     1     -21.810  -5.882  -3.317  1.00  0.00    -0.382 N 
ATOM     12  H   UNL     1     -21.180  -5.950  -2.487  1.00  0.00     0.158 HD
ATOM     13  H   UNL     1     -22.803  -6.186  -3.217  1.00  0.00     0.158 HD
ENDBRANCH   7  11
TORSDOF 1
ENDMDL
MODEL 4
REMARK VINA RESULT:    -4.521      1.364      2.553
REMARK INTER + INTRA:          -4.653
REMARK INTER:                  -4.653
REMARK INTRA:                   0.000
REMARK UNBOUND:                 0.000
REMARK SMILES Nc1ncnc2nc[nH]c12
REMARK SMILES IDX 8 1 7 2 6 3 5 4 4 5 3 6 2 7 10 8 9 9 1 11
REMARK H PARENT 9 10 1 12 1 13
REMARK Flexibility Score: inf
ROOT
ATOM      1  C   UNL     1     -21.136  -2.736  -6.400  1.00  0.00     0.199 A 
ATOM      2  N   UNL     1     -20.191  -3.453  -7.065  1.00  0.00    -0.217 NA
ATOM      3  C   UNL     1     -20.151  -4.595  -6.359  1.00  0.00     0.182 A 
ATOM      4  N   UNL     1     -19.362  -5.669  -6.602  1.00  0.00    -0.215 NA
ATOM      5  C   UNL     1     -19.462  -6.746  -5.767  1.00  0.00     0.226 A 
ATOM      6  N   UNL     1     -20.342  -6.732  -4.713  1.00  0.00    -0.217 NA
ATOM      7  C   UNL     1     -21.140  -5.649  -4.467  1.00  0.00     0.152 A 
ATOM      8  C   UNL     1     -21.025  -4.561  -5.327  1.00  0.00     0.127 A 
ATOM      9  N   UNL     1     -21.665  -3.385  -5.332  1.00  0.00    -0.340 N 
ATOM     10  H   UNL     1     -22.398  -3.037  -4.676  1.00  0.00     0.168 HD
ENDROOT
BRANCH   7  11
ATOM     11  N   UNL     1     -22.049  -5.658  -3.366  1.00  0.00    -0.382 N 
ATOM     12  H   UNL     1     -21.712  -5.777  -2.385  1.00  0.00     0.158 HD
ATOM     13  H   UNL     1     -23.073  -5.544  -3.532  1.00  0.00     0.158 HD
ENDBRANCH   7  11
TORSDOF 1
ENDMDL
MODEL 5
REMARK VINA RESULT:    -4.508     15.683     16.706
REMARK INTER + INTRA:          -4.639
REMARK INTER:                  -4.639
REMARK INTRA:                   0.000
REMARK UNBOUND:                 0.000
REMARK SMILES Nc1ncnc2nc[nH]c12
REMARK SMILES IDX 8 1 7 2 6 3 5 4 4 5 3 6 2 7 10 8 9 9 1 11
REMARK H PARENT 9 10 1 12 1 13
REMARK Flexibility Score: inf
ROOT
ATOM      1  C   UNL     1     -35.720   6.767  -5.738  1.00  0.00     0.199 A 
ATOM      2  N   UNL     1     -35.987   5.513  -6.193  1.00  0.00    -0.217 NA
ATOM      3  C   UNL     1     -35.026   4.785  -5.602  1.00  0.00     0.182 A 
ATOM      4  N   UNL     1     -34.834   3.449  -5.722  1.00  0.00    -0.215 NA
ATOM      5  C   UNL     1     -33.795   2.882  -5.040  1.00  0.00     0.226 A 
ATOM      6  N   UNL     1     -32.973   3.652  -4.255  1.00  0.00    -0.217 NA
ATOM      7  C   UNL     1     -33.165   5.000  -4.133  1.00  0.00     0.152 A 
ATOM      8  C   UNL     1     -34.228   5.562  -4.835  1.00  0.00     0.127 A 
ATOM      9  N   UNL     1     -34.650   6.830  -4.905  1.00  0.00    -0.340 N 
ATOM     10  H   UNL     1     -34.258   7.677  -4.436  1.00  0.00     0.168 HD
ENDROOT
BRANCH   7  11
ATOM     11  N   UNL     1     -32.297   5.781  -3.310  1.00  0.00    -0.382 N 
ATOM     12  H   UNL     1     -32.023   5.463  -2.354  1.00  0.00     0.158 HD
ATOM     13  H   UNL     1     -31.923   6.690  -3.661  1.00  0.00     0.158 HD
ENDBRANCH   7  11
TORSDOF 1
ENDMDL
MODEL 6
REMARK VINA RESULT:    -4.464     14.869     15.825
REMARK INTER + INTRA:          -4.595
REMARK INTER:                  -4.595
REMARK INTRA:                   0.000
REMARK UNBOUND:                 0.000
REMARK SMILES Nc1ncnc2nc[nH]c12
REMARK SMILES IDX 8 1 7 2 6 3 5 4 4 5 3 6 2 7 10 8 9 9 1 11
REMARK H PARENT 9 10 1 12 1 13
REMARK Flexibility Score: inf
ROOT
ATOM      1  C   UNL     1     -33.995   6.377  -7.375  1.00  0.00     0.199 A 
ATOM      2  N   UNL     1     -34.224   5.066  -7.655  1.00  0.00    -0.217 NA
ATOM      3  C   UNL     1     -33.800   4.457  -6.535  1.00  0.00     0.182 A 
ATOM      4  N   UNL     1     -33.808   3.125  -6.286  1.00  0.00    -0.215 NA
ATOM      5  C   UNL     1     -33.333   2.691  -5.080  1.00  0.00     0.226 A 
ATOM      6  N   UNL     1     -32.863   3.587  -4.153  1.00  0.00    -0.217 NA
ATOM      7  C   UNL     1     -32.855   4.931  -4.402  1.00  0.00     0.152 A 
ATOM      8  C   UNL     1     -33.343   5.357  -5.635  1.00  0.00     0.127 A 
ATOM      9  N   UNL     1     -33.455   6.588  -6.147  1.00  0.00    -0.340 N 
ATOM     10  H   UNL     1     -33.194   7.502  -5.716  1.00  0.00     0.168 HD
ENDROOT
BRANCH   7  11
ATOM     11  N   UNL     1     -32.362   5.845  -3.421  1.00  0.00    -0.382 N 
ATOM     12  H   UNL     1     -31.338   6.008  -3.298  1.00  0.00     0.158 HD
ATOM     13  H   UNL     1     -33.028   6.364  -2.809  1.00  0.00     0.158 HD
ENDBRANCH   7  11
TORSDOF 1
ENDMDL
MODEL 7
REMARK VINA RESULT:    -4.423     15.307     16.131
REMARK INTER + INTRA:          -4.552
REMARK INTER:                  -4.552
REMARK INTRA:                   0.000
REMARK UNBOUND:                 0.000
REMARK SMILES Nc1ncnc2nc[nH]c12
REMARK SMILES IDX 8 1 7 2 6 3 5 4 4 5 3 6 2 7 10 8 9 9 1 11
REMARK H PARENT 9 10 1 12 1 13
REMARK Flexibility Score: inf
ROOT
ATOM      1  C   UNL     1     -32.285   4.221  -7.877  1.00  0.00     0.199 A 
ATOM      2  N   UNL     1     -33.475   4.773  -8.242  1.00  0.00    -0.217 NA
ATOM      3  C   UNL     1     -33.865   5.382  -7.111  1.00  0.00     0.182 A 
ATOM      4  N   UNL     1     -35.003   6.094  -6.927  1.00  0.00    -0.215 NA
ATOM      5  C   UNL     1     -35.230   6.643  -5.696  1.00  0.00     0.226 A 
ATOM      6  N   UNL     1     -34.323   6.475  -4.680  1.00  0.00    -0.217 NA
ATOM      7  C   UNL     1     -33.174   5.758  -4.864  1.00  0.00     0.152 A 
ATOM      8  C   UNL     1     -32.958   5.205  -6.123  1.00  0.00     0.127 A 
ATOM      9  N   UNL     1     -31.942   4.467  -6.587  1.00  0.00    -0.340 N 
ATOM     10  H   UNL     1     -31.083   4.149  -6.086  1.00  0.00     0.168 HD
ENDROOT
BRANCH   7  11
ATOM     11  N   UNL     1     -32.244   5.596  -3.792  1.00  0.00    -0.382 N 
ATOM     12  H   UNL     1     -32.477   5.018  -2.954  1.00  0.00     0.158 HD
ATOM     13  H   UNL     1     -31.311   6.062  -3.834  1.00  0.00     0.158 HD
ENDBRANCH   7  11
TORSDOF 1
ENDMDL
MODEL 8
REMARK VINA RESULT:    -4.275      1.261      2.609
REMARK INTER + INTRA:          -4.400
REMARK INTER:                  -4.400
REMARK INTRA:                   0.000
REMARK UNBOUND:                 0.000
REMARK SMILES Nc1ncnc2nc[nH]c12
REMARK SMILES IDX 8 1 7 2 6 3 5 4 4 5 3 6 2 7 10 8 9 9 1 11
REMARK H PARENT 9 10 1 12 1 13
REMARK Flexibility Score: inf
ROOT
ATOM      1  C   UNL     1     -20.338  -6.514  -4.820  1.00  0.00     0.199 A 
ATOM      2  N   UNL     1     -20.500  -6.534  -6.171  1.00  0.00    -0.217 NA
ATOM      3  C   UNL     1     -20.829  -5.259  -6.436  1.00  0.00     0.182 A 
ATOM      4  N   UNL     1     -21.102  -4.730  -7.653  1.00  0.00    -0.215 NA
ATOM      5  C   UNL     1     -21.420  -3.403  -7.725  1.00  0.00     0.226 A 
ATOM      6  N   UNL     1     -21.458  -2.633  -6.589  1.00  0.00    -0.217 NA
ATOM      7  C   UNL     1     -21.183  -3.165  -5.359  1.00  0.00     0.152 A 
ATOM      8  C   UNL     1     -20.861  -4.518  -5.304  1.00  0.00     0.127 A 
ATOM      9  N   UNL     1     -20.552  -5.297  -4.260  1.00  0.00    -0.340 N 
ATOM     10  H   UNL     1     -20.487  -5.041  -3.251  1.00  0.00     0.168 HD
ENDROOT
BRANCH   7  11
ATOM     11  N   UNL     1     -21.229  -2.344  -4.191  1.00  0.00    -0.382 N 
ATOM     12  H   UNL     1     -20.405  -2.257  -3.556  1.00  0.00     0.158 HD
ATOM     13  H   UNL     1     -22.098  -1.817  -3.957  1.00  0.00     0.158 HD
ENDBRANCH   7  11
TORSDOF 1
ENDMDL
MODEL 9
REMARK VINA RESULT:    -4.202      1.762      3.077
REMARK INTER + INTRA:          -4.325
REMARK INTER:                  -4.325
REMARK INTRA:                   0.000
REMARK UNBOUND:                 0.000
REMARK SMILES Nc1ncnc2nc[nH]c12
REMARK SMILES IDX 8 1 7 2 6 3 5 4 4 5 3 6 2 7 10 8 9 9 1 11
REMARK H PARENT 9 10 1 12 1 13
REMARK Flexibility Score: inf
ROOT
ATOM      1  C   UNL     1     -18.826  -2.513  -6.248  1.00  0.00     0.199 A 
ATOM      2  N   UNL     1     -18.391  -3.400  -5.312  1.00  0.00    -0.217 NA
ATOM      3  C   UNL     1     -19.404  -4.280  -5.261  1.00  0.00     0.182 A 
ATOM      4  N   UNL     1     -19.480  -5.381  -4.475  1.00  0.00    -0.215 NA
ATOM      5  C   UNL     1     -20.598  -6.162  -4.564  1.00  0.00     0.226 A 
ATOM      6  N   UNL     1     -21.611  -5.833  -5.430  1.00  0.00    -0.217 NA
ATOM      7  C   UNL     1     -21.536  -4.723  -6.224  1.00  0.00     0.152 A 
ATOM      8  C   UNL     1     -20.391  -3.938  -6.121  1.00  0.00     0.127 A 
ATOM      9  N   UNL     1     -20.046  -2.815  -6.762  1.00  0.00    -0.340 N 
ATOM     10  H   UNL     1     -20.579  -2.285  -7.486  1.00  0.00     0.168 HD
ENDROOT
BRANCH   7  11
ATOM     11  N   UNL     1     -22.602  -4.401  -7.118  1.00  0.00    -0.382 N 
ATOM     12  H   UNL     1     -23.052  -5.132  -7.713  1.00  0.00     0.158 HD
ATOM     13  H   UNL     1     -22.947  -3.419  -7.187  1.00  0.00     0.158 HD
ENDBRANCH   7  11
TORSDOF 1
ENDMDL
