MODEL 1
REMARK VINA RESULT:    -5.798      0.000      0.000
REMARK INTER + INTRA:          -7.103
REMARK INTER:                  -6.814
REMARK INTRA:                  -0.288
REMARK UNBOUND:                -0.288
REMARK SMILES O=c1c(O)c(-c2ccc(O)cc2)oc2cc(O)cc(O)c12
REMARK SMILES IDX 5 1 3 2 2 3 1 4 21 5 19 6 18 7 16 8 15 9 14 10 13 11 6 12
REMARK SMILES IDX 7 13 8 14 9 15 12 16 11 17 10 18 4 20 20 22 17 24
REMARK H PARENT 10 19 4 21 20 23 17 25
REMARK Flexibility Score: inf
ROOT
ATOM      1  C   UNL     1      -4.816 -16.362  16.664  1.00  0.00     0.180 A 
ATOM      2  C   UNL     1      -4.689 -17.533  17.432  1.00  0.00     0.208 A 
ATOM      3  C   UNL     1      -5.548 -18.613  17.175  1.00  0.00     0.238 A 
ATOM      4  O   UNL     1      -5.466 -19.638  17.901  1.00  0.00    -0.285 OA
ATOM      5  C   UNL     1      -6.512 -18.515  16.142  1.00  0.00     0.111 A 
ATOM      6  C   UNL     1      -7.408 -19.562  15.768  1.00  0.00     0.134 A 
ATOM      7  C   UNL     1      -8.407 -19.310  14.821  1.00  0.00     0.093 A 
ATOM      8  C   UNL     1      -8.503 -18.072  14.187  1.00  0.00     0.123 A 
ATOM      9  C   UNL     1      -7.596 -17.060  14.502  1.00  0.00     0.094 A 
ATOM     10  C   UNL     1      -6.610 -17.270  15.469  1.00  0.00     0.146 A 
ATOM     11  O   UNL     1      -5.774 -16.278  15.748  1.00  0.00    -0.452 OA
ENDROOT
BRANCH   1  12
ATOM     12  C   UNL     1      -3.931 -15.192  16.859  1.00  0.00     0.021 A 
ATOM     13  C   UNL     1      -2.727 -15.107  16.138  1.00  0.00     0.016 A 
ATOM     14  C   UNL     1      -1.865 -14.021  16.324  1.00  0.00     0.047 A 
ATOM     15  C   UNL     1      -2.189 -13.016  17.244  1.00  0.00     0.115 A 
ATOM     16  C   UNL     1      -4.238 -14.188  17.796  1.00  0.00     0.016 A 
ATOM     17  C   UNL     1      -3.374 -13.104  17.980  1.00  0.00     0.047 A 
BRANCH  15  18
ATOM     18  O   UNL     1      -1.339 -11.929  17.438  1.00  0.00    -0.508 OA
ATOM     19  H   UNL     1      -0.447 -11.863  16.962  1.00  0.00     0.293 HD
ENDBRANCH  15  18
ENDBRANCH   1  12
BRANCH   2  20
ATOM     20  O   UNL     1      -3.745 -17.599  18.461  1.00  0.00    -0.502 OA
ATOM     21  H   UNL     1      -3.835 -17.064  19.317  1.00  0.00     0.293 HD
ENDBRANCH   2  20
BRANCH   6  22
ATOM     22  O   UNL     1      -7.340 -20.864  16.273  1.00  0.00    -0.507 OA
ATOM     23  H   UNL     1      -7.649 -21.142  17.192  1.00  0.00     0.293 HD
ENDBRANCH   6  22
BRANCH   8  24
ATOM     24  O   UNL     1      -9.501 -17.861  13.238  1.00  0.00    -0.508 OA
ATOM     25  H   UNL     1      -9.829 -16.930  13.012  1.00  0.00     0.293 HD
ENDBRANCH   8  24
TORSDOF 5
ENDMDL
MODEL 2
REMARK VINA RESULT:    -5.750      1.670      6.939
REMARK INTER + INTRA:          -7.047
REMARK INTER:                  -6.759
REMARK INTRA:                  -0.288
REMARK UNBOUND:                -0.288
REMARK SMILES O=c1c(O)c(-c2ccc(O)cc2)oc2cc(O)cc(O)c12
REMARK SMILES IDX 5 1 3 2 2 3 1 4 21 5 19 6 18 7 16 8 15 9 14 10 13 11 6 12
REMARK SMILES IDX 7 13 8 14 9 15 12 16 11 17 10 18 4 20 20 22 17 24
REMARK H PARENT 10 19 4 21 20 23 17 25
REMARK Flexibility Score: inf
ROOT
ATOM      1  C   UNL     1      -5.789 -16.008  16.304  1.00  0.00     0.180 A 
ATOM      2  C   UNL     1      -6.293 -15.026  17.174  1.00  0.00     0.208 A 
ATOM      3  C   UNL     1      -5.415 -14.063  17.697  1.00  0.00     0.238 A 
ATOM      4  O   UNL     1      -5.861 -13.220  18.517  1.00  0.00    -0.285 OA
ATOM      5  C   UNL     1      -4.048 -14.085  17.329  1.00  0.00     0.111 A 
ATOM      6  C   UNL     1      -3.076 -13.134  17.767  1.00  0.00     0.134 A 
ATOM      7  C   UNL     1      -1.727 -13.328  17.446  1.00  0.00     0.093 A 
ATOM      8  C   UNL     1      -1.323 -14.400  16.651  1.00  0.00     0.123 A 
ATOM      9  C   UNL     1      -2.271 -15.302  16.169  1.00  0.00     0.094 A 
ATOM     10  C   UNL     1      -3.620 -15.155  16.502  1.00  0.00     0.146 A 
ATOM     11  O   UNL     1      -4.490 -16.041  16.031  1.00  0.00    -0.452 OA
ENDROOT
BRANCH   1  12
ATOM     12  C   UNL     1      -6.657 -17.040  15.694  1.00  0.00     0.021 A 
ATOM     13  C   UNL     1      -6.690 -18.332  16.247  1.00  0.00     0.016 A 
ATOM     14  C   UNL     1      -7.486 -19.329  15.672  1.00  0.00     0.047 A 
ATOM     15  C   UNL     1      -8.246 -19.050  14.530  1.00  0.00     0.115 A 
ATOM     16  C   UNL     1      -7.410 -16.775  14.535  1.00  0.00     0.016 A 
ATOM     17  C   UNL     1      -8.204 -17.773  13.962  1.00  0.00     0.047 A 
BRANCH  15  18
ATOM     18  O   UNL     1      -9.043 -20.035  13.950  1.00  0.00    -0.508 OA
ATOM     19  H   UNL     1      -9.311 -20.868  14.460  1.00  0.00     0.293 HD
ENDBRANCH  15  18
ENDBRANCH   1  12
BRANCH   2  20
ATOM     20  O   UNL     1      -7.642 -15.037  17.541  1.00  0.00    -0.502 OA
ATOM     21  H   UNL     1      -8.238 -15.844  17.398  1.00  0.00     0.293 HD
ENDBRANCH   2  20
BRANCH   6  22
ATOM     22  O   UNL     1      -3.387 -11.977  18.488  1.00  0.00    -0.507 OA
ATOM     23  H   UNL     1      -2.792 -11.166  18.558  1.00  0.00     0.293 HD
ENDBRANCH   6  22
BRANCH   8  24
ATOM     24  O   UNL     1       0.026 -14.553  16.338  1.00  0.00    -0.508 OA
ATOM     25  H   UNL     1       0.360 -14.489  15.384  1.00  0.00     0.293 HD
ENDBRANCH   8  24
TORSDOF 5
ENDMDL
MODEL 3
REMARK VINA RESULT:    -5.429     11.946     13.522
REMARK INTER + INTRA:          -6.669
REMARK INTER:                  -6.369
REMARK INTRA:                  -0.300
REMARK UNBOUND:                -0.288
REMARK SMILES O=c1c(O)c(-c2ccc(O)cc2)oc2cc(O)cc(O)c12
REMARK SMILES IDX 5 1 3 2 2 3 1 4 21 5 19 6 18 7 16 8 15 9 14 10 13 11 6 12
REMARK SMILES IDX 7 13 8 14 9 15 12 16 11 17 10 18 4 20 20 22 17 24
REMARK H PARENT 10 19 4 21 20 23 17 25
REMARK Flexibility Score: inf
ROOT
ATOM      1  C   UNL     1       6.115 -16.916  11.235  1.00  0.00     0.180 A 
ATOM      2  C   UNL     1       5.144 -17.768  10.681  1.00  0.00     0.208 A 
ATOM      3  C   UNL     1       4.699 -17.533   9.370  1.00  0.00     0.238 A 
ATOM      4  O   UNL     1       3.791 -18.266   8.899  1.00  0.00    -0.285 OA
ATOM      5  C   UNL     1       5.243 -16.459   8.624  1.00  0.00     0.111 A 
ATOM      6  C   UNL     1       4.896 -16.153   7.274  1.00  0.00     0.134 A 
ATOM      7  C   UNL     1       5.398 -14.990   6.679  1.00  0.00     0.093 A 
ATOM      8  C   UNL     1       6.286 -14.158   7.360  1.00  0.00     0.123 A 
ATOM      9  C   UNL     1       6.679 -14.479   8.659  1.00  0.00     0.094 A 
ATOM     10  C   UNL     1       6.166 -15.614   9.292  1.00  0.00     0.146 A 
ATOM     11  O   UNL     1       6.556 -15.878  10.533  1.00  0.00    -0.452 OA
ENDROOT
BRANCH   1  12
ATOM     12  C   UNL     1       6.651 -17.114  12.601  1.00  0.00     0.021 A 
ATOM     13  C   UNL     1       6.072 -16.422  13.679  1.00  0.00     0.016 A 
ATOM     14  C   UNL     1       6.578 -16.578  14.973  1.00  0.00     0.047 A 
ATOM     15  C   UNL     1       7.676 -17.415  15.204  1.00  0.00     0.115 A 
ATOM     16  C   UNL     1       7.766 -17.938  12.839  1.00  0.00     0.016 A 
ATOM     17  C   UNL     1       8.270 -18.092  14.134  1.00  0.00     0.047 A 
BRANCH  15  18
ATOM     18  O   UNL     1       8.187 -17.579  16.489  1.00  0.00    -0.508 OA
ATOM     19  H   UNL     1       8.876 -18.293  16.699  1.00  0.00     0.293 HD
ENDBRANCH  15  18
ENDBRANCH   1  12
BRANCH   2  20
ATOM     20  O   UNL     1       4.605 -18.808  11.443  1.00  0.00    -0.502 OA
ATOM     21  H   UNL     1       3.737 -18.712  11.958  1.00  0.00     0.293 HD
ENDBRANCH   2  20
BRANCH   6  22
ATOM     22  O   UNL     1       4.089 -16.966   6.472  1.00  0.00    -0.507 OA
ATOM     23  H   UNL     1       4.383 -17.392   5.606  1.00  0.00     0.293 HD
ENDBRANCH   6  22
BRANCH   8  24
ATOM     24  O   UNL     1       6.779 -13.016   6.730  1.00  0.00    -0.508 OA
ATOM     25  H   UNL     1       7.439 -13.077   5.965  1.00  0.00     0.293 HD
ENDBRANCH   8  24
TORSDOF 5
ENDMDL
MODEL 4
REMARK VINA RESULT:    -5.183      2.133      2.922
REMARK INTER + INTRA:          -6.380
REMARK INTER:                  -6.115
REMARK INTRA:                  -0.265
REMARK UNBOUND:                -0.288
REMARK SMILES O=c1c(O)c(-c2ccc(O)cc2)oc2cc(O)cc(O)c12
REMARK SMILES IDX 5 1 3 2 2 3 1 4 21 5 19 6 18 7 16 8 15 9 14 10 13 11 6 12
REMARK SMILES IDX 7 13 8 14 9 15 12 16 11 17 10 18 4 20 20 22 17 24
REMARK H PARENT 10 19 4 21 20 23 17 25
REMARK Flexibility Score: inf
ROOT
ATOM      1  C   UNL     1      -5.268 -15.773  16.493  1.00  0.00     0.180 A 
ATOM      2  C   UNL     1      -6.215 -14.891  17.042  1.00  0.00     0.208 A 
ATOM      3  C   UNL     1      -7.574 -15.240  17.001  1.00  0.00     0.238 A 
ATOM      4  O   UNL     1      -8.422 -14.422  17.446  1.00  0.00    -0.285 OA
ATOM      5  C   UNL     1      -7.968 -16.472  16.426  1.00  0.00     0.111 A 
ATOM      6  C   UNL     1      -9.314 -16.945  16.366  1.00  0.00     0.134 A 
ATOM      7  C   UNL     1      -9.603 -18.118  15.658  1.00  0.00     0.093 A 
ATOM      8  C   UNL     1      -8.589 -18.868  15.064  1.00  0.00     0.123 A 
ATOM      9  C   UNL     1      -7.264 -18.447  15.166  1.00  0.00     0.094 A 
ATOM     10  C   UNL     1      -6.948 -17.262  15.836  1.00  0.00     0.146 A 
ATOM     11  O   UNL     1      -5.675 -16.890  15.901  1.00  0.00    -0.452 OA
ENDROOT
BRANCH   1  12
ATOM     12  C   UNL     1      -3.816 -15.486  16.521  1.00  0.00     0.021 A 
ATOM     13  C   UNL     1      -3.257 -14.644  15.543  1.00  0.00     0.016 A 
ATOM     14  C   UNL     1      -1.884 -14.379  15.538  1.00  0.00     0.047 A 
ATOM     15  C   UNL     1      -1.051 -14.964  16.500  1.00  0.00     0.115 A 
ATOM     16  C   UNL     1      -2.968 -16.085  17.471  1.00  0.00     0.016 A 
ATOM     17  C   UNL     1      -1.596 -15.819  17.463  1.00  0.00     0.047 A 
BRANCH  15  18
ATOM     18  O   UNL     1       0.318 -14.706  16.505  1.00  0.00    -0.508 OA
ATOM     19  H   UNL     1       0.988 -15.409  16.792  1.00  0.00     0.293 HD
ENDBRANCH  15  18
ENDBRANCH   1  12
BRANCH   2  20
ATOM     20  O   UNL     1      -5.806 -13.669  17.585  1.00  0.00    -0.502 OA
ATOM     21  H   UNL     1      -6.383 -13.140  18.228  1.00  0.00     0.293 HD
ENDBRANCH   2  20
BRANCH   6  22
ATOM     22  O   UNL     1     -10.390 -16.320  17.004  1.00  0.00    -0.507 OA
ATOM     23  H   UNL     1     -10.909 -15.542  16.627  1.00  0.00     0.293 HD
ENDBRANCH   6  22
BRANCH   8  24
ATOM     24  O   UNL     1      -8.911 -20.039  14.380  1.00  0.00    -0.508 OA
ATOM     25  H   UNL     1      -9.666 -20.067  13.705  1.00  0.00     0.293 HD
ENDBRANCH   8  24
TORSDOF 5
ENDMDL
MODEL 5
REMARK VINA RESULT:    -5.092     13.313     15.472
REMARK INTER + INTRA:          -6.273
REMARK INTER:                  -5.976
REMARK INTRA:                  -0.297
REMARK UNBOUND:                -0.288
REMARK SMILES O=c1c(O)c(-c2ccc(O)cc2)oc2cc(O)cc(O)c12
REMARK SMILES IDX 5 1 3 2 2 3 1 4 21 5 19 6 18 7 16 8 15 9 14 10 13 11 6 12
REMARK SMILES IDX 7 13 8 14 9 15 12 16 11 17 10 18 4 20 20 22 17 24
REMARK H PARENT 10 19 4 21 20 23 17 25
REMARK Flexibility Score: inf
ROOT
ATOM      1  C   UNL     1       4.286 -17.246   5.314  1.00  0.00     0.180 A 
ATOM      2  C   UNL     1       4.202 -18.352   6.178  1.00  0.00     0.208 A 
ATOM      3  C   UNL     1       4.476 -18.171   7.543  1.00  0.00     0.238 A 
ATOM      4  O   UNL     1       4.452 -19.175   8.303  1.00  0.00    -0.285 OA
ATOM      5  C   UNL     1       4.814 -16.885   8.030  1.00  0.00     0.111 A 
ATOM      6  C   UNL     1       5.072 -16.579   9.400  1.00  0.00     0.134 A 
ATOM      7  C   UNL     1       5.525 -15.301   9.749  1.00  0.00     0.093 A 
ATOM      8  C   UNL     1       5.666 -14.301   8.789  1.00  0.00     0.123 A 
ATOM      9  C   UNL     1       5.361 -14.571   7.455  1.00  0.00     0.094 A 
ATOM     10  C   UNL     1       4.941 -15.847   7.071  1.00  0.00     0.146 A 
ATOM     11  O   UNL     1       4.670 -16.067   5.790  1.00  0.00    -0.452 OA
ENDROOT
BRANCH   1  12
ATOM     12  C   UNL     1       3.988 -17.352   3.868  1.00  0.00     0.021 A 
ATOM     13  C   UNL     1       5.043 -17.527   2.955  1.00  0.00     0.016 A 
ATOM     14  C   UNL     1       4.786 -17.607   1.583  1.00  0.00     0.047 A 
ATOM     15  C   UNL     1       3.474 -17.498   1.105  1.00  0.00     0.115 A 
ATOM     16  C   UNL     1       2.676 -17.224   3.378  1.00  0.00     0.016 A 
ATOM     17  C   UNL     1       2.421 -17.304   2.005  1.00  0.00     0.047 A 
BRANCH  15  18
ATOM     18  O   UNL     1       3.205 -17.577  -0.259  1.00  0.00    -0.508 OA
ATOM     19  H   UNL     1       3.519 -16.860  -0.903  1.00  0.00     0.293 HD
ENDBRANCH  15  18
ENDBRANCH   1  12
BRANCH   2  20
ATOM     20  O   UNL     1       3.889 -19.617   5.673  1.00  0.00    -0.502 OA
ATOM     21  H   UNL     1       3.678 -19.774   4.694  1.00  0.00     0.293 HD
ENDBRANCH   2  20
BRANCH   6  22
ATOM     22  O   UNL     1       4.873 -17.480  10.451  1.00  0.00    -0.507 OA
ATOM     23  H   UNL     1       4.041 -18.034  10.584  1.00  0.00     0.293 HD
ENDBRANCH   6  22
BRANCH   8  24
ATOM     24  O   UNL     1       6.105 -13.035   9.174  1.00  0.00    -0.508 OA
ATOM     25  H   UNL     1       5.636 -12.194   8.861  1.00  0.00     0.293 HD
ENDBRANCH   8  24
TORSDOF 5
ENDMDL
MODEL 6
REMARK VINA RESULT:    -5.088      2.130      6.991
REMARK INTER + INTRA:          -6.268
REMARK INTER:                  -5.986
REMARK INTRA:                  -0.282
REMARK UNBOUND:                -0.288
REMARK SMILES O=c1c(O)c(-c2ccc(O)cc2)oc2cc(O)cc(O)c12
REMARK SMILES IDX 5 1 3 2 2 3 1 4 21 5 19 6 18 7 16 8 15 9 14 10 13 11 6 12
REMARK SMILES IDX 7 13 8 14 9 15 12 16 11 17 10 18 4 20 20 22 17 24
REMARK H PARENT 10 19 4 21 20 23 17 25
REMARK Flexibility Score: inf
ROOT
ATOM      1  C   UNL     1      -7.180 -16.552  15.880  1.00  0.00     0.180 A 
ATOM      2  C   UNL     1      -7.937 -15.699  16.702  1.00  0.00     0.208 A 
ATOM      3  C   UNL     1      -7.282 -14.685  17.418  1.00  0.00     0.238 A 
ATOM      4  O   UNL     1      -7.957 -13.959  18.194  1.00  0.00    -0.285 OA
ATOM      5  C   UNL     1      -5.881 -14.526  17.291  1.00  0.00     0.111 A 
ATOM      6  C   UNL     1      -5.119 -13.508  17.939  1.00  0.00     0.134 A 
ATOM      7  C   UNL     1      -3.722 -13.525  17.846  1.00  0.00     0.093 A 
ATOM      8  C   UNL     1      -3.064 -14.483  17.076  1.00  0.00     0.123 A 
ATOM      9  C   UNL     1      -3.802 -15.448  16.390  1.00  0.00     0.094 A 
ATOM     10  C   UNL     1      -5.195 -15.478  16.494  1.00  0.00     0.146 A 
ATOM     11  O   UNL     1      -5.860 -16.419  15.834  1.00  0.00    -0.452 OA
ENDROOT
BRANCH   1  12
ATOM     12  C   UNL     1      -7.803 -17.628  15.076  1.00  0.00     0.021 A 
ATOM     13  C   UNL     1      -8.189 -17.365  13.750  1.00  0.00     0.016 A 
ATOM     14  C   UNL     1      -8.799 -18.360  12.980  1.00  0.00     0.047 A 
ATOM     15  C   UNL     1      -9.045 -19.625  13.530  1.00  0.00     0.115 A 
ATOM     16  C   UNL     1      -8.071 -18.895  15.626  1.00  0.00     0.016 A 
ATOM     17  C   UNL     1      -8.682 -19.887  14.855  1.00  0.00     0.047 A 
BRANCH  15  18
ATOM     18  O   UNL     1      -9.651 -20.624  12.772  1.00  0.00    -0.508 OA
ATOM     19  H   UNL     1     -10.106 -20.418  11.891  1.00  0.00     0.293 HD
ENDBRANCH  15  18
ENDBRANCH   1  12
BRANCH   2  20
ATOM     20  O   UNL     1      -9.317 -15.888  16.830  1.00  0.00    -0.502 OA
ATOM     21  H   UNL     1      -9.713 -16.640  17.382  1.00  0.00     0.293 HD
ENDBRANCH   2  20
BRANCH   6  22
ATOM     22  O   UNL     1      -5.683 -12.449  18.657  1.00  0.00    -0.507 OA
ATOM     23  H   UNL     1      -5.828 -11.520  18.294  1.00  0.00     0.293 HD
ENDBRANCH   6  22
BRANCH   8  24
ATOM     24  O   UNL     1      -1.673 -14.462  16.992  1.00  0.00    -0.508 OA
ATOM     25  H   UNL     1      -1.122 -13.784  17.505  1.00  0.00     0.293 HD
ENDBRANCH   8  24
TORSDOF 5
ENDMDL
MODEL 7
REMARK VINA RESULT:    -5.015     11.915     12.787
REMARK INTER + INTRA:          -6.182
REMARK INTER:                  -5.959
REMARK INTRA:                  -0.223
REMARK UNBOUND:                -0.288
REMARK SMILES O=c1c(O)c(-c2ccc(O)cc2)oc2cc(O)cc(O)c12
REMARK SMILES IDX 5 1 3 2 2 3 1 4 21 5 19 6 18 7 16 8 15 9 14 10 13 11 6 12
REMARK SMILES IDX 7 13 8 14 9 15 12 16 11 17 10 18 4 20 20 22 17 24
REMARK H PARENT 10 19 4 21 20 23 17 25
REMARK Flexibility Score: inf
ROOT
ATOM      1  C   UNL     1       6.083 -17.130  11.675  1.00  0.00     0.180 A 
ATOM      2  C   UNL     1       5.530 -18.415  11.534  1.00  0.00     0.208 A 
ATOM      3  C   UNL     1       4.915 -18.762  10.320  1.00  0.00     0.238 A 
ATOM      4  O   UNL     1       4.375 -19.894  10.218  1.00  0.00    -0.285 OA
ATOM      5  C   UNL     1       4.875 -17.826   9.258  1.00  0.00     0.111 A 
ATOM      6  C   UNL     1       4.313 -18.084   7.972  1.00  0.00     0.134 A 
ATOM      7  C   UNL     1       4.210 -17.043   7.042  1.00  0.00     0.093 A 
ATOM      8  C   UNL     1       4.708 -15.772   7.326  1.00  0.00     0.123 A 
ATOM      9  C   UNL     1       5.312 -15.524   8.558  1.00  0.00     0.094 A 
ATOM     10  C   UNL     1       5.397 -16.533   9.520  1.00  0.00     0.146 A 
ATOM     11  O   UNL     1       5.970 -16.253  10.684  1.00  0.00    -0.452 OA
ENDROOT
BRANCH   1  12
ATOM     12  C   UNL     1       6.769 -16.699  12.915  1.00  0.00     0.021 A 
ATOM     13  C   UNL     1       6.006 -16.362  14.046  1.00  0.00     0.016 A 
ATOM     14  C   UNL     1       6.633 -15.931  15.220  1.00  0.00     0.047 A 
ATOM     15  C   UNL     1       8.028 -15.818  15.272  1.00  0.00     0.115 A 
ATOM     16  C   UNL     1       8.168 -16.563  12.970  1.00  0.00     0.016 A 
ATOM     17  C   UNL     1       8.792 -16.132  14.144  1.00  0.00     0.047 A 
BRANCH  15  18
ATOM     18  O   UNL     1       8.663 -15.391  16.435  1.00  0.00    -0.508 OA
ATOM     19  H   UNL     1       9.666 -15.478  16.554  1.00  0.00     0.293 HD
ENDBRANCH  15  18
ENDBRANCH   1  12
BRANCH   2  20
ATOM     20  O   UNL     1       5.562 -19.315  12.603  1.00  0.00    -0.502 OA
ATOM     21  H   UNL     1       5.595 -19.010  13.569  1.00  0.00     0.293 HD
ENDBRANCH   2  20
BRANCH   6  22
ATOM     22  O   UNL     1       3.870 -19.343   7.552  1.00  0.00    -0.507 OA
ATOM     23  H   UNL     1       3.211 -19.501   6.806  1.00  0.00     0.293 HD
ENDBRANCH   6  22
BRANCH   8  24
ATOM     24  O   UNL     1       4.603 -14.763   6.370  1.00  0.00    -0.508 OA
ATOM     25  H   UNL     1       5.291 -14.023   6.303  1.00  0.00     0.293 HD
ENDBRANCH   8  24
TORSDOF 5
ENDMDL
MODEL 8
REMARK VINA RESULT:    -4.918      3.218      4.016
REMARK INTER + INTRA:          -6.069
REMARK INTER:                  -5.816
REMARK INTRA:                  -0.253
REMARK UNBOUND:                -0.288
REMARK SMILES O=c1c(O)c(-c2ccc(O)cc2)oc2cc(O)cc(O)c12
REMARK SMILES IDX 5 1 3 2 2 3 1 4 21 5 19 6 18 7 16 8 15 9 14 10 13 11 6 12
REMARK SMILES IDX 7 13 8 14 9 15 12 16 11 17 10 18 4 20 20 22 17 24
REMARK H PARENT 10 19 4 21 20 23 17 25
REMARK Flexibility Score: inf
ROOT
ATOM      1  C   UNL     1      -5.437 -15.252  16.960  1.00  0.00     0.180 A 
ATOM      2  C   UNL     1      -6.133 -16.457  16.763  1.00  0.00     0.208 A 
ATOM      3  C   UNL     1      -7.532 -16.463  16.882  1.00  0.00     0.238 A 
ATOM      4  O   UNL     1      -8.145 -17.555  16.758  1.00  0.00    -0.285 OA
ATOM      5  C   UNL     1      -8.218 -15.261  17.179  1.00  0.00     0.111 A 
ATOM      6  C   UNL     1      -9.637 -15.142  17.283  1.00  0.00     0.134 A 
ATOM      7  C   UNL     1     -10.200 -13.933  17.710  1.00  0.00     0.093 A 
ATOM      8  C   UNL     1      -9.401 -12.821  17.974  1.00  0.00     0.123 A 
ATOM      9  C   UNL     1      -8.018 -12.908  17.819  1.00  0.00     0.094 A 
ATOM     10  C   UNL     1      -7.425 -14.112  17.429  1.00  0.00     0.146 A 
ATOM     11  O   UNL     1      -6.104 -14.156  17.303  1.00  0.00    -0.452 OA
ENDROOT
BRANCH   1  12
ATOM     12  C   UNL     1      -3.965 -15.162  16.827  1.00  0.00     0.021 A 
ATOM     13  C   UNL     1      -3.406 -14.685  15.629  1.00  0.00     0.016 A 
ATOM     14  C   UNL     1      -2.018 -14.613  15.474  1.00  0.00     0.047 A 
ATOM     15  C   UNL     1      -1.172 -15.031  16.510  1.00  0.00     0.115 A 
ATOM     16  C   UNL     1      -3.108 -15.597  17.855  1.00  0.00     0.016 A 
ATOM     17  C   UNL     1      -1.721 -15.524  17.697  1.00  0.00     0.047 A 
BRANCH  15  18
ATOM     18  O   UNL     1       0.212 -14.963  16.368  1.00  0.00    -0.508 OA
ATOM     19  H   UNL     1       0.670 -15.241  15.508  1.00  0.00     0.293 HD
ENDBRANCH  15  18
ENDBRANCH   1  12
BRANCH   2  20
ATOM     20  O   UNL     1      -5.434 -17.637  16.492  1.00  0.00    -0.502 OA
ATOM     21  H   UNL     1      -5.668 -18.241  15.714  1.00  0.00     0.293 HD
ENDBRANCH   2  20
BRANCH   6  22
ATOM     22  O   UNL     1     -10.532 -16.165  16.954  1.00  0.00    -0.507 OA
ATOM     23  H   UNL     1     -10.299 -16.978  16.403  1.00  0.00     0.293 HD
ENDBRANCH   6  22
BRANCH   8  24
ATOM     24  O   UNL     1      -9.996 -11.629  18.383  1.00  0.00    -0.508 OA
ATOM     25  H   UNL     1     -10.304 -10.934  17.713  1.00  0.00     0.293 HD
ENDBRANCH   8  24
TORSDOF 5
ENDMDL
MODEL 9
REMARK VINA RESULT:    -4.890     14.447     16.766
REMARK INTER + INTRA:          -6.035
REMARK INTER:                  -5.747
REMARK INTRA:                  -0.288
REMARK UNBOUND:                -0.288
REMARK SMILES O=c1c(O)c(-c2ccc(O)cc2)oc2cc(O)cc(O)c12
REMARK SMILES IDX 5 1 3 2 2 3 1 4 21 5 19 6 18 7 16 8 15 9 14 10 13 11 6 12
REMARK SMILES IDX 7 13 8 14 9 15 12 16 11 17 10 18 4 20 20 22 17 24
REMARK H PARENT 10 19 4 21 20 23 17 25
REMARK Flexibility Score: inf
ROOT
ATOM      1  C   UNL     1       6.636 -16.735   5.175  1.00  0.00     0.180 A 
ATOM      2  C   UNL     1       6.466 -17.786   6.093  1.00  0.00     0.208 A 
ATOM      3  C   UNL     1       6.100 -17.485   7.414  1.00  0.00     0.238 A 
ATOM      4  O   UNL     1       6.002 -18.427   8.244  1.00  0.00    -0.285 OA
ATOM      5  C   UNL     1       5.892 -16.138   7.798  1.00  0.00     0.111 A 
ATOM      6  C   UNL     1       5.481 -15.721   9.099  1.00  0.00     0.134 A 
ATOM      7  C   UNL     1       5.433 -14.355   9.403  1.00  0.00     0.093 A 
ATOM      8  C   UNL     1       5.718 -13.392   8.437  1.00  0.00     0.123 A 
ATOM      9  C   UNL     1       6.064 -13.787   7.145  1.00  0.00     0.094 A 
ATOM     10  C   UNL     1       6.155 -15.143   6.821  1.00  0.00     0.146 A 
ATOM     11  O   UNL     1       6.498 -15.478   5.583  1.00  0.00    -0.452 OA
ENDROOT
BRANCH   1  12
ATOM     12  C   UNL     1       6.996 -16.974   3.760  1.00  0.00     0.021 A 
ATOM     13  C   UNL     1       5.981 -17.218   2.819  1.00  0.00     0.016 A 
ATOM     14  C   UNL     1       6.301 -17.470   1.481  1.00  0.00     0.047 A 
ATOM     15  C   UNL     1       7.640 -17.495   1.071  1.00  0.00     0.115 A 
ATOM     16  C   UNL     1       8.339 -17.022   3.343  1.00  0.00     0.016 A 
ATOM     17  C   UNL     1       8.656 -17.274   2.005  1.00  0.00     0.047 A 
BRANCH  15  18
ATOM     18  O   UNL     1       7.971 -17.744  -0.260  1.00  0.00    -0.508 OA
ATOM     19  H   UNL     1       8.752 -17.279  -0.707  1.00  0.00     0.293 HD
ENDBRANCH  15  18
ENDBRANCH   1  12
BRANCH   2  20
ATOM     20  O   UNL     1       6.698 -19.107   5.698  1.00  0.00    -0.502 OA
ATOM     21  H   UNL     1       5.946 -19.747   5.470  1.00  0.00     0.293 HD
ENDBRANCH   2  20
BRANCH   6  22
ATOM     22  O   UNL     1       5.084 -16.600  10.112  1.00  0.00    -0.507 OA
ATOM     23  H   UNL     1       5.281 -16.474  11.093  1.00  0.00     0.293 HD
ENDBRANCH   6  22
BRANCH   8  24
ATOM     24  O   UNL     1       5.646 -12.041   8.770  1.00  0.00    -0.508 OA
ATOM     25  H   UNL     1       6.475 -11.460   8.814  1.00  0.00     0.293 HD
ENDBRANCH   8  24
TORSDOF 5
ENDMDL
