MODEL 1
REMARK VINA RESULT:    -6.937      0.000      0.000
REMARK INTER + INTRA:          -7.597
REMARK INTER:                  -7.342
REMARK INTRA:                  -0.255
REMARK UNBOUND:                -0.255
REMARK SMILES O=c1cc(-c2ccccc2)oc2ccccc12
REMARK SMILES IDX 4 1 3 2 2 3 1 4 17 5 16 6 15 7 14 8 13 9 12 10 11 11 5 12
REMARK SMILES IDX 8 13 7 14 9 15 6 16 10 17
REMARK H PARENT
REMARK Flexibility Score: inf
ROOT
ATOM      1  C   UNL     1       5.903  -5.882  19.737  1.00  0.00     0.138 A 
ATOM      2  C   UNL     1       5.410  -7.036  19.095  1.00  0.00     0.100 A 
ATOM      3  C   UNL     1       4.288  -6.938  18.268  1.00  0.00     0.193 A 
ATOM      4  O   UNL     1       3.845  -7.970  17.695  1.00  0.00    -0.289 OA
ATOM      5  C   UNL     1       3.670  -5.693  18.090  1.00  0.00     0.065 A 
ATOM      6  C   UNL     1       2.536  -5.524  17.272  1.00  0.00     0.016 A 
ATOM      7  C   UNL     1       1.959  -4.259  17.129  1.00  0.00     0.001 A 
ATOM      8  C   UNL     1       2.503  -3.158  17.796  1.00  0.00     0.004 A 
ATOM      9  C   UNL     1       3.628  -3.316  18.611  1.00  0.00     0.048 A 
ATOM     10  C   UNL     1       4.215  -4.578  18.761  1.00  0.00     0.138 A 
ATOM     11  O   UNL     1       5.284  -4.717  19.538  1.00  0.00    -0.456 OA
ENDROOT
BRANCH   1  12
ATOM     12  C   UNL     1       7.098  -5.899  20.637  1.00  0.00     0.017 A 
ATOM     13  C   UNL     1       9.389  -6.003  22.282  1.00  0.00     0.000 A 
ATOM     14  C   UNL     1       9.262  -6.881  21.206  1.00  0.00     0.001 A 
ATOM     15  C   UNL     1       8.383  -5.073  22.544  1.00  0.00     0.001 A 
ATOM     16  C   UNL     1       8.128  -6.830  20.390  1.00  0.00     0.012 A 
ATOM     17  C   UNL     1       7.245  -5.017  21.732  1.00  0.00     0.012 A 
ENDBRANCH   1  12
TORSDOF 1
ENDMDL
MODEL 2
REMARK VINA RESULT:    -6.836      1.258      2.434
REMARK INTER + INTRA:          -7.491
REMARK INTER:                  -7.226
REMARK INTRA:                  -0.265
REMARK UNBOUND:                -0.255
REMARK SMILES O=c1cc(-c2ccccc2)oc2ccccc12
REMARK SMILES IDX 4 1 3 2 2 3 1 4 17 5 16 6 15 7 14 8 13 9 12 10 11 11 5 12
REMARK SMILES IDX 8 13 7 14 9 15 6 16 10 17
REMARK H PARENT
REMARK Flexibility Score: inf
ROOT
ATOM      1  C   UNL     1       6.040  -5.613  19.517  1.00  0.00     0.138 A 
ATOM      2  C   UNL     1       5.188  -4.490  19.534  1.00  0.00     0.100 A 
ATOM      3  C   UNL     1       4.149  -4.399  18.605  1.00  0.00     0.193 A 
ATOM      4  O   UNL     1       3.387  -3.395  18.620  1.00  0.00    -0.289 OA
ATOM      5  C   UNL     1       3.969  -5.427  17.669  1.00  0.00     0.065 A 
ATOM      6  C   UNL     1       2.943  -5.398  16.705  1.00  0.00     0.016 A 
ATOM      7  C   UNL     1       2.809  -6.450  15.794  1.00  0.00     0.001 A 
ATOM      8  C   UNL     1       3.691  -7.534  15.836  1.00  0.00     0.004 A 
ATOM      9  C   UNL     1       4.713  -7.571  16.789  1.00  0.00     0.048 A 
ATOM     10  C   UNL     1       4.857  -6.523  17.706  1.00  0.00     0.138 A 
ATOM     11  O   UNL     1       5.832  -6.568  18.608  1.00  0.00    -0.456 OA
ENDROOT
BRANCH   1  12
ATOM     12  C   UNL     1       7.175  -5.790  20.475  1.00  0.00     0.017 A 
ATOM     13  C   UNL     1       9.347  -6.197  22.231  1.00  0.00     0.000 A 
ATOM     14  C   UNL     1       9.174  -7.034  21.129  1.00  0.00     0.001 A 
ATOM     15  C   UNL     1       8.446  -5.158  22.464  1.00  0.00     0.001 A 
ATOM     16  C   UNL     1       8.099  -6.833  20.258  1.00  0.00     0.012 A 
ATOM     17  C   UNL     1       7.368  -4.952  21.598  1.00  0.00     0.012 A 
ENDBRANCH   1  12
TORSDOF 1
ENDMDL
MODEL 3
REMARK VINA RESULT:    -6.816      3.798      6.187
REMARK INTER + INTRA:          -7.470
REMARK INTER:                  -7.224
REMARK INTRA:                  -0.246
REMARK UNBOUND:                -0.255
REMARK SMILES O=c1cc(-c2ccccc2)oc2ccccc12
REMARK SMILES IDX 4 1 3 2 2 3 1 4 17 5 16 6 15 7 14 8 13 9 12 10 11 11 5 12
REMARK SMILES IDX 8 13 7 14 9 15 6 16 10 17
REMARK H PARENT
REMARK Flexibility Score: inf
ROOT
ATOM      1  C   UNL     1       3.405  -4.137  16.482  1.00  0.00     0.138 A 
ATOM      2  C   UNL     1       3.925  -4.632  15.268  1.00  0.00     0.100 A 
ATOM      3  C   UNL     1       4.316  -5.970  15.181  1.00  0.00     0.193 A 
ATOM      4  O   UNL     1       4.782  -6.413  14.097  1.00  0.00    -0.289 OA
ATOM      5  C   UNL     1       4.186  -6.801  16.303  1.00  0.00     0.065 A 
ATOM      6  C   UNL     1       4.561  -8.158  16.284  1.00  0.00     0.016 A 
ATOM      7  C   UNL     1       4.410  -8.942  17.432  1.00  0.00     0.001 A 
ATOM      8  C   UNL     1       3.886  -8.384  18.601  1.00  0.00     0.004 A 
ATOM      9  C   UNL     1       3.511  -7.037  18.629  1.00  0.00     0.048 A 
ATOM     10  C   UNL     1       3.658  -6.242  17.486  1.00  0.00     0.138 A 
ATOM     11  O   UNL     1       3.298  -4.964  17.524  1.00  0.00    -0.456 OA
ENDROOT
BRANCH   1  12
ATOM     12  C   UNL     1       2.963  -2.719  16.660  1.00  0.00     0.017 A 
ATOM     13  C   UNL     1       2.050  -0.076  17.041  1.00  0.00     0.000 A 
ATOM     14  C   UNL     1       1.289  -1.150  17.501  1.00  0.00     0.001 A 
ATOM     15  C   UNL     1       3.262  -0.309  16.393  1.00  0.00     0.001 A 
ATOM     16  C   UNL     1       1.740  -2.461  17.314  1.00  0.00     0.012 A 
ATOM     17  C   UNL     1       3.720  -1.616  16.202  1.00  0.00     0.012 A 
ENDBRANCH   1  12
TORSDOF 1
ENDMDL
MODEL 4
REMARK VINA RESULT:    -6.702      3.610      6.534
REMARK INTER + INTRA:          -7.349
REMARK INTER:                  -7.102
REMARK INTRA:                  -0.248
REMARK UNBOUND:                -0.255
REMARK SMILES O=c1cc(-c2ccccc2)oc2ccccc12
REMARK SMILES IDX 4 1 3 2 2 3 1 4 17 5 16 6 15 7 14 8 13 9 12 10 11 11 5 12
REMARK SMILES IDX 8 13 7 14 9 15 6 16 10 17
REMARK H PARENT
REMARK Flexibility Score: inf
ROOT
ATOM      1  C   UNL     1       3.172  -4.158  16.700  1.00  0.00     0.138 A 
ATOM      2  C   UNL     1       3.252  -4.314  18.099  1.00  0.00     0.100 A 
ATOM      3  C   UNL     1       3.535  -5.571  18.637  1.00  0.00     0.193 A 
ATOM      4  O   UNL     1       3.606  -5.711  19.888  1.00  0.00    -0.289 OA
ATOM      5  C   UNL     1       3.735  -6.660  17.777  1.00  0.00     0.065 A 
ATOM      6  C   UNL     1       4.024  -7.953  18.253  1.00  0.00     0.016 A 
ATOM      7  C   UNL     1       4.215  -9.004  17.350  1.00  0.00     0.001 A 
ATOM      8  C   UNL     1       4.121  -8.776  15.975  1.00  0.00     0.004 A 
ATOM      9  C   UNL     1       3.834  -7.495  15.493  1.00  0.00     0.048 A 
ATOM     10  C   UNL     1       3.642  -6.435  16.387  1.00  0.00     0.138 A 
ATOM     11  O   UNL     1       3.370  -5.221  15.920  1.00  0.00    -0.456 OA
ENDROOT
BRANCH   1  12
ATOM     12  C   UNL     1       2.874  -2.848  16.042  1.00  0.00     0.017 A 
ATOM     13  C   UNL     1       2.252  -0.422  14.741  1.00  0.00     0.000 A 
ATOM     14  C   UNL     1       1.676  -1.615  14.305  1.00  0.00     0.001 A 
ATOM     15  C   UNL     1       3.135  -0.429  15.820  1.00  0.00     0.001 A 
ATOM     16  C   UNL     1       1.982  -2.817  14.949  1.00  0.00     0.012 A 
ATOM     17  C   UNL     1       3.447  -1.627  16.469  1.00  0.00     0.012 A 
ENDBRANCH   1  12
TORSDOF 1
ENDMDL
MODEL 5
REMARK VINA RESULT:    -6.527      3.927      5.358
REMARK INTER + INTRA:          -7.163
REMARK INTER:                  -6.936
REMARK INTRA:                  -0.227
REMARK UNBOUND:                -0.255
REMARK SMILES O=c1cc(-c2ccccc2)oc2ccccc12
REMARK SMILES IDX 4 1 3 2 2 3 1 4 17 5 16 6 15 7 14 8 13 9 12 10 11 11 5 12
REMARK SMILES IDX 8 13 7 14 9 15 6 16 10 17
REMARK H PARENT
REMARK Flexibility Score: inf
ROOT
ATOM      1  C   UNL     1       3.253  -5.097  16.457  1.00  0.00     0.138 A 
ATOM      2  C   UNL     1       4.084  -3.974  16.650  1.00  0.00     0.100 A 
ATOM      3  C   UNL     1       3.690  -2.731  16.151  1.00  0.00     0.193 A 
ATOM      4  O   UNL     1       4.433  -1.727  16.322  1.00  0.00    -0.289 OA
ATOM      5  C   UNL     1       2.472  -2.618  15.465  1.00  0.00     0.065 A 
ATOM      6  C   UNL     1       2.015  -1.396  14.937  1.00  0.00     0.016 A 
ATOM      7  C   UNL     1       0.792  -1.340  14.261  1.00  0.00     0.001 A 
ATOM      8  C   UNL     1       0.019  -2.494  14.109  1.00  0.00     0.004 A 
ATOM      9  C   UNL     1       0.465  -3.712  14.629  1.00  0.00     0.048 A 
ATOM     10  C   UNL     1       1.687  -3.781  15.308  1.00  0.00     0.138 A 
ATOM     11  O   UNL     1       2.103  -4.943  15.799  1.00  0.00    -0.456 OA
ENDROOT
BRANCH   1  12
ATOM     12  C   UNL     1       3.600  -6.463  16.959  1.00  0.00     0.017 A 
ATOM     13  C   UNL     1       4.271  -9.067  17.815  1.00  0.00     0.000 A 
ATOM     14  C   UNL     1       4.293  -8.752  16.457  1.00  0.00     0.001 A 
ATOM     15  C   UNL     1       3.917  -8.095  18.750  1.00  0.00     0.001 A 
ATOM     16  C   UNL     1       3.962  -7.462  16.031  1.00  0.00     0.012 A 
ATOM     17  C   UNL     1       3.584  -6.802  18.332  1.00  0.00     0.012 A 
ENDBRANCH   1  12
TORSDOF 1
ENDMDL
MODEL 6
REMARK VINA RESULT:    -6.508      7.449      9.620
REMARK INTER + INTRA:          -7.144
REMARK INTER:                  -6.880
REMARK INTRA:                  -0.264
REMARK UNBOUND:                -0.255
REMARK SMILES O=c1cc(-c2ccccc2)oc2ccccc12
REMARK SMILES IDX 4 1 3 2 2 3 1 4 17 5 16 6 15 7 14 8 13 9 12 10 11 11 5 12
REMARK SMILES IDX 8 13 7 14 9 15 6 16 10 17
REMARK H PARENT
REMARK Flexibility Score: inf
ROOT
ATOM      1  C   UNL     1       2.197   2.228  16.535  1.00  0.00     0.138 A 
ATOM      2  C   UNL     1       3.176   1.214  16.514  1.00  0.00     0.100 A 
ATOM      3  C   UNL     1       2.835  -0.064  16.067  1.00  0.00     0.193 A 
ATOM      4  O   UNL     1       3.710  -0.971  16.048  1.00  0.00    -0.289 OA
ATOM      5  C   UNL     1       1.522  -0.320  15.646  1.00  0.00     0.065 A 
ATOM      6  C   UNL     1       1.111  -1.585  15.185  1.00  0.00     0.016 A 
ATOM      7  C   UNL     1      -0.211  -1.785  14.778  1.00  0.00     0.001 A 
ATOM      8  C   UNL     1      -1.129  -0.733  14.825  1.00  0.00     0.004 A 
ATOM      9  C   UNL     1      -0.731   0.527  15.282  1.00  0.00     0.048 A 
ATOM     10  C   UNL     1       0.591   0.740  15.693  1.00  0.00     0.138 A 
ATOM     11  O   UNL     1       0.960   1.940  16.125  1.00  0.00    -0.456 OA
ENDROOT
BRANCH   1  12
ATOM     12  C   UNL     1       2.478   3.623  16.998  1.00  0.00     0.017 A 
ATOM     13  C   UNL     1       2.914   6.270  17.875  1.00  0.00     0.000 A 
ATOM     14  C   UNL     1       1.613   5.799  17.698  1.00  0.00     0.001 A 
ATOM     15  C   UNL     1       3.999   5.432  17.618  1.00  0.00     0.001 A 
ATOM     16  C   UNL     1       1.396   4.487  17.264  1.00  0.00     0.012 A 
ATOM     17  C   UNL     1       3.789   4.119  17.184  1.00  0.00     0.012 A 
ENDBRANCH   1  12
TORSDOF 1
ENDMDL
MODEL 7
REMARK VINA RESULT:    -6.484      4.443      5.826
REMARK INTER + INTRA:          -7.118
REMARK INTER:                  -6.863
REMARK INTRA:                  -0.255
REMARK UNBOUND:                -0.255
REMARK SMILES O=c1cc(-c2ccccc2)oc2ccccc12
REMARK SMILES IDX 4 1 3 2 2 3 1 4 17 5 16 6 15 7 14 8 13 9 12 10 11 11 5 12
REMARK SMILES IDX 8 13 7 14 9 15 6 16 10 17
REMARK H PARENT
REMARK Flexibility Score: inf
ROOT
ATOM      1  C   UNL     1       3.232  -4.312  16.167  1.00  0.00     0.138 A 
ATOM      2  C   UNL     1       3.078  -3.831  17.483  1.00  0.00     0.100 A 
ATOM      3  C   UNL     1       2.415  -2.621  17.701  1.00  0.00     0.193 A 
ATOM      4  O   UNL     1       2.278  -2.190  18.878  1.00  0.00    -0.289 OA
ATOM      5  C   UNL     1       1.914  -1.902  16.607  1.00  0.00     0.065 A 
ATOM      6  C   UNL     1       1.237  -0.677  16.756  1.00  0.00     0.016 A 
ATOM      7  C   UNL     1       0.757  -0.002  15.630  1.00  0.00     0.001 A 
ATOM      8  C   UNL     1       0.945  -0.539  14.354  1.00  0.00     0.004 A 
ATOM      9  C   UNL     1       1.617  -1.755  14.196  1.00  0.00     0.048 A 
ATOM     10  C   UNL     1       2.102  -2.440  15.316  1.00  0.00     0.138 A 
ATOM     11  O   UNL     1       2.738  -3.595  15.156  1.00  0.00    -0.456 OA
ENDROOT
BRANCH   1  12
ATOM     12  C   UNL     1       3.927  -5.597  15.846  1.00  0.00     0.017 A 
ATOM     13  C   UNL     1       5.268  -7.983  15.156  1.00  0.00     0.000 A 
ATOM     14  C   UNL     1       5.280  -6.898  14.280  1.00  0.00     0.001 A 
ATOM     15  C   UNL     1       4.593  -7.888  16.373  1.00  0.00     0.001 A 
ATOM     16  C   UNL     1       4.617  -5.715  14.621  1.00  0.00     0.012 A 
ATOM     17  C   UNL     1       3.927  -6.708  16.720  1.00  0.00     0.012 A 
ENDBRANCH   1  12
TORSDOF 1
ENDMDL
MODEL 8
REMARK VINA RESULT:    -6.478      3.959      5.605
REMARK INTER + INTRA:          -7.112
REMARK INTER:                  -6.872
REMARK INTRA:                  -0.240
REMARK UNBOUND:                -0.255
REMARK SMILES O=c1cc(-c2ccccc2)oc2ccccc12
REMARK SMILES IDX 4 1 3 2 2 3 1 4 17 5 16 6 15 7 14 8 13 9 12 10 11 11 5 12
REMARK SMILES IDX 8 13 7 14 9 15 6 16 10 17
REMARK H PARENT
REMARK Flexibility Score: inf
ROOT
ATOM      1  C   UNL     1       2.662  -4.984  15.900  1.00  0.00     0.138 A 
ATOM      2  C   UNL     1       1.525  -4.952  15.068  1.00  0.00     0.100 A 
ATOM      3  C   UNL     1       1.041  -3.724  14.610  1.00  0.00     0.193 A 
ATOM      4  O   UNL     1       0.024  -3.694  13.866  1.00  0.00    -0.289 OA
ATOM      5  C   UNL     1       1.695  -2.542  14.986  1.00  0.00     0.065 A 
ATOM      6  C   UNL     1       1.260  -1.272  14.560  1.00  0.00     0.016 A 
ATOM      7  C   UNL     1       1.949  -0.125  14.965  1.00  0.00     0.001 A 
ATOM      8  C   UNL     1       3.071  -0.233  15.791  1.00  0.00     0.004 A 
ATOM      9  C   UNL     1       3.510  -1.490  16.219  1.00  0.00     0.048 A 
ATOM     10  C   UNL     1       2.828  -2.645  15.820  1.00  0.00     0.138 A 
ATOM     11  O   UNL     1       3.253  -3.835  16.232  1.00  0.00    -0.456 OA
ENDROOT
BRANCH   1  12
ATOM     12  C   UNL     1       3.245  -6.255  16.434  1.00  0.00     0.017 A 
ATOM     13  C   UNL     1       4.345  -8.687  17.351  1.00  0.00     0.000 A 
ATOM     14  C   UNL     1       4.072  -8.512  15.994  1.00  0.00     0.001 A 
ATOM     15  C   UNL     1       4.073  -7.659  18.253  1.00  0.00     0.001 A 
ATOM     16  C   UNL     1       3.528  -7.307  15.538  1.00  0.00     0.012 A 
ATOM     17  C   UNL     1       3.528  -6.452  17.805  1.00  0.00     0.012 A 
ENDBRANCH   1  12
TORSDOF 1
ENDMDL
MODEL 9
REMARK VINA RESULT:    -6.475      2.570      6.654
REMARK INTER + INTRA:          -7.109
REMARK INTER:                  -6.845
REMARK INTRA:                  -0.263
REMARK UNBOUND:                -0.255
REMARK SMILES O=c1cc(-c2ccccc2)oc2ccccc12
REMARK SMILES IDX 4 1 3 2 2 3 1 4 17 5 16 6 15 7 14 8 13 9 12 10 11 11 5 12
REMARK SMILES IDX 8 13 7 14 9 15 6 16 10 17
REMARK H PARENT
REMARK Flexibility Score: inf
ROOT
ATOM      1  C   UNL     1       3.227  -3.306  16.261  1.00  0.00     0.138 A 
ATOM      2  C   UNL     1       3.002  -4.485  15.522  1.00  0.00     0.100 A 
ATOM      3  C   UNL     1       3.457  -5.708  16.021  1.00  0.00     0.193 A 
ATOM      4  O   UNL     1       3.257  -6.763  15.360  1.00  0.00    -0.289 OA
ATOM      5  C   UNL     1       4.132  -5.743  17.249  1.00  0.00     0.065 A 
ATOM      6  C   UNL     1       4.617  -6.941  17.808  1.00  0.00     0.016 A 
ATOM      7  C   UNL     1       5.283  -6.919  19.037  1.00  0.00     0.001 A 
ATOM      8  C   UNL     1       5.470  -5.712  19.715  1.00  0.00     0.004 A 
ATOM      9  C   UNL     1       4.993  -4.518  19.168  1.00  0.00     0.048 A 
ATOM     10  C   UNL     1       4.324  -4.527  17.938  1.00  0.00     0.138 A 
ATOM     11  O   UNL     1       3.873  -3.387  17.426  1.00  0.00    -0.456 OA
ENDROOT
BRANCH   1  12
ATOM     12  C   UNL     1       2.773  -1.957  15.800  1.00  0.00     0.017 A 
ATOM     13  C   UNL     1       1.858   0.545  14.867  1.00  0.00     0.000 A 
ATOM     14  C   UNL     1       1.372  -0.632  14.299  1.00  0.00     0.001 A 
ATOM     15  C   UNL     1       2.797   0.484  15.897  1.00  0.00     0.001 A 
ATOM     16  C   UNL     1       1.824  -1.872  14.760  1.00  0.00     0.012 A 
ATOM     17  C   UNL     1       3.253  -0.752  16.364  1.00  0.00     0.012 A 
ENDBRANCH   1  12
TORSDOF 1
ENDMDL
