MODEL 1
REMARK VINA RESULT:    -4.075      0.000      0.000
REMARK INTER + INTRA:          -8.722
REMARK INTER:                  -7.649
REMARK INTRA:                  -1.074
REMARK UNBOUND:                -1.074
REMARK SMILES O=C([O-])CCCCCCCCCCCCCCC(=O)[O-]
REMARK SMILES IDX 10 1 9 2 8 3 7 4 6 5 5 6 4 7 2 8 1 9 3 10 11 11 12 12 13 13
REMARK SMILES IDX 14 14 15 15 16 16 17 17 18 18 19 19 20 20
REMARK H PARENT
REMARK Flexibility Score: inf
ROOT
ATOM      1  C   UNL     1      -7.330  -7.712   0.942  1.00  0.00     0.000 C 
ENDROOT
BRANCH   1   2
ATOM      2  C   UNL     1      -7.148  -9.235   1.066  1.00  0.00     0.000 C 
BRANCH   2   3
ATOM      3  C   UNL     1      -7.033  -9.926  -0.309  1.00  0.00     0.000 C 
BRANCH   3   4
ATOM      4  C   UNL     1      -5.994 -11.063  -0.347  1.00  0.00     0.000 C 
BRANCH   4   5
ATOM      5  C   UNL     1      -4.917 -10.997   0.750  1.00  0.00     0.000 C 
BRANCH   5   6
ATOM      6  C   UNL     1      -4.930 -12.166   1.755  1.00  0.00     0.006 C 
BRANCH   6   7
ATOM      7  C   UNL     1      -6.325 -12.772   1.994  1.00  0.00     0.053 C 
BRANCH   7   8
ATOM      8  C   UNL     1      -6.369 -14.242   1.707  1.00  0.00     0.041 C 
ATOM      9  O   UNL     1      -6.612 -14.653   0.542  1.00  0.00    -0.550 OA
ATOM     10  O   UNL     1      -6.101 -15.160   2.715  1.00  0.00    -0.550 OA
ENDBRANCH   7   8
ENDBRANCH   6   7
ENDBRANCH   5   6
ENDBRANCH   4   5
ENDBRANCH   3   4
ENDBRANCH   2   3
ENDBRANCH   1   2
BRANCH   1  11
ATOM     11  C   UNL     1      -6.362  -7.077  -0.069  1.00  0.00     0.000 C 
BRANCH  11  12
ATOM     12  C   UNL     1      -6.080  -5.596   0.230  1.00  0.00     0.000 C 
BRANCH  12  13
ATOM     13  C   UNL     1      -6.638  -5.155   1.594  1.00  0.00     0.000 C 
BRANCH  13  14
ATOM     14  C   UNL     1      -6.464  -3.647   1.842  1.00  0.00     0.000 C 
BRANCH  14  15
ATOM     15  C   UNL     1      -7.661  -3.023   2.579  1.00  0.00     0.000 C 
BRANCH  15  16
ATOM     16  C   UNL     1      -8.903  -3.938   2.631  1.00  0.00     0.006 C 
BRANCH  16  17
ATOM     17  C   UNL     1     -10.211  -3.137   2.663  1.00  0.00     0.053 C 
BRANCH  17  18
ATOM     18  C   UNL     1     -11.332  -3.941   2.082  1.00  0.00     0.041 C 
ATOM     19  O   UNL     1     -11.127  -4.688   1.089  1.00  0.00    -0.550 OA
ATOM     20  O   UNL     1     -12.591  -3.904   2.667  1.00  0.00    -0.550 OA
ENDBRANCH  17  18
ENDBRANCH  16  17
ENDBRANCH  15  16
ENDBRANCH  14  15
ENDBRANCH  13  14
ENDBRANCH  12  13
ENDBRANCH  11  12
ENDBRANCH   1  11
TORSDOF 15
ENDMDL
MODEL 2
REMARK VINA RESULT:    -4.024      1.975     10.205
REMARK INTER + INTRA:          -8.627
REMARK INTER:                  -7.979
REMARK INTRA:                  -0.648
REMARK UNBOUND:                -1.074
REMARK SMILES O=C([O-])CCCCCCCCCCCCCCC(=O)[O-]
REMARK SMILES IDX 10 1 9 2 8 3 7 4 6 5 5 6 4 7 2 8 1 9 3 10 11 11 12 12 13 13
REMARK SMILES IDX 14 14 15 15 16 16 17 17 18 18 19 19 20 20
REMARK H PARENT
REMARK Flexibility Score: inf
ROOT
ATOM      1  C   UNL     1      -6.860  -9.915  -0.650  1.00  0.00     0.000 C 
ENDROOT
BRANCH   1   2
ATOM      2  C   UNL     1      -7.619  -8.770   0.043  1.00  0.00     0.000 C 
BRANCH   2   3
ATOM      3  C   UNL     1      -6.671  -7.678   0.581  1.00  0.00     0.000 C 
BRANCH   3   4
ATOM      4  C   UNL     1      -7.173  -7.001   1.871  1.00  0.00     0.000 C 
BRANCH   4   5
ATOM      5  C   UNL     1      -8.033  -5.744   1.655  1.00  0.00     0.000 C 
BRANCH   5   6
ATOM      6  C   UNL     1      -9.183  -5.552   2.664  1.00  0.00     0.006 C 
BRANCH   6   7
ATOM      7  C   UNL     1      -9.863  -4.173   2.586  1.00  0.00     0.053 C 
BRANCH   7   8
ATOM      8  C   UNL     1     -11.189  -4.225   1.889  1.00  0.00     0.041 C 
ATOM      9  O   UNL     1     -12.210  -3.726   2.431  1.00  0.00    -0.550 OA
ATOM     10  O   UNL     1     -11.290  -4.787   0.622  1.00  0.00    -0.550 OA
ENDBRANCH   7   8
ENDBRANCH   6   7
ENDBRANCH   5   6
ENDBRANCH   4   5
ENDBRANCH   3   4
ENDBRANCH   2   3
ENDBRANCH   1   2
BRANCH   1  11
ATOM     11  C   UNL     1      -6.147 -10.844   0.346  1.00  0.00     0.000 C 
BRANCH  11  12
ATOM     12  C   UNL     1      -5.155 -11.798  -0.341  1.00  0.00     0.000 C 
BRANCH  12  13
ATOM     13  C   UNL     1      -5.215 -13.223   0.235  1.00  0.00     0.000 C 
BRANCH  13  14
ATOM     14  C   UNL     1      -6.219 -13.348   1.394  1.00  0.00     0.000 C 
BRANCH  14  15
ATOM     15  C   UNL     1      -6.318 -14.781   1.945  1.00  0.00     0.000 C 
BRANCH  15  16
ATOM     16  C   UNL     1      -6.594 -15.844   0.861  1.00  0.00     0.006 C 
BRANCH  16  17
ATOM     17  C   UNL     1      -5.659 -17.055   0.987  1.00  0.00     0.053 C 
BRANCH  17  18
ATOM     18  C   UNL     1      -6.452 -18.312   1.165  1.00  0.00     0.041 C 
ATOM     19  O   UNL     1      -6.649 -18.779   2.317  1.00  0.00    -0.550 OA
ATOM     20  O   UNL     1      -7.015 -18.941   0.062  1.00  0.00    -0.550 OA
ENDBRANCH  17  18
ENDBRANCH  16  17
ENDBRANCH  15  16
ENDBRANCH  14  15
ENDBRANCH  13  14
ENDBRANCH  12  13
ENDBRANCH  11  12
ENDBRANCH   1  11
TORSDOF 15
ENDMDL
MODEL 3
REMARK VINA RESULT:    -3.924      2.867     10.873
REMARK INTER + INTRA:          -8.438
REMARK INTER:                  -7.796
REMARK INTRA:                  -0.642
REMARK UNBOUND:                -1.074
REMARK SMILES O=C([O-])CCCCCCCCCCCCCCC(=O)[O-]
REMARK SMILES IDX 10 1 9 2 8 3 7 4 6 5 5 6 4 7 2 8 1 9 3 10 11 11 12 12 13 13
REMARK SMILES IDX 14 14 15 15 16 16 17 17 18 18 19 19 20 20
REMARK H PARENT
REMARK Flexibility Score: inf
ROOT
ATOM      1  C   UNL     1      -5.243 -11.199   0.006  1.00  0.00     0.000 C 
ENDROOT
BRANCH   1   2
ATOM      2  C   UNL     1      -6.520 -10.489  -0.473  1.00  0.00     0.000 C 
BRANCH   2   3
ATOM      3  C   UNL     1      -7.214  -9.700   0.658  1.00  0.00     0.000 C 
BRANCH   3   4
ATOM      4  C   UNL     1      -6.826  -8.209   0.701  1.00  0.00     0.000 C 
BRANCH   4   5
ATOM      5  C   UNL     1      -7.390  -7.425   1.899  1.00  0.00     0.000 C 
BRANCH   5   6
ATOM      6  C   UNL     1      -7.971  -6.037   1.561  1.00  0.00     0.006 C 
BRANCH   6   7
ATOM      7  C   UNL     1      -8.669  -5.344   2.745  1.00  0.00     0.053 C 
BRANCH   7   8
ATOM      8  C   UNL     1      -9.690  -4.340   2.302  1.00  0.00     0.041 C 
ATOM      9  O   UNL     1      -9.546  -3.122   2.586  1.00  0.00    -0.550 OA
ATOM     10  O   UNL     1     -10.779  -4.742   1.539  1.00  0.00    -0.550 OA
ENDBRANCH   7   8
ENDBRANCH   6   7
ENDBRANCH   5   6
ENDBRANCH   4   5
ENDBRANCH   3   4
ENDBRANCH   2   3
ENDBRANCH   1   2
BRANCH   1  11
ATOM     11  C   UNL     1      -5.455 -11.994   1.305  1.00  0.00     0.000 C 
BRANCH  11  12
ATOM     12  C   UNL     1      -5.293 -13.510   1.104  1.00  0.00     0.000 C 
BRANCH  12  13
ATOM     13  C   UNL     1      -6.535 -14.154   0.466  1.00  0.00     0.000 C 
BRANCH  13  14
ATOM     14  C   UNL     1      -6.689 -15.637   0.843  1.00  0.00     0.000 C 
BRANCH  14  15
ATOM     15  C   UNL     1      -5.337 -16.357   0.994  1.00  0.00     0.000 C 
BRANCH  15  16
ATOM     16  C   UNL     1      -5.332 -17.792   0.426  1.00  0.00     0.006 C 
BRANCH  16  17
ATOM     17  C   UNL     1      -6.686 -18.490   0.604  1.00  0.00     0.053 C 
BRANCH  17  18
ATOM     18  C   UNL     1      -6.792 -19.669  -0.313  1.00  0.00     0.041 C 
ATOM     19  O   UNL     1      -7.629 -20.580  -0.080  1.00  0.00    -0.550 OA
ATOM     20  O   UNL     1      -6.000 -19.737  -1.452  1.00  0.00    -0.550 OA
ENDBRANCH  17  18
ENDBRANCH  16  17
ENDBRANCH  15  16
ENDBRANCH  14  15
ENDBRANCH  13  14
ENDBRANCH  12  13
ENDBRANCH  11  12
ENDBRANCH   1  11
TORSDOF 15
ENDMDL
MODEL 4
REMARK VINA RESULT:    -3.695      3.451     10.451
REMARK INTER + INTRA:          -8.009
REMARK INTER:                  -7.050
REMARK INTRA:                  -0.959
REMARK UNBOUND:                -1.074
REMARK SMILES O=C([O-])CCCCCCCCCCCCCCC(=O)[O-]
REMARK SMILES IDX 10 1 9 2 8 3 7 4 6 5 5 6 4 7 2 8 1 9 3 10 11 11 12 12 13 13
REMARK SMILES IDX 14 14 15 15 16 16 17 17 18 18 19 19 20 20
REMARK H PARENT
REMARK Flexibility Score: inf
ROOT
ATOM      1  C   UNL     1      -5.339 -11.659  -0.481  1.00  0.00     0.000 C 
ENDROOT
BRANCH   1   2
ATOM      2  C   UNL     1      -6.601 -10.926   0.005  1.00  0.00     0.000 C 
BRANCH   2   3
ATOM      3  C   UNL     1      -6.472 -10.440   1.464  1.00  0.00     0.000 C 
BRANCH   3   4
ATOM      4  C   UNL     1      -5.229  -9.566   1.720  1.00  0.00     0.000 C 
BRANCH   4   5
ATOM      5  C   UNL     1      -5.380  -8.535   2.851  1.00  0.00     0.000 C 
BRANCH   5   6
ATOM      6  C   UNL     1      -5.587  -7.078   2.390  1.00  0.00     0.006 C 
BRANCH   6   7
ATOM      7  C   UNL     1      -6.978  -6.800   1.793  1.00  0.00     0.053 C 
BRANCH   7   8
ATOM      8  C   UNL     1      -6.990  -6.893   0.297  1.00  0.00     0.041 C 
ATOM      9  O   UNL     1      -7.840  -7.617  -0.286  1.00  0.00    -0.550 OA
ATOM     10  O   UNL     1      -6.092  -6.148  -0.457  1.00  0.00    -0.550 OA
ENDBRANCH   7   8
ENDBRANCH   6   7
ENDBRANCH   5   6
ENDBRANCH   4   5
ENDBRANCH   3   4
ENDBRANCH   2   3
ENDBRANCH   1   2
BRANCH   1  11
ATOM     11  C   UNL     1      -4.985 -12.875   0.390  1.00  0.00     0.000 C 
BRANCH  11  12
ATOM     12  C   UNL     1      -6.091 -13.944   0.394  1.00  0.00     0.000 C 
BRANCH  12  13
ATOM     13  C   UNL     1      -6.505 -14.355   1.817  1.00  0.00     0.000 C 
BRANCH  13  14
ATOM     14  C   UNL     1      -6.177 -15.827   2.123  1.00  0.00     0.000 C 
BRANCH  14  15
ATOM     15  C   UNL     1      -5.765 -16.618   0.870  1.00  0.00     0.000 C 
BRANCH  15  16
ATOM     16  C   UNL     1      -5.652 -18.140   1.107  1.00  0.00     0.006 C 
BRANCH  16  17
ATOM     17  C   UNL     1      -5.889 -18.944  -0.178  1.00  0.00     0.053 C 
BRANCH  17  18
ATOM     18  C   UNL     1      -6.955 -19.973   0.038  1.00  0.00     0.041 C 
ATOM     19  O   UNL     1      -7.249 -20.345   1.204  1.00  0.00    -0.550 OA
ATOM     20  O   UNL     1      -7.659 -20.483  -1.046  1.00  0.00    -0.550 OA
ENDBRANCH  17  18
ENDBRANCH  16  17
ENDBRANCH  15  16
ENDBRANCH  14  15
ENDBRANCH  13  14
ENDBRANCH  12  13
ENDBRANCH  11  12
ENDBRANCH   1  11
TORSDOF 15
ENDMDL
MODEL 5
REMARK VINA RESULT:    -3.657     19.557     21.649
REMARK INTER + INTRA:          -7.937
REMARK INTER:                  -5.849
REMARK INTRA:                  -2.088
REMARK UNBOUND:                -1.074
REMARK SMILES O=C([O-])CCCCCCCCCCCCCCC(=O)[O-]
REMARK SMILES IDX 10 1 9 2 8 3 7 4 6 5 5 6 4 7 2 8 1 9 3 10 11 11 12 12 13 13
REMARK SMILES IDX 14 14 15 15 16 16 17 17 18 18 19 19 20 20
REMARK H PARENT
REMARK Flexibility Score: inf
ROOT
ATOM      1  C   UNL     1     -21.420  -2.167 -15.282  1.00  0.00     0.000 C 
ENDROOT
BRANCH   1   2
ATOM      2  C   UNL     1     -19.897  -2.385 -15.282  1.00  0.00     0.000 C 
BRANCH   2   3
ATOM      3  C   UNL     1     -19.490  -3.676 -16.024  1.00  0.00     0.000 C 
BRANCH   3   4
ATOM      4  C   UNL     1     -19.860  -4.968 -15.270  1.00  0.00     0.000 C 
BRANCH   4   5
ATOM      5  C   UNL     1     -19.762  -4.878 -13.737  1.00  0.00     0.000 C 
BRANCH   5   6
ATOM      6  C   UNL     1     -20.358  -6.075 -12.969  1.00  0.00     0.006 C 
BRANCH   6   7
ATOM      7  C   UNL     1     -20.307  -7.404 -13.743  1.00  0.00     0.053 C 
BRANCH   7   8
ATOM      8  C   UNL     1     -20.452  -8.596 -12.846  1.00  0.00     0.041 C 
ATOM      9  O   UNL     1     -20.811  -8.448 -11.648  1.00  0.00    -0.550 OA
ATOM     10  O   UNL     1     -20.232  -9.875 -13.343  1.00  0.00    -0.550 OA
ENDBRANCH   7   8
ENDBRANCH   6   7
ENDBRANCH   5   6
ENDBRANCH   4   5
ENDBRANCH   3   4
ENDBRANCH   2   3
ENDBRANCH   1   2
BRANCH   1  11
ATOM     11  C   UNL     1     -22.036  -2.267 -16.687  1.00  0.00     0.000 C 
BRANCH  11  12
ATOM     12  C   UNL     1     -23.345  -3.075 -16.703  1.00  0.00     0.000 C 
BRANCH  12  13
ATOM     13  C   UNL     1     -23.108  -4.581 -16.504  1.00  0.00     0.000 C 
BRANCH  13  14
ATOM     14  C   UNL     1     -23.781  -5.119 -15.230  1.00  0.00     0.000 C 
BRANCH  14  15
ATOM     15  C   UNL     1     -24.738  -4.101 -14.586  1.00  0.00     0.000 C 
BRANCH  15  16
ATOM     16  C   UNL     1     -24.624  -4.031 -13.048  1.00  0.00     0.006 C 
BRANCH  16  17
ATOM     17  C   UNL     1     -23.165  -4.019 -12.575  1.00  0.00     0.053 C 
BRANCH  17  18
ATOM     18  C   UNL     1     -22.812  -2.683 -11.999  1.00  0.00     0.041 C 
ATOM     19  O   UNL     1     -21.867  -2.579 -11.174  1.00  0.00    -0.550 OA
ATOM     20  O   UNL     1     -23.495  -1.546 -12.411  1.00  0.00    -0.550 OA
ENDBRANCH  17  18
ENDBRANCH  16  17
ENDBRANCH  15  16
ENDBRANCH  14  15
ENDBRANCH  13  14
ENDBRANCH  12  13
ENDBRANCH  11  12
ENDBRANCH   1  11
TORSDOF 15
ENDMDL
MODEL 6
REMARK VINA RESULT:    -3.588     19.775     22.699
REMARK INTER + INTRA:          -7.808
REMARK INTER:                  -5.815
REMARK INTRA:                  -1.993
REMARK UNBOUND:                -1.074
REMARK SMILES O=C([O-])CCCCCCCCCCCCCCC(=O)[O-]
REMARK SMILES IDX 10 1 9 2 8 3 7 4 6 5 5 6 4 7 2 8 1 9 3 10 11 11 12 12 13 13
REMARK SMILES IDX 14 14 15 15 16 16 17 17 18 18 19 19 20 20
REMARK H PARENT
REMARK Flexibility Score: inf
ROOT
ATOM      1  C   UNL     1     -22.835  -4.620 -12.631  1.00  0.00     0.000 C 
ENDROOT
BRANCH   1   2
ATOM      2  C   UNL     1     -21.961  -3.415 -12.243  1.00  0.00     0.000 C 
BRANCH   2   3
ATOM      3  C   UNL     1     -22.714  -2.075 -12.380  1.00  0.00     0.000 C 
BRANCH   3   4
ATOM      4  C   UNL     1     -22.099  -1.122 -13.423  1.00  0.00     0.000 C 
BRANCH   4   5
ATOM      5  C   UNL     1     -21.231  -1.803 -14.495  1.00  0.00     0.000 C 
BRANCH   5   6
ATOM      6  C   UNL     1     -21.810  -1.775 -15.924  1.00  0.00     0.006 C 
BRANCH   6   7
ATOM      7  C   UNL     1     -20.743  -1.759 -17.034  1.00  0.00     0.053 C 
BRANCH   7   8
ATOM      8  C   UNL     1     -19.702  -2.820 -16.844  1.00  0.00     0.041 C 
ATOM      9  O   UNL     1     -19.995  -4.033 -17.009  1.00  0.00    -0.550 OA
ATOM     10  O   UNL     1     -18.396  -2.468 -16.526  1.00  0.00    -0.550 OA
ENDBRANCH   7   8
ENDBRANCH   6   7
ENDBRANCH   5   6
ENDBRANCH   4   5
ENDBRANCH   3   4
ENDBRANCH   2   3
ENDBRANCH   1   2
BRANCH   1  11
ATOM     11  C   UNL     1     -24.160  -4.206 -13.291  1.00  0.00     0.000 C 
BRANCH  11  12
ATOM     12  C   UNL     1     -24.227  -4.592 -14.779  1.00  0.00     0.000 C 
BRANCH  12  13
ATOM     13  C   UNL     1     -22.866  -5.052 -15.329  1.00  0.00     0.000 C 
BRANCH  13  14
ATOM     14  C   UNL     1     -22.930  -6.451 -15.964  1.00  0.00     0.000 C 
BRANCH  14  15
ATOM     15  C   UNL     1     -21.773  -7.361 -15.518  1.00  0.00     0.000 C 
BRANCH  15  16
ATOM     16  C   UNL     1     -20.683  -6.627 -14.708  1.00  0.00     0.006 C 
BRANCH  16  17
ATOM     17  C   UNL     1     -19.662  -7.597 -14.099  1.00  0.00     0.053 C 
BRANCH  17  18
ATOM     18  C   UNL     1     -20.319  -8.476 -13.081  1.00  0.00     0.041 C 
ATOM     19  O   UNL     1     -20.876  -7.969 -12.072  1.00  0.00    -0.550 OA
ATOM     20  O   UNL     1     -20.357  -9.852 -13.270  1.00  0.00    -0.550 OA
ENDBRANCH  17  18
ENDBRANCH  16  17
ENDBRANCH  15  16
ENDBRANCH  14  15
ENDBRANCH  13  14
ENDBRANCH  12  13
ENDBRANCH  11  12
ENDBRANCH   1  11
TORSDOF 15
ENDMDL
MODEL 7
REMARK VINA RESULT:    -3.575     20.695     22.674
REMARK INTER + INTRA:          -7.783
REMARK INTER:                  -5.605
REMARK INTRA:                  -2.178
REMARK UNBOUND:                -1.074
REMARK SMILES O=C([O-])CCCCCCCCCCCCCCC(=O)[O-]
REMARK SMILES IDX 10 1 9 2 8 3 7 4 6 5 5 6 4 7 2 8 1 9 3 10 11 11 12 12 13 13
REMARK SMILES IDX 14 14 15 15 16 16 17 17 18 18 19 19 20 20
REMARK H PARENT
REMARK Flexibility Score: inf
ROOT
ATOM      1  C   UNL     1     -20.555  -6.606 -12.995  1.00  0.00     0.000 C 
ENDROOT
BRANCH   1   2
ATOM      2  C   UNL     1     -20.872  -7.380 -14.286  1.00  0.00     0.000 C 
BRANCH   2   3
ATOM      3  C   UNL     1     -20.731  -6.500 -15.547  1.00  0.00     0.000 C 
BRANCH   3   4
ATOM      4  C   UNL     1     -21.765  -6.818 -16.643  1.00  0.00     0.000 C 
BRANCH   4   5
ATOM      5  C   UNL     1     -23.216  -6.957 -16.149  1.00  0.00     0.000 C 
BRANCH   5   6
ATOM      6  C   UNL     1     -24.002  -8.142 -16.744  1.00  0.00     0.006 C 
BRANCH   6   7
ATOM      7  C   UNL     1     -23.182  -9.438 -16.872  1.00  0.00     0.053 C 
BRANCH   7   8
ATOM      8  C   UNL     1     -23.955 -10.651 -16.452  1.00  0.00     0.041 C 
ATOM      9  O   UNL     1     -25.122 -10.532 -15.996  1.00  0.00    -0.550 OA
ATOM     10  O   UNL     1     -23.404 -11.918 -16.602  1.00  0.00    -0.550 OA
ENDBRANCH   7   8
ENDBRANCH   6   7
ENDBRANCH   5   6
ENDBRANCH   4   5
ENDBRANCH   3   4
ENDBRANCH   2   3
ENDBRANCH   1   2
BRANCH   1  11
ATOM     11  C   UNL     1     -20.298  -5.111 -13.244  1.00  0.00     0.000 C 
BRANCH  11  12
ATOM     12  C   UNL     1     -21.352  -4.209 -12.580  1.00  0.00     0.000 C 
BRANCH  12  13
ATOM     13  C   UNL     1     -22.788  -4.608 -12.956  1.00  0.00     0.000 C 
BRANCH  13  14
ATOM     14  C   UNL     1     -23.566  -3.456 -13.614  1.00  0.00     0.000 C 
BRANCH  14  15
ATOM     15  C   UNL     1     -23.690  -3.615 -15.139  1.00  0.00     0.000 C 
BRANCH  15  16
ATOM     16  C   UNL     1     -22.862  -2.587 -15.939  1.00  0.00     0.006 C 
BRANCH  16  17
ATOM     17  C   UNL     1     -21.467  -3.117 -16.293  1.00  0.00     0.053 C 
BRANCH  17  18
ATOM     18  C   UNL     1     -20.409  -2.184 -15.791  1.00  0.00     0.041 C 
ATOM     19  O   UNL     1     -20.579  -1.555 -14.714  1.00  0.00    -0.550 OA
ATOM     20  O   UNL     1     -19.216  -2.046 -16.488  1.00  0.00    -0.550 OA
ENDBRANCH  17  18
ENDBRANCH  16  17
ENDBRANCH  15  16
ENDBRANCH  14  15
ENDBRANCH  13  14
ENDBRANCH  12  13
ENDBRANCH  11  12
ENDBRANCH   1  11
TORSDOF 15
ENDMDL
MODEL 8
REMARK VINA RESULT:    -3.563      1.536      2.020
REMARK INTER + INTRA:          -7.761
REMARK INTER:                  -7.062
REMARK INTRA:                  -0.699
REMARK UNBOUND:                -1.074
REMARK SMILES O=C([O-])CCCCCCCCCCCCCCC(=O)[O-]
REMARK SMILES IDX 10 1 9 2 8 3 7 4 6 5 5 6 4 7 2 8 1 9 3 10 11 11 12 12 13 13
REMARK SMILES IDX 14 14 15 15 16 16 17 17 18 18 19 19 20 20
REMARK H PARENT
REMARK Flexibility Score: inf
ROOT
ATOM      1  C   UNL     1      -7.304  -9.427   0.856  1.00  0.00     0.000 C 
ENDROOT
BRANCH   1   2
ATOM      2  C   UNL     1      -6.404 -10.646   1.120  1.00  0.00     0.000 C 
BRANCH   2   3
ATOM      3  C   UNL     1      -5.327 -10.826   0.029  1.00  0.00     0.000 C 
BRANCH   3   4
ATOM      4  C   UNL     1      -5.154 -12.285  -0.436  1.00  0.00     0.000 C 
BRANCH   4   5
ATOM      5  C   UNL     1      -6.061 -13.306   0.272  1.00  0.00     0.000 C 
BRANCH   5   6
ATOM      6  C   UNL     1      -5.326 -14.481   0.948  1.00  0.00     0.006 C 
BRANCH   6   7
ATOM      7  C   UNL     1      -6.241 -15.400   1.777  1.00  0.00     0.053 C 
BRANCH   7   8
ATOM      8  C   UNL     1      -5.936 -16.853   1.569  1.00  0.00     0.041 C 
ATOM      9  O   UNL     1      -5.581 -17.270   0.435  1.00  0.00    -0.550 OA
ATOM     10  O   UNL     1      -6.002 -17.740   2.636  1.00  0.00    -0.550 OA
ENDBRANCH   7   8
ENDBRANCH   6   7
ENDBRANCH   5   6
ENDBRANCH   4   5
ENDBRANCH   3   4
ENDBRANCH   2   3
ENDBRANCH   1   2
BRANCH   1  11
ATOM     11  C   UNL     1      -6.822  -8.576  -0.330  1.00  0.00     0.000 C 
BRANCH  11  12
ATOM     12  C   UNL     1      -6.783  -7.073  -0.003  1.00  0.00     0.000 C 
BRANCH  12  13
ATOM     13  C   UNL     1      -7.903  -6.652   0.962  1.00  0.00     0.000 C 
BRANCH  13  14
ATOM     14  C   UNL     1      -7.373  -5.862   2.171  1.00  0.00     0.000 C 
BRANCH  14  15
ATOM     15  C   UNL     1      -7.550  -4.342   2.012  1.00  0.00     0.000 C 
BRANCH  15  16
ATOM     16  C   UNL     1      -8.705  -3.761   2.856  1.00  0.00     0.006 C 
BRANCH  16  17
ATOM     17  C   UNL     1     -10.022  -4.513   2.630  1.00  0.00     0.053 C 
BRANCH  17  18
ATOM     18  C   UNL     1     -11.163  -3.550   2.521  1.00  0.00     0.041 C 
ATOM     19  O   UNL     1     -10.977  -2.322   2.732  1.00  0.00    -0.550 OA
ATOM     20  O   UNL     1     -12.420  -4.001   2.139  1.00  0.00    -0.550 OA
ENDBRANCH  17  18
ENDBRANCH  16  17
ENDBRANCH  15  16
ENDBRANCH  14  15
ENDBRANCH  13  14
ENDBRANCH  12  13
ENDBRANCH  11  12
ENDBRANCH   1  11
TORSDOF 15
ENDMDL
MODEL 9
REMARK VINA RESULT:    -3.542     19.580     22.516
REMARK INTER + INTRA:          -7.722
REMARK INTER:                  -5.488
REMARK INTRA:                  -2.234
REMARK UNBOUND:                -1.074
REMARK SMILES O=C([O-])CCCCCCCCCCCCCCC(=O)[O-]
REMARK SMILES IDX 10 1 9 2 8 3 7 4 6 5 5 6 4 7 2 8 1 9 3 10 11 11 12 12 13 13
REMARK SMILES IDX 14 14 15 15 16 16 17 17 18 18 19 19 20 20
REMARK H PARENT
REMARK Flexibility Score: inf
ROOT
ATOM      1  C   UNL     1     -19.488  -3.585 -15.763  1.00  0.00     0.000 C 
ENDROOT
BRANCH   1   2
ATOM      2  C   UNL     1     -19.797  -2.108 -15.465  1.00  0.00     0.000 C 
BRANCH   2   3
ATOM      3  C   UNL     1     -20.755  -1.487 -16.503  1.00  0.00     0.000 C 
BRANCH   3   4
ATOM      4  C   UNL     1     -22.135  -1.113 -15.927  1.00  0.00     0.000 C 
BRANCH   4   5
ATOM      5  C   UNL     1     -22.283  -1.312 -14.409  1.00  0.00     0.000 C 
BRANCH   5   6
ATOM      6  C   UNL     1     -23.624  -1.922 -13.953  1.00  0.00     0.006 C 
BRANCH   6   7
ATOM      7  C   UNL     1     -23.591  -2.519 -12.535  1.00  0.00     0.053 C 
BRANCH   7   8
ATOM      8  C   UNL     1     -23.391  -1.476 -11.477  1.00  0.00     0.041 C 
ATOM      9  O   UNL     1     -24.382  -0.875 -10.984  1.00  0.00    -0.550 OA
ATOM     10  O   UNL     1     -22.115  -1.196 -11.004  1.00  0.00    -0.550 OA
ENDBRANCH   7   8
ENDBRANCH   6   7
ENDBRANCH   5   6
ENDBRANCH   4   5
ENDBRANCH   3   4
ENDBRANCH   2   3
ENDBRANCH   1   2
BRANCH   1  11
ATOM     11  C   UNL     1     -20.132  -4.075 -17.070  1.00  0.00     0.000 C 
BRANCH  11  12
ATOM     12  C   UNL     1     -21.110  -5.241 -16.847  1.00  0.00     0.000 C 
BRANCH  12  13
ATOM     13  C   UNL     1     -22.225  -4.890 -15.848  1.00  0.00     0.000 C 
BRANCH  13  14
ATOM     14  C   UNL     1     -22.346  -5.920 -14.713  1.00  0.00     0.000 C 
BRANCH  14  15
ATOM     15  C   UNL     1     -21.717  -5.433 -13.396  1.00  0.00     0.000 C 
BRANCH  15  16
ATOM     16  C   UNL     1     -20.301  -5.992 -13.141  1.00  0.00     0.006 C 
BRANCH  16  17
ATOM     17  C   UNL     1     -20.052  -7.304 -13.897  1.00  0.00     0.053 C 
BRANCH  17  18
ATOM     18  C   UNL     1     -20.221  -8.476 -12.981  1.00  0.00     0.041 C 
ATOM     19  O   UNL     1     -19.715  -9.590 -13.278  1.00  0.00    -0.550 OA
ATOM     20  O   UNL     1     -20.897  -8.326 -11.777  1.00  0.00    -0.550 OA
ENDBRANCH  17  18
ENDBRANCH  16  17
ENDBRANCH  15  16
ENDBRANCH  14  15
ENDBRANCH  13  14
ENDBRANCH  12  13
ENDBRANCH  11  12
ENDBRANCH   1  11
TORSDOF 15
ENDMDL
