MODEL 1
REMARK VINA RESULT:    -3.820      0.000      0.000
REMARK INTER + INTRA:          -4.141
REMARK INTER:                  -4.043
REMARK INTRA:                  -0.098
REMARK UNBOUND:                -0.098
REMARK SMILES C=C(C)[C@H]1CC=C(C)C(=O)C1
REMARK SMILES IDX 8 1 7 2 6 3 5 4 4 5 11 6 9 7 10 8 2 9 1 10 3 11
REMARK H PARENT
REMARK Flexibility Score: inf
ROOT
ATOM      1  C   UNL     1     180.259 188.997 223.004  1.00  0.00     0.048 C 
ATOM      2  C   UNL     1     181.694 189.444 222.986  1.00  0.00    -0.012 C 
ATOM      3  C   UNL     1     181.986 190.754 222.920  1.00  0.00    -0.019 C 
ATOM      4  C   UNL     1     183.405 191.255 222.880  1.00  0.00     0.036 C 
ATOM      5  C   UNL     1     184.340 190.335 223.687  1.00  0.00     0.025 C 
ATOM      6  C   UNL     1     184.221 188.882 223.191  1.00  0.00     0.089 C 
ATOM      7  C   UNL     1     182.781 188.448 223.167  1.00  0.00     0.158 C 
ATOM      8  O   UNL     1     182.508 187.222 223.266  1.00  0.00    -0.295 OA
ENDROOT
BRANCH   5   9
ATOM      9  C   UNL     1     185.782 190.823 223.637  1.00  0.00    -0.077 C 
ATOM     10  C   UNL     1     186.052 192.089 223.282  1.00  0.00     0.008 C 
ATOM     11  C   UNL     1     186.933 189.911 223.982  1.00  0.00     0.039 C 
ENDBRANCH   5   9
TORSDOF 1
ENDMDL
MODEL 2
REMARK VINA RESULT:    -3.755      7.882     10.164
REMARK INTER + INTRA:          -4.073
REMARK INTER:                  -3.975
REMARK INTRA:                  -0.098
REMARK UNBOUND:                -0.098
REMARK SMILES C=C(C)[C@H]1CC=C(C)C(=O)C1
REMARK SMILES IDX 8 1 7 2 6 3 5 4 4 5 11 6 9 7 10 8 2 9 1 10 3 11
REMARK H PARENT
REMARK Flexibility Score: inf
ROOT
ATOM      1  C   UNL     1     192.976 183.604 223.084  1.00  0.00     0.048 C 
ATOM      2  C   UNL     1     191.519 183.250 222.974  1.00  0.00    -0.012 C 
ATOM      3  C   UNL     1     191.139 181.961 223.015  1.00  0.00    -0.019 C 
ATOM      4  C   UNL     1     189.696 181.551 222.891  1.00  0.00     0.036 C 
ATOM      5  C   UNL     1     188.763 182.611 223.505  1.00  0.00     0.025 C 
ATOM      6  C   UNL     1     189.033 183.990 222.876  1.00  0.00     0.089 C 
ATOM      7  C   UNL     1     190.496 184.327 222.945  1.00  0.00     0.158 C 
ATOM      8  O   UNL     1     190.850 185.536 222.943  1.00  0.00    -0.295 OA
ENDROOT
BRANCH   5   9
ATOM      9  C   UNL     1     187.299 182.214 223.367  1.00  0.00    -0.077 C 
ATOM     10  C   UNL     1     186.349 183.160 223.289  1.00  0.00     0.008 C 
ATOM     11  C   UNL     1     186.880 180.766 223.313  1.00  0.00     0.039 C 
ENDBRANCH   5   9
TORSDOF 1
ENDMDL
MODEL 3
REMARK VINA RESULT:    -3.710      1.978      4.747
REMARK INTER + INTRA:          -4.025
REMARK INTER:                  -3.927
REMARK INTRA:                  -0.098
REMARK UNBOUND:                -0.098
REMARK SMILES C=C(C)[C@H]1CC=C(C)C(=O)C1
REMARK SMILES IDX 8 1 7 2 6 3 5 4 4 5 11 6 9 7 10 8 2 9 1 10 3 11
REMARK H PARENT
REMARK Flexibility Score: inf
ROOT
ATOM      1  C   UNL     1     185.706 191.624 223.822  1.00  0.00     0.048 C 
ATOM      2  C   UNL     1     184.259 191.232 223.946  1.00  0.00    -0.012 C 
ATOM      3  C   UNL     1     183.450 191.315 222.876  1.00  0.00    -0.019 C 
ATOM      4  C   UNL     1     181.990 190.953 222.950  1.00  0.00     0.036 C 
ATOM      5  C   UNL     1     181.751 189.819 223.965  1.00  0.00     0.025 C 
ATOM      6  C   UNL     1     182.327 190.202 225.340  1.00  0.00     0.089 C 
ATOM      7  C   UNL     1     183.761 190.637 225.212  1.00  0.00     0.158 C 
ATOM      8  O   UNL     1     184.528 190.524 226.205  1.00  0.00    -0.295 OA
ENDROOT
BRANCH   5   9
ATOM      9  C   UNL     1     180.275 189.458 224.060  1.00  0.00    -0.077 C 
ATOM     10  C   UNL     1     179.811 188.800 225.135  1.00  0.00     0.008 C 
ATOM     11  C   UNL     1     179.303 189.826 222.967  1.00  0.00     0.039 C 
ENDBRANCH   5   9
TORSDOF 1
ENDMDL
MODEL 4
REMARK VINA RESULT:    -3.688      9.445      9.985
REMARK INTER + INTRA:          -4.001
REMARK INTER:                  -3.906
REMARK INTRA:                  -0.096
REMARK UNBOUND:                -0.098
REMARK SMILES C=C(C)[C@H]1CC=C(C)C(=O)C1
REMARK SMILES IDX 8 1 7 2 6 3 5 4 4 5 11 6 9 7 10 8 2 9 1 10 3 11
REMARK H PARENT
REMARK Flexibility Score: inf
ROOT
ATOM      1  C   UNL     1     186.828 181.074 223.856  1.00  0.00     0.048 C 
ATOM      2  C   UNL     1     188.262 181.517 223.955  1.00  0.00    -0.012 C 
ATOM      3  C   UNL     1     189.059 181.448 222.875  1.00  0.00    -0.019 C 
ATOM      4  C   UNL     1     190.506 181.861 222.925  1.00  0.00     0.036 C 
ATOM      5  C   UNL     1     190.720 183.015 223.922  1.00  0.00     0.025 C 
ATOM      6  C   UNL     1     190.176 182.630 225.310  1.00  0.00     0.089 C 
ATOM      7  C   UNL     1     188.756 182.145 225.207  1.00  0.00     0.158 C 
ATOM      8  O   UNL     1     187.999 182.244 226.209  1.00  0.00    -0.295 OA
ENDROOT
BRANCH   5   9
ATOM      9  C   UNL     1     192.184 183.427 223.993  1.00  0.00    -0.077 C 
ATOM     10  C   UNL     1     192.569 184.402 224.833  1.00  0.00     0.008 C 
ATOM     11  C   UNL     1     193.231 182.762 223.134  1.00  0.00     0.039 C 
ENDBRANCH   5   9
TORSDOF 1
ENDMDL
MODEL 5
REMARK VINA RESULT:    -3.588      9.875     10.414
REMARK INTER + INTRA:          -3.896
REMARK INTER:                  -3.799
REMARK INTRA:                  -0.097
REMARK UNBOUND:                -0.098
REMARK SMILES C=C(C)[C@H]1CC=C(C)C(=O)C1
REMARK SMILES IDX 8 1 7 2 6 3 5 4 4 5 11 6 9 7 10 8 2 9 1 10 3 11
REMARK H PARENT
REMARK Flexibility Score: inf
ROOT
ATOM      1  C   UNL     1     188.332 181.553 225.648  1.00  0.00     0.048 C 
ATOM      2  C   UNL     1     189.488 182.237 224.973  1.00  0.00    -0.012 C 
ATOM      3  C   UNL     1     190.296 183.042 225.684  1.00  0.00    -0.019 C 
ATOM      4  C   UNL     1     191.456 183.765 225.053  1.00  0.00     0.036 C 
ATOM      5  C   UNL     1     192.068 182.938 223.907  1.00  0.00     0.025 C 
ATOM      6  C   UNL     1     190.985 182.567 222.878  1.00  0.00     0.089 C 
ATOM      7  C   UNL     1     189.808 181.923 223.557  1.00  0.00     0.158 C 
ATOM      8  O   UNL     1     189.072 181.139 222.900  1.00  0.00    -0.295 OA
ENDROOT
BRANCH   5   9
ATOM      9  C   UNL     1     193.231 183.670 223.250  1.00  0.00    -0.077 C 
ATOM     10  C   UNL     1     193.140 184.985 222.994  1.00  0.00     0.008 C 
ATOM     11  C   UNL     1     194.502 182.950 222.875  1.00  0.00     0.039 C 
ENDBRANCH   5   9
TORSDOF 1
ENDMDL
MODEL 6
REMARK VINA RESULT:    -3.581      9.620     10.824
REMARK INTER + INTRA:          -3.889
REMARK INTER:                  -3.791
REMARK INTRA:                  -0.098
REMARK UNBOUND:                -0.098
REMARK SMILES C=C(C)[C@H]1CC=C(C)C(=O)C1
REMARK SMILES IDX 8 1 7 2 6 3 5 4 4 5 11 6 9 7 10 8 2 9 1 10 3 11
REMARK H PARENT
REMARK Flexibility Score: inf
ROOT
ATOM      1  C   UNL     1     193.299 183.336 223.790  1.00  0.00     0.048 C 
ATOM      2  C   UNL     1     191.834 183.017 223.903  1.00  0.00    -0.012 C 
ATOM      3  C   UNL     1     191.197 182.430 222.875  1.00  0.00    -0.019 C 
ATOM      4  C   UNL     1     189.727 182.107 222.929  1.00  0.00     0.036 C 
ATOM      5  C   UNL     1     189.288 181.755 224.363  1.00  0.00     0.025 C 
ATOM      6  C   UNL     1     189.671 182.888 225.332  1.00  0.00     0.089 C 
ATOM      7  C   UNL     1     191.127 183.237 225.190  1.00  0.00     0.158 C 
ATOM      8  O   UNL     1     191.733 183.755 226.166  1.00  0.00    -0.295 OA
ENDROOT
BRANCH   5   9
ATOM      9  C   UNL     1     187.799 181.445 224.430  1.00  0.00    -0.077 C 
ATOM     10  C   UNL     1     187.131 181.104 223.316  1.00  0.00     0.008 C 
ATOM     11  C   UNL     1     187.040 181.509 225.732  1.00  0.00     0.039 C 
ENDBRANCH   5   9
TORSDOF 1
ENDMDL
MODEL 7
REMARK VINA RESULT:    -3.575      7.595      9.418
REMARK INTER + INTRA:          -3.882
REMARK INTER:                  -3.784
REMARK INTRA:                  -0.098
REMARK UNBOUND:                -0.098
REMARK SMILES C=C(C)[C@H]1CC=C(C)C(=O)C1
REMARK SMILES IDX 8 1 7 2 6 3 5 4 4 5 11 6 9 7 10 8 2 9 1 10 3 11
REMARK H PARENT
REMARK Flexibility Score: inf
ROOT
ATOM      1  C   UNL     1     191.740 185.398 223.012  1.00  0.00     0.048 C 
ATOM      2  C   UNL     1     190.514 184.582 223.314  1.00  0.00    -0.012 C 
ATOM      3  C   UNL     1     189.346 185.198 223.563  1.00  0.00    -0.019 C 
ATOM      4  C   UNL     1     188.092 184.430 223.888  1.00  0.00     0.036 C 
ATOM      5  C   UNL     1     188.067 183.075 223.156  1.00  0.00     0.025 C 
ATOM      6  C   UNL     1     189.341 182.272 223.472  1.00  0.00     0.089 C 
ATOM      7  C   UNL     1     190.568 183.101 223.213  1.00  0.00     0.158 C 
ATOM      8  O   UNL     1     191.655 182.524 222.944  1.00  0.00    -0.295 OA
ENDROOT
BRANCH   5   9
ATOM      9  C   UNL     1     186.811 182.282 223.494  1.00  0.00    -0.077 C 
ATOM     10  C   UNL     1     185.719 182.915 223.953  1.00  0.00     0.008 C 
ATOM     11  C   UNL     1     186.758 180.784 223.324  1.00  0.00     0.039 C 
ENDBRANCH   5   9
TORSDOF 1
ENDMDL
MODEL 8
REMARK VINA RESULT:    -3.573      7.836      9.436
REMARK INTER + INTRA:          -3.879
REMARK INTER:                  -3.781
REMARK INTRA:                  -0.098
REMARK UNBOUND:                -0.098
REMARK SMILES C=C(C)[C@H]1CC=C(C)C(=O)C1
REMARK SMILES IDX 8 1 7 2 6 3 5 4 4 5 11 6 9 7 10 8 2 9 1 10 3 11
REMARK H PARENT
REMARK Flexibility Score: inf
ROOT
ATOM      1  C   UNL     1     186.661 183.184 223.123  1.00  0.00     0.048 C 
ATOM      2  C   UNL     1     188.163 183.248 223.108  1.00  0.00    -0.012 C 
ATOM      3  C   UNL     1     188.784 184.426 223.293  1.00  0.00    -0.019 C 
ATOM      4  C   UNL     1     190.284 184.549 223.268  1.00  0.00     0.036 C 
ATOM      5  C   UNL     1     190.954 183.272 223.810  1.00  0.00     0.025 C 
ATOM      6  C   UNL     1     190.459 182.038 223.035  1.00  0.00     0.089 C 
ATOM      7  C   UNL     1     188.955 181.996 223.013  1.00  0.00     0.158 C 
ATOM      8  O   UNL     1     188.374 180.886 222.875  1.00  0.00    -0.295 OA
ENDROOT
BRANCH   5   9
ATOM      9  C   UNL     1     192.473 183.380 223.771  1.00  0.00    -0.077 C 
ATOM     10  C   UNL     1     193.176 182.668 222.875  1.00  0.00     0.008 C 
ATOM     11  C   UNL     1     193.222 184.279 224.723  1.00  0.00     0.039 C 
ENDBRANCH   5   9
TORSDOF 1
ENDMDL
MODEL 9
REMARK VINA RESULT:    -3.572      1.336      2.066
REMARK INTER + INTRA:          -3.879
REMARK INTER:                  -3.781
REMARK INTRA:                  -0.098
REMARK UNBOUND:                -0.098
REMARK SMILES C=C(C)[C@H]1CC=C(C)C(=O)C1
REMARK SMILES IDX 8 1 7 2 6 3 5 4 4 5 11 6 9 7 10 8 2 9 1 10 3 11
REMARK H PARENT
REMARK Flexibility Score: inf
ROOT
ATOM      1  C   UNL     1     180.939 187.384 222.967  1.00  0.00     0.048 C 
ATOM      2  C   UNL     1     182.189 188.163 223.267  1.00  0.00    -0.012 C 
ATOM      3  C   UNL     1     183.337 187.513 223.526  1.00  0.00    -0.019 C 
ATOM      4  C   UNL     1     184.612 188.244 223.850  1.00  0.00     0.036 C 
ATOM      5  C   UNL     1     184.684 189.591 223.107  1.00  0.00     0.025 C 
ATOM      6  C   UNL     1     183.434 190.437 223.411  1.00  0.00     0.089 C 
ATOM      7  C   UNL     1     182.183 189.644 223.153  1.00  0.00     0.158 C 
ATOM      8  O   UNL     1     181.115 190.254 222.875  1.00  0.00    -0.295 OA
ENDROOT
BRANCH   5   9
ATOM      9  C   UNL     1     185.962 190.346 223.443  1.00  0.00    -0.077 C 
ATOM     10  C   UNL     1     186.032 191.673 223.247  1.00  0.00     0.008 C 
ATOM     11  C   UNL     1     187.172 189.637 224.000  1.00  0.00     0.039 C 
ENDBRANCH   5   9
TORSDOF 1
ENDMDL
