MODEL 1
REMARK VINA RESULT:    -3.994      0.000      0.000
REMARK INTER + INTRA:          -5.789
REMARK INTER:                  -5.395
REMARK INTRA:                  -0.393
REMARK UNBOUND:                -0.393
REMARK SMILES CCCCCCCC(=O)[O-]
REMARK SMILES IDX 5 1 6 2 7 3 8 4 9 5 10 6 4 7 3 8 2 9 1 10
REMARK H PARENT
REMARK Flexibility Score: inf
ROOT
ATOM      1  C   UNL     1      60.879  30.322  11.393  1.00  0.00     0.000 C 
ENDROOT
BRANCH   1   2
ATOM      2  C   UNL     1      61.623  30.218  10.049  1.00  0.00     0.006 C 
BRANCH   2   3
ATOM      3  C   UNL     1      62.542  28.993   9.967  1.00  0.00     0.053 C 
BRANCH   3   4
ATOM      4  C   UNL     1      63.976  29.408  10.068  1.00  0.00     0.041 C 
ATOM      5  O   UNL     1      64.810  29.016   9.211  1.00  0.00    -0.550 OA
ATOM      6  O   UNL     1      64.400  30.188  11.137  1.00  0.00    -0.550 OA
ENDBRANCH   3   4
ENDBRANCH   2   3
ENDBRANCH   1   2
BRANCH   1   7
ATOM      7  C   UNL     1      60.339  28.988  11.941  1.00  0.00     0.000 C 
BRANCH   7   8
ATOM      8  C   UNL     1      60.841  28.675  13.358  1.00  0.00    -0.000 C 
BRANCH   8   9
ATOM      9  C   UNL     1      62.238  29.264  13.588  1.00  0.00    -0.003 C 
ATOM     10  C   UNL     1      62.240  30.236  14.764  1.00  0.00     0.004 C 
ENDBRANCH   8   9
ENDBRANCH   7   8
ENDBRANCH   1   7
TORSDOF 6
ENDMDL
MODEL 2
REMARK VINA RESULT:    -3.987      1.582      2.195
REMARK INTER + INTRA:          -5.779
REMARK INTER:                  -5.331
REMARK INTRA:                  -0.448
REMARK UNBOUND:                -0.393
REMARK SMILES CCCCCCCC(=O)[O-]
REMARK SMILES IDX 5 1 6 2 7 3 8 4 9 5 10 6 4 7 3 8 2 9 1 10
REMARK H PARENT
REMARK Flexibility Score: inf
ROOT
ATOM      1  C   UNL     1      61.848  28.607   9.880  1.00  0.00     0.000 C 
ENDROOT
BRANCH   1   2
ATOM      2  C   UNL     1      62.891  29.592   9.322  1.00  0.00     0.006 C 
BRANCH   2   3
ATOM      3  C   UNL     1      64.286  29.393   9.926  1.00  0.00     0.053 C 
BRANCH   3   4
ATOM      4  C   UNL     1      64.455  30.246  11.143  1.00  0.00     0.041 C 
ATOM      5  O   UNL     1      64.762  31.462  11.026  1.00  0.00    -0.550 OA
ATOM      6  O   UNL     1      64.320  29.689  12.409  1.00  0.00    -0.550 OA
ENDBRANCH   3   4
ENDBRANCH   2   3
ENDBRANCH   1   2
BRANCH   1   7
ATOM      7  C   UNL     1      60.567  29.260  10.433  1.00  0.00     0.000 C 
BRANCH   7   8
ATOM      8  C   UNL     1      60.792  29.987  11.766  1.00  0.00    -0.000 C 
BRANCH   8   9
ATOM      9  C   UNL     1      60.850  28.993  12.931  1.00  0.00    -0.003 C 
ATOM     10  C   UNL     1      59.513  28.281  13.116  1.00  0.00     0.004 C 
ENDBRANCH   8   9
ENDBRANCH   7   8
ENDBRANCH   1   7
TORSDOF 6
ENDMDL
MODEL 3
REMARK VINA RESULT:    -3.980      2.576      4.014
REMARK INTER + INTRA:          -5.770
REMARK INTER:                  -5.225
REMARK INTRA:                  -0.545
REMARK UNBOUND:                -0.393
REMARK SMILES CCCCCCCC(=O)[O-]
REMARK SMILES IDX 5 1 6 2 7 3 8 4 9 5 10 6 4 7 3 8 2 9 1 10
REMARK H PARENT
REMARK Flexibility Score: inf
ROOT
ATOM      1  C   UNL     1      61.772  28.617  10.058  1.00  0.00     0.000 C 
ENDROOT
BRANCH   1   2
ATOM      2  C   UNL     1      60.541  29.457  10.440  1.00  0.00     0.006 C 
BRANCH   2   3
ATOM      3  C   UNL     1      60.638  30.053  11.850  1.00  0.00     0.053 C 
BRANCH   3   4
ATOM      4  C   UNL     1      60.432  28.990  12.882  1.00  0.00     0.041 C 
ATOM      5  O   UNL     1      61.366  28.681  13.668  1.00  0.00    -0.550 OA
ATOM      6  O   UNL     1      59.225  28.305  12.944  1.00  0.00    -0.550 OA
ENDBRANCH   3   4
ENDBRANCH   2   3
ENDBRANCH   1   2
BRANCH   1   7
ATOM      7  C   UNL     1      62.869  29.381   9.293  1.00  0.00     0.000 C 
BRANCH   7   8
ATOM      8  C   UNL     1      64.227  29.357  10.010  1.00  0.00    -0.000 C 
BRANCH   8   9
ATOM      9  C   UNL     1      64.344  30.519  11.002  1.00  0.00    -0.003 C 
ATOM     10  C   UNL     1      64.356  30.016  12.442  1.00  0.00     0.004 C 
ENDBRANCH   8   9
ENDBRANCH   7   8
ENDBRANCH   1   7
TORSDOF 6
ENDMDL
MODEL 4
REMARK VINA RESULT:    -3.947      1.845      2.835
REMARK INTER + INTRA:          -5.725
REMARK INTER:                  -5.203
REMARK INTRA:                  -0.522
REMARK UNBOUND:                -0.393
REMARK SMILES CCCCCCCC(=O)[O-]
REMARK SMILES IDX 5 1 6 2 7 3 8 4 9 5 10 6 4 7 3 8 2 9 1 10
REMARK H PARENT
REMARK Flexibility Score: inf
ROOT
ATOM      1  C   UNL     1      61.558  29.039  13.485  1.00  0.00     0.000 C 
ENDROOT
BRANCH   1   2
ATOM      2  C   UNL     1      60.620  29.103  12.266  1.00  0.00     0.006 C 
BRANCH   2   3
ATOM      3  C   UNL     1      61.229  29.867  11.083  1.00  0.00     0.053 C 
BRANCH   3   4
ATOM      4  C   UNL     1      62.172  28.987  10.324  1.00  0.00     0.041 C 
ATOM      5  O   UNL     1      63.414  29.083  10.507  1.00  0.00    -0.550 OA
ATOM      6  O   UNL     1      61.682  28.095   9.378  1.00  0.00    -0.550 OA
ENDBRANCH   3   4
ENDBRANCH   2   3
ENDBRANCH   1   2
BRANCH   1   7
ATOM      7  C   UNL     1      62.376  30.318  13.745  1.00  0.00     0.000 C 
BRANCH   7   8
ATOM      8  C   UNL     1      61.785  31.191  14.861  1.00  0.00    -0.000 C 
BRANCH   8   9
ATOM      9  C   UNL     1      60.870  32.276  14.283  1.00  0.00    -0.003 C 
ATOM     10  C   UNL     1      61.570  33.053  13.171  1.00  0.00     0.004 C 
ENDBRANCH   8   9
ENDBRANCH   7   8
ENDBRANCH   1   7
TORSDOF 6
ENDMDL
MODEL 5
REMARK VINA RESULT:    -3.945      2.480      3.797
REMARK INTER + INTRA:          -5.722
REMARK INTER:                  -5.169
REMARK INTRA:                  -0.552
REMARK UNBOUND:                -0.393
REMARK SMILES CCCCCCCC(=O)[O-]
REMARK SMILES IDX 5 1 6 2 7 3 8 4 9 5 10 6 4 7 3 8 2 9 1 10
REMARK H PARENT
REMARK Flexibility Score: inf
ROOT
ATOM      1  C   UNL     1      63.316  29.327  13.438  1.00  0.00     0.000 C 
ENDROOT
BRANCH   1   2
ATOM      2  C   UNL     1      61.832  29.353  13.848  1.00  0.00     0.006 C 
BRANCH   2   3
ATOM      3  C   UNL     1      60.918  28.660  12.829  1.00  0.00     0.053 C 
BRANCH   3   4
ATOM      4  C   UNL     1      61.105  29.258  11.470  1.00  0.00     0.041 C 
ATOM      5  O   UNL     1      60.662  30.409  11.218  1.00  0.00    -0.550 OA
ATOM      6  O   UNL     1      61.726  28.525  10.466  1.00  0.00    -0.550 OA
ENDBRANCH   3   4
ENDBRANCH   2   3
ENDBRANCH   1   2
BRANCH   1   7
ATOM      7  C   UNL     1      64.077  30.646  13.664  1.00  0.00     0.000 C 
BRANCH   7   8
ATOM      8  C   UNL     1      63.687  31.742  12.662  1.00  0.00    -0.000 C 
BRANCH   8   9
ATOM      9  C   UNL     1      63.187  32.996  13.388  1.00  0.00    -0.003 C 
ATOM     10  C   UNL     1      61.665  33.095  13.334  1.00  0.00     0.004 C 
ENDBRANCH   8   9
ENDBRANCH   7   8
ENDBRANCH   1   7
TORSDOF 6
ENDMDL
MODEL 6
REMARK VINA RESULT:    -3.942      1.924      2.785
REMARK INTER + INTRA:          -5.718
REMARK INTER:                  -5.111
REMARK INTRA:                  -0.607
REMARK UNBOUND:                -0.393
REMARK SMILES CCCCCCCC(=O)[O-]
REMARK SMILES IDX 5 1 6 2 7 3 8 4 9 5 10 6 4 7 3 8 2 9 1 10
REMARK H PARENT
REMARK Flexibility Score: inf
ROOT
ATOM      1  C   UNL     1      63.879  30.635  11.720  1.00  0.00     0.000 C 
ENDROOT
BRANCH   1   2
ATOM      2  C   UNL     1      64.216  29.705  10.541  1.00  0.00     0.006 C 
BRANCH   2   3
ATOM      3  C   UNL     1      63.281  29.899   9.340  1.00  0.00     0.053 C 
BRANCH   3   4
ATOM      4  C   UNL     1      61.915  29.376   9.653  1.00  0.00     0.041 C 
ATOM      5  O   UNL     1      61.710  28.135   9.711  1.00  0.00    -0.550 OA
ATOM      6  O   UNL     1      60.856  30.257   9.831  1.00  0.00    -0.550 OA
ENDBRANCH   3   4
ENDBRANCH   2   3
ENDBRANCH   1   2
BRANCH   1   7
ATOM      7  C   UNL     1      64.079  30.016  13.116  1.00  0.00     0.000 C 
BRANCH   7   8
ATOM      8  C   UNL     1      62.958  29.042  13.506  1.00  0.00    -0.000 C 
BRANCH   8   9
ATOM      9  C   UNL     1      61.581  29.699  13.351  1.00  0.00    -0.003 C 
ATOM     10  C   UNL     1      60.497  28.655  13.100  1.00  0.00     0.004 C 
ENDBRANCH   8   9
ENDBRANCH   7   8
ENDBRANCH   1   7
TORSDOF 6
ENDMDL
MODEL 7
REMARK VINA RESULT:    -3.934      2.998      4.281
REMARK INTER + INTRA:          -5.707
REMARK INTER:                  -5.141
REMARK INTRA:                  -0.566
REMARK UNBOUND:                -0.393
REMARK SMILES CCCCCCCC(=O)[O-]
REMARK SMILES IDX 5 1 6 2 7 3 8 4 9 5 10 6 4 7 3 8 2 9 1 10
REMARK H PARENT
REMARK Flexibility Score: inf
ROOT
ATOM      1  C   UNL     1      63.872  30.452  13.345  1.00  0.00     0.000 C 
ENDROOT
BRANCH   1   2
ATOM      2  C   UNL     1      62.983  29.226  13.073  1.00  0.00     0.006 C 
BRANCH   2   3
ATOM      3  C   UNL     1      61.636  29.289  13.804  1.00  0.00     0.053 C 
BRANCH   3   4
ATOM      4  C   UNL     1      60.509  29.119  12.835  1.00  0.00     0.041 C 
ATOM      5  O   UNL     1      59.568  28.322  13.091  1.00  0.00    -0.550 OA
ATOM      6  O   UNL     1      60.520  29.804  11.626  1.00  0.00    -0.550 OA
ENDBRANCH   3   4
ENDBRANCH   2   3
ENDBRANCH   1   2
BRANCH   1   7
ATOM      7  C   UNL     1      63.525  31.704  12.518  1.00  0.00     0.000 C 
BRANCH   7   8
ATOM      8  C   UNL     1      63.094  32.895  13.386  1.00  0.00    -0.000 C 
BRANCH   8   9
ATOM      9  C   UNL     1      61.580  33.117  13.301  1.00  0.00    -0.003 C 
ATOM     10  C   UNL     1      60.904  32.830  14.639  1.00  0.00     0.004 C 
ENDBRANCH   8   9
ENDBRANCH   7   8
ENDBRANCH   1   7
TORSDOF 6
ENDMDL
MODEL 8
REMARK VINA RESULT:    -3.911      1.867      3.838
REMARK INTER + INTRA:          -5.676
REMARK INTER:                  -5.117
REMARK INTRA:                  -0.559
REMARK UNBOUND:                -0.393
REMARK SMILES CCCCCCCC(=O)[O-]
REMARK SMILES IDX 5 1 6 2 7 3 8 4 9 5 10 6 4 7 3 8 2 9 1 10
REMARK H PARENT
REMARK Flexibility Score: inf
ROOT
ATOM      1  C   UNL     1      60.655  29.559  10.442  1.00  0.00     0.000 C 
ENDROOT
BRANCH   1   2
ATOM      2  C   UNL     1      60.653  30.112  11.879  1.00  0.00     0.006 C 
BRANCH   2   3
ATOM      3  C   UNL     1      60.977  29.044  12.932  1.00  0.00     0.053 C 
BRANCH   3   4
ATOM      4  C   UNL     1      62.137  29.476  13.773  1.00  0.00     0.041 C 
ATOM      5  O   UNL     1      61.979  30.342  14.672  1.00  0.00    -0.550 OA
ATOM      6  O   UNL     1      63.403  28.958  13.530  1.00  0.00    -0.550 OA
ENDBRANCH   3   4
ENDBRANCH   2   3
ENDBRANCH   1   2
BRANCH   1   7
ATOM      7  C   UNL     1      61.812  28.596  10.119  1.00  0.00     0.000 C 
BRANCH   7   8
ATOM      8  C   UNL     1      62.911  29.244   9.265  1.00  0.00    -0.000 C 
BRANCH   8   9
ATOM      9  C   UNL     1      64.214  29.383  10.061  1.00  0.00    -0.003 C 
ATOM     10  C   UNL     1      64.364  30.790  10.632  1.00  0.00     0.004 C 
ENDBRANCH   8   9
ENDBRANCH   7   8
ENDBRANCH   1   7
TORSDOF 6
ENDMDL
MODEL 9
REMARK VINA RESULT:    -3.809      2.245      3.401
REMARK INTER + INTRA:          -5.538
REMARK INTER:                  -4.953
REMARK INTRA:                  -0.585
REMARK UNBOUND:                -0.393
REMARK SMILES CCCCCCCC(=O)[O-]
REMARK SMILES IDX 5 1 6 2 7 3 8 4 9 5 10 6 4 7 3 8 2 9 1 10
REMARK H PARENT
REMARK Flexibility Score: inf
ROOT
ATOM      1  C   UNL     1      61.720  29.391  13.701  1.00  0.00     0.000 C 
ENDROOT
BRANCH   1   2
ATOM      2  C   UNL     1      60.730  29.028  12.579  1.00  0.00     0.006 C 
BRANCH   2   3
ATOM      3  C   UNL     1      60.659  30.092  11.477  1.00  0.00     0.053 C 
BRANCH   3   4
ATOM      4  C   UNL     1      60.871  29.467  10.134  1.00  0.00     0.041 C 
ATOM      5  O   UNL     1      61.621  28.464  10.014  1.00  0.00    -0.550 OA
ATOM      6  O   UNL     1      60.279  30.023   9.006  1.00  0.00    -0.550 OA
ENDBRANCH   3   4
ENDBRANCH   2   3
ENDBRANCH   1   2
BRANCH   1   7
ATOM      7  C   UNL     1      63.191  29.046  13.407  1.00  0.00     0.000 C 
BRANCH   7   8
ATOM      8  C   UNL     1      64.141  30.232  13.624  1.00  0.00    -0.000 C 
BRANCH   8   9
ATOM      9  C   UNL     1      64.255  31.083  12.354  1.00  0.00    -0.003 C 
ATOM     10  C   UNL     1      64.455  30.209  11.120  1.00  0.00     0.004 C 
ENDBRANCH   8   9
ENDBRANCH   7   8
ENDBRANCH   1   7
TORSDOF 6
ENDMDL
