MODEL 1
REMARK VINA RESULT:    -0.733      0.000      0.000
REMARK INTER + INTRA:          -0.733
REMARK INTER:                  -0.733
REMARK INTRA:                   0.000
REMARK UNBOUND:                 0.000
REMARK SMILES C=C1CCC[C@@]2(C)CC(=O)C(=C(C)C)C[C@@H]12
REMARK SMILES IDX 13 1 12 2 11 3 15 4 16 5 2 6 1 7 3 8 4 9 5 10 6 11 8 12 9 13
REMARK SMILES IDX 10 14 7 15 14 16
REMARK H PARENT
REMARK Flexibility Score: inf
ROOT
ATOM      1  C   UNL     1      74.470  72.666  84.122  1.00  0.00     0.039 C 
ATOM      2  C   UNL     1      74.411  71.251  83.594  1.00  0.00    -0.070 C 
ATOM      3  C   UNL     1      73.223  70.631  83.343  1.00  0.00    -0.006 C 
ATOM      4  C   UNL     1      73.161  69.173  82.927  1.00  0.00     0.047 C 
ATOM      5  C   UNL     1      71.822  68.857  82.228  1.00  0.00     0.025 C 
ATOM      6  C   UNL     1      71.841  67.438  81.680  1.00  0.00    -0.073 C 
ATOM      7  C   UNL     1      72.246  67.201  80.422  1.00  0.00     0.008 C 
ATOM      8  C   UNL     1      71.554  66.288  82.612  1.00  0.00     0.031 C 
ATOM      9  C   UNL     1      70.282  66.557  83.412  1.00  0.00     0.005 C 
ATOM     10  C   UNL     1      70.352  67.914  84.125  1.00  0.00     0.008 C 
ATOM     11  C   UNL     1      70.580  69.118  83.159  1.00  0.00    -0.018 C 
ATOM     12  C   UNL     1      70.759  70.417  84.028  1.00  0.00     0.088 C 
ATOM     13  C   UNL     1      71.908  71.276  83.589  1.00  0.00     0.159 C 
ATOM     14  O   UNL     1      71.734  72.513  83.423  1.00  0.00    -0.295 OA
ATOM     15  C   UNL     1      69.329  69.308  82.263  1.00  0.00     0.012 C 
ATOM     16  C   UNL     1      75.721  70.522  83.401  1.00  0.00     0.039 C 
ENDROOT
TORSDOF 0
ENDMDL
MODEL 2
REMARK VINA RESULT:    -0.320      8.616     12.970
REMARK INTER + INTRA:          -0.320
REMARK INTER:                  -0.320
REMARK INTRA:                   0.000
REMARK UNBOUND:                 0.000
REMARK SMILES C=C1CCC[C@@]2(C)CC(=O)C(=C(C)C)C[C@@H]12
REMARK SMILES IDX 13 1 12 2 11 3 15 4 16 5 2 6 1 7 3 8 4 9 5 10 6 11 8 12 9 13
REMARK SMILES IDX 10 14 7 15 14 16
REMARK H PARENT
REMARK Flexibility Score: inf
ROOT
ATOM      1  C   UNL     1      75.169  76.790  84.115  1.00  0.00     0.039 C 
ATOM      2  C   UNL     1      75.193  78.208  83.592  1.00  0.00    -0.070 C 
ATOM      3  C   UNL     1      76.366  78.856  83.341  1.00  0.00    -0.006 C 
ATOM      4  C   UNL     1      76.392  80.316  82.929  1.00  0.00     0.047 C 
ATOM      5  C   UNL     1      77.722  80.666  82.228  1.00  0.00     0.025 C 
ATOM      6  C   UNL     1      77.668  82.086  81.685  1.00  0.00    -0.073 C 
ATOM      7  C   UNL     1      77.255  82.318  80.429  1.00  0.00     0.008 C 
ATOM      8  C   UNL     1      77.930  83.240  82.620  1.00  0.00     0.031 C 
ATOM      9  C   UNL     1      79.211  82.998  83.417  1.00  0.00     0.005 C 
ATOM     10  C   UNL     1      79.174  81.637  84.125  1.00  0.00     0.008 C 
ATOM     11  C   UNL     1      78.972  80.431  83.155  1.00  0.00    -0.018 C 
ATOM     12  C   UNL     1      78.826  79.126  84.021  1.00  0.00     0.088 C 
ATOM     13  C   UNL     1      77.696  78.241  83.581  1.00  0.00     0.159 C 
ATOM     14  O   UNL     1      77.899  77.009  83.411  1.00  0.00    -0.295 OA
ATOM     15  C   UNL     1      80.225  80.274  82.256  1.00  0.00     0.012 C 
ATOM     16  C   UNL     1      73.866  78.906  83.405  1.00  0.00     0.039 C 
ENDROOT
TORSDOF 0
ENDMDL
