MODEL 1
REMARK VINA RESULT:    -4.476      0.000      0.000
REMARK INTER + INTRA:          -6.947
REMARK INTER:                  -6.439
REMARK INTRA:                  -0.508
REMARK UNBOUND:                -0.508
REMARK SMILES O=C(CO)[C@H](O)[C@@H](O)[C@@H](O)CO
REMARK SMILES IDX 7 1 9 2 11 3 12 4 10 6 5 8 2 9 1 10 3 11 4 12 6 14 8 16
REMARK H PARENT 12 5 10 7 4 13 6 15 8 17
REMARK Flexibility Score: inf
ROOT
ATOM      1  C   UNL     1      12.083   1.853  -2.155  1.00  0.00     0.181 C 
ENDROOT
BRANCH   1   2
ATOM      2  C   UNL     1      11.790   1.573  -0.653  1.00  0.00     0.171 C 
BRANCH   2   3
ATOM      3  C   UNL     1      12.651   0.438  -0.067  1.00  0.00     0.190 C 
BRANCH   3   4
ATOM      4  O   UNL     1      12.223   0.101   1.226  1.00  0.00    -0.394 OA
ATOM      5  H   UNL     1      11.235   0.017   1.191  1.00  0.00     0.210 HD
ENDBRANCH   3   4
ENDBRANCH   2   3
BRANCH   2   6
ATOM      6  O   UNL     1      10.430   1.274  -0.469  1.00  0.00    -0.388 OA
ATOM      7  H   UNL     1      10.240   0.454  -0.995  1.00  0.00     0.211 HD
ENDBRANCH   2   6
ENDBRANCH   1   2
BRANCH   1   8
ATOM      8  C   UNL     1      10.870   1.632  -3.107  1.00  0.00     0.214 C 
BRANCH   8   9
ATOM      9  C   UNL     1      11.321   1.482  -4.549  1.00  0.00     0.189 C 
ATOM     10  O   UNL     1      11.600   0.366  -4.965  1.00  0.00    -0.294 OA
BRANCH   9  11
ATOM     11  C   UNL     1      11.432   2.668  -5.473  1.00  0.00     0.234 C 
BRANCH  11  12
ATOM     12  O   UNL     1      10.209   3.346  -5.555  1.00  0.00    -0.388 OA
ATOM     13  H   UNL     1       9.936   3.534  -4.620  1.00  0.00     0.211 HD
ENDBRANCH  11  12
ENDBRANCH   9  11
ENDBRANCH   8   9
BRANCH   8  14
ATOM     14  O   UNL     1       9.889   2.632  -2.964  1.00  0.00    -0.382 OA
ATOM     15  H   UNL     1      10.051   3.326  -3.652  1.00  0.00     0.211 HD
ENDBRANCH   8  14
ENDBRANCH   1   8
BRANCH   1  16
ATOM     16  O   UNL     1      12.639   3.136  -2.325  1.00  0.00    -0.387 OA
ATOM     17  H   UNL     1      13.609   3.084  -2.126  1.00  0.00     0.211 HD
ENDBRANCH   1  16
TORSDOF 10
ENDMDL
MODEL 2
REMARK VINA RESULT:    -4.448      1.922      3.008
REMARK INTER + INTRA:          -6.907
REMARK INTER:                  -5.859
REMARK INTRA:                  -1.048
REMARK UNBOUND:                -0.508
REMARK SMILES O=C(CO)[C@H](O)[C@@H](O)[C@@H](O)CO
REMARK SMILES IDX 7 1 9 2 11 3 12 4 10 6 5 8 2 9 1 10 3 11 4 12 6 14 8 16
REMARK H PARENT 12 5 10 7 4 13 6 15 8 17
REMARK Flexibility Score: inf
ROOT
ATOM      1  C   UNL     1      11.536   2.101  -2.140  1.00  0.00     0.181 C 
ENDROOT
BRANCH   1   2
ATOM      2  C   UNL     1      11.485   1.780  -0.619  1.00  0.00     0.171 C 
BRANCH   2   3
ATOM      3  C   UNL     1      12.536   0.743  -0.180  1.00  0.00     0.190 C 
BRANCH   3   4
ATOM      4  O   UNL     1      12.144   0.104   1.006  1.00  0.00    -0.394 OA
ATOM      5  H   UNL     1      12.089  -0.866   0.807  1.00  0.00     0.210 HD
ENDBRANCH   3   4
ENDBRANCH   2   3
BRANCH   2   6
ATOM      6  O   UNL     1      10.203   1.331  -0.259  1.00  0.00    -0.388 OA
ATOM      7  H   UNL     1       9.895   1.904   0.491  1.00  0.00     0.211 HD
ENDBRANCH   2   6
ENDBRANCH   1   2
BRANCH   1   8
ATOM      8  C   UNL     1      10.306   2.888  -2.681  1.00  0.00     0.214 C 
BRANCH   8   9
ATOM      9  C   UNL     1      10.163   4.233  -1.990  1.00  0.00     0.189 C 
ATOM     10  O   UNL     1      11.116   4.998  -1.989  1.00  0.00    -0.294 OA
BRANCH   9  11
ATOM     11  C   UNL     1       8.882   4.641  -1.307  1.00  0.00     0.234 C 
BRANCH  11  12
ATOM     12  O   UNL     1       8.576   3.759  -0.263  1.00  0.00    -0.388 OA
ATOM     13  H   UNL     1       9.113   4.058   0.516  1.00  0.00     0.211 HD
ENDBRANCH  11  12
ENDBRANCH   9  11
ENDBRANCH   8   9
BRANCH   8  14
ATOM     14  O   UNL     1       9.118   2.135  -2.617  1.00  0.00    -0.382 OA
ATOM     15  H   UNL     1       9.021   1.787  -1.694  1.00  0.00     0.211 HD
ENDBRANCH   8  14
ENDBRANCH   1   8
BRANCH   1  16
ATOM     16  O   UNL     1      12.743   2.747  -2.474  1.00  0.00    -0.387 OA
ATOM     17  H   UNL     1      13.150   3.097  -1.640  1.00  0.00     0.211 HD
ENDBRANCH   1  16
TORSDOF 10
ENDMDL
MODEL 3
REMARK VINA RESULT:    -4.384      2.303      3.593
REMARK INTER + INTRA:          -6.815
REMARK INTER:                  -5.845
REMARK INTRA:                  -0.970
REMARK UNBOUND:                -0.508
REMARK SMILES O=C(CO)[C@H](O)[C@@H](O)[C@@H](O)CO
REMARK SMILES IDX 7 1 9 2 11 3 12 4 10 6 5 8 2 9 1 10 3 11 4 12 6 14 8 16
REMARK H PARENT 12 5 10 7 4 13 6 15 8 17
REMARK Flexibility Score: inf
ROOT
ATOM      1  C   UNL     1      10.612   2.375  -0.931  1.00  0.00     0.181 C 
ENDROOT
BRANCH   1   2
ATOM      2  C   UNL     1      11.862   1.703  -1.567  1.00  0.00     0.171 C 
BRANCH   2   3
ATOM      3  C   UNL     1      12.724   0.933  -0.548  1.00  0.00     0.190 C 
BRANCH   3   4
ATOM      4  O   UNL     1      11.954   0.521   0.550  1.00  0.00    -0.394 OA
ATOM      5  H   UNL     1      11.675  -0.414   0.372  1.00  0.00     0.210 HD
ENDBRANCH   3   4
ENDBRANCH   2   3
BRANCH   2   6
ATOM      6  O   UNL     1      12.653   2.663  -2.219  1.00  0.00    -0.388 OA
ATOM      7  H   UNL     1      13.470   2.199  -2.538  1.00  0.00     0.211 HD
ENDBRANCH   2   6
ENDBRANCH   1   2
BRANCH   1   8
ATOM      8  C   UNL     1       9.970   3.503  -1.792  1.00  0.00     0.214 C 
BRANCH   8   9
ATOM      9  C   UNL     1       8.604   3.895  -1.258  1.00  0.00     0.189 C 
ATOM     10  O   UNL     1       8.432   3.928  -0.048  1.00  0.00    -0.294 OA
BRANCH   9  11
ATOM     11  C   UNL     1       7.461   4.239  -2.180  1.00  0.00     0.234 C 
BRANCH  11  12
ATOM     12  O   UNL     1       7.008   3.097  -2.852  1.00  0.00    -0.388 OA
ATOM     13  H   UNL     1       7.234   2.326  -2.268  1.00  0.00     0.211 HD
ENDBRANCH  11  12
ENDBRANCH   9  11
ENDBRANCH   8   9
BRANCH   8  14
ATOM     14  O   UNL     1       9.925   3.172  -3.160  1.00  0.00    -0.382 OA
ATOM     15  H   UNL     1      10.081   3.998  -3.684  1.00  0.00     0.211 HD
ENDBRANCH   8  14
ENDBRANCH   1   8
BRANCH   1  16
ATOM     16  O   UNL     1       9.657   1.407  -0.563  1.00  0.00    -0.387 OA
ATOM     17  H   UNL     1       8.831   1.569  -1.088  1.00  0.00     0.211 HD
ENDBRANCH   1  16
TORSDOF 10
ENDMDL
MODEL 4
REMARK VINA RESULT:    -4.332     17.816     20.348
REMARK INTER + INTRA:          -6.739
REMARK INTER:                  -5.985
REMARK INTRA:                  -0.754
REMARK UNBOUND:                -0.508
REMARK SMILES O=C(CO)[C@H](O)[C@@H](O)[C@@H](O)CO
REMARK SMILES IDX 7 1 9 2 11 3 12 4 10 6 5 8 2 9 1 10 3 11 4 12 6 14 8 16
REMARK H PARENT 12 5 10 7 4 13 6 15 8 17
REMARK Flexibility Score: inf
ROOT
ATOM      1  C   UNL     1      22.979  -8.962  10.749  1.00  0.00     0.181 C 
ENDROOT
BRANCH   1   2
ATOM      2  C   UNL     1      24.064  -9.555  11.692  1.00  0.00     0.171 C 
BRANCH   2   3
ATOM      3  C   UNL     1      25.203  -8.567  12.007  1.00  0.00     0.190 C 
BRANCH   3   4
ATOM      4  O   UNL     1      24.698  -7.380  12.559  1.00  0.00    -0.394 OA
ATOM      5  H   UNL     1      24.494  -7.567  13.511  1.00  0.00     0.210 HD
ENDBRANCH   3   4
ENDBRANCH   2   3
BRANCH   2   6
ATOM      6  O   UNL     1      24.601 -10.729  11.139  1.00  0.00    -0.388 OA
ATOM      7  H   UNL     1      25.314 -10.452  10.506  1.00  0.00     0.211 HD
ENDBRANCH   2   6
ENDBRANCH   1   2
BRANCH   1   8
ATOM      8  C   UNL     1      21.690  -8.467  11.468  1.00  0.00     0.214 C 
BRANCH   8   9
ATOM      9  C   UNL     1      20.530  -8.339  10.497  1.00  0.00     0.189 C 
ATOM     10  O   UNL     1      20.666  -8.764   9.359  1.00  0.00    -0.294 OA
BRANCH   9  11
ATOM     11  C   UNL     1      19.223  -7.704  10.901  1.00  0.00     0.234 C 
BRANCH  11  12
ATOM     12  O   UNL     1      18.315  -7.724   9.835  1.00  0.00    -0.388 OA
ATOM     13  H   UNL     1      18.388  -8.626   9.428  1.00  0.00     0.211 HD
ENDBRANCH  11  12
ENDBRANCH   9  11
ENDBRANCH   8   9
BRANCH   8  14
ATOM     14  O   UNL     1      21.904  -7.277  12.190  1.00  0.00    -0.382 OA
ATOM     15  H   UNL     1      21.643  -6.514  11.616  1.00  0.00     0.211 HD
ENDBRANCH   8  14
ENDBRANCH   1   8
BRANCH   1  16
ATOM     16  O   UNL     1      23.526  -7.955   9.929  1.00  0.00    -0.387 OA
ATOM     17  H   UNL     1      24.307  -8.334   9.449  1.00  0.00     0.211 HD
ENDBRANCH   1  16
TORSDOF 10
ENDMDL
MODEL 5
REMARK VINA RESULT:    -4.332      1.573      2.320
REMARK INTER + INTRA:          -6.739
REMARK INTER:                  -5.907
REMARK INTRA:                  -0.832
REMARK UNBOUND:                -0.508
REMARK SMILES O=C(CO)[C@H](O)[C@@H](O)[C@@H](O)CO
REMARK SMILES IDX 7 1 9 2 11 3 12 4 10 6 5 8 2 9 1 10 3 11 4 12 6 14 8 16
REMARK H PARENT 12 5 10 7 4 13 6 15 8 17
REMARK Flexibility Score: inf
ROOT
ATOM      1  C   UNL     1      10.173   3.026  -2.486  1.00  0.00     0.181 C 
ENDROOT
BRANCH   1   2
ATOM      2  C   UNL     1      10.222   3.626  -1.052  1.00  0.00     0.171 C 
BRANCH   2   3
ATOM      3  C   UNL     1      10.021   2.574   0.055  1.00  0.00     0.190 C 
BRANCH   3   4
ATOM      4  O   UNL     1      11.090   1.666   0.082  1.00  0.00    -0.394 OA
ATOM      5  H   UNL     1      10.697   0.759   0.163  1.00  0.00     0.210 HD
ENDBRANCH   3   4
ENDBRANCH   2   3
BRANCH   2   6
ATOM      6  O   UNL     1       9.259   4.640  -0.916  1.00  0.00    -0.388 OA
ATOM      7  H   UNL     1       8.803   4.727  -1.794  1.00  0.00     0.211 HD
ENDBRANCH   2   6
ENDBRANCH   1   2
BRANCH   1   8
ATOM      8  C   UNL     1      11.547   2.976  -3.218  1.00  0.00     0.214 C 
BRANCH   8   9
ATOM      9  C   UNL     1      11.532   1.965  -4.352  1.00  0.00     0.189 C 
ATOM     10  O   UNL     1      11.687   0.782  -4.087  1.00  0.00    -0.294 OA
BRANCH   9  11
ATOM     11  C   UNL     1      11.335   2.386  -5.786  1.00  0.00     0.234 C 
BRANCH  11  12
ATOM     12  O   UNL     1      10.400   3.426  -5.871  1.00  0.00    -0.388 OA
ATOM     13  H   UNL     1      10.858   4.237  -5.528  1.00  0.00     0.211 HD
ENDBRANCH  11  12
ENDBRANCH   9  11
ENDBRANCH   8   9
BRANCH   8  14
ATOM     14  O   UNL     1      12.618   2.754  -2.331  1.00  0.00    -0.382 OA
ATOM     15  H   UNL     1      12.475   3.312  -1.525  1.00  0.00     0.211 HD
ENDBRANCH   8  14
ENDBRANCH   1   8
BRANCH   1  16
ATOM     16  O   UNL     1       9.552   1.762  -2.478  1.00  0.00    -0.387 OA
ATOM     17  H   UNL     1      10.252   1.070  -2.604  1.00  0.00     0.211 HD
ENDBRANCH   1  16
TORSDOF 10
ENDMDL
MODEL 6
REMARK VINA RESULT:    -4.298      2.545      4.116
REMARK INTER + INTRA:          -6.690
REMARK INTER:                  -5.468
REMARK INTRA:                  -1.222
REMARK UNBOUND:                -0.508
REMARK SMILES O=C(CO)[C@H](O)[C@@H](O)[C@@H](O)CO
REMARK SMILES IDX 7 1 9 2 11 3 12 4 10 6 5 8 2 9 1 10 3 11 4 12 6 14 8 16
REMARK H PARENT 12 5 10 7 4 13 6 15 8 17
REMARK Flexibility Score: inf
ROOT
ATOM      1  C   UNL     1       9.878   2.017  -0.725  1.00  0.00     0.181 C 
ENDROOT
BRANCH   1   2
ATOM      2  C   UNL     1      11.409   1.882  -0.489  1.00  0.00     0.171 C 
BRANCH   2   3
ATOM      3  C   UNL     1      12.199   1.575  -1.775  1.00  0.00     0.190 C 
BRANCH   3   4
ATOM      4  O   UNL     1      12.607   2.759  -2.407  1.00  0.00    -0.394 OA
ATOM      5  H   UNL     1      12.967   3.355  -1.700  1.00  0.00     0.210 HD
ENDBRANCH   3   4
ENDBRANCH   2   3
BRANCH   2   6
ATOM      6  O   UNL     1      11.667   0.888   0.470  1.00  0.00    -0.388 OA
ATOM      7  H   UNL     1      11.463   0.015   0.044  1.00  0.00     0.211 HD
ENDBRANCH   2   6
ENDBRANCH   1   2
BRANCH   1   8
ATOM      8  C   UNL     1       9.176   3.097   0.151  1.00  0.00     0.214 C 
BRANCH   8   9
ATOM      9  C   UNL     1       8.906   4.363  -0.643  1.00  0.00     0.189 C 
ATOM     10  O   UNL     1       7.803   4.517  -1.147  1.00  0.00    -0.294 OA
BRANCH   9  11
ATOM     11  C   UNL     1       9.961   5.425  -0.825  1.00  0.00     0.234 C 
BRANCH  11  12
ATOM     12  O   UNL     1      10.808   5.102  -1.894  1.00  0.00    -0.388 OA
ATOM     13  H   UNL     1      11.655   5.592  -1.732  1.00  0.00     0.211 HD
ENDBRANCH  11  12
ENDBRANCH   9  11
ENDBRANCH   8   9
BRANCH   8  14
ATOM     14  O   UNL     1       9.882   3.363   1.340  1.00  0.00    -0.382 OA
ATOM     15  H   UNL     1       9.862   2.548   1.902  1.00  0.00     0.211 HD
ENDBRANCH   8  14
ENDBRANCH   1   8
BRANCH   1  16
ATOM     16  O   UNL     1       9.598   2.209  -2.093  1.00  0.00    -0.387 OA
ATOM     17  H   UNL     1       9.602   3.183  -2.277  1.00  0.00     0.211 HD
ENDBRANCH   1  16
TORSDOF 10
ENDMDL
MODEL 7
REMARK VINA RESULT:    -4.291      2.627      3.699
REMARK INTER + INTRA:          -6.681
REMARK INTER:                  -5.384
REMARK INTRA:                  -1.298
REMARK UNBOUND:                -0.508
REMARK SMILES O=C(CO)[C@H](O)[C@@H](O)[C@@H](O)CO
REMARK SMILES IDX 7 1 9 2 11 3 12 4 10 6 5 8 2 9 1 10 3 11 4 12 6 14 8 16
REMARK H PARENT 12 5 10 7 4 13 6 15 8 17
REMARK Flexibility Score: inf
ROOT
ATOM      1  C   UNL     1       9.645   2.842  -0.123  1.00  0.00     0.181 C 
ENDROOT
BRANCH   1   2
ATOM      2  C   UNL     1       9.852   4.357  -0.407  1.00  0.00     0.171 C 
BRANCH   2   3
ATOM      3  C   UNL     1       9.560   5.250   0.814  1.00  0.00     0.190 C 
BRANCH   3   4
ATOM      4  O   UNL     1       8.569   4.679   1.626  1.00  0.00    -0.394 OA
ATOM      5  H   UNL     1       8.836   3.739   1.792  1.00  0.00     0.210 HD
ENDBRANCH   3   4
ENDBRANCH   2   3
BRANCH   2   6
ATOM      6  O   UNL     1       9.052   4.764  -1.488  1.00  0.00    -0.388 OA
ATOM      7  H   UNL     1       8.127   4.867  -1.142  1.00  0.00     0.211 HD
ENDBRANCH   2   6
ENDBRANCH   1   2
BRANCH   1   8
ATOM      8  C   UNL     1       9.948   1.906  -1.331  1.00  0.00     0.214 C 
BRANCH   8   9
ATOM      9  C   UNL     1      11.385   2.056  -1.799  1.00  0.00     0.189 C 
ATOM     10  O   UNL     1      12.288   1.830  -1.007  1.00  0.00    -0.294 OA
BRANCH   9  11
ATOM     11  C   UNL     1      11.720   2.478  -3.207  1.00  0.00     0.234 C 
BRANCH  11  12
ATOM     12  O   UNL     1      11.012   3.634  -3.558  1.00  0.00    -0.388 OA
ATOM     13  H   UNL     1      10.106   3.330  -3.828  1.00  0.00     0.211 HD
ENDBRANCH  11  12
ENDBRANCH   9  11
ENDBRANCH   8   9
BRANCH   8  14
ATOM     14  O   UNL     1       9.031   2.079  -2.385  1.00  0.00    -0.382 OA
ATOM     15  H   UNL     1       8.122   1.888  -2.040  1.00  0.00     0.211 HD
ENDBRANCH   8  14
ENDBRANCH   1   8
BRANCH   1  16
ATOM     16  O   UNL     1      10.362   2.445   1.023  1.00  0.00    -0.387 OA
ATOM     17  H   UNL     1       9.710   2.158   1.714  1.00  0.00     0.211 HD
ENDBRANCH   1  16
TORSDOF 10
ENDMDL
MODEL 8
REMARK VINA RESULT:    -4.275      2.376      4.746
REMARK INTER + INTRA:          -6.657
REMARK INTER:                  -5.624
REMARK INTRA:                  -1.034
REMARK UNBOUND:                -0.508
REMARK SMILES O=C(CO)[C@H](O)[C@@H](O)[C@@H](O)CO
REMARK SMILES IDX 7 1 9 2 11 3 12 4 10 6 5 8 2 9 1 10 3 11 4 12 6 14 8 16
REMARK H PARENT 12 5 10 7 4 13 6 15 8 17
REMARK Flexibility Score: inf
ROOT
ATOM      1  C   UNL     1      10.321   1.905  -1.815  1.00  0.00     0.181 C 
ENDROOT
BRANCH   1   2
ATOM      2  C   UNL     1      11.368   2.870  -2.441  1.00  0.00     0.171 C 
BRANCH   2   3
ATOM      3  C   UNL     1      11.470   2.746  -3.973  1.00  0.00     0.190 C 
BRANCH   3   4
ATOM      4  O   UNL     1      11.814   1.439  -4.349  1.00  0.00    -0.394 OA
ATOM      5  H   UNL     1      12.141   1.483  -5.284  1.00  0.00     0.210 HD
ENDBRANCH   3   4
ENDBRANCH   2   3
BRANCH   2   6
ATOM      6  O   UNL     1      12.633   2.654  -1.868  1.00  0.00    -0.388 OA
ATOM      7  H   UNL     1      13.118   2.027  -2.465  1.00  0.00     0.211 HD
ENDBRANCH   2   6
ENDBRANCH   1   2
BRANCH   1   8
ATOM      8  C   UNL     1       9.800   2.332  -0.411  1.00  0.00     0.214 C 
BRANCH   8   9
ATOM      9  C   UNL     1       9.177   3.717  -0.451  1.00  0.00     0.189 C 
ATOM     10  O   UNL     1       8.218   3.909  -1.184  1.00  0.00    -0.294 OA
BRANCH   9  11
ATOM     11  C   UNL     1       9.712   4.851   0.386  1.00  0.00     0.234 C 
BRANCH  11  12
ATOM     12  O   UNL     1       9.515   4.594   1.749  1.00  0.00    -0.388 OA
ATOM     13  H   UNL     1       9.005   3.745   1.798  1.00  0.00     0.211 HD
ENDBRANCH  11  12
ENDBRANCH   9  11
ENDBRANCH   8   9
BRANCH   8  14
ATOM     14  O   UNL     1      10.793   2.231   0.582  1.00  0.00    -0.382 OA
ATOM     15  H   UNL     1      11.622   2.650   0.236  1.00  0.00     0.211 HD
ENDBRANCH   8  14
ENDBRANCH   1   8
BRANCH   1  16
ATOM     16  O   UNL     1       9.255   1.677  -2.708  1.00  0.00    -0.387 OA
ATOM     17  H   UNL     1       8.835   0.810  -2.475  1.00  0.00     0.211 HD
ENDBRANCH   1  16
TORSDOF 10
ENDMDL
MODEL 9
REMARK VINA RESULT:    -4.086      1.949      4.674
REMARK INTER + INTRA:          -6.385
REMARK INTER:                  -5.669
REMARK INTRA:                  -0.717
REMARK UNBOUND:                -0.508
REMARK SMILES O=C(CO)[C@H](O)[C@@H](O)[C@@H](O)CO
REMARK SMILES IDX 7 1 9 2 11 3 12 4 10 6 5 8 2 9 1 10 3 11 4 12 6 14 8 16
REMARK H PARENT 12 5 10 7 4 13 6 15 8 17
REMARK Flexibility Score: inf
ROOT
ATOM      1  C   UNL     1      11.445   2.666  -2.444  1.00  0.00     0.181 C 
ENDROOT
BRANCH   1   2
ATOM      2  C   UNL     1      11.533   2.039  -3.864  1.00  0.00     0.171 C 
BRANCH   2   3
ATOM      3  C   UNL     1      11.167   3.027  -4.989  1.00  0.00     0.190 C 
BRANCH   3   4
ATOM      4  O   UNL     1      10.161   3.910  -4.572  1.00  0.00    -0.394 OA
ATOM      5  H   UNL     1       9.537   3.390  -4.002  1.00  0.00     0.210 HD
ENDBRANCH   3   4
ENDBRANCH   2   3
BRANCH   2   6
ATOM      6  O   UNL     1      10.707   0.905  -3.948  1.00  0.00    -0.388 OA
ATOM      7  H   UNL     1      10.691   0.629  -4.902  1.00  0.00     0.211 HD
ENDBRANCH   2   6
ENDBRANCH   1   2
BRANCH   1   8
ATOM      8  C   UNL     1      10.157   2.300  -1.649  1.00  0.00     0.214 C 
BRANCH   8   9
ATOM      9  C   UNL     1       9.527   3.531  -1.021  1.00  0.00     0.189 C 
ATOM     10  O   UNL     1       9.510   4.573  -1.659  1.00  0.00    -0.294 OA
BRANCH   9  11
ATOM     11  C   UNL     1       8.929   3.498   0.363  1.00  0.00     0.234 C 
BRANCH  11  12
ATOM     12  O   UNL     1       9.935   3.405   1.333  1.00  0.00    -0.388 OA
ATOM     13  H   UNL     1      10.482   2.614   1.088  1.00  0.00     0.211 HD
ENDBRANCH  11  12
ENDBRANCH   9  11
ENDBRANCH   8   9
BRANCH   8  14
ATOM     14  O   UNL     1      10.383   1.284  -0.701  1.00  0.00    -0.382 OA
ATOM     15  H   UNL     1       9.812   0.509  -0.934  1.00  0.00     0.211 HD
ENDBRANCH   8  14
ENDBRANCH   1   8
BRANCH   1  16
ATOM     16  O   UNL     1      12.605   2.377  -1.698  1.00  0.00    -0.387 OA
ATOM     17  H   UNL     1      12.969   1.510  -2.012  1.00  0.00     0.211 HD
ENDBRANCH   1  16
TORSDOF 10
ENDMDL
