MODEL 1
REMARK VINA RESULT:    -6.647      0.000      0.000
REMARK INTER + INTRA:         -10.384
REMARK INTER:                  -8.784
REMARK INTRA:                  -1.600
REMARK UNBOUND:                -1.600
REMARK SMILES CC(C)=CCC[C@@H](C(=O)[O-])[C@@H]1CC[C@@]2(C)C3=C(CC[C@]12C)[C@@]1(C)CC[C@H](O)C(C)(C)[C@H]1CC3
REMARK SMILES IDX 6 1 7 2 8 3 9 4 10 5 11 6 12 7 20 8 13 9 14 10 19 11 21 12
REMARK SMILES IDX 15 13 16 14 18 15 17 16 33 17 22 18 32 19 31 20 24 21 23 22
REMARK SMILES IDX 28 23 25 24 26 25 29 26 30 27 27 28 5 30 4 31 2 32 1 33 3 34
REMARK H PARENT 27 29
REMARK Flexibility Score: inf
ROOT
ATOM      1  C   UNL     1     173.697 173.581 150.722  1.00  0.00     0.014 C 
ENDROOT
BRANCH   1   2
ATOM      2  C   UNL     1     174.326 172.678 151.816  1.00  0.00     0.039 C 
BRANCH   2   3
ATOM      3  C   UNL     1     174.753 171.361 151.207  1.00  0.00     0.045 C 
ATOM      4  O   UNL     1     174.686 170.299 151.881  1.00  0.00    -0.550 OA
ATOM      5  O   UNL     1     175.144 171.288 149.875  1.00  0.00    -0.550 OA
ENDBRANCH   2   3
BRANCH   2   6
ATOM      6  C   UNL     1     175.446 173.457 152.596  1.00  0.00     0.004 C 
ATOM      7  C   UNL     1     176.835 172.767 152.679  1.00  0.00     0.006 C 
ATOM      8  C   UNL     1     175.158 173.957 154.056  1.00  0.00    -0.020 C 
ATOM      9  C   UNL     1     177.311 172.876 154.142  1.00  0.00     0.012 C 
ATOM     10  C   UNL     1     176.018 173.023 154.964  1.00  0.00    -0.006 C 
ATOM     11  C   UNL     1     173.707 173.967 154.591  1.00  0.00     0.012 C 
ATOM     12  C   UNL     1     175.649 175.456 154.101  1.00  0.00     0.012 C 
ATOM     13  C   UNL     1     175.466 171.580 155.199  1.00  0.00     0.017 C 
ATOM     14  C   UNL     1     176.124 173.664 156.342  1.00  0.00    -0.064 C 
ATOM     15  C   UNL     1     173.652 174.080 156.149  1.00  0.00     0.032 C 
ATOM     16  C   UNL     1     175.009 174.246 156.888  1.00  0.00    -0.064 C 
ATOM     17  C   UNL     1     177.428 173.597 157.081  1.00  0.00     0.032 C 
ATOM     18  C   UNL     1     175.036 174.960 158.276  1.00  0.00    -0.008 C 
ATOM     19  C   UNL     1     177.204 173.614 158.583  1.00  0.00     0.009 C 
ATOM     20  C   UNL     1     176.469 174.916 158.981  1.00  0.00     0.007 C 
ATOM     21  C   UNL     1     173.974 174.236 159.154  1.00  0.00     0.014 C 
ATOM     22  C   UNL     1     174.635 176.445 158.033  1.00  0.00     0.016 C 
ATOM     23  C   UNL     1     176.481 175.191 160.555  1.00  0.00    -0.006 C 
ATOM     24  C   UNL     1     173.980 174.630 160.629  1.00  0.00     0.033 C 
ATOM     25  C   UNL     1     175.352 174.389 161.264  1.00  0.00     0.120 C 
ATOM     26  C   UNL     1     177.834 174.767 161.198  1.00  0.00     0.014 C 
ATOM     27  C   UNL     1     176.353 176.715 160.854  1.00  0.00     0.014 C 
BRANCH  25  28
ATOM     28  O   UNL     1     175.300 174.726 162.628  1.00  0.00    -0.393 OA
ATOM     29  H   UNL     1     174.341 174.823 162.867  1.00  0.00     0.210 HD
ENDBRANCH  25  28
ENDBRANCH   2   6
ENDBRANCH   1   2
BRANCH   1  30
ATOM     30  C   UNL     1     174.236 175.020 150.759  1.00  0.00     0.028 C 
BRANCH  30  31
ATOM     31  C   UNL     1     173.161 175.981 151.201  1.00  0.00    -0.028 C 
ATOM     32  C   UNL     1     173.370 177.287 151.476  1.00  0.00    -0.080 C 
ATOM     33  C   UNL     1     174.725 177.934 151.306  1.00  0.00     0.039 C 
ATOM     34  C   UNL     1     172.206 178.117 151.952  1.00  0.00     0.039 C 
ENDBRANCH  30  31
ENDBRANCH   1  30
TORSDOF 6
ENDMDL
MODEL 2
REMARK VINA RESULT:    -6.640      6.323      9.327
REMARK INTER + INTRA:         -10.374
REMARK INTER:                  -9.022
REMARK INTRA:                  -1.352
REMARK UNBOUND:                -1.600
REMARK SMILES CC(C)=CCC[C@@H](C(=O)[O-])[C@@H]1CC[C@@]2(C)C3=C(CC[C@]12C)[C@@]1(C)CC[C@H](O)C(C)(C)[C@H]1CC3
REMARK SMILES IDX 6 1 7 2 8 3 9 4 10 5 11 6 12 7 20 8 13 9 14 10 19 11 21 12
REMARK SMILES IDX 15 13 16 14 18 15 17 16 33 17 22 18 32 19 31 20 24 21 23 22
REMARK SMILES IDX 28 23 25 24 26 25 29 26 30 27 27 28 5 30 4 31 2 32 1 33 3 34
REMARK H PARENT 27 29
REMARK Flexibility Score: inf
ROOT
ATOM      1  C   UNL     1     164.255 177.360 153.134  1.00  0.00     0.014 C 
ENDROOT
BRANCH   1   2
ATOM      2  C   UNL     1     165.244 176.235 153.537  1.00  0.00     0.039 C 
BRANCH   2   3
ATOM      3  C   UNL     1     164.483 175.083 154.155  1.00  0.00     0.045 C 
ATOM      4  O   UNL     1     165.010 174.389 155.064  1.00  0.00    -0.550 OA
ATOM      5  O   UNL     1     163.166 174.826 153.791  1.00  0.00    -0.550 OA
ENDBRANCH   2   3
BRANCH   2   6
ATOM      6  C   UNL     1     166.174 175.859 152.327  1.00  0.00     0.004 C 
ATOM      7  C   UNL     1     166.093 174.392 151.826  1.00  0.00     0.006 C 
ATOM      8  C   UNL     1     167.710 176.170 152.415  1.00  0.00    -0.020 C 
ATOM      9  C   UNL     1     167.541 173.893 151.639  1.00  0.00     0.012 C 
ATOM     10  C   UNL     1     168.381 174.770 152.584  1.00  0.00    -0.006 C 
ATOM     11  C   UNL     1     168.241 177.109 153.522  1.00  0.00     0.012 C 
ATOM     12  C   UNL     1     168.089 176.854 151.045  1.00  0.00     0.012 C 
ATOM     13  C   UNL     1     168.289 174.121 154.003  1.00  0.00     0.017 C 
ATOM     14  C   UNL     1     169.867 174.915 152.283  1.00  0.00    -0.064 C 
ATOM     15  C   UNL     1     169.785 176.972 153.725  1.00  0.00     0.032 C 
ATOM     16  C   UNL     1     170.535 176.012 152.760  1.00  0.00    -0.064 C 
ATOM     17  C   UNL     1     170.566 173.831 151.516  1.00  0.00     0.032 C 
ATOM     18  C   UNL     1     172.049 176.260 152.466  1.00  0.00    -0.008 C 
ATOM     19  C   UNL     1     172.035 173.755 151.895  1.00  0.00     0.009 C 
ATOM     20  C   UNL     1     172.719 175.108 151.587  1.00  0.00     0.007 C 
ATOM     21  C   UNL     1     172.746 176.364 153.854  1.00  0.00     0.014 C 
ATOM     22  C   UNL     1     172.147 177.611 151.695  1.00  0.00     0.016 C 
ATOM     23  C   UNL     1     174.314 175.033 151.633  1.00  0.00    -0.006 C 
ATOM     24  C   UNL     1     174.272 176.391 153.808  1.00  0.00     0.033 C 
ATOM     25  C   UNL     1     174.830 175.156 153.095  1.00  0.00     0.120 C 
ATOM     26  C   UNL     1     174.839 173.683 151.061  1.00  0.00     0.014 C 
ATOM     27  C   UNL     1     174.948 176.129 150.725  1.00  0.00     0.014 C 
BRANCH  25  28
ATOM     28  O   UNL     1     176.235 175.203 153.112  1.00  0.00    -0.393 OA
ATOM     29  H   UNL     1     176.498 175.781 153.877  1.00  0.00     0.210 HD
ENDBRANCH  25  28
ENDBRANCH   2   6
ENDBRANCH   1   2
BRANCH   1  30
ATOM     30  C   UNL     1     164.186 177.572 151.613  1.00  0.00     0.028 C 
BRANCH  30  31
ATOM     31  C   UNL     1     162.760 177.782 151.169  1.00  0.00    -0.028 C 
ATOM     32  C   UNL     1     161.950 176.801 150.712  1.00  0.00    -0.080 C 
ATOM     33  C   UNL     1     162.394 175.358 150.656  1.00  0.00     0.039 C 
ATOM     34  C   UNL     1     160.561 177.169 150.260  1.00  0.00     0.039 C 
ENDBRANCH  30  31
ENDBRANCH   1  30
TORSDOF 6
ENDMDL
MODEL 3
REMARK VINA RESULT:    -6.391      4.679      8.653
REMARK INTER + INTRA:         -10.046
REMARK INTER:                  -8.748
REMARK INTRA:                  -1.298
REMARK UNBOUND:                -1.600
REMARK SMILES CC(C)=CCC[C@@H](C(=O)[O-])[C@@H]1CC[C@@]2(C)C3=C(CC[C@]12C)[C@@]1(C)CC[C@H](O)C(C)(C)[C@H]1CC3
REMARK SMILES IDX 6 1 7 2 8 3 9 4 10 5 11 6 12 7 20 8 13 9 14 10 19 11 21 12
REMARK SMILES IDX 15 13 16 14 18 15 17 16 33 17 22 18 32 19 31 20 24 21 23 22
REMARK SMILES IDX 28 23 25 24 26 25 29 26 30 27 27 28 5 30 4 31 2 32 1 33 3 34
REMARK H PARENT 27 29
REMARK Flexibility Score: inf
ROOT
ATOM      1  C   UNL     1     175.909 174.216 153.086  1.00  0.00     0.014 C 
ENDROOT
BRANCH   1   2
ATOM      2  C   UNL     1     175.151 172.933 153.520  1.00  0.00     0.039 C 
BRANCH   2   3
ATOM      3  C   UNL     1     173.855 173.312 154.201  1.00  0.00     0.045 C 
ATOM      4  O   UNL     1     173.380 172.585 155.112  1.00  0.00    -0.550 OA
ATOM      5  O   UNL     1     173.214 174.507 153.892  1.00  0.00    -0.550 OA
ENDBRANCH   2   3
BRANCH   2   6
ATOM      6  C   UNL     1     175.014 171.939 152.311  1.00  0.00     0.004 C 
ATOM      7  C   UNL     1     173.573 171.674 151.796  1.00  0.00     0.006 C 
ATOM      8  C   UNL     1     175.674 170.518 152.409  1.00  0.00    -0.020 C 
ATOM      9  C   UNL     1     173.428 170.150 151.612  1.00  0.00     0.012 C 
ATOM     10  C   UNL     1     174.468 169.540 152.568  1.00  0.00    -0.006 C 
ATOM     11  C   UNL     1     176.701 170.224 153.526  1.00  0.00     0.012 C 
ATOM     12  C   UNL     1     176.441 170.306 151.046  1.00  0.00     0.012 C 
ATOM     13  C   UNL     1     173.802 169.481 153.981  1.00  0.00     0.017 C 
ATOM     14  C   UNL     1     174.958 168.127 152.275  1.00  0.00    -0.064 C 
ATOM     15  C   UNL     1     176.926 168.691 153.734  1.00  0.00     0.032 C 
ATOM     16  C   UNL     1     176.177 167.735 152.764  1.00  0.00    -0.064 C 
ATOM     17  C   UNL     1     174.075 167.193 151.502  1.00  0.00     0.032 C 
ATOM     18  C   UNL     1     176.774 166.321 152.480  1.00  0.00    -0.008 C 
ATOM     19  C   UNL     1     174.341 165.748 151.886  1.00  0.00     0.009 C 
ATOM     20  C   UNL     1     175.818 165.398 151.593  1.00  0.00     0.007 C 
ATOM     21  C   UNL     1     177.025 165.670 153.871  1.00  0.00     0.014 C 
ATOM     22  C   UNL     1     178.118 166.538 151.721  1.00  0.00     0.016 C 
ATOM     23  C   UNL     1     176.118 163.830 151.646  1.00  0.00    -0.006 C 
ATOM     24  C   UNL     1     177.408 164.192 153.832  1.00  0.00     0.033 C 
ATOM     25  C   UNL     1     176.344 163.360 153.111  1.00  0.00     0.120 C 
ATOM     26  C   UNL     1     174.933 163.003 151.064  1.00  0.00     0.014 C 
ATOM     27  C   UNL     1     177.340 163.466 150.750  1.00  0.00     0.014 C 
BRANCH  25  28
ATOM     28  O   UNL     1     176.718 162.005 153.135  1.00  0.00    -0.393 OA
ATOM     29  H   UNL     1     177.466 161.920 153.782  1.00  0.00     0.210 HD
ENDBRANCH  25  28
ENDBRANCH   2   6
ENDBRANCH   1   2
BRANCH   1  30
ATOM     30  C   UNL     1     175.968 174.382 151.559  1.00  0.00     0.028 C 
BRANCH  30  31
ATOM     31  C   UNL     1     175.713 175.816 151.169  1.00  0.00    -0.028 C 
ATOM     32  C   UNL     1     174.513 176.299 150.778  1.00  0.00    -0.080 C 
ATOM     33  C   UNL     1     173.273 175.436 150.751  1.00  0.00     0.039 C 
ATOM     34  C   UNL     1     174.418 177.747 150.373  1.00  0.00     0.039 C 
ENDBRANCH  30  31
ENDBRANCH   1  30
TORSDOF 6
ENDMDL
MODEL 4
REMARK VINA RESULT:    -6.353      2.394      8.444
REMARK INTER + INTRA:          -9.996
REMARK INTER:                  -8.818
REMARK INTRA:                  -1.178
REMARK UNBOUND:                -1.600
REMARK SMILES CC(C)=CCC[C@@H](C(=O)[O-])[C@@H]1CC[C@@]2(C)C3=C(CC[C@]12C)[C@@]1(C)CC[C@H](O)C(C)(C)[C@H]1CC3
REMARK SMILES IDX 6 1 7 2 8 3 9 4 10 5 11 6 12 7 20 8 13 9 14 10 19 11 21 12
REMARK SMILES IDX 15 13 16 14 18 15 17 16 33 17 22 18 32 19 31 20 24 21 23 22
REMARK SMILES IDX 28 23 25 24 26 25 29 26 30 27 27 28 5 30 4 31 2 32 1 33 3 34
REMARK H PARENT 27 29
REMARK Flexibility Score: inf
ROOT
ATOM      1  C   UNL     1     174.899 173.782 162.383  1.00  0.00     0.014 C 
ENDROOT
BRANCH   1   2
ATOM      2  C   UNL     1     175.799 174.137 161.170  1.00  0.00     0.039 C 
BRANCH   2   3
ATOM      3  C   UNL     1     177.251 173.912 161.528  1.00  0.00     0.045 C 
ATOM      4  O   UNL     1     178.124 174.760 161.205  1.00  0.00    -0.550 OA
ATOM      5  O   UNL     1     177.632 172.812 162.289  1.00  0.00    -0.550 OA
ENDBRANCH   2   3
BRANCH   2   6
ATOM      6  C   UNL     1     175.299 173.397 159.877  1.00  0.00     0.004 C 
ATOM      7  C   UNL     1     176.207 172.257 159.340  1.00  0.00     0.006 C 
ATOM      8  C   UNL     1     174.921 174.240 158.608  1.00  0.00    -0.020 C 
ATOM      9  C   UNL     1     176.335 172.455 157.817  1.00  0.00     0.012 C 
ATOM     10  C   UNL     1     176.073 173.955 157.595  1.00  0.00    -0.006 C 
ATOM     11  C   UNL     1     174.737 175.770 158.731  1.00  0.00     0.012 C 
ATOM     12  C   UNL     1     173.533 173.673 158.114  1.00  0.00     0.012 C 
ATOM     13  C   UNL     1     177.426 174.693 157.854  1.00  0.00     0.017 C 
ATOM     14  C   UNL     1     175.610 174.397 156.211  1.00  0.00    -0.064 C 
ATOM     15  C   UNL     1     174.786 176.485 157.342  1.00  0.00     0.032 C 
ATOM     16  C   UNL     1     174.920 175.574 156.089  1.00  0.00    -0.064 C 
ATOM     17  C   UNL     1     175.965 173.557 155.020  1.00  0.00     0.032 C 
ATOM     18  C   UNL     1     174.375 176.084 154.718  1.00  0.00    -0.008 C 
ATOM     19  C   UNL     1     176.075 174.407 153.766  1.00  0.00     0.009 C 
ATOM     20  C   UNL     1     174.724 175.111 153.499  1.00  0.00     0.007 C 
ATOM     21  C   UNL     1     175.010 177.487 154.495  1.00  0.00     0.014 C 
ATOM     22  C   UNL     1     172.827 176.192 154.855  1.00  0.00     0.016 C 
ATOM     23  C   UNL     1     174.626 175.757 152.041  1.00  0.00    -0.006 C 
ATOM     24  C   UNL     1     174.785 178.084 153.108  1.00  0.00     0.033 C 
ATOM     25  C   UNL     1     175.309 177.154 152.010  1.00  0.00     0.120 C 
ATOM     26  C   UNL     1     175.328 174.866 150.975  1.00  0.00     0.014 C 
ATOM     27  C   UNL     1     173.143 175.853 151.573  1.00  0.00     0.014 C 
BRANCH  25  28
ATOM     28  O   UNL     1     175.119 177.761 150.756  1.00  0.00    -0.393 OA
ATOM     29  H   UNL     1     175.479 178.684 150.821  1.00  0.00     0.210 HD
ENDBRANCH  25  28
ENDBRANCH   2   6
ENDBRANCH   1   2
BRANCH   1  30
ATOM     30  C   UNL     1     174.091 174.986 162.894  1.00  0.00     0.028 C 
BRANCH  30  31
ATOM     31  C   UNL     1     174.845 175.711 163.980  1.00  0.00    -0.028 C 
ATOM     32  C   UNL     1     175.530 176.862 163.797  1.00  0.00    -0.080 C 
ATOM     33  C   UNL     1     175.555 177.574 162.465  1.00  0.00     0.039 C 
ATOM     34  C   UNL     1     176.275 177.449 164.967  1.00  0.00     0.039 C 
ENDBRANCH  30  31
ENDBRANCH   1  30
TORSDOF 6
ENDMDL
MODEL 5
REMARK VINA RESULT:    -6.340      1.991      4.231
REMARK INTER + INTRA:          -9.978
REMARK INTER:                  -8.817
REMARK INTRA:                  -1.161
REMARK UNBOUND:                -1.600
REMARK SMILES CC(C)=CCC[C@@H](C(=O)[O-])[C@@H]1CC[C@@]2(C)C3=C(CC[C@]12C)[C@@]1(C)CC[C@H](O)C(C)(C)[C@H]1CC3
REMARK SMILES IDX 6 1 7 2 8 3 9 4 10 5 11 6 12 7 20 8 13 9 14 10 19 11 21 12
REMARK SMILES IDX 15 13 16 14 18 15 17 16 33 17 22 18 32 19 31 20 24 21 23 22
REMARK SMILES IDX 28 23 25 24 26 25 29 26 30 27 27 28 5 30 4 31 2 32 1 33 3 34
REMARK H PARENT 27 29
REMARK Flexibility Score: inf
ROOT
ATOM      1  C   UNL     1     174.855 172.428 150.417  1.00  0.00     0.014 C 
ENDROOT
BRANCH   1   2
ATOM      2  C   UNL     1     175.567 173.037 151.653  1.00  0.00     0.039 C 
BRANCH   2   3
ATOM      3  C   UNL     1     176.277 174.313 151.257  1.00  0.00     0.045 C 
ATOM      4  O   UNL     1     177.533 174.385 151.315  1.00  0.00    -0.550 OA
ATOM      5  O   UNL     1     175.564 175.391 150.744  1.00  0.00    -0.550 OA
ENDBRANCH   2   3
BRANCH   2   6
ATOM      6  C   UNL     1     174.566 173.167 152.858  1.00  0.00     0.004 C 
ATOM      7  C   UNL     1     173.530 174.320 152.772  1.00  0.00     0.006 C 
ATOM      8  C   UNL     1     175.132 173.243 154.320  1.00  0.00    -0.020 C 
ATOM      9  C   UNL     1     173.516 175.023 154.144  1.00  0.00     0.012 C 
ATOM     10  C   UNL     1     174.898 174.725 154.750  1.00  0.00    -0.006 C 
ATOM     11  C   UNL     1     176.609 172.876 154.591  1.00  0.00     0.012 C 
ATOM     12  C   UNL     1     174.269 172.229 155.167  1.00  0.00     0.012 C 
ATOM     13  C   UNL     1     175.887 175.784 154.164  1.00  0.00     0.017 C 
ATOM     14  C   UNL     1     175.041 174.809 156.265  1.00  0.00    -0.064 C 
ATOM     15  C   UNL     1     177.105 173.403 155.977  1.00  0.00     0.032 C 
ATOM     16  C   UNL     1     176.052 174.112 156.874  1.00  0.00    -0.064 C 
ATOM     17  C   UNL     1     174.104 175.689 157.039  1.00  0.00     0.032 C 
ATOM     18  C   UNL     1     176.249 174.110 158.423  1.00  0.00    -0.008 C 
ATOM     19  C   UNL     1     174.763 176.203 158.308  1.00  0.00     0.009 C 
ATOM     20  C   UNL     1     175.178 175.008 159.197  1.00  0.00     0.007 C 
ATOM     21  C   UNL     1     177.690 174.640 158.676  1.00  0.00     0.014 C 
ATOM     22  C   UNL     1     176.111 172.632 158.897  1.00  0.00     0.016 C 
ATOM     23  C   UNL     1     175.571 175.435 160.685  1.00  0.00    -0.006 C 
ATOM     24  C   UNL     1     178.024 174.927 160.138  1.00  0.00     0.033 C 
ATOM     25  C   UNL     1     177.043 175.933 160.746  1.00  0.00     0.120 C 
ATOM     26  C   UNL     1     174.662 176.586 161.207  1.00  0.00     0.014 C 
ATOM     27  C   UNL     1     175.341 174.258 161.680  1.00  0.00     0.014 C 
BRANCH  25  28
ATOM     28  O   UNL     1     177.412 176.198 162.076  1.00  0.00    -0.393 OA
ATOM     29  H   UNL     1     178.080 175.510 162.336  1.00  0.00     0.210 HD
ENDBRANCH  25  28
ENDBRANCH   2   6
ENDBRANCH   1   2
BRANCH   1  30
ATOM     30  C   UNL     1     174.588 170.921 150.568  1.00  0.00     0.028 C 
BRANCH  30  31
ATOM     31  C   UNL     1     175.880 170.171 150.775  1.00  0.00    -0.028 C 
ATOM     32  C   UNL     1     176.173 169.445 151.877  1.00  0.00    -0.080 C 
ATOM     33  C   UNL     1     175.185 169.270 153.006  1.00  0.00     0.039 C 
ATOM     34  C   UNL     1     177.525 168.784 151.964  1.00  0.00     0.039 C 
ENDBRANCH  30  31
ENDBRANCH   1  30
TORSDOF 6
ENDMDL
MODEL 6
REMARK VINA RESULT:    -6.314      1.957      8.539
REMARK INTER + INTRA:          -9.944
REMARK INTER:                  -8.886
REMARK INTRA:                  -1.057
REMARK UNBOUND:                -1.600
REMARK SMILES CC(C)=CCC[C@@H](C(=O)[O-])[C@@H]1CC[C@@]2(C)C3=C(CC[C@]12C)[C@@]1(C)CC[C@H](O)C(C)(C)[C@H]1CC3
REMARK SMILES IDX 6 1 7 2 8 3 9 4 10 5 11 6 12 7 20 8 13 9 14 10 19 11 21 12
REMARK SMILES IDX 15 13 16 14 18 15 17 16 33 17 22 18 32 19 31 20 24 21 23 22
REMARK SMILES IDX 28 23 25 24 26 25 29 26 30 27 27 28 5 30 4 31 2 32 1 33 3 34
REMARK H PARENT 27 29
REMARK Flexibility Score: inf
ROOT
ATOM      1  C   UNL     1     174.732 176.143 160.349  1.00  0.00     0.014 C 
ENDROOT
BRANCH   1   2
ATOM      2  C   UNL     1     175.788 175.351 159.534  1.00  0.00     0.039 C 
BRANCH   2   3
ATOM      3  C   UNL     1     176.936 174.955 160.436  1.00  0.00     0.045 C 
ATOM      4  O   UNL     1     178.125 175.058 160.032  1.00  0.00    -0.550 OA
ATOM      5  O   UNL     1     176.704 174.553 161.746  1.00  0.00    -0.550 OA
ENDBRANCH   2   3
BRANCH   2   6
ATOM      6  C   UNL     1     175.108 174.172 158.749  1.00  0.00     0.004 C 
ATOM      7  C   UNL     1     175.546 172.736 159.145  1.00  0.00     0.006 C 
ATOM      8  C   UNL     1     175.132 174.182 157.179  1.00  0.00    -0.020 C 
ATOM      9  C   UNL     1     175.810 171.963 157.837  1.00  0.00     0.012 C 
ATOM     10  C   UNL     1     176.139 173.051 156.800  1.00  0.00    -0.006 C 
ATOM     11  C   UNL     1     175.529 175.472 156.426  1.00  0.00     0.012 C 
ATOM     12  C   UNL     1     173.658 173.848 156.725  1.00  0.00     0.012 C 
ATOM     13  C   UNL     1     177.656 173.388 156.964  1.00  0.00     0.017 C 
ATOM     14  C   UNL     1     175.940 172.711 155.328  1.00  0.00    -0.064 C 
ATOM     15  C   UNL     1     175.907 175.194 154.935  1.00  0.00     0.032 C 
ATOM     16  C   UNL     1     175.748 173.731 154.433  1.00  0.00    -0.064 C 
ATOM     17  C   UNL     1     176.009 171.277 154.894  1.00  0.00     0.032 C 
ATOM     18  C   UNL     1     175.498 173.472 152.914  1.00  0.00    -0.008 C 
ATOM     19  C   UNL     1     176.488 171.164 153.457  1.00  0.00     0.009 C 
ATOM     20  C   UNL     1     175.513 171.923 152.526  1.00  0.00     0.007 C 
ATOM     21  C   UNL     1     176.621 174.236 152.155  1.00  0.00     0.014 C 
ATOM     22  C   UNL     1     174.098 174.068 152.575  1.00  0.00     0.016 C 
ATOM     23  C   UNL     1     175.732 171.593 150.979  1.00  0.00    -0.006 C 
ATOM     24  C   UNL     1     176.701 173.945 150.658  1.00  0.00     0.033 C 
ATOM     25  C   UNL     1     176.889 172.450 150.390  1.00  0.00     0.120 C 
ATOM     26  C   UNL     1     176.098 170.095 150.761  1.00  0.00     0.014 C 
ATOM     27  C   UNL     1     174.416 171.807 150.172  1.00  0.00     0.014 C 
BRANCH  25  28
ATOM     28  O   UNL     1     176.998 172.235 149.005  1.00  0.00    -0.393 OA
ATOM     29  H   UNL     1     177.357 171.317 148.880  1.00  0.00     0.210 HD
ENDBRANCH  25  28
ENDBRANCH   2   6
ENDBRANCH   1   2
BRANCH   1  30
ATOM     30  C   UNL     1     175.231 177.535 160.772  1.00  0.00     0.028 C 
BRANCH  30  31
ATOM     31  C   UNL     1     174.950 177.779 162.234  1.00  0.00    -0.028 C 
ATOM     32  C   UNL     1     175.904 177.920 163.181  1.00  0.00    -0.080 C 
ATOM     33  C   UNL     1     177.376 177.902 162.843  1.00  0.00     0.039 C 
ATOM     34  C   UNL     1     175.473 178.115 164.612  1.00  0.00     0.039 C 
ENDBRANCH  30  31
ENDBRANCH   1  30
TORSDOF 6
ENDMDL
MODEL 7
REMARK VINA RESULT:    -6.227      2.342      8.323
REMARK INTER + INTRA:          -9.829
REMARK INTER:                  -8.495
REMARK INTRA:                  -1.334
REMARK UNBOUND:                -1.600
REMARK SMILES CC(C)=CCC[C@@H](C(=O)[O-])[C@@H]1CC[C@@]2(C)C3=C(CC[C@]12C)[C@@]1(C)CC[C@H](O)C(C)(C)[C@H]1CC3
REMARK SMILES IDX 6 1 7 2 8 3 9 4 10 5 11 6 12 7 20 8 13 9 14 10 19 11 21 12
REMARK SMILES IDX 15 13 16 14 18 15 17 16 33 17 22 18 32 19 31 20 24 21 23 22
REMARK SMILES IDX 28 23 25 24 26 25 29 26 30 27 27 28 5 30 4 31 2 32 1 33 3 34
REMARK H PARENT 27 29
REMARK Flexibility Score: inf
ROOT
ATOM      1  C   UNL     1     177.334 173.913 161.702  1.00  0.00     0.014 C 
ENDROOT
BRANCH   1   2
ATOM      2  C   UNL     1     176.584 173.201 160.545  1.00  0.00     0.039 C 
BRANCH   2   3
ATOM      3  C   UNL     1     176.251 171.782 160.950  1.00  0.00     0.045 C 
ATOM      4  O   UNL     1     176.398 170.837 160.130  1.00  0.00    -0.550 OA
ATOM      5  O   UNL     1     175.859 171.489 162.251  1.00  0.00    -0.550 OA
ENDBRANCH   2   3
BRANCH   2   6
ATOM      6  C   UNL     1     175.367 174.069 160.060  1.00  0.00     0.004 C 
ATOM      7  C   UNL     1     173.963 173.418 160.183  1.00  0.00     0.006 C 
ATOM      8  C   UNL     1     175.396 174.693 158.619  1.00  0.00    -0.020 C 
ATOM      9  C   UNL     1     173.226 173.668 158.851  1.00  0.00     0.012 C 
ATOM     10  C   UNL     1     174.347 173.862 157.815  1.00  0.00    -0.006 C 
ATOM     11  C   UNL     1     176.721 174.722 157.822  1.00  0.00     0.012 C 
ATOM     12  C   UNL     1     174.961 176.199 158.795  1.00  0.00     0.012 C 
ATOM     13  C   UNL     1     174.792 172.436 157.358  1.00  0.00     0.017 C 
ATOM     14  C   UNL     1     174.010 174.627 156.541  1.00  0.00    -0.064 C 
ATOM     15  C   UNL     1     176.488 174.974 156.298  1.00  0.00     0.032 C 
ATOM     16  C   UNL     1     175.023 175.233 155.846  1.00  0.00    -0.064 C 
ATOM     17  C   UNL     1     172.589 174.653 156.060  1.00  0.00     0.032 C 
ATOM     18  C   UNL     1     174.764 176.069 154.553  1.00  0.00    -0.008 C 
ATOM     19  C   UNL     1     172.528 174.801 154.549  1.00  0.00     0.009 C 
ATOM     20  C   UNL     1     173.224 176.118 154.131  1.00  0.00     0.007 C 
ATOM     21  C   UNL     1     175.616 175.406 153.432  1.00  0.00     0.014 C 
ATOM     22  C   UNL     1     175.258 177.518 154.841  1.00  0.00     0.016 C 
ATOM     23  C   UNL     1     172.928 176.534 152.617  1.00  0.00    -0.006 C 
ATOM     24  C   UNL     1     175.349 175.931 152.023  1.00  0.00     0.033 C 
ATOM     25  C   UNL     1     173.874 175.777 151.642  1.00  0.00     0.120 C 
ATOM     26  C   UNL     1     171.464 176.197 152.208  1.00  0.00     0.014 C 
ATOM     27  C   UNL     1     173.054 178.076 152.429  1.00  0.00     0.014 C 
BRANCH  25  28
ATOM     28  O   UNL     1     173.683 176.233 150.326  1.00  0.00    -0.393 OA
ATOM     29  H   UNL     1     174.000 177.174 150.295  1.00  0.00     0.210 HD
ENDBRANCH  25  28
ENDBRANCH   2   6
ENDBRANCH   1   2
BRANCH   1  30
ATOM     30  C   UNL     1     177.904 175.279 161.287  1.00  0.00     0.028 C 
BRANCH  30  31
ATOM     31  C   UNL     1     178.125 176.153 162.496  1.00  0.00    -0.028 C 
ATOM     32  C   UNL     1     177.456 177.302 162.740  1.00  0.00    -0.080 C 
ATOM     33  C   UNL     1     176.358 177.798 161.829  1.00  0.00     0.039 C 
ATOM     34  C   UNL     1     177.816 178.096 163.969  1.00  0.00     0.039 C 
ENDBRANCH  30  31
ENDBRANCH   1  30
TORSDOF 6
ENDMDL
MODEL 8
REMARK VINA RESULT:    -6.165      6.543     10.548
REMARK INTER + INTRA:          -9.747
REMARK INTER:                  -8.254
REMARK INTRA:                  -1.494
REMARK UNBOUND:                -1.600
REMARK SMILES CC(C)=CCC[C@@H](C(=O)[O-])[C@@H]1CC[C@@]2(C)C3=C(CC[C@]12C)[C@@]1(C)CC[C@H](O)C(C)(C)[C@H]1CC3
REMARK SMILES IDX 6 1 7 2 8 3 9 4 10 5 11 6 12 7 20 8 13 9 14 10 19 11 21 12
REMARK SMILES IDX 15 13 16 14 18 15 17 16 33 17 22 18 32 19 31 20 24 21 23 22
REMARK SMILES IDX 28 23 25 24 26 25 29 26 30 27 27 28 5 30 4 31 2 32 1 33 3 34
REMARK H PARENT 27 29
REMARK Flexibility Score: inf
ROOT
ATOM      1  C   UNL     1     174.871 161.825 154.601  1.00  0.00     0.014 C 
ENDROOT
BRANCH   1   2
ATOM      2  C   UNL     1     175.700 163.123 154.785  1.00  0.00     0.039 C 
BRANCH   2   3
ATOM      3  C   UNL     1     176.907 162.839 155.651  1.00  0.00     0.045 C 
ATOM      4  O   UNL     1     177.326 163.707 156.461  1.00  0.00    -0.550 OA
ATOM      5  O   UNL     1     177.519 161.590 155.628  1.00  0.00    -0.550 OA
ENDBRANCH   2   3
BRANCH   2   6
ATOM      6  C   UNL     1     176.008 163.783 153.392  1.00  0.00     0.004 C 
ATOM      7  C   UNL     1     177.505 163.894 152.998  1.00  0.00     0.006 C 
ATOM      8  C   UNL     1     175.399 165.191 153.060  1.00  0.00    -0.020 C 
ATOM      9  C   UNL     1     177.731 165.322 152.461  1.00  0.00     0.012 C 
ATOM     10  C   UNL     1     176.619 166.164 153.112  1.00  0.00    -0.006 C 
ATOM     11  C   UNL     1     174.269 165.767 153.945  1.00  0.00     0.012 C 
ATOM     12  C   UNL     1     174.793 165.065 151.608  1.00  0.00     0.012 C 
ATOM     13  C   UNL     1     177.129 166.565 154.533  1.00  0.00     0.017 C 
ATOM     14  C   UNL     1     176.220 167.464 152.425  1.00  0.00    -0.064 C 
ATOM     15  C   UNL     1     174.085 167.305 153.742  1.00  0.00     0.032 C 
ATOM     16  C   UNL     1     174.972 167.981 152.659  1.00  0.00    -0.064 C 
ATOM     17  C   UNL     1     177.219 168.165 151.552  1.00  0.00     0.032 C 
ATOM     18  C   UNL     1     174.467 169.286 151.968  1.00  0.00    -0.008 C 
ATOM     19  C   UNL     1     176.972 169.664 151.536  1.00  0.00     0.009 C 
ATOM     20  C   UNL     1     175.550 169.947 150.997  1.00  0.00     0.007 C 
ATOM     21  C   UNL     1     174.093 170.267 153.117  1.00  0.00     0.014 C 
ATOM     22  C   UNL     1     173.206 168.903 151.136  1.00  0.00     0.016 C 
ATOM     23  C   UNL     1     175.310 171.483 150.627  1.00  0.00    -0.006 C 
ATOM     24  C   UNL     1     173.776 171.693 152.672  1.00  0.00     0.033 C 
ATOM     25  C   UNL     1     174.945 172.306 151.895  1.00  0.00     0.120 C 
ATOM     26  C   UNL     1     176.583 172.124 150.000  1.00  0.00     0.014 C 
ATOM     27  C   UNL     1     174.207 171.626 149.535  1.00  0.00     0.014 C 
BRANCH  25  28
ATOM     28  O   UNL     1     174.626 173.629 151.542  1.00  0.00    -0.393 OA
ATOM     29  H   UNL     1     173.671 173.771 151.778  1.00  0.00     0.210 HD
ENDBRANCH  25  28
ENDBRANCH   2   6
ENDBRANCH   1   2
BRANCH   1  30
ATOM     30  C   UNL     1     175.251 161.055 153.325  1.00  0.00     0.028 C 
BRANCH  30  31
ATOM     31  C   UNL     1     174.195 161.232 152.263  1.00  0.00    -0.028 C 
ATOM     32  C   UNL     1     174.455 161.357 150.942  1.00  0.00    -0.080 C 
ATOM     33  C   UNL     1     175.859 161.272 150.391  1.00  0.00     0.039 C 
ATOM     34  C   UNL     1     173.300 161.574 149.999  1.00  0.00     0.039 C 
ENDBRANCH  30  31
ENDBRANCH   1  30
TORSDOF 6
ENDMDL
MODEL 9
REMARK VINA RESULT:    -6.160      4.299      8.460
REMARK INTER + INTRA:          -9.740
REMARK INTER:                  -8.309
REMARK INTRA:                  -1.432
REMARK UNBOUND:                -1.600
REMARK SMILES CC(C)=CCC[C@@H](C(=O)[O-])[C@@H]1CC[C@@]2(C)C3=C(CC[C@]12C)[C@@]1(C)CC[C@H](O)C(C)(C)[C@H]1CC3
REMARK SMILES IDX 6 1 7 2 8 3 9 4 10 5 11 6 12 7 20 8 13 9 14 10 19 11 21 12
REMARK SMILES IDX 15 13 16 14 18 15 17 16 33 17 22 18 32 19 31 20 24 21 23 22
REMARK SMILES IDX 28 23 25 24 26 25 29 26 30 27 27 28 5 30 4 31 2 32 1 33 3 34
REMARK H PARENT 27 29
REMARK Flexibility Score: inf
ROOT
ATOM      1  C   UNL     1     176.037 172.654 154.534  1.00  0.00     0.014 C 
ENDROOT
BRANCH   1   2
ATOM      2  C   UNL     1     175.024 173.809 154.750  1.00  0.00     0.039 C 
BRANCH   2   3
ATOM      3  C   UNL     1     175.632 174.858 155.653  1.00  0.00     0.045 C 
ATOM      4  O   UNL     1     174.910 175.491 156.468  1.00  0.00    -0.550 OA
ATOM      5  O   UNL     1     177.005 175.082 155.659  1.00  0.00    -0.550 OA
ENDBRANCH   2   3
BRANCH   2   6
ATOM      6  C   UNL     1     174.485 174.335 153.371  1.00  0.00     0.004 C 
ATOM      7  C   UNL     1     174.827 175.806 153.012  1.00  0.00     0.006 C 
ATOM      8  C   UNL     1     172.958 174.185 153.037  1.00  0.00    -0.020 C 
ATOM      9  C   UNL     1     173.532 176.463 152.494  1.00  0.00     0.012 C 
ATOM     10  C   UNL     1     172.396 175.638 153.126  1.00  0.00    -0.006 C 
ATOM     11  C   UNL     1     172.071 173.258 153.901  1.00  0.00     0.012 C 
ATOM     12  C   UNL     1     172.894 173.606 151.571  1.00  0.00     0.012 C 
ATOM     13  C   UNL     1     172.169 176.210 154.562  1.00  0.00     0.017 C 
ATOM     14  C   UNL     1     171.035 175.665 152.442  1.00  0.00    -0.064 C 
ATOM     15  C   UNL     1     170.548 173.548 153.707  1.00  0.00     0.032 C 
ATOM     16  C   UNL     1     170.168 174.624 152.651  1.00  0.00    -0.064 C 
ATOM     17  C   UNL     1     170.665 176.850 151.599  1.00  0.00     0.032 C 
ATOM     18  C   UNL     1     168.770 174.551 151.960  1.00  0.00    -0.008 C 
ATOM     19  C   UNL     1     169.161 177.064 151.590  1.00  0.00     0.009 C 
ATOM     20  C   UNL     1     168.463 175.806 151.022  1.00  0.00     0.007 C 
ATOM     21  C   UNL     1     167.725 174.460 153.110  1.00  0.00     0.014 C 
ATOM     22  C   UNL     1     168.757 173.254 151.097  1.00  0.00     0.016 C 
ATOM     23  C   UNL     1     166.925 176.047 150.660  1.00  0.00    -0.006 C 
ATOM     24  C   UNL     1     166.269 174.597 152.670  1.00  0.00     0.033 C 
ATOM     25  C   UNL     1     166.033 175.914 151.926  1.00  0.00     0.120 C 
ATOM     26  C   UNL     1     166.695 177.469 150.068  1.00  0.00     0.014 C 
ATOM     27  C   UNL     1     166.457 175.066 149.543  1.00  0.00     0.014 C 
BRANCH  25  28
ATOM     28  O   UNL     1     164.675 176.015 151.577  1.00  0.00    -0.393 OA
ATOM     29  H   UNL     1     164.455 176.983 151.538  1.00  0.00     0.210 HD
ENDBRANCH  25  28
ENDBRANCH   2   6
ENDBRANCH   1   2
BRANCH   1  30
ATOM     30  C   UNL     1     176.905 172.854 153.280  1.00  0.00     0.028 C 
BRANCH  30  31
ATOM     31  C   UNL     1     176.442 171.953 152.163  1.00  0.00    -0.028 C 
ATOM     32  C   UNL     1     176.441 172.298 150.856  1.00  0.00    -0.080 C 
ATOM     33  C   UNL     1     176.971 173.629 150.378  1.00  0.00     0.039 C 
ATOM     34  C   UNL     1     175.906 171.309 149.852  1.00  0.00     0.039 C 
ENDBRANCH  30  31
ENDBRANCH   1  30
TORSDOF 6
ENDMDL
