MODEL 1
REMARK VINA RESULT:     2.159      0.000      0.000
REMARK INTER + INTRA:           2.866
REMARK INTER:                   3.547
REMARK INTRA:                  -0.681
REMARK UNBOUND:                -0.681
REMARK SMILES C[C@H]1O[C@H](OC[C@H]2O[C@H](Oc3c(-c4ccc(O)c(O)c4)oc4cc(O)cc(O)c4c3=O)[C@@H](O)[C@H](O)[C@H]2O)[C@@H](O)[C@@H](O)[C@H]1O
REMARK SMILES IDX 7 1 36 2 34 3 32 4 9 5 8 6 6 7 5 8 4 9 1 10 2 11 42 12 3 13
REMARK SMILES IDX 40 14 38 15 43 16 41 18 39 20 37 22 35 24 10 26 11 27 12 28
REMARK SMILES IDX 30 29 21 30 29 31 31 32 22 33 27 34 23 35 26 36 24 37 13 38
REMARK SMILES IDX 20 39 14 40 18 41 15 42 16 43 19 44 17 46 28 48 25 50 33 52
REMARK H PARENT 43 17 41 19 39 21 37 23 35 25 19 45 17 47 28 49 25 51 33 53
REMARK Flexibility Score: inf
ROOT
ATOM      1  C   UNL     1      45.442  39.338 102.414  1.00  0.00     0.180 C 
ATOM      2  C   UNL     1      46.765  39.505 103.273  1.00  0.00     0.177 C 
ATOM      3  C   UNL     1      47.798  38.403 102.895  1.00  0.00     0.180 C 
ATOM      4  C   UNL     1      47.782  38.217 101.375  1.00  0.00     0.214 C 
ATOM      5  C   UNL     1      46.385  37.731 100.913  1.00  0.00     0.339 C 
ATOM      6  O   UNL     1      45.342  38.040 101.837  1.00  0.00    -0.332 OA
ENDROOT
BRANCH   1   7
ATOM      7  C   UNL     1      45.101  40.435 101.369  1.00  0.00     0.198 C 
BRANCH   7   8
ATOM      8  O   UNL     1      45.437  41.736 101.804  1.00  0.00    -0.347 OA
BRANCH   8   9
ATOM      9  C   UNL     1      45.779  42.624 100.741  1.00  0.00     0.281 C 
ATOM     10  C   UNL     1      43.205  45.200 101.329  1.00  0.00     0.041 C 
ATOM     11  C   UNL     1      44.435  44.334 101.625  1.00  0.00     0.150 C 
ATOM     12  C   UNL     1      45.641  45.202 102.083  1.00  0.00     0.174 C 
ATOM     13  O   UNL     1      44.743  43.556 100.475  1.00  0.00    -0.344 OA
ATOM     14  C   UNL     1      46.877  44.307 102.286  1.00  0.00     0.179 C 
ATOM     15  C   UNL     1      47.100  43.353 101.089  1.00  0.00     0.202 C 
BRANCH  12  16
ATOM     16  O   UNL     1      45.907  46.265 101.194  1.00  0.00    -0.388 OA
ATOM     17  H   UNL     1      46.887  46.349 101.103  1.00  0.00     0.211 HD
ENDBRANCH  12  16
BRANCH  14  18
ATOM     18  O   UNL     1      48.019  45.100 102.498  1.00  0.00    -0.387 OA
ATOM     19  H   UNL     1      48.760  44.491 102.763  1.00  0.00     0.211 HD
ENDBRANCH  14  18
BRANCH  15  20
ATOM     20  O   UNL     1      47.553  44.054  99.955  1.00  0.00    -0.385 OA
ATOM     21  H   UNL     1      48.548  44.071 100.003  1.00  0.00     0.211 HD
ENDBRANCH  15  20
ENDBRANCH   8   9
ENDBRANCH   7   8
ENDBRANCH   1   7
BRANCH   2  22
ATOM     22  O   UNL     1      47.410  40.759 103.173  1.00  0.00    -0.387 OA
ATOM     23  H   UNL     1      47.613  41.081 104.074  1.00  0.00     0.211 HD
ENDBRANCH   2  22
BRANCH   3  24
ATOM     24  O   UNL     1      47.568  37.153 103.509  1.00  0.00    -0.387 OA
ATOM     25  H   UNL     1      46.685  36.817 103.225  1.00  0.00     0.211 HD
ENDBRANCH   3  24
BRANCH   5  26
ATOM     26  O   UNL     1      46.447  36.306 100.788  1.00  0.00    -0.454 OA
BRANCH  26  27
ATOM     27  C   UNL     1      46.473  35.504  99.630  1.00  0.00     0.214 A 
ATOM     28  C   UNL     1      46.542  34.080  99.612  1.00  0.00     0.180 A 
ATOM     29  C   UNL     1      46.450  36.174  98.401  1.00  0.00     0.239 A 
ATOM     30  O   UNL     1      46.452  33.432  98.455  1.00  0.00    -0.452 OA
ATOM     31  C   UNL     1      46.378  35.452  97.198  1.00  0.00     0.111 A 
ATOM     32  O   UNL     1      46.454  37.431  98.396  1.00  0.00    -0.285 OA
ATOM     33  C   UNL     1      46.360  34.043  97.279  1.00  0.00     0.146 A 
ATOM     34  C   UNL     1      46.284  36.070  95.930  1.00  0.00     0.134 A 
ATOM     35  C   UNL     1      46.219  33.274  96.121  1.00  0.00     0.094 A 
ATOM     36  C   UNL     1      46.172  35.273  94.779  1.00  0.00     0.093 A 
ATOM     37  C   UNL     1      46.127  33.883  94.868  1.00  0.00     0.123 A 
BRANCH  28  38
ATOM     38  C   UNL     1      46.723  33.247 100.802  1.00  0.00     0.025 A 
ATOM     39  C   UNL     1      45.752  32.294 101.136  1.00  0.00     0.062 A 
ATOM     40  C   UNL     1      47.913  33.311 101.529  1.00  0.00     0.016 A 
ATOM     41  C   UNL     1      45.931  31.452 102.251  1.00  0.00     0.158 A 
ATOM     42  C   UNL     1      48.116  32.450 102.615  1.00  0.00     0.051 A 
ATOM     43  C   UNL     1      47.118  31.540 103.001  1.00  0.00     0.157 A 
BRANCH  41  44
ATOM     44  O   UNL     1      44.940  30.524 102.593  1.00  0.00    -0.504 OA
ATOM     45  H   UNL     1      44.162  30.776 103.199  1.00  0.00     0.293 HD
ENDBRANCH  41  44
BRANCH  43  46
ATOM     46  O   UNL     1      47.325  30.727 104.112  1.00  0.00    -0.504 OA
ATOM     47  H   UNL     1      47.188  29.727 104.063  1.00  0.00     0.293 HD
ENDBRANCH  43  46
ENDBRANCH  28  38
BRANCH  34  48
ATOM     48  O   UNL     1      46.284  37.462  95.800  1.00  0.00    -0.507 OA
ATOM     49  H   UNL     1      45.478  38.027  96.103  1.00  0.00     0.293 HD
ENDBRANCH  34  48
BRANCH  37  50
ATOM     50  O   UNL     1      45.998  33.122  93.710  1.00  0.00    -0.508 OA
ATOM     51  H   UNL     1      45.876  32.109  93.749  1.00  0.00     0.293 HD
ENDBRANCH  37  50
ENDBRANCH  26  27
ENDBRANCH   5  26
BRANCH   4  52
ATOM     52  O   UNL     1      48.116  39.413 100.716  1.00  0.00    -0.384 OA
ATOM     53  H   UNL     1      47.297  39.720 100.232  1.00  0.00     0.211 HD
ENDBRANCH   4  52
TORSDOF 16
ENDMDL
