MODEL 1
REMARK VINA RESULT:    -1.412      0.000      0.000
REMARK INTER + INTRA:          -1.647
REMARK INTER:                  -1.577
REMARK INTRA:                  -0.069
REMARK UNBOUND:                -0.069
REMARK SMILES CCCC(=O)[O-]
REMARK SMILES IDX 3 1 4 2 5 3 6 4 2 5 1 6
REMARK H PARENT
REMARK Flexibility Score: inf
ROOT
ATOM      1  C   UNL     1     139.612  56.898 -12.492  1.00  0.00     0.052 C 
ENDROOT
BRANCH   1   2
ATOM      2  C   UNL     1     140.131  55.557 -12.916  1.00  0.00     0.041 C 
ATOM      3  O   UNL     1     139.385  54.544 -12.872  1.00  0.00    -0.550 OA
ATOM      4  O   UNL     1     141.431  55.434 -13.391  1.00  0.00    -0.550 OA
ENDBRANCH   1   2
BRANCH   1   5
ATOM      5  C   UNL     1     139.288  56.932 -10.993  1.00  0.00     0.003 C 
ATOM      6  C   UNL     1     140.539  56.806 -10.125  1.00  0.00     0.004 C 
ENDBRANCH   1   5
TORSDOF 2
ENDMDL
MODEL 2
REMARK VINA RESULT:    -1.401      0.087      1.324
REMARK INTER + INTRA:          -1.634
REMARK INTER:                  -1.564
REMARK INTRA:                  -0.070
REMARK UNBOUND:                -0.069
REMARK SMILES CCCC(=O)[O-]
REMARK SMILES IDX 3 1 4 2 5 3 6 4 2 5 1 6
REMARK H PARENT
REMARK Flexibility Score: inf
ROOT
ATOM      1  C   UNL     1     139.629  56.905 -12.473  1.00  0.00     0.052 C 
ENDROOT
BRANCH   1   2
ATOM      2  C   UNL     1     140.146  55.568 -12.911  1.00  0.00     0.041 C 
ATOM      3  O   UNL     1     141.314  55.458 -13.368  1.00  0.00    -0.550 OA
ATOM      4  O   UNL     1     139.347  54.438 -12.784  1.00  0.00    -0.550 OA
ENDBRANCH   1   2
BRANCH   1   5
ATOM      5  C   UNL     1     139.279  56.916 -10.980  1.00  0.00     0.003 C 
ATOM      6  C   UNL     1     140.509  56.728 -10.093  1.00  0.00     0.004 C 
ENDBRANCH   1   5
TORSDOF 2
ENDMDL
MODEL 3
REMARK VINA RESULT:    -1.374      1.391      1.599
REMARK INTER + INTRA:          -1.604
REMARK INTER:                  -1.588
REMARK INTRA:                  -0.016
REMARK UNBOUND:                -0.069
REMARK SMILES CCCC(=O)[O-]
REMARK SMILES IDX 3 1 4 2 5 3 6 4 2 5 1 6
REMARK H PARENT
REMARK Flexibility Score: inf
ROOT
ATOM      1  C   UNL     1     139.490  56.816 -11.270  1.00  0.00     0.052 C 
ENDROOT
BRANCH   1   2
ATOM      2  C   UNL     1     139.941  56.329 -12.613  1.00  0.00     0.041 C 
ATOM      3  O   UNL     1     139.556  55.210 -13.046  1.00  0.00    -0.550 OA
ATOM      4  O   UNL     1     140.763  57.125 -13.402  1.00  0.00    -0.550 OA
ENDBRANCH   1   2
BRANCH   1   5
ATOM      5  C   UNL     1     139.158  55.652 -10.327  1.00  0.00     0.003 C 
ATOM      6  C   UNL     1     138.111  56.032  -9.281  1.00  0.00     0.004 C 
ENDBRANCH   1   5
TORSDOF 2
ENDMDL
MODEL 4
REMARK VINA RESULT:    -1.356      1.569      1.952
REMARK INTER + INTRA:          -1.584
REMARK INTER:                  -1.531
REMARK INTRA:                  -0.053
REMARK UNBOUND:                -0.069
REMARK SMILES CCCC(=O)[O-]
REMARK SMILES IDX 3 1 4 2 5 3 6 4 2 5 1 6
REMARK H PARENT
REMARK Flexibility Score: inf
ROOT
ATOM      1  C   UNL     1     139.791  55.366 -11.972  1.00  0.00     0.052 C 
ENDROOT
BRANCH   1   2
ATOM      2  C   UNL     1     139.805  54.271 -12.995  1.00  0.00     0.041 C 
ATOM      3  O   UNL     1     138.748  53.955 -13.601  1.00  0.00    -0.550 OA
ATOM      4  O   UNL     1     140.994  53.622 -13.303  1.00  0.00    -0.550 OA
ENDBRANCH   1   2
BRANCH   1   5
ATOM      5  C   UNL     1     139.707  56.751 -12.624  1.00  0.00     0.003 C 
ATOM      6  C   UNL     1     140.991  57.125 -13.364  1.00  0.00     0.004 C 
ENDBRANCH   1   5
TORSDOF 2
ENDMDL
MODEL 5
REMARK VINA RESULT:    -1.320      2.390      2.958
REMARK INTER + INTRA:          -1.543
REMARK INTER:                  -1.505
REMARK INTRA:                  -0.038
REMARK UNBOUND:                -0.069
REMARK SMILES CCCC(=O)[O-]
REMARK SMILES IDX 3 1 4 2 5 3 6 4 2 5 1 6
REMARK H PARENT
REMARK Flexibility Score: inf
ROOT
ATOM      1  C   UNL     1     139.733  55.971 -11.940  1.00  0.00     0.052 C 
ENDROOT
BRANCH   1   2
ATOM      2  C   UNL     1     139.615  56.469 -10.532  1.00  0.00     0.041 C 
ATOM      3  O   UNL     1     138.555  56.282  -9.879  1.00  0.00    -0.550 OA
ATOM      4  O   UNL     1     140.688  57.114  -9.930  1.00  0.00    -0.550 OA
ENDBRANCH   1   2
BRANCH   1   5
ATOM      5  C   UNL     1     139.957  57.121 -12.931  1.00  0.00     0.003 C 
ATOM      6  C   UNL     1     141.368  57.117 -13.518  1.00  0.00     0.004 C 
ENDBRANCH   1   5
TORSDOF 2
ENDMDL
MODEL 6
REMARK VINA RESULT:    -1.311      1.416      1.943
REMARK INTER + INTRA:          -1.533
REMARK INTER:                  -1.464
REMARK INTRA:                  -0.069
REMARK UNBOUND:                -0.069
REMARK SMILES CCCC(=O)[O-]
REMARK SMILES IDX 3 1 4 2 5 3 6 4 2 5 1 6
REMARK H PARENT
REMARK Flexibility Score: inf
ROOT
ATOM      1  C   UNL     1     139.908  56.823 -12.685  1.00  0.00     0.052 C 
ENDROOT
BRANCH   1   2
ATOM      2  C   UNL     1     141.360  56.513 -12.887  1.00  0.00     0.041 C 
ATOM      3  O   UNL     1     142.238  57.124 -12.224  1.00  0.00    -0.550 OA
ATOM      4  O   UNL     1     141.741  55.524 -13.786  1.00  0.00    -0.550 OA
ENDBRANCH   1   2
BRANCH   1   5
ATOM      5  C   UNL     1     139.478  56.603 -11.229  1.00  0.00     0.003 C 
ATOM      6  C   UNL     1     139.493  55.126 -10.836  1.00  0.00     0.004 C 
ENDBRANCH   1   5
TORSDOF 2
ENDMDL
MODEL 7
REMARK VINA RESULT:    -1.305      2.165      3.249
REMARK INTER + INTRA:          -1.527
REMARK INTER:                  -1.470
REMARK INTRA:                  -0.057
REMARK UNBOUND:                -0.069
REMARK SMILES CCCC(=O)[O-]
REMARK SMILES IDX 3 1 4 2 5 3 6 4 2 5 1 6
REMARK H PARENT
REMARK Flexibility Score: inf
ROOT
ATOM      1  C   UNL     1     139.605  56.885 -12.272  1.00  0.00     0.052 C 
ENDROOT
BRANCH   1   2
ATOM      2  C   UNL     1     139.684  56.810 -10.778  1.00  0.00     0.041 C 
ATOM      3  O   UNL     1     140.796  56.906 -10.196  1.00  0.00    -0.550 OA
ATOM      4  O   UNL     1     138.525  56.664 -10.026  1.00  0.00    -0.550 OA
ENDBRANCH   1   2
BRANCH   1   5
ATOM      5  C   UNL     1     140.321  55.704 -12.939  1.00  0.00     0.003 C 
ATOM      6  C   UNL     1     139.483  54.427 -12.915  1.00  0.00     0.004 C 
ENDBRANCH   1   5
TORSDOF 2
ENDMDL
MODEL 8
REMARK VINA RESULT:    -1.297      1.988      2.692
REMARK INTER + INTRA:          -1.519
REMARK INTER:                  -1.471
REMARK INTRA:                  -0.047
REMARK UNBOUND:                -0.069
REMARK SMILES CCCC(=O)[O-]
REMARK SMILES IDX 3 1 4 2 5 3 6 4 2 5 1 6
REMARK H PARENT
REMARK Flexibility Score: inf
ROOT
ATOM      1  C   UNL     1     139.844  56.221 -12.645  1.00  0.00     0.052 C 
ENDROOT
BRANCH   1   2
ATOM      2  C   UNL     1     141.267  56.376 -13.085  1.00  0.00     0.041 C 
ATOM      3  O   UNL     1     141.552  57.114 -14.064  1.00  0.00    -0.550 OA
ATOM      4  O   UNL     1     142.284  55.730 -12.391  1.00  0.00    -0.550 OA
ENDBRANCH   1   2
BRANCH   1   5
ATOM      5  C   UNL     1     139.559  54.801 -12.138  1.00  0.00     0.003 C 
ATOM      6  C   UNL     1     139.186  53.844 -13.269  1.00  0.00     0.004 C 
ENDBRANCH   1   5
TORSDOF 2
ENDMDL
MODEL 9
REMARK VINA RESULT:    -1.230      2.449      3.430
REMARK INTER + INTRA:          -1.443
REMARK INTER:                  -1.405
REMARK INTRA:                  -0.037
REMARK UNBOUND:                -0.069
REMARK SMILES CCCC(=O)[O-]
REMARK SMILES IDX 3 1 4 2 5 3 6 4 2 5 1 6
REMARK H PARENT
REMARK Flexibility Score: inf
ROOT
ATOM      1  C   UNL     1     139.798  56.893 -10.638  1.00  0.00     0.052 C 
ENDROOT
BRANCH   1   2
ATOM      2  C   UNL     1     138.663  56.305  -9.857  1.00  0.00     0.041 C 
ATOM      3  O   UNL     1     138.662  55.081  -9.561  1.00  0.00    -0.550 OA
ATOM      4  O   UNL     1     137.620  57.117  -9.428  1.00  0.00    -0.550 OA
ENDBRANCH   1   2
BRANCH   1   5
ATOM      5  C   UNL     1     139.544  56.819 -12.150  1.00  0.00     0.003 C 
ATOM      6  C   UNL     1     140.107  55.541 -12.772  1.00  0.00     0.004 C 
ENDBRANCH   1   5
TORSDOF 2
ENDMDL
