MODEL 1
REMARK VINA RESULT:    -3.873      0.000      0.000
REMARK INTER + INTRA:          -5.923
REMARK INTER:                  -5.458
REMARK INTRA:                  -0.464
REMARK UNBOUND:                -0.464
REMARK SMILES CCCCCCCCC(=O)[O-]
REMARK SMILES IDX 6 1 7 2 8 3 9 4 10 5 11 6 5 7 4 8 3 9 2 10 1 11
REMARK H PARENT
REMARK Flexibility Score: inf
ROOT
ATOM      1  C   UNL     1       9.497 -17.917  33.018  1.00  0.00     0.000 C 
ENDROOT
BRANCH   1   2
ATOM      2  C   UNL     1       8.758 -16.957  33.966  1.00  0.00     0.006 C 
BRANCH   2   3
ATOM      3  C   UNL     1       9.446 -16.854  35.334  1.00  0.00     0.053 C 
BRANCH   3   4
ATOM      4  C   UNL     1       9.979 -15.477  35.587  1.00  0.00     0.041 C 
ATOM      5  O   UNL     1       9.526 -14.786  36.537  1.00  0.00    -0.550 OA
ATOM      6  O   UNL     1      10.956 -14.945  34.754  1.00  0.00    -0.550 OA
ENDBRANCH   3   4
ENDBRANCH   2   3
ENDBRANCH   1   2
BRANCH   1   7
ATOM      7  C   UNL     1      10.210 -17.183  31.870  1.00  0.00     0.000 C 
BRANCH   7   8
ATOM      8  C   UNL     1      11.048 -18.124  30.992  1.00  0.00    -0.000 C 
BRANCH   8   9
ATOM      9  C   UNL     1      10.736 -19.591  31.310  1.00  0.00    -0.000 C 
BRANCH   9  10
ATOM     10  C   UNL     1      10.046 -20.276  30.125  1.00  0.00    -0.003 C 
ATOM     11  C   UNL     1       8.533 -20.328  30.322  1.00  0.00     0.004 C 
ENDBRANCH   9  10
ENDBRANCH   8   9
ENDBRANCH   7   8
ENDBRANCH   1   7
TORSDOF 7
ENDMDL
MODEL 2
REMARK VINA RESULT:    -3.867      3.933      6.412
REMARK INTER + INTRA:          -5.913
REMARK INTER:                  -5.558
REMARK INTRA:                  -0.355
REMARK UNBOUND:                -0.464
REMARK SMILES CCCCCCCCC(=O)[O-]
REMARK SMILES IDX 6 1 7 2 8 3 9 4 10 5 11 6 5 7 4 8 3 9 2 10 1 11
REMARK H PARENT
REMARK Flexibility Score: inf
ROOT
ATOM      1  C   UNL     1      10.167 -19.251  31.548  1.00  0.00     0.000 C 
ENDROOT
BRANCH   1   2
ATOM      2  C   UNL     1      10.552 -20.415  30.618  1.00  0.00     0.006 C 
BRANCH   2   3
ATOM      3  C   UNL     1       9.412 -20.792  29.663  1.00  0.00     0.053 C 
BRANCH   3   4
ATOM      4  C   UNL     1       9.680 -20.325  28.265  1.00  0.00     0.041 C 
ATOM      5  O   UNL     1      10.186 -21.110  27.419  1.00  0.00    -0.550 OA
ATOM      6  O   UNL     1       9.397 -19.014  27.903  1.00  0.00    -0.550 OA
ENDBRANCH   3   4
ENDBRANCH   2   3
ENDBRANCH   1   2
BRANCH   1   7
ATOM      7  C   UNL     1       8.645 -19.049  31.644  1.00  0.00     0.000 C 
BRANCH   7   8
ATOM      8  C   UNL     1       8.249 -18.016  32.709  1.00  0.00    -0.000 C 
BRANCH   8   9
ATOM      9  C   UNL     1       9.470 -17.573  33.524  1.00  0.00    -0.000 C 
BRANCH   9  10
ATOM     10  C   UNL     1       9.102 -17.363  34.997  1.00  0.00    -0.003 C 
ATOM     11  C   UNL     1       9.648 -16.037  35.519  1.00  0.00     0.004 C 
ENDBRANCH   9  10
ENDBRANCH   8   9
ENDBRANCH   7   8
ENDBRANCH   1   7
TORSDOF 7
ENDMDL
MODEL 3
REMARK VINA RESULT:    -3.830      1.054      1.855
REMARK INTER + INTRA:          -5.862
REMARK INTER:                  -5.446
REMARK INTRA:                  -0.417
REMARK UNBOUND:                -0.464
REMARK SMILES CCCCCCCCC(=O)[O-]
REMARK SMILES IDX 6 1 7 2 8 3 9 4 10 5 11 6 5 7 4 8 3 9 2 10 1 11
REMARK H PARENT
REMARK Flexibility Score: inf
ROOT
ATOM      1  C   UNL     1       8.160 -17.083  33.081  1.00  0.00     0.000 C 
ENDROOT
BRANCH   1   2
ATOM      2  C   UNL     1       7.979 -17.095  34.609  1.00  0.00     0.006 C 
BRANCH   2   3
ATOM      3  C   UNL     1       9.323 -17.078  35.349  1.00  0.00     0.053 C 
BRANCH   3   4
ATOM      4  C   UNL     1       9.866 -15.688  35.484  1.00  0.00     0.041 C 
ATOM      5  O   UNL     1      10.744 -15.269  34.684  1.00  0.00    -0.550 OA
ATOM      6  O   UNL     1       9.424 -14.865  36.512  1.00  0.00    -0.550 OA
ENDBRANCH   3   4
ENDBRANCH   2   3
ENDBRANCH   1   2
BRANCH   1   7
ATOM      7  C   UNL     1       7.441 -18.254  32.391  1.00  0.00     0.000 C 
BRANCH   7   8
ATOM      8  C   UNL     1       8.397 -19.143  31.580  1.00  0.00    -0.000 C 
BRANCH   8   9
ATOM      9  C   UNL     1       9.858 -18.807  31.897  1.00  0.00    -0.000 C 
BRANCH   9  10
ATOM     10  C   UNL     1      10.813 -19.747  31.152  1.00  0.00    -0.003 C 
ATOM     11  C   UNL     1      10.049 -20.696  30.234  1.00  0.00     0.004 C 
ENDBRANCH   9  10
ENDBRANCH   8   9
ENDBRANCH   7   8
ENDBRANCH   1   7
TORSDOF 7
ENDMDL
MODEL 4
REMARK VINA RESULT:    -3.778      4.255      6.355
REMARK INTER + INTRA:          -5.789
REMARK INTER:                  -5.098
REMARK INTRA:                  -0.690
REMARK UNBOUND:                -0.464
REMARK SMILES CCCCCCCCC(=O)[O-]
REMARK SMILES IDX 6 1 7 2 8 3 9 4 10 5 11 6 5 7 4 8 3 9 2 10 1 11
REMARK H PARENT
REMARK Flexibility Score: inf
ROOT
ATOM      1  C   UNL     1      10.416 -20.746  30.536  1.00  0.00     0.000 C 
ENDROOT
BRANCH   1   2
ATOM      2  C   UNL     1       9.000 -20.466  30.002  1.00  0.00     0.006 C 
BRANCH   2   3
ATOM      3  C   UNL     1       8.760 -21.117  28.633  1.00  0.00     0.053 C 
BRANCH   3   4
ATOM      4  C   UNL     1       9.623 -20.511  27.570  1.00  0.00     0.041 C 
ATOM      5  O   UNL     1      10.339 -21.246  26.839  1.00  0.00    -0.550 OA
ATOM      6  O   UNL     1       9.660 -19.133  27.404  1.00  0.00    -0.550 OA
ENDBRANCH   3   4
ENDBRANCH   2   3
ENDBRANCH   1   2
BRANCH   1   7
ATOM      7  C   UNL     1      11.014 -19.543  31.284  1.00  0.00     0.000 C 
BRANCH   7   8
ATOM      8  C   UNL     1      10.540 -18.196  30.718  1.00  0.00    -0.000 C 
BRANCH   8   9
ATOM      9  C   UNL     1      10.219 -17.210  31.846  1.00  0.00    -0.000 C 
BRANCH   9  10
ATOM     10  C   UNL     1       9.365 -17.875  32.932  1.00  0.00    -0.003 C 
ATOM     11  C   UNL     1       7.897 -17.934  32.521  1.00  0.00     0.004 C 
ENDBRANCH   9  10
ENDBRANCH   8   9
ENDBRANCH   7   8
ENDBRANCH   1   7
TORSDOF 7
ENDMDL
MODEL 5
REMARK VINA RESULT:    -3.743      1.364      2.549
REMARK INTER + INTRA:          -5.739
REMARK INTER:                  -5.094
REMARK INTRA:                  -0.645
REMARK UNBOUND:                -0.464
REMARK SMILES CCCCCCCCC(=O)[O-]
REMARK SMILES IDX 6 1 7 2 8 3 9 4 10 5 11 6 5 7 4 8 3 9 2 10 1 11
REMARK H PARENT
REMARK Flexibility Score: inf
ROOT
ATOM      1  C   UNL     1      10.791 -18.264  30.741  1.00  0.00     0.000 C 
ENDROOT
BRANCH   1   2
ATOM      2  C   UNL     1      10.405 -17.210  31.794  1.00  0.00     0.006 C 
BRANCH   2   3
ATOM      3  C   UNL     1       9.504 -17.793  32.891  1.00  0.00     0.053 C 
BRANCH   3   4
ATOM      4  C   UNL     1       9.315 -16.833  34.025  1.00  0.00     0.041 C 
ATOM      5  O   UNL     1       9.173 -15.602  33.798  1.00  0.00    -0.550 OA
ATOM      6  O   UNL     1       9.326 -17.294  35.335  1.00  0.00    -0.550 OA
ENDBRANCH   3   4
ENDBRANCH   2   3
ENDBRANCH   1   2
BRANCH   1   7
ATOM      7  C   UNL     1      10.853 -19.686  31.323  1.00  0.00     0.000 C 
BRANCH   7   8
ATOM      8  C   UNL     1      10.340 -20.752  30.343  1.00  0.00    -0.000 C 
BRANCH   8   9
ATOM      9  C   UNL     1       9.189 -20.203  29.491  1.00  0.00    -0.000 C 
BRANCH   9  10
ATOM     10  C   UNL     1       7.839 -20.747  29.973  1.00  0.00    -0.003 C 
ATOM     11  C   UNL     1       7.133 -19.745  30.881  1.00  0.00     0.004 C 
ENDBRANCH   9  10
ENDBRANCH   8   9
ENDBRANCH   7   8
ENDBRANCH   1   7
TORSDOF 7
ENDMDL
MODEL 6
REMARK VINA RESULT:    -3.728      1.674      2.157
REMARK INTER + INTRA:          -5.718
REMARK INTER:                  -5.407
REMARK INTRA:                  -0.311
REMARK UNBOUND:                -0.464
REMARK SMILES CCCCCCCCC(=O)[O-]
REMARK SMILES IDX 6 1 7 2 8 3 9 4 10 5 11 6 5 7 4 8 3 9 2 10 1 11
REMARK H PARENT
REMARK Flexibility Score: inf
ROOT
ATOM      1  C   UNL     1       8.665 -18.887  31.870  1.00  0.00     0.000 C 
ENDROOT
BRANCH   1   2
ATOM      2  C   UNL     1       8.304 -17.748  32.840  1.00  0.00     0.006 C 
BRANCH   2   3
ATOM      3  C   UNL     1       9.526 -17.245  33.620  1.00  0.00     0.053 C 
BRANCH   3   4
ATOM      4  C   UNL     1       9.195 -16.969  35.054  1.00  0.00     0.041 C 
ATOM      5  O   UNL     1       8.087 -17.330  35.532  1.00  0.00    -0.550 OA
ATOM      6  O   UNL     1      10.099 -16.285  35.857  1.00  0.00    -0.550 OA
ENDBRANCH   3   4
ENDBRANCH   2   3
ENDBRANCH   1   2
BRANCH   1   7
ATOM      7  C   UNL     1      10.170 -18.949  31.564  1.00  0.00     0.000 C 
BRANCH   7   8
ATOM      8  C   UNL     1      10.579 -20.247  30.852  1.00  0.00    -0.000 C 
BRANCH   8   9
ATOM      9  C   UNL     1       9.500 -20.689  29.857  1.00  0.00    -0.000 C 
BRANCH   9  10
ATOM     10  C   UNL     1       9.666 -19.974  28.510  1.00  0.00    -0.003 C 
ATOM     11  C   UNL     1       9.911 -20.972  27.382  1.00  0.00     0.004 C 
ENDBRANCH   9  10
ENDBRANCH   8   9
ENDBRANCH   7   8
ENDBRANCH   1   7
TORSDOF 7
ENDMDL
MODEL 7
REMARK VINA RESULT:    -3.669      1.823      2.527
REMARK INTER + INTRA:          -5.634
REMARK INTER:                  -5.246
REMARK INTRA:                  -0.388
REMARK UNBOUND:                -0.464
REMARK SMILES CCCCCCCCC(=O)[O-]
REMARK SMILES IDX 6 1 7 2 8 3 9 4 10 5 11 6 5 7 4 8 3 9 2 10 1 11
REMARK H PARENT
REMARK Flexibility Score: inf
ROOT
ATOM      1  C   UNL     1       9.250 -17.101  33.828  1.00  0.00     0.000 C 
ENDROOT
BRANCH   1   2
ATOM      2  C   UNL     1       8.993 -17.141  35.345  1.00  0.00     0.006 C 
BRANCH   2   3
ATOM      3  C   UNL     1       7.495 -17.174  35.676  1.00  0.00     0.053 C 
BRANCH   3   4
ATOM      4  C   UNL     1       7.049 -15.919  36.361  1.00  0.00     0.041 C 
ATOM      5  O   UNL     1       7.803 -14.910  36.393  1.00  0.00    -0.550 OA
ATOM      6  O   UNL     1       5.812 -15.872  36.990  1.00  0.00    -0.550 OA
ENDBRANCH   3   4
ENDBRANCH   2   3
ENDBRANCH   1   2
BRANCH   1   7
ATOM      7  C   UNL     1       8.125 -17.769  33.020  1.00  0.00     0.000 C 
BRANCH   7   8
ATOM      8  C   UNL     1       8.655 -18.674  31.899  1.00  0.00    -0.000 C 
BRANCH   8   9
ATOM      9  C   UNL     1      10.174 -18.531  31.752  1.00  0.00    -0.000 C 
BRANCH   9  10
ATOM     10  C   UNL     1      10.795 -19.809  31.174  1.00  0.00    -0.003 C 
ATOM     11  C   UNL     1       9.839 -20.496  30.203  1.00  0.00     0.004 C 
ENDBRANCH   9  10
ENDBRANCH   8   9
ENDBRANCH   7   8
ENDBRANCH   1   7
TORSDOF 7
ENDMDL
MODEL 8
REMARK VINA RESULT:    -3.532      2.710      4.162
REMARK INTER + INTRA:          -5.442
REMARK INTER:                  -4.664
REMARK INTRA:                  -0.778
REMARK UNBOUND:                -0.464
REMARK SMILES CCCCCCCCC(=O)[O-]
REMARK SMILES IDX 6 1 7 2 8 3 9 4 10 5 11 6 5 7 4 8 3 9 2 10 1 11
REMARK H PARENT
REMARK Flexibility Score: inf
ROOT
ATOM      1  C   UNL     1      10.341 -20.851  30.309  1.00  0.00     0.000 C 
ENDROOT
BRANCH   1   2
ATOM      2  C   UNL     1      10.787 -19.712  31.243  1.00  0.00     0.006 C 
BRANCH   2   3
ATOM      3  C   UNL     1      10.563 -18.330  30.616  1.00  0.00     0.053 C 
BRANCH   3   4
ATOM      4  C   UNL     1      10.347 -17.275  31.657  1.00  0.00     0.041 C 
ATOM      5  O   UNL     1      10.755 -16.099  31.464  1.00  0.00    -0.550 OA
ATOM      6  O   UNL     1       9.719 -17.596  32.854  1.00  0.00    -0.550 OA
ENDBRANCH   3   4
ENDBRANCH   2   3
ENDBRANCH   1   2
BRANCH   1   7
ATOM      7  C   UNL     1       9.887 -20.341  28.931  1.00  0.00     0.000 C 
BRANCH   7   8
ATOM      8  C   UNL     1       8.504 -20.875  28.527  1.00  0.00    -0.000 C 
BRANCH   8   9
ATOM      9  C   UNL     1       7.681 -21.254  29.763  1.00  0.00    -0.000 C 
BRANCH   9  10
ATOM     10  C   UNL     1       6.630 -20.182  30.075  1.00  0.00    -0.003 C 
ATOM     11  C   UNL     1       7.035 -19.347  31.286  1.00  0.00     0.004 C 
ENDBRANCH   9  10
ENDBRANCH   8   9
ENDBRANCH   7   8
ENDBRANCH   1   7
TORSDOF 7
ENDMDL
MODEL 9
REMARK VINA RESULT:    -3.524      3.160      5.066
REMARK INTER + INTRA:          -5.430
REMARK INTER:                  -4.523
REMARK INTRA:                  -0.907
REMARK UNBOUND:                -0.464
REMARK SMILES CCCCCCCCC(=O)[O-]
REMARK SMILES IDX 6 1 7 2 8 3 9 4 10 5 11 6 5 7 4 8 3 9 2 10 1 11
REMARK H PARENT
REMARK Flexibility Score: inf
ROOT
ATOM      1  C   UNL     1       8.971 -20.851  29.830  1.00  0.00     0.000 C 
ENDROOT
BRANCH   1   2
ATOM      2  C   UNL     1       7.899 -20.059  30.600  1.00  0.00     0.006 C 
BRANCH   2   3
ATOM      3  C   UNL     1       7.050 -19.182  29.671  1.00  0.00     0.053 C 
BRANCH   3   4
ATOM      4  C   UNL     1       7.669 -17.834  29.459  1.00  0.00     0.041 C 
ATOM      5  O   UNL     1       7.314 -16.854  30.165  1.00  0.00    -0.550 OA
ATOM      6  O   UNL     1       8.618 -17.654  28.460  1.00  0.00    -0.550 OA
ENDBRANCH   3   4
ENDBRANCH   2   3
ENDBRANCH   1   2
BRANCH   1   7
ATOM      7  C   UNL     1      10.396 -20.552  30.324  1.00  0.00     0.000 C 
BRANCH   7   8
ATOM      8  C   UNL     1      10.428 -19.503  31.446  1.00  0.00    -0.000 C 
BRANCH   8   9
ATOM      9  C   UNL     1      11.113 -18.216  30.973  1.00  0.00    -0.000 C 
BRANCH   9  10
ATOM     10  C   UNL     1      10.558 -16.993  31.712  1.00  0.00    -0.003 C 
ATOM     11  C   UNL     1       9.562 -17.405  32.793  1.00  0.00     0.004 C 
ENDBRANCH   9  10
ENDBRANCH   8   9
ENDBRANCH   7   8
ENDBRANCH   1   7
TORSDOF 7
ENDMDL
