MODEL 1
REMARK VINA RESULT:    -2.350      0.000      0.000
REMARK INTER + INTRA:          -3.166
REMARK INTER:                  -2.762
REMARK INTRA:                  -0.404
REMARK UNBOUND:                -0.404
REMARK SMILES [NH3+][C@H](CO)C(=O)[O-]
REMARK SMILES IDX 3 1 2 2 1 3 5 7 6 8 7 9 4 10
REMARK H PARENT 1 4 1 5 1 6 4 11
REMARK Flexibility Score: inf
ROOT
ATOM      1  C   UNL     1      20.103  12.381  26.530  1.00  0.00     0.227 C 
ENDROOT
BRANCH   1   2
ATOM      2  C   UNL     1      19.868  12.775  28.001  1.00  0.00     0.253 C 
BRANCH   2   3
ATOM      3  N   UNL     1      18.575  12.274  28.484  1.00  0.00    -0.348 N 
ATOM      4  H   UNL     1      18.018  13.060  28.890  1.00  0.00     0.345 HD
ATOM      5  H   UNL     1      18.729  11.563  29.236  1.00  0.00     0.345 HD
ATOM      6  H   UNL     1      18.032  11.837  27.704  1.00  0.00     0.345 HD
ENDBRANCH   2   3
BRANCH   2   7
ATOM      7  C   UNL     1      20.988  12.253  28.861  1.00  0.00     0.102 C 
ATOM      8  O   UNL     1      20.879  11.146  29.451  1.00  0.00    -0.544 OA
ATOM      9  O   UNL     1      22.161  12.988  28.993  1.00  0.00    -0.544 OA
ENDBRANCH   2   7
ENDBRANCH   1   2
BRANCH   1  10
ATOM     10  O   UNL     1      21.198  11.511  26.418  1.00  0.00    -0.390 OA
ATOM     11  H   UNL     1      22.005  12.081  26.327  1.00  0.00     0.210 HD
ENDBRANCH   1  10
TORSDOF 4
ENDMDL
MODEL 2
REMARK VINA RESULT:    -2.260      9.417     10.216
REMARK INTER + INTRA:          -3.061
REMARK INTER:                  -2.841
REMARK INTRA:                  -0.220
REMARK UNBOUND:                -0.404
REMARK SMILES [NH3+][C@H](CO)C(=O)[O-]
REMARK SMILES IDX 3 1 2 2 1 3 5 7 6 8 7 9 4 10
REMARK H PARENT 1 4 1 5 1 6 4 11
REMARK Flexibility Score: inf
ROOT
ATOM      1  C   UNL     1      19.293  10.217  37.914  1.00  0.00     0.227 C 
ENDROOT
BRANCH   1   2
ATOM      2  C   UNL     1      19.136   8.684  37.900  1.00  0.00     0.253 C 
BRANCH   2   3
ATOM      3  N   UNL     1      17.933   8.267  38.630  1.00  0.00    -0.348 N 
ATOM      4  H   UNL     1      17.102   8.796  38.278  1.00  0.00     0.345 HD
ATOM      5  H   UNL     1      18.045   8.480  39.648  1.00  0.00     0.345 HD
ATOM      6  H   UNL     1      17.762   7.242  38.509  1.00  0.00     0.345 HD
ENDBRANCH   2   3
BRANCH   2   7
ATOM      7  C   UNL     1      19.091   8.183  36.481  1.00  0.00     0.102 C 
ATOM      8  O   UNL     1      18.797   8.964  35.536  1.00  0.00    -0.544 OA
ATOM      9  O   UNL     1      19.390   6.855  36.204  1.00  0.00    -0.544 OA
ENDBRANCH   2   7
ENDBRANCH   1   2
BRANCH   1  10
ATOM     10  O   UNL     1      18.047  10.845  37.775  1.00  0.00    -0.390 OA
ATOM     11  H   UNL     1      17.607  10.801  38.664  1.00  0.00     0.210 HD
ENDBRANCH   1  10
TORSDOF 4
ENDMDL
MODEL 3
REMARK VINA RESULT:    -2.151      8.396      9.507
REMARK INTER + INTRA:          -2.932
REMARK INTER:                  -2.570
REMARK INTRA:                  -0.362
REMARK UNBOUND:                -0.404
REMARK SMILES [NH3+][C@H](CO)C(=O)[O-]
REMARK SMILES IDX 3 1 2 2 1 3 5 7 6 8 7 9 4 10
REMARK H PARENT 1 4 1 5 1 6 4 11
REMARK Flexibility Score: inf
ROOT
ATOM      1  C   UNL     1      18.699   8.323  37.896  1.00  0.00     0.227 C 
ENDROOT
BRANCH   1   2
ATOM      2  C   UNL     1      19.571   8.050  36.656  1.00  0.00     0.253 C 
BRANCH   2   3
ATOM      3  N   UNL     1      19.411   6.667  36.190  1.00  0.00    -0.348 N 
ATOM      4  H   UNL     1      19.097   6.059  36.980  1.00  0.00     0.345 HD
ATOM      5  H   UNL     1      20.329   6.302  35.845  1.00  0.00     0.345 HD
ATOM      6  H   UNL     1      18.708   6.615  35.418  1.00  0.00     0.345 HD
ENDBRANCH   2   3
BRANCH   2   7
ATOM      7  C   UNL     1      19.225   9.019  35.558  1.00  0.00     0.102 C 
ATOM      8  O   UNL     1      18.425   8.689  34.642  1.00  0.00    -0.544 OA
ATOM      9  O   UNL     1      19.777  10.294  35.558  1.00  0.00    -0.544 OA
ENDBRANCH   2   7
ENDBRANCH   1   2
BRANCH   1  10
ATOM     10  O   UNL     1      17.999   9.531  37.756  1.00  0.00    -0.390 OA
ATOM     11  H   UNL     1      18.070  10.002  38.627  1.00  0.00     0.210 HD
ENDBRANCH   1  10
TORSDOF 4
ENDMDL
MODEL 4
REMARK VINA RESULT:    -2.101     11.616     12.070
REMARK INTER + INTRA:          -2.874
REMARK INTER:                  -2.672
REMARK INTRA:                  -0.203
REMARK UNBOUND:                -0.404
REMARK SMILES [NH3+][C@H](CO)C(=O)[O-]
REMARK SMILES IDX 3 1 2 2 1 3 5 7 6 8 7 9 4 10
REMARK H PARENT 1 4 1 5 1 6 4 11
REMARK Flexibility Score: inf
ROOT
ATOM      1  C   UNL     1      26.213   2.374  32.039  1.00  0.00     0.227 C 
ENDROOT
BRANCH   1   2
ATOM      2  C   UNL     1      25.201   3.013  33.009  1.00  0.00     0.253 C 
BRANCH   2   3
ATOM      3  N   UNL     1      24.046   3.559  32.287  1.00  0.00    -0.348 N 
ATOM      4  H   UNL     1      23.972   4.588  32.459  1.00  0.00     0.345 HD
ATOM      5  H   UNL     1      23.167   3.110  32.632  1.00  0.00     0.345 HD
ATOM      6  H   UNL     1      24.138   3.390  31.259  1.00  0.00     0.345 HD
ENDBRANCH   2   3
BRANCH   2   7
ATOM      7  C   UNL     1      24.753   2.000  34.029  1.00  0.00     0.102 C 
ATOM      8  O   UNL     1      25.276   0.855  34.065  1.00  0.00    -0.544 OA
ATOM      9  O   UNL     1      23.766   2.332  34.949  1.00  0.00    -0.544 OA
ENDBRANCH   2   7
ENDBRANCH   1   2
BRANCH   1  10
ATOM     10  O   UNL     1      25.553   1.608  31.066  1.00  0.00    -0.390 OA
ATOM     11  H   UNL     1      26.184   0.891  30.795  1.00  0.00     0.210 HD
ENDBRANCH   1  10
TORSDOF 4
ENDMDL
MODEL 5
REMARK VINA RESULT:    -2.076     11.268     12.132
REMARK INTER + INTRA:          -2.845
REMARK INTER:                  -2.488
REMARK INTRA:                  -0.356
REMARK UNBOUND:                -0.404
REMARK SMILES [NH3+][C@H](CO)C(=O)[O-]
REMARK SMILES IDX 3 1 2 2 1 3 5 7 6 8 7 9 4 10
REMARK H PARENT 1 4 1 5 1 6 4 11
REMARK Flexibility Score: inf
ROOT
ATOM      1  C   UNL     1      24.982   1.343  34.058  1.00  0.00     0.227 C 
ENDROOT
BRANCH   1   2
ATOM      2  C   UNL     1      24.828   2.849  33.772  1.00  0.00     0.253 C 
BRANCH   2   3
ATOM      3  N   UNL     1      24.263   3.080  32.437  1.00  0.00    -0.348 N 
ATOM      4  H   UNL     1      23.612   2.301  32.186  1.00  0.00     0.345 HD
ATOM      5  H   UNL     1      25.031   3.102  31.727  1.00  0.00     0.345 HD
ATOM      6  H   UNL     1      23.740   3.986  32.408  1.00  0.00     0.345 HD
ENDBRANCH   2   3
BRANCH   2   7
ATOM      7  C   UNL     1      23.964   3.488  34.827  1.00  0.00     0.102 C 
ATOM      8  O   UNL     1      22.807   3.898  34.544  1.00  0.00    -0.544 OA
ATOM      9  O   UNL     1      24.437   3.616  36.127  1.00  0.00    -0.544 OA
ENDBRANCH   2   7
ENDBRANCH   1   2
BRANCH   1  10
ATOM     10  O   UNL     1      23.924   0.877  34.852  1.00  0.00    -0.390 OA
ATOM     11  H   UNL     1      23.501   0.130  34.352  1.00  0.00     0.210 HD
ENDBRANCH   1  10
TORSDOF 4
ENDMDL
MODEL 6
REMARK VINA RESULT:    -2.057      2.226      3.023
REMARK INTER + INTRA:          -2.822
REMARK INTER:                  -2.604
REMARK INTRA:                  -0.217
REMARK UNBOUND:                -0.404
REMARK SMILES [NH3+][C@H](CO)C(=O)[O-]
REMARK SMILES IDX 3 1 2 2 1 3 5 7 6 8 7 9 4 10
REMARK H PARENT 1 4 1 5 1 6 4 11
REMARK Flexibility Score: inf
ROOT
ATOM      1  C   UNL     1      22.055  11.381  29.205  1.00  0.00     0.227 C 
ENDROOT
BRANCH   1   2
ATOM      2  C   UNL     1      21.674  12.011  27.852  1.00  0.00     0.253 C 
BRANCH   2   3
ATOM      3  N   UNL     1      21.992  11.110  26.738  1.00  0.00    -0.348 N 
ATOM      4  H   UNL     1      23.019  11.130  26.546  1.00  0.00     0.345 HD
ATOM      5  H   UNL     1      21.494  11.426  25.874  1.00  0.00     0.345 HD
ATOM      6  H   UNL     1      21.704  10.129  26.961  1.00  0.00     0.345 HD
ENDBRANCH   2   3
BRANCH   2   7
ATOM      7  C   UNL     1      20.211  12.365  27.841  1.00  0.00     0.102 C 
ATOM      8  O   UNL     1      19.704  12.963  26.855  1.00  0.00    -0.544 OA
ATOM      9  O   UNL     1      19.405  12.015  28.919  1.00  0.00    -0.544 OA
ENDBRANCH   2   7
ENDBRANCH   1   2
BRANCH   1  10
ATOM     10  O   UNL     1      21.685  10.028  29.245  1.00  0.00    -0.390 OA
ATOM     11  H   UNL     1      20.937   9.958  29.894  1.00  0.00     0.210 HD
ENDBRANCH   1  10
TORSDOF 4
ENDMDL
MODEL 7
REMARK VINA RESULT:    -2.044     12.916     13.587
REMARK INTER + INTRA:          -2.807
REMARK INTER:                  -2.577
REMARK INTRA:                  -0.229
REMARK UNBOUND:                -0.404
REMARK SMILES [NH3+][C@H](CO)C(=O)[O-]
REMARK SMILES IDX 3 1 2 2 1 3 5 7 6 8 7 9 4 10
REMARK H PARENT 1 4 1 5 1 6 4 11
REMARK Flexibility Score: inf
ROOT
ATOM      1  C   UNL     1      24.688   0.815  35.046  1.00  0.00     0.227 C 
ENDROOT
BRANCH   1   2
ATOM      2  C   UNL     1      24.366   2.252  35.499  1.00  0.00     0.253 C 
BRANCH   2   3
ATOM      3  N   UNL     1      23.585   2.966  34.482  1.00  0.00    -0.348 N 
ATOM      4  H   UNL     1      22.822   3.516  34.939  1.00  0.00     0.345 HD
ATOM      5  H   UNL     1      23.143   2.280  33.828  1.00  0.00     0.345 HD
ATOM      6  H   UNL     1      24.195   3.618  33.935  1.00  0.00     0.345 HD
ENDBRANCH   2   3
BRANCH   2   7
ATOM      7  C   UNL     1      23.626   2.227  36.809  1.00  0.00     0.102 C 
ATOM      8  O   UNL     1      22.823   3.150  37.108  1.00  0.00    -0.544 OA
ATOM      9  O   UNL     1      23.814   1.170  37.692  1.00  0.00    -0.544 OA
ENDBRANCH   2   7
ENDBRANCH   1   2
BRANCH   1  10
ATOM     10  O   UNL     1      23.561  -0.010  35.175  1.00  0.00    -0.390 OA
ATOM     11  H   UNL     1      23.446  -0.470  34.302  1.00  0.00     0.210 HD
ENDBRANCH   1  10
TORSDOF 4
ENDMDL
MODEL 8
REMARK VINA RESULT:    -2.029      9.000     10.020
REMARK INTER + INTRA:          -2.789
REMARK INTER:                  -2.388
REMARK INTRA:                  -0.401
REMARK UNBOUND:                -0.404
REMARK SMILES [NH3+][C@H](CO)C(=O)[O-]
REMARK SMILES IDX 3 1 2 2 1 3 5 7 6 8 7 9 4 10
REMARK H PARENT 1 4 1 5 1 6 4 11
REMARK Flexibility Score: inf
ROOT
ATOM      1  C   UNL     1      20.125   8.777  38.573  1.00  0.00     0.227 C 
ENDROOT
BRANCH   1   2
ATOM      2  C   UNL     1      18.816   8.641  37.773  1.00  0.00     0.253 C 
BRANCH   2   3
ATOM      3  N   UNL     1      18.033   9.882  37.820  1.00  0.00    -0.348 N 
ATOM      4  H   UNL     1      18.166  10.352  38.745  1.00  0.00     0.345 HD
ATOM      5  H   UNL     1      17.016   9.663  37.712  1.00  0.00     0.345 HD
ATOM      6  H   UNL     1      18.328  10.535  37.058  1.00  0.00     0.345 HD
ENDBRANCH   2   3
BRANCH   2   7
ATOM      7  C   UNL     1      19.120   8.265  36.347  1.00  0.00     0.102 C 
ATOM      8  O   UNL     1      19.172   7.054  36.002  1.00  0.00    -0.544 OA
ATOM      9  O   UNL     1      19.329   9.258  35.398  1.00  0.00    -0.544 OA
ENDBRANCH   2   7
ENDBRANCH   1   2
BRANCH   1  10
ATOM     10  O   UNL     1      21.238   8.570  37.746  1.00  0.00    -0.390 OA
ATOM     11  H   UNL     1      20.946   8.779  36.820  1.00  0.00     0.210 HD
ENDBRANCH   1  10
TORSDOF 4
ENDMDL
MODEL 9
REMARK VINA RESULT:    -2.016      9.293      9.752
REMARK INTER + INTRA:          -2.774
REMARK INTER:                  -2.549
REMARK INTRA:                  -0.225
REMARK UNBOUND:                -0.404
REMARK SMILES [NH3+][C@H](CO)C(=O)[O-]
REMARK SMILES IDX 3 1 2 2 1 3 5 7 6 8 7 9 4 10
REMARK H PARENT 1 4 1 5 1 6 4 11
REMARK Flexibility Score: inf
ROOT
ATOM      1  C   UNL     1      19.170   8.473  36.523  1.00  0.00     0.227 C 
ENDROOT
BRANCH   1   2
ATOM      2  C   UNL     1      18.357   9.373  37.473  1.00  0.00     0.253 C 
BRANCH   2   3
ATOM      3  N   UNL     1      18.381   8.852  38.845  1.00  0.00    -0.348 N 
ATOM      4  H   UNL     1      19.221   9.216  39.351  1.00  0.00     0.345 HD
ATOM      5  H   UNL     1      18.441   7.808  38.827  1.00  0.00     0.345 HD
ATOM      6  H   UNL     1      17.518   9.138  39.365  1.00  0.00     0.345 HD
ENDBRANCH   2   3
BRANCH   2   7
ATOM      7  C   UNL     1      18.893  10.779  37.435  1.00  0.00     0.102 C 
ATOM      8  O   UNL     1      19.473  11.215  36.406  1.00  0.00    -0.544 OA
ATOM      9  O   UNL     1      18.733  11.612  38.536  1.00  0.00    -0.544 OA
ENDBRANCH   2   7
ENDBRANCH   1   2
BRANCH   1  10
ATOM     10  O   UNL     1      18.709   8.599  35.204  1.00  0.00    -0.390 OA
ATOM     11  H   UNL     1      17.992   7.921  35.088  1.00  0.00     0.210 HD
ENDBRANCH   1  10
TORSDOF 4
ENDMDL
