MODEL 1
REMARK VINA RESULT:     4.865      0.000      0.000
REMARK INTER + INTRA:           7.546
REMARK INTER:                   6.714
REMARK INTRA:                   0.832
REMARK UNBOUND:                 0.832
REMARK SMILES O=C([O-])[C@H]1O[C@H](Oc2cc3oc(-c4ccccc4)cc(=O)c3c(O)c2O)[C@@H](O)[C@H](O)[C@H]1O
REMARK SMILES IDX 7 1 6 2 4 3 31 4 5 5 29 6 27 7 2 8 1 9 3 10 32 11 30 13
REMARK SMILES IDX 28 15 8 17 25 18 9 19 23 20 10 21 22 22 11 23 20 24 12 25
REMARK SMILES IDX 19 26 21 27 26 28 24 30 13 32 14 33 18 34 15 35 17 36 16 37
REMARK H PARENT 32 12 30 14 28 16 26 29 24 31
REMARK Flexibility Score: inf
ROOT
ATOM      1  O   UNL     1      18.518  13.455  -8.579  1.00  0.00    -0.458 OA
ENDROOT
BRANCH   1   2
ATOM      2  C   UNL     1      18.946  14.804  -8.342  1.00  0.00     0.339 C 
ATOM      3  C   UNL     1      20.454  14.777 -10.140  1.00  0.00     0.199 C 
ATOM      4  C   UNL     1      19.693  15.856 -10.935  1.00  0.00     0.180 C 
ATOM      5  O   UNL     1      20.298  14.972  -8.743  1.00  0.00    -0.328 OA
ATOM      6  C   UNL     1      18.200  15.812 -10.565  1.00  0.00     0.181 C 
ATOM      7  C   UNL     1      18.014  15.831  -9.034  1.00  0.00     0.214 C 
BRANCH   3   8
ATOM      8  C   UNL     1      21.915  14.812 -10.485  1.00  0.00     0.073 C 
ATOM      9  O   UNL     1      22.451  13.850 -11.098  1.00  0.00    -0.547 OA
ATOM     10  O   UNL     1      22.697  15.885 -10.074  1.00  0.00    -0.547 OA
ENDBRANCH   3   8
BRANCH   4  11
ATOM     11  O   UNL     1      20.227  17.125 -10.647  1.00  0.00    -0.387 OA
ATOM     12  H   UNL     1      21.214  17.022 -10.616  1.00  0.00     0.211 HD
ENDBRANCH   4  11
BRANCH   6  13
ATOM     13  O   UNL     1      17.621  14.656 -11.112  1.00  0.00    -0.387 OA
ATOM     14  H   UNL     1      17.767  14.695 -12.094  1.00  0.00     0.211 HD
ENDBRANCH   6  13
BRANCH   7  15
ATOM     15  O   UNL     1      18.289  17.121  -8.552  1.00  0.00    -0.384 OA
ATOM     16  H   UNL     1      18.355  17.052  -7.563  1.00  0.00     0.211 HD
ENDBRANCH   7  15
ENDBRANCH   1   2
BRANCH   1  17
ATOM     17  C   UNL     1      19.355  12.334  -8.500  1.00  0.00     0.172 A 
ATOM     18  C   UNL     1      20.126  11.892  -9.590  1.00  0.00     0.201 A 
ATOM     19  C   UNL     1      19.383  11.620  -7.303  1.00  0.00     0.098 A 
ATOM     20  C   UNL     1      20.978  10.777  -9.456  1.00  0.00     0.176 A 
ATOM     21  C   UNL     1      20.242  10.535  -7.138  1.00  0.00     0.146 A 
ATOM     22  C   UNL     1      21.085  10.115  -8.197  1.00  0.00     0.111 A 
ATOM     23  O   UNL     1      20.261   9.913  -5.964  1.00  0.00    -0.456 OA
ATOM     24  C   UNL     1      21.997   9.071  -7.910  1.00  0.00     0.197 A 
ATOM     25  C   UNL     1      21.063   8.889  -5.690  1.00  0.00     0.138 A 
ATOM     26  C   UNL     1      21.972   8.451  -6.661  1.00  0.00     0.100 A 
ATOM     27  O   UNL     1      22.867   8.696  -8.741  1.00  0.00    -0.289 OA
BRANCH  18  28
ATOM     28  O   UNL     1      19.999  12.534 -10.823  1.00  0.00    -0.502 OA
ATOM     29  H   UNL     1      20.371  12.150 -11.683  1.00  0.00     0.293 HD
ENDBRANCH  18  28
BRANCH  20  30
ATOM     30  O   UNL     1      21.658  10.353 -10.603  1.00  0.00    -0.504 OA
ATOM     31  H   UNL     1      22.645  10.470 -10.768  1.00  0.00     0.293 HD
ENDBRANCH  20  30
BRANCH  25  32
ATOM     32  C   UNL     1      20.989   8.261  -4.348  1.00  0.00     0.017 A 
ATOM     33  C   UNL     1      20.966   6.857  -4.240  1.00  0.00     0.012 A 
ATOM     34  C   UNL     1      20.972   9.033  -3.169  1.00  0.00     0.012 A 
ATOM     35  C   UNL     1      20.904   6.243  -2.986  1.00  0.00     0.001 A 
ATOM     36  C   UNL     1      20.912   8.412  -1.918  1.00  0.00     0.001 A 
ATOM     37  C   UNL     1      20.875   7.019  -1.826  1.00  0.00     0.000 A 
ENDBRANCH  25  32
ENDBRANCH   1  17
TORSDOF 9
ENDMDL
