MODEL 1
REMARK VINA RESULT:     0.648      0.000      0.000
REMARK INTER + INTRA:           0.580
REMARK INTER:                   1.179
REMARK INTRA:                  -0.599
REMARK UNBOUND:                -0.599
REMARK SMILES CCCCCCCCCCCCCC[C@H](C)C(=O)[O-]
REMARK SMILES IDX 9 1 10 2 11 3 12 4 13 5 14 6 15 7 16 8 17 9 18 10 19 11 8 12
REMARK SMILES IDX 7 13 6 14 5 15 4 16 3 17 2 18 1 19
REMARK H PARENT
REMARK Flexibility Score: inf
ROOT
ATOM      1  C   UNL     1       3.444  43.504  10.547  1.00  0.00     0.000 C 
ENDROOT
BRANCH   1   2
ATOM      2  C   UNL     1       2.105  44.003  11.125  1.00  0.00     0.000 C 
BRANCH   2   3
ATOM      3  C   UNL     1       0.959  42.970  11.105  1.00  0.00     0.000 C 
BRANCH   3   4
ATOM      4  C   UNL     1      -0.085  43.131  12.224  1.00  0.00     0.000 C 
BRANCH   4   5
ATOM      5  C   UNL     1       0.154  44.378  13.095  1.00  0.00     0.001 C 
BRANCH   5   6
ATOM      6  C   UNL     1      -0.535  44.269  14.472  1.00  0.00     0.009 C 
BRANCH   6   7
ATOM      7  C   UNL     1      -2.064  44.065  14.381  1.00  0.00     0.032 C 
ATOM      8  C   UNL     1      -2.843  45.063  15.247  1.00  0.00     0.014 C 
BRANCH   7   9
ATOM      9  C   UNL     1      -2.411  42.660  14.792  1.00  0.00     0.044 C 
ATOM     10  O   UNL     1      -1.553  41.939  15.366  1.00  0.00    -0.550 OA
ATOM     11  O   UNL     1      -3.684  42.154  14.558  1.00  0.00    -0.550 OA
ENDBRANCH   7   9
ENDBRANCH   6   7
ENDBRANCH   5   6
ENDBRANCH   4   5
ENDBRANCH   3   4
ENDBRANCH   2   3
ENDBRANCH   1   2
BRANCH   1  12
ATOM     12  C   UNL     1       4.681  44.285  11.025  1.00  0.00     0.000 C 
BRANCH  12  13
ATOM     13  C   UNL     1       5.485  44.934   9.875  1.00  0.00    -0.000 C 
BRANCH  13  14
ATOM     14  C   UNL     1       7.000  45.000  10.139  1.00  0.00    -0.000 C 
BRANCH  14  15
ATOM     15  C   UNL     1       7.616  43.606  10.359  1.00  0.00    -0.000 C 
BRANCH  15  16
ATOM     16  C   UNL     1       8.134  43.408  11.792  1.00  0.00    -0.000 C 
BRANCH  16  17
ATOM     17  C   UNL     1       7.664  42.081  12.413  1.00  0.00    -0.000 C 
BRANCH  17  18
ATOM     18  C   UNL     1       6.928  42.282  13.747  1.00  0.00    -0.003 C 
ATOM     19  C   UNL     1       5.748  43.247  13.634  1.00  0.00     0.004 C 
ENDBRANCH  17  18
ENDBRANCH  16  17
ENDBRANCH  15  16
ENDBRANCH  14  15
ENDBRANCH  13  14
ENDBRANCH  12  13
ENDBRANCH   1  12
TORSDOF 14
ENDMDL
MODEL 2
REMARK VINA RESULT:     0.698      2.697      7.801
REMARK INTER + INTRA:           0.670
REMARK INTER:                   0.919
REMARK INTRA:                  -0.249
REMARK UNBOUND:                -0.599
REMARK SMILES CCCCCCCCCCCCCC[C@H](C)C(=O)[O-]
REMARK SMILES IDX 9 1 10 2 11 3 12 4 13 5 14 6 15 7 16 8 17 9 18 10 19 11 8 12
REMARK SMILES IDX 7 13 6 14 5 15 4 16 3 17 2 18 1 19
REMARK H PARENT
REMARK Flexibility Score: inf
ROOT
ATOM      1  C   UNL     1       3.536  44.298  11.211  1.00  0.00     0.000 C 
ENDROOT
BRANCH   1   2
ATOM      2  C   UNL     1       3.881  43.501   9.938  1.00  0.00     0.000 C 
BRANCH   2   3
ATOM      3  C   UNL     1       5.326  42.964   9.875  1.00  0.00     0.000 C 
BRANCH   3   4
ATOM      4  C   UNL     1       6.426  44.036   9.957  1.00  0.00     0.000 C 
BRANCH   4   5
ATOM      5  C   UNL     1       7.670  43.563  10.732  1.00  0.00     0.001 C 
BRANCH   5   6
ATOM      6  C   UNL     1       7.378  42.320  11.601  1.00  0.00     0.009 C 
BRANCH   6   7
ATOM      7  C   UNL     1       7.301  42.630  13.113  1.00  0.00     0.032 C 
ATOM      8  C   UNL     1       7.368  41.364  13.976  1.00  0.00     0.014 C 
BRANCH   7   9
ATOM      9  C   UNL     1       6.031  43.380  13.410  1.00  0.00     0.044 C 
ATOM     10  O   UNL     1       5.090  42.811  14.024  1.00  0.00    -0.550 OA
ATOM     11  O   UNL     1       5.894  44.708  13.026  1.00  0.00    -0.550 OA
ENDBRANCH   7   9
ENDBRANCH   6   7
ENDBRANCH   5   6
ENDBRANCH   4   5
ENDBRANCH   3   4
ENDBRANCH   2   3
ENDBRANCH   1   2
BRANCH   1  12
ATOM     12  C   UNL     1       2.502  43.623  12.131  1.00  0.00     0.000 C 
BRANCH  12  13
ATOM     13  C   UNL     1       1.111  43.452  11.477  1.00  0.00    -0.000 C 
BRANCH  13  14
ATOM     14  C   UNL     1      -0.061  43.656  12.454  1.00  0.00    -0.000 C 
BRANCH  14  15
ATOM     15  C   UNL     1       0.318  44.561  13.641  1.00  0.00    -0.000 C 
BRANCH  15  16
ATOM     16  C   UNL     1      -0.830  44.723  14.650  1.00  0.00    -0.000 C 
BRANCH  16  17
ATOM     17  C   UNL     1      -2.077  43.906  14.264  1.00  0.00    -0.000 C 
BRANCH  17  18
ATOM     18  C   UNL     1      -2.066  42.494  14.870  1.00  0.00    -0.003 C 
ATOM     19  C   UNL     1      -3.337  41.704  14.555  1.00  0.00     0.004 C 
ENDBRANCH  17  18
ENDBRANCH  16  17
ENDBRANCH  15  16
ENDBRANCH  14  15
ENDBRANCH  13  14
ENDBRANCH  12  13
ENDBRANCH   1  12
TORSDOF 14
ENDMDL
MODEL 3
REMARK VINA RESULT:     1.858      0.852      2.140
REMARK INTER + INTRA:           2.779
REMARK INTER:                   0.873
REMARK INTRA:                   1.907
REMARK UNBOUND:                -0.599
REMARK SMILES CCCCCCCCCCCCCC[C@H](C)C(=O)[O-]
REMARK SMILES IDX 9 1 10 2 11 3 12 4 13 5 14 6 15 7 16 8 17 9 18 10 19 11 8 12
REMARK SMILES IDX 7 13 6 14 5 15 4 16 3 17 2 18 1 19
REMARK H PARENT
REMARK Flexibility Score: inf
ROOT
ATOM      1  C   UNL     1       3.505  44.574  10.339  1.00  0.00     0.000 C 
ENDROOT
BRANCH   1   2
ATOM      2  C   UNL     1       2.414  43.531  10.648  1.00  0.00     0.000 C 
BRANCH   2   3
ATOM      3  C   UNL     1       1.987  43.450  12.129  1.00  0.00     0.000 C 
BRANCH   3   4
ATOM      4  C   UNL     1       0.479  43.613  12.384  1.00  0.00     0.000 C 
BRANCH   4   5
ATOM      5  C   UNL     1       0.147  44.825  13.273  1.00  0.00     0.001 C 
BRANCH   5   6
ATOM      6  C   UNL     1      -0.552  44.411  14.586  1.00  0.00     0.009 C 
BRANCH   6   7
ATOM      7  C   UNL     1      -2.072  44.180  14.429  1.00  0.00     0.032 C 
ATOM      8  C   UNL     1      -2.904  45.125  15.305  1.00  0.00     0.014 C 
BRANCH   7   9
ATOM      9  C   UNL     1      -2.402  42.752  14.769  1.00  0.00     0.044 C 
ATOM     10  O   UNL     1      -3.459  42.227  14.332  1.00  0.00    -0.550 OA
ATOM     11  O   UNL     1      -1.535  41.997  15.550  1.00  0.00    -0.550 OA
ENDBRANCH   7   9
ENDBRANCH   6   7
ENDBRANCH   5   6
ENDBRANCH   4   5
ENDBRANCH   3   4
ENDBRANCH   2   3
ENDBRANCH   1   2
BRANCH   1  12
ATOM     12  C   UNL     1       4.274  45.083  11.571  1.00  0.00     0.000 C 
BRANCH  12  13
ATOM     13  C   UNL     1       5.550  44.267  11.884  1.00  0.00    -0.000 C 
BRANCH  13  14
ATOM     14  C   UNL     1       5.472  43.477  13.202  1.00  0.00    -0.000 C 
BRANCH  14  15
ATOM     15  C   UNL     1       6.715  42.597  13.431  1.00  0.00    -0.000 C 
BRANCH  15  16
ATOM     16  C   UNL     1       7.602  42.490  12.179  1.00  0.00    -0.000 C 
BRANCH  16  17
ATOM     17  C   UNL     1       6.830  42.786  10.881  1.00  0.00    -0.000 C 
BRANCH  17  18
ATOM     18  C   UNL     1       7.659  43.601   9.875  1.00  0.00    -0.003 C 
ATOM     19  C   UNL     1       8.071  44.970  10.417  1.00  0.00     0.004 C 
ENDBRANCH  17  18
ENDBRANCH  16  17
ENDBRANCH  15  16
ENDBRANCH  14  15
ENDBRANCH  13  14
ENDBRANCH  12  13
ENDBRANCH   1  12
TORSDOF 14
ENDMDL
MODEL 4
REMARK VINA RESULT:     2.105      2.967      8.392
REMARK INTER + INTRA:           3.228
REMARK INTER:                   3.663
REMARK INTRA:                  -0.435
REMARK UNBOUND:                -0.599
REMARK SMILES CCCCCCCCCCCCCC[C@H](C)C(=O)[O-]
REMARK SMILES IDX 9 1 10 2 11 3 12 4 13 5 14 6 15 7 16 8 17 9 18 10 19 11 8 12
REMARK SMILES IDX 7 13 6 14 5 15 4 16 3 17 2 18 1 19
REMARK H PARENT
REMARK Flexibility Score: inf
ROOT
ATOM      1  C   UNL     1       1.615  44.038  12.122  1.00  0.00     0.000 C 
ENDROOT
BRANCH   1   2
ATOM      2  C   UNL     1       1.846  43.150  10.885  1.00  0.00     0.000 C 
BRANCH   2   3
ATOM      3  C   UNL     1       3.233  43.298  10.223  1.00  0.00     0.000 C 
BRANCH   3   4
ATOM      4  C   UNL     1       3.671  44.746   9.941  1.00  0.00     0.000 C 
BRANCH   4   5
ATOM      5  C   UNL     1       5.193  44.946  10.057  1.00  0.00     0.001 C 
BRANCH   5   6
ATOM      6  C   UNL     1       5.656  45.062  11.526  1.00  0.00     0.009 C 
BRANCH   6   7
ATOM      7  C   UNL     1       6.863  44.159  11.865  1.00  0.00     0.032 C 
ATOM      8  C   UNL     1       7.390  43.398  10.642  1.00  0.00     0.014 C 
BRANCH   7   9
ATOM      9  C   UNL     1       6.475  43.182  12.942  1.00  0.00     0.044 C 
ATOM     10  O   UNL     1       5.395  43.331  13.572  1.00  0.00    -0.550 OA
ATOM     11  O   UNL     1       7.294  42.098  13.234  1.00  0.00    -0.550 OA
ENDBRANCH   7   9
ENDBRANCH   6   7
ENDBRANCH   5   6
ENDBRANCH   4   5
ENDBRANCH   3   4
ENDBRANCH   2   3
ENDBRANCH   1   2
BRANCH   1  12
ATOM     12  C   UNL     1       0.329  43.723  12.908  1.00  0.00     0.000 C 
BRANCH  12  13
ATOM     13  C   UNL     1      -0.025  44.792  13.968  1.00  0.00    -0.000 C 
BRANCH  13  14
ATOM     14  C   UNL     1      -1.527  45.125  14.033  1.00  0.00    -0.000 C 
BRANCH  14  15
ATOM     15  C   UNL     1      -2.310  44.125  14.902  1.00  0.00    -0.000 C 
BRANCH  15  16
ATOM     16  C   UNL     1      -1.852  42.673  14.691  1.00  0.00    -0.000 C 
BRANCH  16  17
ATOM     17  C   UNL     1      -2.943  41.796  14.050  1.00  0.00    -0.000 C 
BRANCH  17  18
ATOM     18  C   UNL     1      -3.856  41.134  15.094  1.00  0.00    -0.003 C 
ATOM     19  C   UNL     1      -5.166  40.619  14.496  1.00  0.00     0.004 C 
ENDBRANCH  17  18
ENDBRANCH  16  17
ENDBRANCH  15  16
ENDBRANCH  14  15
ENDBRANCH  13  14
ENDBRANCH  12  13
ENDBRANCH   1  12
TORSDOF 14
ENDMDL
MODEL 5
REMARK VINA RESULT:     2.252      1.061      1.839
REMARK INTER + INTRA:           3.496
REMARK INTER:                   3.999
REMARK INTRA:                  -0.503
REMARK UNBOUND:                -0.599
REMARK SMILES CCCCCCCCCCCCCC[C@H](C)C(=O)[O-]
REMARK SMILES IDX 9 1 10 2 11 3 12 4 13 5 14 6 15 7 16 8 17 9 18 10 19 11 8 12
REMARK SMILES IDX 7 13 6 14 5 15 4 16 3 17 2 18 1 19
REMARK H PARENT
REMARK Flexibility Score: inf
ROOT
ATOM      1  C   UNL     1       2.814  43.117  11.479  1.00  0.00     0.000 C 
ENDROOT
BRANCH   1   2
ATOM      2  C   UNL     1       1.623  43.387  10.539  1.00  0.00     0.000 C 
BRANCH   2   3
ATOM      3  C   UNL     1       0.376  42.516  10.798  1.00  0.00     0.000 C 
BRANCH   3   4
ATOM      4  C   UNL     1      -0.276  42.699  12.179  1.00  0.00     0.000 C 
BRANCH   4   5
ATOM      5  C   UNL     1      -0.134  44.131  12.724  1.00  0.00     0.001 C 
BRANCH   5   6
ATOM      6  C   UNL     1      -0.625  44.251  14.184  1.00  0.00     0.009 C 
BRANCH   6   7
ATOM      7  C   UNL     1      -2.150  44.054  14.340  1.00  0.00     0.032 C 
ATOM      8  C   UNL     1      -2.761  45.001  15.380  1.00  0.00     0.014 C 
BRANCH   7   9
ATOM      9  C   UNL     1      -2.437  42.627  14.722  1.00  0.00     0.044 C 
ATOM     10  O   UNL     1      -3.482  42.061  14.308  1.00  0.00    -0.550 OA
ATOM     11  O   UNL     1      -1.543  41.920  15.516  1.00  0.00    -0.550 OA
ENDBRANCH   7   9
ENDBRANCH   6   7
ENDBRANCH   5   6
ENDBRANCH   4   5
ENDBRANCH   3   4
ENDBRANCH   2   3
ENDBRANCH   1   2
BRANCH   1  12
ATOM     12  C   UNL     1       4.187  43.507  10.902  1.00  0.00     0.000 C 
BRANCH  12  13
ATOM     13  C   UNL     1       4.586  44.973  11.193  1.00  0.00    -0.000 C 
BRANCH  13  14
ATOM     14  C   UNL     1       5.586  45.124  12.354  1.00  0.00    -0.000 C 
BRANCH  14  15
ATOM     15  C   UNL     1       7.048  45.071  11.875  1.00  0.00    -0.000 C 
BRANCH  15  16
ATOM     16  C   UNL     1       7.167  44.797  10.367  1.00  0.00    -0.000 C 
BRANCH  16  17
ATOM     17  C   UNL     1       7.753  43.407  10.063  1.00  0.00    -0.000 C 
BRANCH  17  18
ATOM     18  C   UNL     1       7.598  42.432  11.241  1.00  0.00    -0.003 C 
ATOM     19  C   UNL     1       7.449  40.977  10.791  1.00  0.00     0.004 C 
ENDBRANCH  17  18
ENDBRANCH  16  17
ENDBRANCH  15  16
ENDBRANCH  14  15
ENDBRANCH  13  14
ENDBRANCH  12  13
ENDBRANCH   1  12
TORSDOF 14
ENDMDL
