MODEL 1
REMARK VINA RESULT:    -3.689      0.000      0.000
REMARK INTER + INTRA:          -8.316
REMARK INTER:                  -7.139
REMARK INTRA:                  -1.177
REMARK UNBOUND:                -1.177
REMARK SMILES CCCCCCCCCCCCCCCCCC(=O)[O-]
REMARK SMILES IDX 10 1 11 2 12 3 13 4 14 5 15 6 16 7 17 8 18 9 19 10 20 11
REMARK SMILES IDX 9 12 8 13 7 14 6 15 5 16 4 17 3 18 2 19 1 20
REMARK H PARENT
REMARK Flexibility Score: inf
ROOT
ATOM      1  C   UNL     1      47.453  47.209  42.103  1.00  0.00     0.000 C 
ENDROOT
BRANCH   1   2
ATOM      2  C   UNL     1      48.913  47.395  41.661  1.00  0.00     0.000 C 
BRANCH   2   3
ATOM      3  C   UNL     1      49.868  46.636  42.590  1.00  0.00     0.000 C 
BRANCH   3   4
ATOM      4  C   UNL     1      49.407  46.731  44.051  1.00  0.00     0.000 C 
BRANCH   4   5
ATOM      5  C   UNL     1      50.330  45.973  45.023  1.00  0.00     0.000 C 
BRANCH   5   6
ATOM      6  C   UNL     1      51.828  46.308  44.899  1.00  0.00     0.000 C 
BRANCH   6   7
ATOM      7  C   UNL     1      52.698  45.217  44.248  1.00  0.00     0.006 C 
BRANCH   7   8
ATOM      8  C   UNL     1      53.928  45.761  43.500  1.00  0.00     0.053 C 
BRANCH   8   9
ATOM      9  C   UNL     1      53.846  45.537  42.021  1.00  0.00     0.041 C 
ATOM     10  O   UNL     1      52.786  45.093  41.504  1.00  0.00    -0.550 OA
ATOM     11  O   UNL     1      54.927  45.852  41.207  1.00  0.00    -0.550 OA
ENDBRANCH   8   9
ENDBRANCH   7   8
ENDBRANCH   6   7
ENDBRANCH   5   6
ENDBRANCH   4   5
ENDBRANCH   3   4
ENDBRANCH   2   3
ENDBRANCH   1   2
BRANCH   1  12
ATOM     12  C   UNL     1      46.822  45.917  41.554  1.00  0.00     0.000 C 
BRANCH  12  13
ATOM     13  C   UNL     1      45.451  46.099  40.875  1.00  0.00    -0.000 C 
BRANCH  13  14
ATOM     14  C   UNL     1      44.441  44.962  41.127  1.00  0.00    -0.000 C 
BRANCH  14  15
ATOM     15  C   UNL     1      43.088  45.413  41.711  1.00  0.00    -0.000 C 
BRANCH  15  16
ATOM     16  C   UNL     1      42.386  46.544  40.933  1.00  0.00    -0.000 C 
BRANCH  16  17
ATOM     17  C   UNL     1      42.335  47.903  41.656  1.00  0.00    -0.000 C 
BRANCH  17  18
ATOM     18  C   UNL     1      43.423  48.877  41.173  1.00  0.00    -0.000 C 
BRANCH  18  19
ATOM     19  C   UNL     1      44.384  49.290  42.298  1.00  0.00    -0.003 C 
ATOM     20  C   UNL     1      43.717  50.169  43.356  1.00  0.00     0.004 C 
ENDBRANCH  18  19
ENDBRANCH  17  18
ENDBRANCH  16  17
ENDBRANCH  15  16
ENDBRANCH  14  15
ENDBRANCH  13  14
ENDBRANCH  12  13
ENDBRANCH   1  12
TORSDOF 16
ENDMDL
MODEL 2
REMARK VINA RESULT:    -3.453      2.056      2.820
REMARK INTER + INTRA:          -7.860
REMARK INTER:                  -6.412
REMARK INTRA:                  -1.448
REMARK UNBOUND:                -1.177
REMARK SMILES CCCCCCCCCCCCCCCCCC(=O)[O-]
REMARK SMILES IDX 10 1 11 2 12 3 13 4 14 5 15 6 16 7 17 8 18 9 19 10 20 11
REMARK SMILES IDX 9 12 8 13 7 14 6 15 5 16 4 17 3 18 2 19 1 20
REMARK H PARENT
REMARK Flexibility Score: inf
ROOT
ATOM      1  C   UNL     1      47.851  47.459  42.737  1.00  0.00     0.000 C 
ENDROOT
BRANCH   1   2
ATOM      2  C   UNL     1      49.071  46.541  42.903  1.00  0.00     0.000 C 
BRANCH   2   3
ATOM      3  C   UNL     1      50.264  47.059  42.089  1.00  0.00     0.000 C 
BRANCH   3   4
ATOM      4  C   UNL     1      50.931  45.921  41.304  1.00  0.00     0.000 C 
BRANCH   4   5
ATOM      5  C   UNL     1      52.033  45.204  42.106  1.00  0.00     0.000 C 
BRANCH   5   6
ATOM      6  C   UNL     1      52.809  46.095  43.094  1.00  0.00     0.000 C 
BRANCH   6   7
ATOM      7  C   UNL     1      52.813  45.611  44.557  1.00  0.00     0.006 C 
BRANCH   7   8
ATOM      8  C   UNL     1      51.409  45.426  45.159  1.00  0.00     0.053 C 
BRANCH   8   9
ATOM      9  C   UNL     1      50.992  46.588  46.008  1.00  0.00     0.041 C 
ATOM     10  O   UNL     1      51.820  47.493  46.297  1.00  0.00    -0.550 OA
ATOM     11  O   UNL     1      49.679  46.692  46.450  1.00  0.00    -0.550 OA
ENDBRANCH   8   9
ENDBRANCH   7   8
ENDBRANCH   6   7
ENDBRANCH   5   6
ENDBRANCH   4   5
ENDBRANCH   3   4
ENDBRANCH   2   3
ENDBRANCH   1   2
BRANCH   1  12
ATOM     12  C   UNL     1      46.978  47.080  41.527  1.00  0.00     0.000 C 
BRANCH  12  13
ATOM     13  C   UNL     1      46.772  45.566  41.321  1.00  0.00    -0.000 C 
BRANCH  13  14
ATOM     14  C   UNL     1      45.304  45.098  41.343  1.00  0.00    -0.000 C 
BRANCH  14  15
ATOM     15  C   UNL     1      44.277  46.159  40.903  1.00  0.00    -0.000 C 
BRANCH  15  16
ATOM     16  C   UNL     1      43.150  46.438  41.918  1.00  0.00    -0.000 C 
BRANCH  16  17
ATOM     17  C   UNL     1      42.314  47.700  41.638  1.00  0.00    -0.000 C 
BRANCH  17  18
ATOM     18  C   UNL     1      43.176  48.917  41.263  1.00  0.00    -0.000 C 
BRANCH  18  19
ATOM     19  C   UNL     1      44.200  49.271  42.353  1.00  0.00    -0.003 C 
ATOM     20  C   UNL     1      43.607  50.135  43.466  1.00  0.00     0.004 C 
ENDBRANCH  18  19
ENDBRANCH  17  18
ENDBRANCH  16  17
ENDBRANCH  15  16
ENDBRANCH  14  15
ENDBRANCH  13  14
ENDBRANCH  12  13
ENDBRANCH   1  12
TORSDOF 16
ENDMDL
MODEL 3
REMARK VINA RESULT:    -3.440      3.474      8.416
REMARK INTER + INTRA:          -7.835
REMARK INTER:                  -6.192
REMARK INTRA:                  -1.642
REMARK UNBOUND:                -1.177
REMARK SMILES CCCCCCCCCCCCCCCCCC(=O)[O-]
REMARK SMILES IDX 10 1 11 2 12 3 13 4 14 5 15 6 16 7 17 8 18 9 19 10 20 11
REMARK SMILES IDX 9 12 8 13 7 14 6 15 5 16 4 17 3 18 2 19 1 20
REMARK H PARENT
REMARK Flexibility Score: inf
ROOT
ATOM      1  C   UNL     1      48.975  46.995  41.772  1.00  0.00     0.000 C 
ENDROOT
BRANCH   1   2
ATOM      2  C   UNL     1      48.950  45.610  42.434  1.00  0.00     0.000 C 
BRANCH   2   3
ATOM      3  C   UNL     1      47.547  44.993  42.364  1.00  0.00     0.000 C 
BRANCH   3   4
ATOM      4  C   UNL     1      46.920  45.208  40.980  1.00  0.00     0.000 C 
BRANCH   4   5
ATOM      5  C   UNL     1      45.389  45.359  41.031  1.00  0.00     0.000 C 
BRANCH   5   6
ATOM      6  C   UNL     1      44.869  46.804  40.922  1.00  0.00     0.000 C 
BRANCH   6   7
ATOM      7  C   UNL     1      43.505  47.068  41.590  1.00  0.00     0.006 C 
BRANCH   7   8
ATOM      8  C   UNL     1      42.944  48.478  41.330  1.00  0.00     0.053 C 
BRANCH   8   9
ATOM      9  C   UNL     1      43.758  49.549  41.988  1.00  0.00     0.041 C 
ATOM     10  O   UNL     1      43.648  49.761  43.225  1.00  0.00    -0.550 OA
ATOM     11  O   UNL     1      44.667  50.290  41.243  1.00  0.00    -0.550 OA
ENDBRANCH   8   9
ENDBRANCH   7   8
ENDBRANCH   6   7
ENDBRANCH   5   6
ENDBRANCH   4   5
ENDBRANCH   3   4
ENDBRANCH   2   3
ENDBRANCH   1   2
BRANCH   1  12
ATOM     12  C   UNL     1      50.303  47.741  41.995  1.00  0.00     0.000 C 
BRANCH  12  13
ATOM     13  C   UNL     1      51.350  47.556  40.879  1.00  0.00    -0.000 C 
BRANCH  13  14
ATOM     14  C   UNL     1      52.817  47.575  41.349  1.00  0.00    -0.000 C 
BRANCH  14  15
ATOM     15  C   UNL     1      53.450  46.186  41.557  1.00  0.00    -0.000 C 
BRANCH  15  16
ATOM     16  C   UNL     1      52.575  45.179  42.330  1.00  0.00    -0.000 C 
BRANCH  16  17
ATOM     17  C   UNL     1      52.924  45.016  43.821  1.00  0.00    -0.000 C 
BRANCH  17  18
ATOM     18  C   UNL     1      52.338  46.137  44.696  1.00  0.00    -0.000 C 
BRANCH  18  19
ATOM     19  C   UNL     1      51.224  45.635  45.627  1.00  0.00    -0.003 C 
ATOM     20  C   UNL     1      50.100  46.654  45.811  1.00  0.00     0.004 C 
ENDBRANCH  18  19
ENDBRANCH  17  18
ENDBRANCH  16  17
ENDBRANCH  15  16
ENDBRANCH  14  15
ENDBRANCH  13  14
ENDBRANCH  12  13
ENDBRANCH   1  12
TORSDOF 16
ENDMDL
MODEL 4
REMARK VINA RESULT:    -3.355      1.767      3.520
REMARK INTER + INTRA:          -7.669
REMARK INTER:                  -6.314
REMARK INTRA:                  -1.355
REMARK UNBOUND:                -1.177
REMARK SMILES CCCCCCCCCCCCCCCCCC(=O)[O-]
REMARK SMILES IDX 10 1 11 2 12 3 13 4 14 5 15 6 16 7 17 8 18 9 19 10 20 11
REMARK SMILES IDX 9 12 8 13 7 14 6 15 5 16 4 17 3 18 2 19 1 20
REMARK H PARENT
REMARK Flexibility Score: inf
ROOT
ATOM      1  C   UNL     1      49.368  46.580  44.723  1.00  0.00     0.000 C 
ENDROOT
BRANCH   1   2
ATOM      2  C   UNL     1      50.541  46.882  45.668  1.00  0.00     0.000 C 
BRANCH   2   3
ATOM      3  C   UNL     1      51.656  45.841  45.510  1.00  0.00     0.000 C 
BRANCH   3   4
ATOM      4  C   UNL     1      52.741  46.340  44.546  1.00  0.00     0.000 C 
BRANCH   4   5
ATOM      5  C   UNL     1      53.130  45.292  43.486  1.00  0.00     0.000 C 
BRANCH   5   6
ATOM      6  C   UNL     1      54.244  45.724  42.515  1.00  0.00     0.000 C 
BRANCH   6   7
ATOM      7  C   UNL     1      53.773  46.117  41.102  1.00  0.00     0.006 C 
BRANCH   7   8
ATOM      8  C   UNL     1      52.256  46.349  40.989  1.00  0.00     0.053 C 
BRANCH   8   9
ATOM      9  C   UNL     1      51.894  47.802  41.020  1.00  0.00     0.041 C 
ATOM     10  O   UNL     1      52.793  48.679  41.116  1.00  0.00    -0.550 OA
ATOM     11  O   UNL     1      50.565  48.191  40.906  1.00  0.00    -0.550 OA
ENDBRANCH   8   9
ENDBRANCH   7   8
ENDBRANCH   6   7
ENDBRANCH   5   6
ENDBRANCH   4   5
ENDBRANCH   3   4
ENDBRANCH   2   3
ENDBRANCH   1   2
BRANCH   1  12
ATOM     12  C   UNL     1      49.480  45.198  44.055  1.00  0.00     0.000 C 
BRANCH  12  13
ATOM     13  C   UNL     1      48.371  44.876  43.035  1.00  0.00    -0.000 C 
BRANCH  13  14
ATOM     14  C   UNL     1      48.628  45.391  41.605  1.00  0.00    -0.000 C 
BRANCH  14  15
ATOM     15  C   UNL     1      47.527  46.308  41.038  1.00  0.00    -0.000 C 
BRANCH  15  16
ATOM     16  C   UNL     1      46.114  45.692  41.011  1.00  0.00    -0.000 C 
BRANCH  16  17
ATOM     17  C   UNL     1      44.957  46.707  40.958  1.00  0.00    -0.000 C 
BRANCH  17  18
ATOM     18  C   UNL     1      45.180  47.914  41.885  1.00  0.00    -0.000 C 
BRANCH  18  19
ATOM     19  C   UNL     1      44.095  48.989  41.721  1.00  0.00    -0.003 C 
ATOM     20  C   UNL     1      42.680  48.410  41.723  1.00  0.00     0.004 C 
ENDBRANCH  18  19
ENDBRANCH  17  18
ENDBRANCH  16  17
ENDBRANCH  15  16
ENDBRANCH  14  15
ENDBRANCH  13  14
ENDBRANCH  12  13
ENDBRANCH   1  12
TORSDOF 16
ENDMDL
MODEL 5
REMARK VINA RESULT:    -2.825     23.272     24.535
REMARK INTER + INTRA:          -6.644
REMARK INTER:                  -5.460
REMARK INTRA:                  -1.184
REMARK UNBOUND:                -1.177
REMARK SMILES CCCCCCCCCCCCCCCCCC(=O)[O-]
REMARK SMILES IDX 10 1 11 2 12 3 13 4 14 5 15 6 16 7 17 8 18 9 19 10 20 11
REMARK SMILES IDX 9 12 8 13 7 14 6 15 5 16 4 17 3 18 2 19 1 20
REMARK H PARENT
REMARK Flexibility Score: inf
ROOT
ATOM      1  C   UNL     1      41.232  64.860  57.520  1.00  0.00     0.000 C 
ENDROOT
BRANCH   1   2
ATOM      2  C   UNL     1      41.805  64.002  56.382  1.00  0.00     0.000 C 
BRANCH   2   3
ATOM      3  C   UNL     1      43.295  64.299  56.167  1.00  0.00     0.000 C 
BRANCH   3   4
ATOM      4  C   UNL     1      43.973  64.691  57.487  1.00  0.00     0.000 C 
BRANCH   4   5
ATOM      5  C   UNL     1      45.324  63.984  57.701  1.00  0.00     0.000 C 
BRANCH   5   6
ATOM      6  C   UNL     1      46.489  64.906  58.107  1.00  0.00     0.000 C 
BRANCH   6   7
ATOM      7  C   UNL     1      47.010  64.719  59.544  1.00  0.00     0.006 C 
BRANCH   7   8
ATOM      8  C   UNL     1      46.617  63.375  60.183  1.00  0.00     0.053 C 
BRANCH   8   9
ATOM      9  C   UNL     1      47.802  62.499  60.450  1.00  0.00     0.041 C 
ATOM     10  O   UNL     1      47.647  61.267  60.662  1.00  0.00    -0.550 OA
ATOM     11  O   UNL     1      49.084  63.035  60.428  1.00  0.00    -0.550 OA
ENDBRANCH   8   9
ENDBRANCH   7   8
ENDBRANCH   6   7
ENDBRANCH   5   6
ENDBRANCH   4   5
ENDBRANCH   3   4
ENDBRANCH   2   3
ENDBRANCH   1   2
BRANCH   1  12
ATOM     12  C   UNL     1      39.731  64.614  57.755  1.00  0.00     0.000 C 
BRANCH  12  13
ATOM     13  C   UNL     1      39.405  63.497  58.767  1.00  0.00    -0.000 C 
BRANCH  13  14
ATOM     14  C   UNL     1      39.006  62.146  58.142  1.00  0.00    -0.000 C 
BRANCH  14  15
ATOM     15  C   UNL     1      38.672  61.035  59.156  1.00  0.00    -0.000 C 
BRANCH  15  16
ATOM     16  C   UNL     1      37.897  61.502  60.404  1.00  0.00    -0.000 C 
BRANCH  16  17
ATOM     17  C   UNL     1      36.383  61.699  60.201  1.00  0.00    -0.000 C 
BRANCH  17  18
ATOM     18  C   UNL     1      35.832  62.918  60.960  1.00  0.00    -0.000 C 
BRANCH  18  19
ATOM     19  C   UNL     1      35.040  63.868  60.049  1.00  0.00    -0.003 C 
ATOM     20  C   UNL     1      35.917  64.559  59.005  1.00  0.00     0.004 C 
ENDBRANCH  18  19
ENDBRANCH  17  18
ENDBRANCH  16  17
ENDBRANCH  15  16
ENDBRANCH  14  15
ENDBRANCH  13  14
ENDBRANCH  12  13
ENDBRANCH   1  12
TORSDOF 16
ENDMDL
MODEL 6
REMARK VINA RESULT:    -2.763     23.240     25.437
REMARK INTER + INTRA:          -6.524
REMARK INTER:                  -5.296
REMARK INTRA:                  -1.228
REMARK UNBOUND:                -1.177
REMARK SMILES CCCCCCCCCCCCCCCCCC(=O)[O-]
REMARK SMILES IDX 10 1 11 2 12 3 13 4 14 5 15 6 16 7 17 8 18 9 19 10 20 11
REMARK SMILES IDX 9 12 8 13 7 14 6 15 5 16 4 17 3 18 2 19 1 20
REMARK H PARENT
REMARK Flexibility Score: inf
ROOT
ATOM      1  C   UNL     1      43.075  63.596  56.316  1.00  0.00     0.000 C 
ENDROOT
BRANCH   1   2
ATOM      2  C   UNL     1      41.679  63.932  55.771  1.00  0.00     0.000 C 
BRANCH   2   3
ATOM      3  C   UNL     1      41.070  65.125  56.518  1.00  0.00     0.000 C 
BRANCH   3   4
ATOM      4  C   UNL     1      41.210  64.953  58.037  1.00  0.00     0.000 C 
BRANCH   4   5
ATOM      5  C   UNL     1      39.856  64.961  58.770  1.00  0.00     0.000 C 
BRANCH   5   6
ATOM      6  C   UNL     1      38.852  63.892  58.302  1.00  0.00     0.000 C 
BRANCH   6   7
ATOM      7  C   UNL     1      39.329  62.433  58.434  1.00  0.00     0.006 C 
BRANCH   7   8
ATOM      8  C   UNL     1      38.195  61.395  58.371  1.00  0.00     0.053 C 
BRANCH   8   9
ATOM      9  C   UNL     1      37.485  61.242  59.681  1.00  0.00     0.041 C 
ATOM     10  O   UNL     1      37.937  60.464  60.562  1.00  0.00    -0.550 OA
ATOM     11  O   UNL     1      36.342  61.988  59.946  1.00  0.00    -0.550 OA
ENDBRANCH   8   9
ENDBRANCH   7   8
ENDBRANCH   6   7
ENDBRANCH   5   6
ENDBRANCH   4   5
ENDBRANCH   3   4
ENDBRANCH   2   3
ENDBRANCH   1   2
BRANCH   1  12
ATOM     12  C   UNL     1      44.204  64.309  55.548  1.00  0.00     0.000 C 
BRANCH  12  13
ATOM     13  C   UNL     1      45.177  65.120  56.427  1.00  0.00    -0.000 C 
BRANCH  13  14
ATOM     14  C   UNL     1      45.162  64.757  57.924  1.00  0.00    -0.000 C 
BRANCH  14  15
ATOM     15  C   UNL     1      46.490  64.196  58.470  1.00  0.00    -0.000 C 
BRANCH  15  16
ATOM     16  C   UNL     1      46.590  64.133  60.007  1.00  0.00    -0.000 C 
BRANCH  16  17
ATOM     17  C   UNL     1      46.951  62.752  60.584  1.00  0.00    -0.000 C 
BRANCH  17  18
ATOM     18  C   UNL     1      48.466  62.482  60.581  1.00  0.00    -0.000 C 
BRANCH  18  19
ATOM     19  C   UNL     1      49.294  63.776  60.550  1.00  0.00    -0.003 C 
ATOM     20  C   UNL     1      50.626  63.611  59.819  1.00  0.00     0.004 C 
ENDBRANCH  18  19
ENDBRANCH  17  18
ENDBRANCH  16  17
ENDBRANCH  15  16
ENDBRANCH  14  15
ENDBRANCH  13  14
ENDBRANCH  12  13
ENDBRANCH   1  12
TORSDOF 16
ENDMDL
MODEL 7
REMARK VINA RESULT:    -2.434      3.551      8.330
REMARK INTER + INTRA:          -5.887
REMARK INTER:                  -5.639
REMARK INTRA:                  -0.248
REMARK UNBOUND:                -1.177
REMARK SMILES CCCCCCCCCCCCCCCCCC(=O)[O-]
REMARK SMILES IDX 10 1 11 2 12 3 13 4 14 5 15 6 16 7 17 8 18 9 19 10 20 11
REMARK SMILES IDX 9 12 8 13 7 14 6 15 5 16 4 17 3 18 2 19 1 20
REMARK H PARENT
REMARK Flexibility Score: inf
ROOT
ATOM      1  C   UNL     1      46.960  46.476  41.880  1.00  0.00     0.000 C 
ENDROOT
BRANCH   1   2
ATOM      2  C   UNL     1      46.473  45.196  41.185  1.00  0.00     0.000 C 
BRANCH   2   3
ATOM      3  C   UNL     1      44.963  45.008  41.375  1.00  0.00     0.000 C 
BRANCH   3   4
ATOM      4  C   UNL     1      44.188  46.235  40.875  1.00  0.00     0.000 C 
BRANCH   4   5
ATOM      5  C   UNL     1      42.831  46.416  41.579  1.00  0.00     0.000 C 
BRANCH   5   6
ATOM      6  C   UNL     1      42.454  47.871  41.912  1.00  0.00     0.000 C 
BRANCH   6   7
ATOM      7  C   UNL     1      43.169  48.948  41.073  1.00  0.00     0.006 C 
BRANCH   7   8
ATOM      8  C   UNL     1      44.231  49.744  41.852  1.00  0.00     0.053 C 
BRANCH   8   9
ATOM      9  C   UNL     1      43.878  49.909  43.299  1.00  0.00     0.041 C 
ATOM     10  O   UNL     1      42.723  49.616  43.708  1.00  0.00    -0.550 OA
ATOM     11  O   UNL     1      44.834  50.352  44.204  1.00  0.00    -0.550 OA
ENDBRANCH   8   9
ENDBRANCH   7   8
ENDBRANCH   6   7
ENDBRANCH   5   6
ENDBRANCH   4   5
ENDBRANCH   3   4
ENDBRANCH   2   3
ENDBRANCH   1   2
BRANCH   1  12
ATOM     12  C   UNL     1      48.493  46.619  41.863  1.00  0.00     0.000 C 
BRANCH  12  13
ATOM     13  C   UNL     1      49.236  45.571  41.012  1.00  0.00    -0.000 C 
BRANCH  13  14
ATOM     14  C   UNL     1      50.755  45.797  40.876  1.00  0.00    -0.000 C 
BRANCH  14  15
ATOM     15  C   UNL     1      51.368  46.736  41.932  1.00  0.00    -0.000 C 
BRANCH  15  16
ATOM     16  C   UNL     1      52.296  46.051  42.955  1.00  0.00    -0.000 C 
BRANCH  16  17
ATOM     17  C   UNL     1      51.974  46.346  44.432  1.00  0.00    -0.000 C 
BRANCH  17  18
ATOM     18  C   UNL     1      50.518  46.792  44.648  1.00  0.00    -0.000 C 
BRANCH  18  19
ATOM     19  C   UNL     1      50.197  47.055  46.127  1.00  0.00    -0.003 C 
ATOM     20  C   UNL     1      51.442  47.063  47.013  1.00  0.00     0.004 C 
ENDBRANCH  18  19
ENDBRANCH  17  18
ENDBRANCH  16  17
ENDBRANCH  15  16
ENDBRANCH  14  15
ENDBRANCH  13  14
ENDBRANCH  12  13
ENDBRANCH   1  12
TORSDOF 16
ENDMDL
MODEL 8
REMARK VINA RESULT:    -2.331     22.298     24.109
REMARK INTER + INTRA:          -5.687
REMARK INTER:                  -5.303
REMARK INTRA:                  -0.385
REMARK UNBOUND:                -1.177
REMARK SMILES CCCCCCCCCCCCCCCCCC(=O)[O-]
REMARK SMILES IDX 10 1 11 2 12 3 13 4 14 5 15 6 16 7 17 8 18 9 19 10 20 11
REMARK SMILES IDX 9 12 8 13 7 14 6 15 5 16 4 17 3 18 2 19 1 20
REMARK H PARENT
REMARK Flexibility Score: inf
ROOT
ATOM      1  C   UNL     1      43.442  63.213  55.801  1.00  0.00     0.000 C 
ENDROOT
BRANCH   1   2
ATOM      2  C   UNL     1      44.716  63.867  55.246  1.00  0.00     0.000 C 
BRANCH   2   3
ATOM      3  C   UNL     1      45.081  65.125  56.044  1.00  0.00     0.000 C 
BRANCH   3   4
ATOM      4  C   UNL     1      45.213  64.808  57.540  1.00  0.00     0.000 C 
BRANCH   4   5
ATOM      5  C   UNL     1      46.662  64.906  58.049  1.00  0.00     0.000 C 
BRANCH   5   6
ATOM      6  C   UNL     1      46.988  64.030  59.272  1.00  0.00     0.000 C 
BRANCH   6   7
ATOM      7  C   UNL     1      47.460  64.792  60.525  1.00  0.00     0.006 C 
BRANCH   7   8
ATOM      8  C   UNL     1      48.989  64.824  60.699  1.00  0.00     0.053 C 
BRANCH   8   9
ATOM      9  C   UNL     1      49.640  63.540  60.287  1.00  0.00     0.041 C 
ATOM     10  O   UNL     1      49.147  62.435  60.641  1.00  0.00    -0.550 OA
ATOM     11  O   UNL     1      50.772  63.559  59.481  1.00  0.00    -0.550 OA
ENDBRANCH   8   9
ENDBRANCH   7   8
ENDBRANCH   6   7
ENDBRANCH   5   6
ENDBRANCH   4   5
ENDBRANCH   3   4
ENDBRANCH   2   3
ENDBRANCH   1   2
BRANCH   1  12
ATOM     12  C   UNL     1      42.205  64.124  55.690  1.00  0.00     0.000 C 
BRANCH  12  13
ATOM     13  C   UNL     1      41.752  64.773  57.012  1.00  0.00    -0.000 C 
BRANCH  13  14
ATOM     14  C   UNL     1      40.226  64.841  57.218  1.00  0.00    -0.000 C 
BRANCH  14  15
ATOM     15  C   UNL     1      39.776  65.055  58.675  1.00  0.00    -0.000 C 
BRANCH  15  16
ATOM     16  C   UNL     1      38.305  64.694  58.964  1.00  0.00    -0.000 C 
BRANCH  16  17
ATOM     17  C   UNL     1      37.896  63.259  58.586  1.00  0.00    -0.000 C 
BRANCH  17  18
ATOM     18  C   UNL     1      38.128  62.252  59.725  1.00  0.00    -0.000 C 
BRANCH  18  19
ATOM     19  C   UNL     1      38.480  60.848  59.208  1.00  0.00    -0.003 C 
ATOM     20  C   UNL     1      39.141  59.972  60.271  1.00  0.00     0.004 C 
ENDBRANCH  18  19
ENDBRANCH  17  18
ENDBRANCH  16  17
ENDBRANCH  15  16
ENDBRANCH  14  15
ENDBRANCH  13  14
ENDBRANCH  12  13
ENDBRANCH   1  12
TORSDOF 16
ENDMDL
