MODEL 1
REMARK VINA RESULT:     8.945      0.000      0.000
REMARK INTER + INTRA:          10.613
REMARK INTER:                  10.775
REMARK INTRA:                  -0.163
REMARK UNBOUND:                -0.163
REMARK SMILES O=c1c(O)c(-c2ccc(O)c(O)c2)oc2cc(O)cc(O)c12
REMARK SMILES IDX 5 1 3 2 2 3 1 4 22 5 20 6 19 7 17 8 16 9 15 10 14 11 6 12
REMARK SMILES IDX 7 13 8 14 9 15 13 16 11 17 10 18 12 20 4 22 21 24 18 26
REMARK H PARENT 10 19 12 21 4 23 21 25 18 27
REMARK Flexibility Score: inf
ROOT
ATOM      1  C   UNL     1     142.000 173.878 174.201  1.00  0.00     0.180 A 
ATOM      2  C   UNL     1     142.046 174.655 175.372  1.00  0.00     0.208 A 
ATOM      3  C   UNL     1     141.862 174.025 176.614  1.00  0.00     0.238 A 
ATOM      4  O   UNL     1     141.958 174.716 177.662  1.00  0.00    -0.285 OA
ATOM      5  C   UNL     1     141.620 172.631 176.668  1.00  0.00     0.111 A 
ATOM      6  C   UNL     1     141.380 171.896 177.868  1.00  0.00     0.134 A 
ATOM      7  C   UNL     1     141.282 170.500 177.815  1.00  0.00     0.093 A 
ATOM      8  C   UNL     1     141.349 169.819 176.597  1.00  0.00     0.123 A 
ATOM      9  C   UNL     1     141.524 170.533 175.414  1.00  0.00     0.094 A 
ATOM     10  C   UNL     1     141.662 171.923 175.439  1.00  0.00     0.146 A 
ATOM     11  O   UNL     1     141.837 172.563 174.289  1.00  0.00    -0.452 OA
ENDROOT
BRANCH   1  12
ATOM     12  C   UNL     1     142.159 174.475 172.856  1.00  0.00     0.025 A 
ATOM     13  C   UNL     1     143.399 175.019 172.483  1.00  0.00     0.016 A 
ATOM     14  C   UNL     1     143.578 175.569 171.211  1.00  0.00     0.051 A 
ATOM     15  C   UNL     1     142.529 175.568 170.287  1.00  0.00     0.157 A 
ATOM     16  C   UNL     1     141.113 174.456 171.917  1.00  0.00     0.062 A 
ATOM     17  C   UNL     1     141.291 175.006 170.638  1.00  0.00     0.158 A 
BRANCH  15  18
ATOM     18  O   UNL     1     142.737 176.125 169.026  1.00  0.00    -0.504 OA
ATOM     19  H   UNL     1     143.592 175.972 168.505  1.00  0.00     0.293 HD
ENDBRANCH  15  18
BRANCH  17  20
ATOM     20  O   UNL     1     140.245 174.988 169.717  1.00  0.00    -0.504 OA
ATOM     21  H   UNL     1     139.284 174.848 170.006  1.00  0.00     0.293 HD
ENDBRANCH  17  20
ENDBRANCH   1  12
BRANCH   2  22
ATOM     22  O   UNL     1     142.308 176.025 175.298  1.00  0.00    -0.502 OA
ATOM     23  H   UNL     1     142.638 176.471 174.450  1.00  0.00     0.293 HD
ENDBRANCH   2  22
BRANCH   6  24
ATOM     24  O   UNL     1     141.205 172.487 179.123  1.00  0.00    -0.507 OA
ATOM     25  H   UNL     1     141.664 172.184 179.969  1.00  0.00     0.293 HD
ENDBRANCH   6  24
BRANCH   8  26
ATOM     26  O   UNL     1     141.235 168.431 176.551  1.00  0.00    -0.508 OA
ATOM     27  H   UNL     1     141.532 167.902 175.740  1.00  0.00     0.293 HD
ENDBRANCH   8  26
TORSDOF 6
ENDMDL
MODEL 2
REMARK VINA RESULT:     9.820      1.739      6.999
REMARK INTER + INTRA:          11.667
REMARK INTER:                  11.979
REMARK INTRA:                  -0.312
REMARK UNBOUND:                -0.163
REMARK SMILES O=c1c(O)c(-c2ccc(O)c(O)c2)oc2cc(O)cc(O)c12
REMARK SMILES IDX 5 1 3 2 2 3 1 4 22 5 20 6 19 7 17 8 16 9 15 10 14 11 6 12
REMARK SMILES IDX 7 13 8 14 9 15 13 16 11 17 10 18 12 20 4 22 21 24 18 26
REMARK H PARENT 10 19 12 21 4 23 21 25 18 27
REMARK Flexibility Score: inf
ROOT
ATOM      1  C   UNL     1     142.393 174.540 173.759  1.00  0.00     0.180 A 
ATOM      2  C   UNL     1     143.574 175.111 173.252  1.00  0.00     0.208 A 
ATOM      3  C   UNL     1     143.606 175.530 171.911  1.00  0.00     0.238 A 
ATOM      4  O   UNL     1     144.647 176.089 171.479  1.00  0.00    -0.285 OA
ATOM      5  C   UNL     1     142.465 175.358 171.091  1.00  0.00     0.111 A 
ATOM      6  C   UNL     1     142.400 175.709 169.710  1.00  0.00     0.134 A 
ATOM      7  C   UNL     1     141.179 175.615 169.031  1.00  0.00     0.093 A 
ATOM      8  C   UNL     1     140.037 175.122 169.666  1.00  0.00     0.123 A 
ATOM      9  C   UNL     1     140.105 174.722 170.998  1.00  0.00     0.094 A 
ATOM     10  C   UNL     1     141.300 174.837 171.713  1.00  0.00     0.146 A 
ATOM     11  O   UNL     1     141.318 174.453 172.983  1.00  0.00    -0.452 OA
ENDROOT
BRANCH   1  12
ATOM     12  C   UNL     1     142.291 174.053 175.153  1.00  0.00     0.025 A 
ATOM     13  C   UNL     1     141.623 174.833 176.111  1.00  0.00     0.016 A 
ATOM     14  C   UNL     1     141.496 174.383 177.427  1.00  0.00     0.051 A 
ATOM     15  C   UNL     1     142.019 173.142 177.804  1.00  0.00     0.157 A 
ATOM     16  C   UNL     1     142.796 172.796 175.529  1.00  0.00     0.062 A 
ATOM     17  C   UNL     1     142.668 172.341 176.850  1.00  0.00     0.158 A 
BRANCH  15  18
ATOM     18  O   UNL     1     141.879 172.720 179.125  1.00  0.00    -0.504 OA
ATOM     19  H   UNL     1     142.445 173.099 179.874  1.00  0.00     0.293 HD
ENDBRANCH  15  18
BRANCH  17  20
ATOM     20  O   UNL     1     143.179 171.096 177.215  1.00  0.00    -0.504 OA
ATOM     21  H   UNL     1     144.057 171.007 177.713  1.00  0.00     0.293 HD
ENDBRANCH  17  20
ENDBRANCH   1  12
BRANCH   2  22
ATOM     22  O   UNL     1     144.681 175.291 174.084  1.00  0.00    -0.502 OA
ATOM     23  H   UNL     1     144.906 174.651 174.837  1.00  0.00     0.293 HD
ENDBRANCH   2  22
BRANCH   6  24
ATOM     24  O   UNL     1     143.502 176.124 168.957  1.00  0.00    -0.507 OA
ATOM     25  H   UNL     1     143.957 177.020 169.051  1.00  0.00     0.293 HD
ENDBRANCH   6  24
BRANCH   8  26
ATOM     26  O   UNL     1     138.829 175.018 168.978  1.00  0.00    -0.508 OA
ATOM     27  H   UNL     1     137.972 175.409 169.351  1.00  0.00     0.293 HD
ENDBRANCH   8  26
TORSDOF 6
ENDMDL
MODEL 3
REMARK VINA RESULT:    10.501      0.722      1.532
REMARK INTER + INTRA:          12.487
REMARK INTER:                  12.694
REMARK INTRA:                  -0.207
REMARK UNBOUND:                -0.163
REMARK SMILES O=c1c(O)c(-c2ccc(O)c(O)c2)oc2cc(O)cc(O)c12
REMARK SMILES IDX 5 1 3 2 2 3 1 4 22 5 20 6 19 7 17 8 16 9 15 10 14 11 6 12
REMARK SMILES IDX 7 13 8 14 9 15 13 16 11 17 10 18 12 20 4 22 21 24 18 26
REMARK H PARENT 10 19 12 21 4 23 21 25 18 27
REMARK Flexibility Score: inf
ROOT
ATOM      1  C   UNL     1     142.045 173.826 174.302  1.00  0.00     0.180 A 
ATOM      2  C   UNL     1     141.942 174.616 175.460  1.00  0.00     0.208 A 
ATOM      3  C   UNL     1     141.636 173.996 176.683  1.00  0.00     0.238 A 
ATOM      4  O   UNL     1     141.599 174.700 177.725  1.00  0.00    -0.285 OA
ATOM      5  C   UNL     1     141.421 172.597 176.729  1.00  0.00     0.111 A 
ATOM      6  C   UNL     1     141.066 171.870 177.905  1.00  0.00     0.134 A 
ATOM      7  C   UNL     1     141.007 170.472 177.860  1.00  0.00     0.093 A 
ATOM      8  C   UNL     1     141.225 169.779 176.667  1.00  0.00     0.123 A 
ATOM      9  C   UNL     1     141.514 170.484 175.501  1.00  0.00     0.094 A 
ATOM     10  C   UNL     1     141.616 171.877 175.521  1.00  0.00     0.146 A 
ATOM     11  O   UNL     1     141.903 172.508 174.389  1.00  0.00    -0.452 OA
ENDROOT
BRANCH   1  12
ATOM     12  C   UNL     1     142.339 174.410 172.974  1.00  0.00     0.025 A 
ATOM     13  C   UNL     1     141.322 174.477 172.008  1.00  0.00     0.016 A 
ATOM     14  C   UNL     1     141.571 175.044 170.756  1.00  0.00     0.051 A 
ATOM     15  C   UNL     1     142.832 175.566 170.454  1.00  0.00     0.157 A 
ATOM     16  C   UNL     1     143.601 174.955 172.676  1.00  0.00     0.062 A 
ATOM     17  C   UNL     1     143.852 175.527 171.419  1.00  0.00     0.158 A 
BRANCH  15  18
ATOM     18  O   UNL     1     143.052 176.124 169.195  1.00  0.00    -0.504 OA
ATOM     19  H   UNL     1     143.224 177.114 169.068  1.00  0.00     0.293 HD
ENDBRANCH  15  18
BRANCH  17  20
ATOM     20  O   UNL     1     145.108 176.059 171.131  1.00  0.00    -0.504 OA
ATOM     21  H   UNL     1     145.568 175.885 170.245  1.00  0.00     0.293 HD
ENDBRANCH  17  20
ENDBRANCH   1  12
BRANCH   2  22
ATOM     22  O   UNL     1     142.179 175.992 175.396  1.00  0.00    -0.502 OA
ATOM     23  H   UNL     1     141.641 176.610 174.801  1.00  0.00     0.293 HD
ENDBRANCH   2  22
BRANCH   6  24
ATOM     24  O   UNL     1     140.739 172.470 179.124  1.00  0.00    -0.507 OA
ATOM     25  H   UNL     1     140.941 172.076 180.031  1.00  0.00     0.293 HD
ENDBRANCH   6  24
BRANCH   8  26
ATOM     26  O   UNL     1     141.149 168.388 176.628  1.00  0.00    -0.508 OA
ATOM     27  H   UNL     1     140.553 167.909 175.964  1.00  0.00     0.293 HD
ENDBRANCH   8  26
TORSDOF 6
ENDMDL
