MODEL 1
REMARK VINA RESULT:    -5.045      0.000      0.000
REMARK INTER + INTRA:          -5.667
REMARK INTER:                  -5.487
REMARK INTRA:                  -0.180
REMARK UNBOUND:                -0.180
REMARK SMILES Cc1ccc(C(C)C)c(O)c1
REMARK SMILES IDX 1 1 2 2 11 3 9 4 5 5 4 6 3 7 10 8 6 10 7 11 8 12
REMARK H PARENT 10 9
REMARK Flexibility Score: inf
ROOT
ATOM      1  C   UNL     1      23.080   3.355  11.891  1.00  0.00     0.044 C 
ATOM      2  C   UNL     1      24.073   2.407  12.497  1.00  0.00    -0.047 A 
ATOM      3  C   UNL     1      25.447   2.612  12.314  1.00  0.00     0.049 A 
ATOM      4  C   UNL     1      26.381   1.711  12.845  1.00  0.00     0.119 A 
ATOM      5  C   UNL     1      25.939   0.575  13.565  1.00  0.00    -0.004 A 
ATOM      6  C   UNL     1      24.556   0.372  13.724  1.00  0.00     0.008 A 
ATOM      7  C   UNL     1      23.634   1.275  13.192  1.00  0.00     0.004 A 
ENDROOT
BRANCH   4   8
ATOM      8  O   UNL     1      27.742   1.947  12.653  1.00  0.00    -0.508 OA
ATOM      9  H   UNL     1      28.395   1.958  13.428  1.00  0.00     0.293 HD
ENDBRANCH   4   8
BRANCH   5  10
ATOM     10  C   UNL     1      26.904  -0.438  14.165  1.00  0.00     0.017 C 
ATOM     11  C   UNL     1      27.361  -1.474  13.130  1.00  0.00     0.012 C 
ATOM     12  C   UNL     1      26.320  -1.110  15.415  1.00  0.00     0.012 C 
ENDBRANCH   5  10
TORSDOF 2
ENDMDL
MODEL 2
REMARK VINA RESULT:    -4.777      1.931      2.980
REMARK INTER + INTRA:          -5.377
REMARK INTER:                  -5.322
REMARK INTRA:                  -0.055
REMARK UNBOUND:                -0.180
REMARK SMILES Cc1ccc(C(C)C)c(O)c1
REMARK SMILES IDX 1 1 2 2 11 3 9 4 5 5 4 6 3 7 10 8 6 10 7 11 8 12
REMARK H PARENT 10 9
REMARK Flexibility Score: inf
ROOT
ATOM      1  C   UNL     1      23.000   1.640  12.600  1.00  0.00     0.044 C 
ATOM      2  C   UNL     1      24.501   1.633  12.580  1.00  0.00    -0.047 A 
ATOM      3  C   UNL     1      25.201   0.420  12.564  1.00  0.00     0.049 A 
ATOM      4  C   UNL     1      26.603   0.403  12.584  1.00  0.00     0.119 A 
ATOM      5  C   UNL     1      27.325   1.619  12.631  1.00  0.00    -0.004 A 
ATOM      6  C   UNL     1      26.608   2.830  12.666  1.00  0.00     0.008 A 
ATOM      7  C   UNL     1      25.213   2.836  12.646  1.00  0.00     0.004 A 
ENDROOT
BRANCH   4   8
ATOM      8  O   UNL     1      27.271  -0.821  12.558  1.00  0.00    -0.508 OA
ATOM      9  H   UNL     1      28.056  -0.987  11.939  1.00  0.00     0.293 HD
ENDBRANCH   4   8
BRANCH   5  10
ATOM     10  C   UNL     1      28.847   1.666  12.653  1.00  0.00     0.017 C 
ATOM     11  C   UNL     1      29.416   1.112  13.965  1.00  0.00     0.012 C 
ATOM     12  C   UNL     1      29.378   3.075  12.359  1.00  0.00     0.012 C 
ENDBRANCH   5  10
TORSDOF 2
ENDMDL
MODEL 3
REMARK VINA RESULT:    -4.763      2.136      4.515
REMARK INTER + INTRA:          -5.361
REMARK INTER:                  -5.168
REMARK INTRA:                  -0.193
REMARK UNBOUND:                -0.180
REMARK SMILES Cc1ccc(C(C)C)c(O)c1
REMARK SMILES IDX 1 1 2 2 11 3 9 4 5 5 4 6 3 7 10 8 6 10 7 11 8 12
REMARK H PARENT 10 9
REMARK Flexibility Score: inf
ROOT
ATOM      1  C   UNL     1      30.476   1.889  12.720  1.00  0.00     0.044 C 
ATOM      2  C   UNL     1      28.981   2.019  12.736  1.00  0.00    -0.047 A 
ATOM      3  C   UNL     1      28.179   0.906  13.022  1.00  0.00     0.049 A 
ATOM      4  C   UNL     1      26.780   1.009  13.002  1.00  0.00     0.119 A 
ATOM      5  C   UNL     1      26.165   2.243  12.682  1.00  0.00    -0.004 A 
ATOM      6  C   UNL     1      26.983   3.347  12.378  1.00  0.00     0.008 A 
ATOM      7  C   UNL     1      28.375   3.235  12.400  1.00  0.00     0.004 A 
ENDROOT
BRANCH   4   8
ATOM      8  O   UNL     1      26.010  -0.114  13.300  1.00  0.00    -0.508 OA
ATOM      9  H   UNL     1      26.190  -1.014  12.871  1.00  0.00     0.293 HD
ENDBRANCH   4   8
BRANCH   5  10
ATOM     10  C   UNL     1      24.653   2.417  12.645  1.00  0.00     0.017 C 
ATOM     11  C   UNL     1      24.125   2.518  11.209  1.00  0.00     0.012 C 
ATOM     12  C   UNL     1      24.196   3.608  13.498  1.00  0.00     0.012 C 
ENDBRANCH   5  10
TORSDOF 2
ENDMDL
MODEL 4
REMARK VINA RESULT:    -4.741      1.153      4.090
REMARK INTER + INTRA:          -5.338
REMARK INTER:                  -5.142
REMARK INTRA:                  -0.196
REMARK UNBOUND:                -0.180
REMARK SMILES Cc1ccc(C(C)C)c(O)c1
REMARK SMILES IDX 1 1 2 2 11 3 9 4 5 5 4 6 3 7 10 8 6 10 7 11 8 12
REMARK H PARENT 10 9
REMARK Flexibility Score: inf
ROOT
ATOM      1  C   UNL     1      27.494  -1.470  13.730  1.00  0.00     0.044 C 
ATOM      2  C   UNL     1      26.718  -0.211  13.475  1.00  0.00    -0.047 A 
ATOM      3  C   UNL     1      27.362   0.925  12.968  1.00  0.00     0.049 A 
ATOM      4  C   UNL     1      26.653   2.117  12.762  1.00  0.00     0.119 A 
ATOM      5  C   UNL     1      25.274   2.184  13.078  1.00  0.00    -0.004 A 
ATOM      6  C   UNL     1      24.645   1.041  13.605  1.00  0.00     0.008 A 
ATOM      7  C   UNL     1      25.360  -0.141  13.806  1.00  0.00     0.004 A 
ENDROOT
BRANCH   4   8
ATOM      8  O   UNL     1      27.320   3.228  12.248  1.00  0.00    -0.508 OA
ATOM      9  H   UNL     1      27.179   3.540  11.294  1.00  0.00     0.293 HD
ENDBRANCH   4   8
BRANCH   5  10
ATOM     10  C   UNL     1      24.450   3.449  12.875  1.00  0.00     0.017 C 
ATOM     11  C   UNL     1      24.261   4.222  14.187  1.00  0.00     0.012 C 
ATOM     12  C   UNL     1      23.106   3.151  12.198  1.00  0.00     0.012 C 
ENDBRANCH   5  10
TORSDOF 2
ENDMDL
MODEL 5
REMARK VINA RESULT:    -4.728      1.001      4.051
REMARK INTER + INTRA:          -5.323
REMARK INTER:                  -5.127
REMARK INTRA:                  -0.196
REMARK UNBOUND:                -0.180
REMARK SMILES Cc1ccc(C(C)C)c(O)c1
REMARK SMILES IDX 1 1 2 2 11 3 9 4 5 5 4 6 3 7 10 8 6 10 7 11 8 12
REMARK H PARENT 10 9
REMARK Flexibility Score: inf
ROOT
ATOM      1  C   UNL     1      25.990  -1.864  15.779  1.00  0.00     0.044 C 
ATOM      2  C   UNL     1      25.675  -0.767  14.805  1.00  0.00    -0.047 A 
ATOM      3  C   UNL     1      26.702  -0.152  14.078  1.00  0.00     0.049 A 
ATOM      4  C   UNL     1      26.422   0.900  13.194  1.00  0.00     0.119 A 
ATOM      5  C   UNL     1      25.091   1.358  13.037  1.00  0.00    -0.004 A 
ATOM      6  C   UNL     1      24.073   0.744  13.790  1.00  0.00     0.008 A 
ATOM      7  C   UNL     1      24.362  -0.302  14.667  1.00  0.00     0.004 A 
ENDROOT
BRANCH   4   8
ATOM      8  O   UNL     1      27.464   1.484  12.477  1.00  0.00    -0.508 OA
ATOM      9  H   UNL     1      28.355   1.018  12.355  1.00  0.00     0.293 HD
ENDBRANCH   4   8
BRANCH   5  10
ATOM     10  C   UNL     1      24.724   2.494  12.093  1.00  0.00     0.017 C 
ATOM     11  C   UNL     1      23.616   3.382  12.673  1.00  0.00     0.012 C 
ATOM     12  C   UNL     1      24.358   1.978  10.695  1.00  0.00     0.012 C 
ENDBRANCH   5  10
TORSDOF 2
ENDMDL
MODEL 6
REMARK VINA RESULT:    -4.688      1.678      2.490
REMARK INTER + INTRA:          -5.279
REMARK INTER:                  -5.088
REMARK INTRA:                  -0.192
REMARK UNBOUND:                -0.180
REMARK SMILES Cc1ccc(C(C)C)c(O)c1
REMARK SMILES IDX 1 1 2 2 11 3 9 4 5 5 4 6 3 7 10 8 6 10 7 11 8 12
REMARK H PARENT 10 9
REMARK Flexibility Score: inf
ROOT
ATOM      1  C   UNL     1      25.282   2.631  11.901  1.00  0.00     0.044 C 
ATOM      2  C   UNL     1      25.411   1.551  12.934  1.00  0.00    -0.047 A 
ATOM      3  C   UNL     1      26.266   0.463  12.715  1.00  0.00     0.049 A 
ATOM      4  C   UNL     1      26.365  -0.571  13.657  1.00  0.00     0.119 A 
ATOM      5  C   UNL     1      25.588  -0.527  14.840  1.00  0.00    -0.004 A 
ATOM      6  C   UNL     1      24.718   0.562  15.037  1.00  0.00     0.008 A 
ATOM      7  C   UNL     1      24.627   1.586  14.093  1.00  0.00     0.004 A 
ENDROOT
BRANCH   4   8
ATOM      8  O   UNL     1      27.232  -1.635  13.414  1.00  0.00    -0.508 OA
ATOM      9  H   UNL     1      27.538  -2.254  14.156  1.00  0.00     0.293 HD
ENDBRANCH   4   8
BRANCH   5  10
ATOM     10  C   UNL     1      25.652  -1.618  15.900  1.00  0.00     0.017 C 
ATOM     11  C   UNL     1      24.273  -2.233  16.169  1.00  0.00     0.012 C 
ATOM     12  C   UNL     1      26.308  -1.117  17.194  1.00  0.00     0.012 C 
ENDBRANCH   5  10
TORSDOF 2
ENDMDL
MODEL 7
REMARK VINA RESULT:    -4.678      1.555      2.292
REMARK INTER + INTRA:          -5.268
REMARK INTER:                  -5.134
REMARK INTRA:                  -0.134
REMARK UNBOUND:                -0.180
REMARK SMILES Cc1ccc(C(C)C)c(O)c1
REMARK SMILES IDX 1 1 2 2 11 3 9 4 5 5 4 6 3 7 10 8 6 10 7 11 8 12
REMARK H PARENT 10 9
REMARK Flexibility Score: inf
ROOT
ATOM      1  C   UNL     1      23.165   3.356  12.285  1.00  0.00     0.044 C 
ATOM      2  C   UNL     1      24.267   2.418  12.681  1.00  0.00    -0.047 A 
ATOM      3  C   UNL     1      24.008   1.352  13.553  1.00  0.00     0.049 A 
ATOM      4  C   UNL     1      25.039   0.493  13.959  1.00  0.00     0.119 A 
ATOM      5  C   UNL     1      26.360   0.705  13.498  1.00  0.00    -0.004 A 
ATOM      6  C   UNL     1      26.610   1.791  12.639  1.00  0.00     0.008 A 
ATOM      7  C   UNL     1      25.576   2.641  12.240  1.00  0.00     0.004 A 
ENDROOT
BRANCH   4   8
ATOM      8  O   UNL     1      24.746  -0.564  14.819  1.00  0.00    -0.508 OA
ATOM      9  H   UNL     1      25.441  -0.947  15.451  1.00  0.00     0.293 HD
ENDBRANCH   4   8
BRANCH   5  10
ATOM     10  C   UNL     1      27.521  -0.193  13.902  1.00  0.00     0.017 C 
ATOM     11  C   UNL     1      28.873   0.511  13.731  1.00  0.00     0.012 C 
ATOM     12  C   UNL     1      27.487  -1.537  13.162  1.00  0.00     0.012 C 
ENDBRANCH   5  10
TORSDOF 2
ENDMDL
MODEL 8
REMARK VINA RESULT:    -4.648      1.795      4.489
REMARK INTER + INTRA:          -5.236
REMARK INTER:                  -5.044
REMARK INTRA:                  -0.192
REMARK UNBOUND:                -0.180
REMARK SMILES Cc1ccc(C(C)C)c(O)c1
REMARK SMILES IDX 1 1 2 2 11 3 9 4 5 5 4 6 3 7 10 8 6 10 7 11 8 12
REMARK H PARENT 10 9
REMARK Flexibility Score: inf
ROOT
ATOM      1  C   UNL     1      28.188  -1.083  13.517  1.00  0.00     0.044 C 
ATOM      2  C   UNL     1      27.074  -0.080  13.440  1.00  0.00    -0.047 A 
ATOM      3  C   UNL     1      25.779  -0.431  13.843  1.00  0.00     0.049 A 
ATOM      4  C   UNL     1      24.724   0.487  13.739  1.00  0.00     0.119 A 
ATOM      5  C   UNL     1      24.960   1.780  13.212  1.00  0.00    -0.004 A 
ATOM      6  C   UNL     1      26.262   2.112  12.793  1.00  0.00     0.008 A 
ATOM      7  C   UNL     1      27.305   1.191  12.901  1.00  0.00     0.004 A 
ENDROOT
BRANCH   4   8
ATOM      8  O   UNL     1      23.449   0.111  14.157  1.00  0.00    -0.508 OA
ATOM      9  H   UNL     1      22.647   0.719  14.036  1.00  0.00     0.293 HD
ENDBRANCH   4   8
BRANCH   5  10
ATOM     10  C   UNL     1      23.857   2.821  13.075  1.00  0.00     0.017 C 
ATOM     11  C   UNL     1      23.508   3.091  11.606  1.00  0.00     0.012 C 
ATOM     12  C   UNL     1      24.200   4.117  13.821  1.00  0.00     0.012 C 
ENDBRANCH   5  10
TORSDOF 2
ENDMDL
MODEL 9
REMARK VINA RESULT:    -4.525      2.256      4.130
REMARK INTER + INTRA:          -5.102
REMARK INTER:                  -4.905
REMARK INTRA:                  -0.197
REMARK UNBOUND:                -0.180
REMARK SMILES Cc1ccc(C(C)C)c(O)c1
REMARK SMILES IDX 1 1 2 2 11 3 9 4 5 5 4 6 3 7 10 8 6 10 7 11 8 12
REMARK H PARENT 10 9
REMARK Flexibility Score: inf
ROOT
ATOM      1  C   UNL     1      31.051   1.834  13.112  1.00  0.00     0.044 C 
ATOM      2  C   UNL     1      29.572   1.577  13.079  1.00  0.00    -0.047 A 
ATOM      3  C   UNL     1      28.693   2.574  12.637  1.00  0.00     0.049 A 
ATOM      4  C   UNL     1      27.307   2.357  12.639  1.00  0.00     0.119 A 
ATOM      5  C   UNL     1      26.784   1.125  13.100  1.00  0.00    -0.004 A 
ATOM      6  C   UNL     1      27.678   0.141  13.559  1.00  0.00     0.008 A 
ATOM      7  C   UNL     1      29.056   0.366  13.554  1.00  0.00     0.004 A 
ENDROOT
BRANCH   4   8
ATOM      8  O   UNL     1      26.458   3.365  12.184  1.00  0.00    -0.508 OA
ATOM      9  H   UNL     1      26.428   3.636  11.208  1.00  0.00     0.293 HD
ENDBRANCH   4   8
BRANCH   5  10
ATOM     10  C   UNL     1      25.290   0.830  13.125  1.00  0.00     0.017 C 
ATOM     11  C   UNL     1      24.887   0.035  14.373  1.00  0.00     0.012 C 
ATOM     12  C   UNL     1      24.826   0.133  11.839  1.00  0.00     0.012 C 
ENDBRANCH   5  10
TORSDOF 2
ENDMDL
