MODEL 1
REMARK VINA RESULT:    -4.955      0.000      0.000
REMARK INTER + INTRA:         -12.005
REMARK INTER:                  -9.590
REMARK INTRA:                  -2.415
REMARK UNBOUND:                -2.415
REMARK SMILES CCCCCCCCCCCCCCCCCC(=O)[O-]
REMARK SMILES IDX 10 1 11 2 12 3 13 4 14 5 15 6 16 7 17 8 18 9 19 10 20 11
REMARK SMILES IDX 9 12 8 13 7 14 6 15 5 16 4 17 3 18 2 19 1 20
REMARK H PARENT
REMARK Flexibility Score: inf
ROOT
ATOM      1  C   UNL     1       9.481   9.932  29.051  1.00  0.00     0.000 C 
ENDROOT
BRANCH   1   2
ATOM      2  C   UNL     1       9.832   8.529  29.575  1.00  0.00     0.000 C 
BRANCH   2   3
ATOM      3  C   UNL     1      10.846   7.799  28.677  1.00  0.00     0.000 C 
BRANCH   3   4
ATOM      4  C   UNL     1      10.187   7.187  27.421  1.00  0.00     0.000 C 
BRANCH   4   5
ATOM      5  C   UNL     1      10.646   7.837  26.102  1.00  0.00     0.000 C 
BRANCH   5   6
ATOM      6  C   UNL     1       9.534   8.042  25.057  1.00  0.00     0.000 C 
BRANCH   6   7
ATOM      7  C   UNL     1       8.326   7.092  25.195  1.00  0.00     0.006 C 
BRANCH   7   8
ATOM      8  C   UNL     1       8.474   5.759  24.445  1.00  0.00     0.053 C 
BRANCH   8   9
ATOM      9  C   UNL     1       8.023   5.863  23.021  1.00  0.00     0.041 C 
ATOM     10  O   UNL     1       8.407   5.016  22.171  1.00  0.00    -0.550 OA
ATOM     11  O   UNL     1       7.148   6.873  22.639  1.00  0.00    -0.550 OA
ENDBRANCH   8   9
ENDBRANCH   7   8
ENDBRANCH   6   7
ENDBRANCH   5   6
ENDBRANCH   4   5
ENDBRANCH   3   4
ENDBRANCH   2   3
ENDBRANCH   1   2
BRANCH   1  12
ATOM     12  C   UNL     1       8.722  10.774  30.092  1.00  0.00     0.000 C 
BRANCH  12  13
ATOM     13  C   UNL     1       8.565  10.046  31.436  1.00  0.00    -0.000 C 
BRANCH  13  14
ATOM     14  C   UNL     1       7.235  10.378  32.138  1.00  0.00    -0.000 C 
BRANCH  14  15
ATOM     15  C   UNL     1       6.130  10.778  31.148  1.00  0.00    -0.000 C 
BRANCH  15  16
ATOM     16  C   UNL     1       4.923   9.826  31.194  1.00  0.00    -0.000 C 
BRANCH  16  17
ATOM     17  C   UNL     1       4.717   9.078  29.860  1.00  0.00    -0.000 C 
BRANCH  17  18
ATOM     18  C   UNL     1       5.480   9.692  28.670  1.00  0.00    -0.000 C 
BRANCH  18  19
ATOM     19  C   UNL     1       6.174   8.657  27.763  1.00  0.00    -0.003 C 
ATOM     20  C   UNL     1       6.585   7.392  28.519  1.00  0.00     0.004 C 
ENDBRANCH  18  19
ENDBRANCH  17  18
ENDBRANCH  16  17
ENDBRANCH  15  16
ENDBRANCH  14  15
ENDBRANCH  13  14
ENDBRANCH  12  13
ENDBRANCH   1  12
TORSDOF 16
ENDMDL
MODEL 2
REMARK VINA RESULT:    -4.942      2.236      2.631
REMARK INTER + INTRA:         -11.979
REMARK INTER:                  -9.490
REMARK INTRA:                  -2.489
REMARK UNBOUND:                -2.415
REMARK SMILES CCCCCCCCCCCCCCCCCC(=O)[O-]
REMARK SMILES IDX 10 1 11 2 12 3 13 4 14 5 15 6 16 7 17 8 18 9 19 10 20 11
REMARK SMILES IDX 9 12 8 13 7 14 6 15 5 16 4 17 3 18 2 19 1 20
REMARK H PARENT
REMARK Flexibility Score: inf
ROOT
ATOM      1  C   UNL     1       9.538   8.937  30.024  1.00  0.00     0.000 C 
ENDROOT
BRANCH   1   2
ATOM      2  C   UNL     1      10.073   8.840  28.586  1.00  0.00     0.000 C 
BRANCH   2   3
ATOM      3  C   UNL     1       9.452   9.892  27.650  1.00  0.00     0.000 C 
BRANCH   3   4
ATOM      4  C   UNL     1       9.525   9.476  26.165  1.00  0.00     0.000 C 
BRANCH   4   5
ATOM      5  C   UNL     1       9.619   7.953  25.953  1.00  0.00     0.000 C 
BRANCH   5   6
ATOM      6  C   UNL     1       8.320   7.281  25.469  1.00  0.00     0.000 C 
BRANCH   6   7
ATOM      7  C   UNL     1       8.213   5.773  25.777  1.00  0.00     0.006 C 
BRANCH   7   8
ATOM      8  C   UNL     1       9.450   5.173  26.463  1.00  0.00     0.053 C 
BRANCH   8   9
ATOM      9  C   UNL     1       9.096   4.016  27.347  1.00  0.00     0.041 C 
ATOM     10  O   UNL     1       8.045   4.047  28.039  1.00  0.00    -0.550 OA
ATOM     11  O   UNL     1       9.909   2.889  27.377  1.00  0.00    -0.550 OA
ENDBRANCH   8   9
ENDBRANCH   7   8
ENDBRANCH   6   7
ENDBRANCH   5   6
ENDBRANCH   4   5
ENDBRANCH   3   4
ENDBRANCH   2   3
ENDBRANCH   1   2
BRANCH   1  12
ATOM     12  C   UNL     1       8.736  10.228  30.266  1.00  0.00     0.000 C 
BRANCH  12  13
ATOM     13  C   UNL     1       7.929  10.183  31.574  1.00  0.00    -0.000 C 
BRANCH  13  14
ATOM     14  C   UNL     1       6.651  11.038  31.512  1.00  0.00    -0.000 C 
BRANCH  14  15
ATOM     15  C   UNL     1       5.434  10.324  32.121  1.00  0.00    -0.000 C 
BRANCH  15  16
ATOM     16  C   UNL     1       4.300  10.118  31.102  1.00  0.00    -0.000 C 
BRANCH  16  17
ATOM     17  C   UNL     1       4.544   8.895  30.195  1.00  0.00    -0.000 C 
BRANCH  17  18
ATOM     18  C   UNL     1       4.653   9.234  28.696  1.00  0.00    -0.000 C 
BRANCH  18  19
ATOM     19  C   UNL     1       5.933   8.705  28.019  1.00  0.00    -0.003 C 
ATOM     20  C   UNL     1       6.479   7.446  28.695  1.00  0.00     0.004 C 
ENDBRANCH  18  19
ENDBRANCH  17  18
ENDBRANCH  16  17
ENDBRANCH  15  16
ENDBRANCH  14  15
ENDBRANCH  13  14
ENDBRANCH  12  13
ENDBRANCH   1  12
TORSDOF 16
ENDMDL
MODEL 3
REMARK VINA RESULT:    -4.923      1.818      5.092
REMARK INTER + INTRA:         -11.943
REMARK INTER:                  -9.444
REMARK INTRA:                  -2.498
REMARK UNBOUND:                -2.415
REMARK SMILES CCCCCCCCCCCCCCCCCC(=O)[O-]
REMARK SMILES IDX 10 1 11 2 12 3 13 4 14 5 15 6 16 7 17 8 18 9 19 10 20 11
REMARK SMILES IDX 9 12 8 13 7 14 6 15 5 16 4 17 3 18 2 19 1 20
REMARK H PARENT
REMARK Flexibility Score: inf
ROOT
ATOM      1  C   UNL     1       6.775  10.124  31.962  1.00  0.00     0.000 C 
ENDROOT
BRANCH   1   2
ATOM      2  C   UNL     1       5.423  10.787  32.272  1.00  0.00     0.000 C 
BRANCH   2   3
ATOM      3  C   UNL     1       4.302  10.316  31.329  1.00  0.00     0.000 C 
BRANCH   3   4
ATOM      4  C   UNL     1       4.724   9.102  30.473  1.00  0.00     0.000 C 
BRANCH   4   5
ATOM      5  C   UNL     1       4.537   9.316  28.960  1.00  0.00     0.000 C 
BRANCH   5   6
ATOM      6  C   UNL     1       5.765   9.886  28.226  1.00  0.00     0.000 C 
BRANCH   6   7
ATOM      7  C   UNL     1       6.453   8.908  27.250  1.00  0.00     0.006 C 
BRANCH   7   8
ATOM      8  C   UNL     1       6.460   7.443  27.715  1.00  0.00     0.053 C 
BRANCH   8   9
ATOM      9  C   UNL     1       6.773   6.500  26.595  1.00  0.00     0.041 C 
ATOM     10  O   UNL     1       6.525   5.271  26.714  1.00  0.00    -0.550 OA
ATOM     11  O   UNL     1       7.304   6.983  25.405  1.00  0.00    -0.550 OA
ENDBRANCH   8   9
ENDBRANCH   7   8
ENDBRANCH   6   7
ENDBRANCH   5   6
ENDBRANCH   4   5
ENDBRANCH   3   4
ENDBRANCH   2   3
ENDBRANCH   1   2
BRANCH   1  12
ATOM     12  C   UNL     1       7.809  11.125  31.416  1.00  0.00     0.000 C 
BRANCH  12  13
ATOM     13  C   UNL     1       8.705  10.510  30.330  1.00  0.00    -0.000 C 
BRANCH  13  14
ATOM     14  C   UNL     1       9.171   9.086  30.681  1.00  0.00    -0.000 C 
BRANCH  14  15
ATOM     15  C   UNL     1       9.711   8.324  29.460  1.00  0.00    -0.000 C 
BRANCH  15  16
ATOM     16  C   UNL     1      10.047   9.257  28.284  1.00  0.00    -0.000 C 
BRANCH  16  17
ATOM     17  C   UNL     1      10.228   8.486  26.961  1.00  0.00    -0.000 C 
BRANCH  17  18
ATOM     18  C   UNL     1      10.607   7.003  27.143  1.00  0.00    -0.000 C 
BRANCH  18  19
ATOM     19  C   UNL     1      12.123   6.728  27.100  1.00  0.00    -0.003 C 
ATOM     20  C   UNL     1      12.672   6.240  28.442  1.00  0.00     0.004 C 
ENDBRANCH  18  19
ENDBRANCH  17  18
ENDBRANCH  16  17
ENDBRANCH  15  16
ENDBRANCH  14  15
ENDBRANCH  13  14
ENDBRANCH  12  13
ENDBRANCH   1  12
TORSDOF 16
ENDMDL
MODEL 4
REMARK VINA RESULT:    -4.915      3.065      6.880
REMARK INTER + INTRA:         -11.928
REMARK INTER:                  -9.388
REMARK INTRA:                  -2.540
REMARK UNBOUND:                -2.415
REMARK SMILES CCCCCCCCCCCCCCCCCC(=O)[O-]
REMARK SMILES IDX 10 1 11 2 12 3 13 4 14 5 15 6 16 7 17 8 18 9 19 10 20 11
REMARK SMILES IDX 9 12 8 13 7 14 6 15 5 16 4 17 3 18 2 19 1 20
REMARK H PARENT
REMARK Flexibility Score: inf
ROOT
ATOM      1  C   UNL     1       6.119   8.391  27.781  1.00  0.00     0.000 C 
ENDROOT
BRANCH   1   2
ATOM      2  C   UNL     1       4.968   9.172  28.436  1.00  0.00     0.000 C 
BRANCH   2   3
ATOM      3  C   UNL     1       4.525   8.560  29.777  1.00  0.00     0.000 C 
BRANCH   3   4
ATOM      4  C   UNL     1       4.518   9.595  30.923  1.00  0.00     0.000 C 
BRANCH   4   5
ATOM      5  C   UNL     1       5.679  10.604  30.853  1.00  0.00     0.000 C 
BRANCH   5   6
ATOM      6  C   UNL     1       6.620  10.600  32.073  1.00  0.00     0.000 C 
BRANCH   6   7
ATOM      7  C   UNL     1       8.115  10.784  31.742  1.00  0.00     0.006 C 
BRANCH   7   8
ATOM      8  C   UNL     1       8.612   9.954  30.548  1.00  0.00     0.053 C 
BRANCH   8   9
ATOM      9  C   UNL     1       9.412   8.765  30.984  1.00  0.00     0.041 C 
ATOM     10  O   UNL     1       9.517   8.487  32.208  1.00  0.00    -0.550 OA
ATOM     11  O   UNL     1      10.010   7.943  30.037  1.00  0.00    -0.550 OA
ENDBRANCH   8   9
ENDBRANCH   7   8
ENDBRANCH   6   7
ENDBRANCH   5   6
ENDBRANCH   4   5
ENDBRANCH   3   4
ENDBRANCH   2   3
ENDBRANCH   1   2
BRANCH   1  12
ATOM     12  C   UNL     1       6.753   7.366  28.737  1.00  0.00     0.000 C 
BRANCH  12  13
ATOM     13  C   UNL     1       7.191   6.081  28.016  1.00  0.00    -0.000 C 
BRANCH  13  14
ATOM     14  C   UNL     1       6.525   5.918  26.637  1.00  0.00    -0.000 C 
BRANCH  14  15
ATOM     15  C   UNL     1       7.549   5.739  25.506  1.00  0.00    -0.000 C 
BRANCH  15  16
ATOM     16  C   UNL     1       7.641   6.973  24.592  1.00  0.00    -0.000 C 
BRANCH  16  17
ATOM     17  C   UNL     1       9.028   7.644  24.654  1.00  0.00    -0.000 C 
BRANCH  17  18
ATOM     18  C   UNL     1       9.879   7.219  25.867  1.00  0.00    -0.000 C 
BRANCH  18  19
ATOM     19  C   UNL     1      10.437   8.396  26.691  1.00  0.00    -0.003 C 
ATOM     20  C   UNL     1       9.435   9.543  26.833  1.00  0.00     0.004 C 
ENDBRANCH  18  19
ENDBRANCH  17  18
ENDBRANCH  16  17
ENDBRANCH  15  16
ENDBRANCH  14  15
ENDBRANCH  13  14
ENDBRANCH  12  13
ENDBRANCH   1  12
TORSDOF 16
ENDMDL
MODEL 5
REMARK VINA RESULT:    -4.895      0.907      2.134
REMARK INTER + INTRA:         -11.888
REMARK INTER:                  -9.259
REMARK INTRA:                  -2.630
REMARK UNBOUND:                -2.415
REMARK SMILES CCCCCCCCCCCCCCCCCC(=O)[O-]
REMARK SMILES IDX 10 1 11 2 12 3 13 4 14 5 15 6 16 7 17 8 18 9 19 10 20 11
REMARK SMILES IDX 9 12 8 13 7 14 6 15 5 16 4 17 3 18 2 19 1 20
REMARK H PARENT
REMARK Flexibility Score: inf
ROOT
ATOM      1  C   UNL     1       8.419   9.769  30.799  1.00  0.00     0.000 C 
ENDROOT
BRANCH   1   2
ATOM      2  C   UNL     1       8.550  10.649  29.546  1.00  0.00     0.000 C 
BRANCH   2   3
ATOM      3  C   UNL     1       9.647  10.154  28.587  1.00  0.00     0.000 C 
BRANCH   3   4
ATOM      4  C   UNL     1      10.277   8.822  29.049  1.00  0.00     0.000 C 
BRANCH   4   5
ATOM      5  C   UNL     1      11.054   8.086  27.941  1.00  0.00     0.000 C 
BRANCH   5   6
ATOM      6  C   UNL     1      10.194   7.201  27.020  1.00  0.00     0.000 C 
BRANCH   6   7
ATOM      7  C   UNL     1       9.994   7.749  25.592  1.00  0.00     0.006 C 
BRANCH   7   8
ATOM      8  C   UNL     1       8.525   7.885  25.161  1.00  0.00     0.053 C 
BRANCH   8   9
ATOM      9  C   UNL     1       8.107   6.786  24.234  1.00  0.00     0.041 C 
ATOM     10  O   UNL     1       7.349   7.033  23.259  1.00  0.00    -0.550 OA
ATOM     11  O   UNL     1       8.585   5.494  24.425  1.00  0.00    -0.550 OA
ENDBRANCH   8   9
ENDBRANCH   7   8
ENDBRANCH   6   7
ENDBRANCH   5   6
ENDBRANCH   4   5
ENDBRANCH   3   4
ENDBRANCH   2   3
ENDBRANCH   1   2
BRANCH   1  12
ATOM     12  C   UNL     1       7.516  10.404  31.871  1.00  0.00     0.000 C 
BRANCH  12  13
ATOM     13  C   UNL     1       6.235  11.011  31.277  1.00  0.00    -0.000 C 
BRANCH  13  14
ATOM     14  C   UNL     1       4.956  10.365  31.842  1.00  0.00    -0.000 C 
BRANCH  14  15
ATOM     15  C   UNL     1       4.053   9.786  30.742  1.00  0.00    -0.000 C 
BRANCH  15  16
ATOM     16  C   UNL     1       4.732   8.651  29.958  1.00  0.00    -0.000 C 
BRANCH  16  17
ATOM     17  C   UNL     1       4.918   9.000  28.467  1.00  0.00    -0.000 C 
BRANCH  17  18
ATOM     18  C   UNL     1       6.210   8.434  27.844  1.00  0.00    -0.000 C 
BRANCH  18  19
ATOM     19  C   UNL     1       6.788   7.215  28.589  1.00  0.00    -0.003 C 
ATOM     20  C   UNL     1       6.841   5.961  27.715  1.00  0.00     0.004 C 
ENDBRANCH  18  19
ENDBRANCH  17  18
ENDBRANCH  16  17
ENDBRANCH  15  16
ENDBRANCH  14  15
ENDBRANCH  13  14
ENDBRANCH  12  13
ENDBRANCH   1  12
TORSDOF 16
ENDMDL
MODEL 6
REMARK VINA RESULT:    -4.891      1.380      2.137
REMARK INTER + INTRA:         -11.880
REMARK INTER:                  -9.692
REMARK INTRA:                  -2.189
REMARK UNBOUND:                -2.415
REMARK SMILES CCCCCCCCCCCCCCCCCC(=O)[O-]
REMARK SMILES IDX 10 1 11 2 12 3 13 4 14 5 15 6 16 7 17 8 18 9 19 10 20 11
REMARK SMILES IDX 9 12 8 13 7 14 6 15 5 16 4 17 3 18 2 19 1 20
REMARK H PARENT
REMARK Flexibility Score: inf
ROOT
ATOM      1  C   UNL     1       9.069   9.143  31.672  1.00  0.00     0.000 C 
ENDROOT
BRANCH   1   2
ATOM      2  C   UNL     1       9.168   8.540  30.261  1.00  0.00     0.000 C 
BRANCH   2   3
ATOM      3  C   UNL     1       9.328   9.612  29.169  1.00  0.00     0.000 C 
BRANCH   3   4
ATOM      4  C   UNL     1      10.259   9.153  28.025  1.00  0.00     0.000 C 
BRANCH   4   5
ATOM      5  C   UNL     1      10.118   7.660  27.674  1.00  0.00     0.000 C 
BRANCH   5   6
ATOM      6  C   UNL     1      10.303   7.322  26.182  1.00  0.00     0.000 C 
BRANCH   6   7
ATOM      7  C   UNL     1       9.233   7.915  25.243  1.00  0.00     0.006 C 
BRANCH   7   8
ATOM      8  C   UNL     1       7.786   7.725  25.723  1.00  0.00     0.053 C 
BRANCH   8   9
ATOM      9  C   UNL     1       7.296   6.328  25.495  1.00  0.00     0.041 C 
ATOM     10  O   UNL     1       7.664   5.687  24.474  1.00  0.00    -0.550 OA
ATOM     11  O   UNL     1       6.463   5.720  26.426  1.00  0.00    -0.550 OA
ENDBRANCH   8   9
ENDBRANCH   7   8
ENDBRANCH   6   7
ENDBRANCH   5   6
ENDBRANCH   4   5
ENDBRANCH   3   4
ENDBRANCH   2   3
ENDBRANCH   1   2
BRANCH   1  12
ATOM     12  C   UNL     1       8.465  10.559  31.665  1.00  0.00     0.000 C 
BRANCH  12  13
ATOM     13  C   UNL     1       7.089  10.614  32.347  1.00  0.00    -0.000 C 
BRANCH  13  14
ATOM     14  C   UNL     1       5.966  11.038  31.383  1.00  0.00    -0.000 C 
BRANCH  14  15
ATOM     15  C   UNL     1       4.627  10.357  31.702  1.00  0.00    -0.000 C 
BRANCH  15  16
ATOM     16  C   UNL     1       4.045   9.603  30.494  1.00  0.00    -0.000 C 
BRANCH  16  17
ATOM     17  C   UNL     1       4.988   8.491  29.989  1.00  0.00    -0.000 C 
BRANCH  17  18
ATOM     18  C   UNL     1       5.313   8.577  28.485  1.00  0.00    -0.000 C 
BRANCH  18  19
ATOM     19  C   UNL     1       5.864   9.944  28.035  1.00  0.00    -0.003 C 
ATOM     20  C   UNL     1       5.154  10.487  26.793  1.00  0.00     0.004 C 
ENDBRANCH  18  19
ENDBRANCH  17  18
ENDBRANCH  16  17
ENDBRANCH  15  16
ENDBRANCH  14  15
ENDBRANCH  13  14
ENDBRANCH  12  13
ENDBRANCH   1  12
TORSDOF 16
ENDMDL
MODEL 7
REMARK VINA RESULT:    -4.841      2.763      3.828
REMARK INTER + INTRA:         -11.784
REMARK INTER:                  -9.813
REMARK INTRA:                  -1.971
REMARK UNBOUND:                -2.415
REMARK SMILES CCCCCCCCCCCCCCCCCC(=O)[O-]
REMARK SMILES IDX 10 1 11 2 12 3 13 4 14 5 15 6 16 7 17 8 18 9 19 10 20 11
REMARK SMILES IDX 9 12 8 13 7 14 6 15 5 16 4 17 3 18 2 19 1 20
REMARK H PARENT
REMARK Flexibility Score: inf
ROOT
ATOM      1  C   UNL     1       7.574  10.311  32.048  1.00  0.00     0.000 C 
ENDROOT
BRANCH   1   2
ATOM      2  C   UNL     1       8.641  10.123  30.957  1.00  0.00     0.000 C 
BRANCH   2   3
ATOM      3  C   UNL     1       9.482   8.850  31.164  1.00  0.00     0.000 C 
BRANCH   3   4
ATOM      4  C   UNL     1       9.624   8.021  29.869  1.00  0.00     0.000 C 
BRANCH   4   5
ATOM      5  C   UNL     1      10.630   8.613  28.863  1.00  0.00     0.000 C 
BRANCH   5   6
ATOM      6  C   UNL     1      10.232   8.465  27.382  1.00  0.00     0.000 C 
BRANCH   6   7
ATOM      7  C   UNL     1      10.996   7.371  26.608  1.00  0.00     0.006 C 
BRANCH   7   8
ATOM      8  C   UNL     1      12.073   6.644  27.429  1.00  0.00     0.053 C 
BRANCH   8   9
ATOM      9  C   UNL     1      13.234   6.222  26.582  1.00  0.00     0.041 C 
ATOM     10  O   UNL     1      13.594   5.014  26.557  1.00  0.00    -0.550 OA
ATOM     11  O   UNL     1      13.897   7.154  25.793  1.00  0.00    -0.550 OA
ENDBRANCH   8   9
ENDBRANCH   7   8
ENDBRANCH   6   7
ENDBRANCH   5   6
ENDBRANCH   4   5
ENDBRANCH   3   4
ENDBRANCH   2   3
ENDBRANCH   1   2
BRANCH   1  12
ATOM     12  C   UNL     1       6.343  11.080  31.539  1.00  0.00     0.000 C 
BRANCH  12  13
ATOM     13  C   UNL     1       5.021  10.459  32.019  1.00  0.00    -0.000 C 
BRANCH  13  14
ATOM     14  C   UNL     1       4.112  10.027  30.854  1.00  0.00    -0.000 C 
BRANCH  14  15
ATOM     15  C   UNL     1       4.451   8.623  30.332  1.00  0.00    -0.000 C 
BRANCH  15  16
ATOM     16  C   UNL     1       4.829   8.621  28.841  1.00  0.00    -0.000 C 
BRANCH  16  17
ATOM     17  C   UNL     1       6.312   8.262  28.615  1.00  0.00    -0.000 C 
BRANCH  17  18
ATOM     18  C   UNL     1       6.649   7.864  27.164  1.00  0.00    -0.000 C 
BRANCH  18  19
ATOM     19  C   UNL     1       6.646   6.344  26.909  1.00  0.00    -0.003 C 
ATOM     20  C   UNL     1       7.638   5.595  27.800  1.00  0.00     0.004 C 
ENDBRANCH  18  19
ENDBRANCH  17  18
ENDBRANCH  16  17
ENDBRANCH  15  16
ENDBRANCH  14  15
ENDBRANCH  13  14
ENDBRANCH  12  13
ENDBRANCH   1  12
TORSDOF 16
ENDMDL
MODEL 8
REMARK VINA RESULT:    -4.806      2.444      3.169
REMARK INTER + INTRA:         -11.717
REMARK INTER:                  -9.237
REMARK INTRA:                  -2.481
REMARK UNBOUND:                -2.415
REMARK SMILES CCCCCCCCCCCCCCCCCC(=O)[O-]
REMARK SMILES IDX 10 1 11 2 12 3 13 4 14 5 15 6 16 7 17 8 18 9 19 10 20 11
REMARK SMILES IDX 9 12 8 13 7 14 6 15 5 16 4 17 3 18 2 19 1 20
REMARK H PARENT
REMARK Flexibility Score: inf
ROOT
ATOM      1  C   UNL     1       8.728  10.257  31.438  1.00  0.00     0.000 C 
ENDROOT
BRANCH   1   2
ATOM      2  C   UNL     1       8.724   9.223  30.299  1.00  0.00     0.000 C 
BRANCH   2   3
ATOM      3  C   UNL     1       9.396   9.749  29.019  1.00  0.00     0.000 C 
BRANCH   3   4
ATOM      4  C   UNL     1      10.220   8.661  28.296  1.00  0.00     0.000 C 
BRANCH   4   5
ATOM      5  C   UNL     1      10.099   7.265  28.936  1.00  0.00     0.000 C 
BRANCH   5   6
ATOM      6  C   UNL     1      11.089   6.215  28.399  1.00  0.00     0.000 C 
BRANCH   6   7
ATOM      7  C   UNL     1      10.950   5.897  26.896  1.00  0.00     0.006 C 
BRANCH   7   8
ATOM      8  C   UNL     1       9.622   5.230  26.505  1.00  0.00     0.053 C 
BRANCH   8   9
ATOM      9  C   UNL     1       9.346   4.006  27.323  1.00  0.00     0.041 C 
ATOM     10  O   UNL     1      10.089   2.994  27.219  1.00  0.00    -0.550 OA
ATOM     11  O   UNL     1       8.291   3.996  28.227  1.00  0.00    -0.550 OA
ENDBRANCH   8   9
ENDBRANCH   7   8
ENDBRANCH   6   7
ENDBRANCH   5   6
ENDBRANCH   4   5
ENDBRANCH   3   4
ENDBRANCH   2   3
ENDBRANCH   1   2
BRANCH   1  12
ATOM     12  C   UNL     1       7.411  10.258  32.234  1.00  0.00     0.000 C 
BRANCH  12  13
ATOM     13  C   UNL     1       6.300  11.056  31.533  1.00  0.00    -0.000 C 
BRANCH  13  14
ATOM     14  C   UNL     1       4.925  10.372  31.634  1.00  0.00    -0.000 C 
BRANCH  14  15
ATOM     15  C   UNL     1       4.785   9.187  30.665  1.00  0.00    -0.000 C 
BRANCH  15  16
ATOM     16  C   UNL     1       4.455   9.633  29.230  1.00  0.00    -0.000 C 
BRANCH  16  17
ATOM     17  C   UNL     1       5.518   9.165  28.215  1.00  0.00    -0.000 C 
BRANCH  17  18
ATOM     18  C   UNL     1       6.038   7.735  28.461  1.00  0.00    -0.000 C 
BRANCH  18  19
ATOM     19  C   UNL     1       6.762   7.109  27.252  1.00  0.00    -0.003 C 
ATOM     20  C   UNL     1       7.190   8.151  26.218  1.00  0.00     0.004 C 
ENDBRANCH  18  19
ENDBRANCH  17  18
ENDBRANCH  16  17
ENDBRANCH  15  16
ENDBRANCH  14  15
ENDBRANCH  13  14
ENDBRANCH  12  13
ENDBRANCH   1  12
TORSDOF 16
ENDMDL
MODEL 9
REMARK VINA RESULT:    -4.795      2.332      4.773
REMARK INTER + INTRA:         -11.696
REMARK INTER:                  -9.190
REMARK INTRA:                  -2.506
REMARK UNBOUND:                -2.415
REMARK SMILES CCCCCCCCCCCCCCCCCC(=O)[O-]
REMARK SMILES IDX 10 1 11 2 12 3 13 4 14 5 15 6 16 7 17 8 18 9 19 10 20 11
REMARK SMILES IDX 9 12 8 13 7 14 6 15 5 16 4 17 3 18 2 19 1 20
REMARK H PARENT
REMARK Flexibility Score: inf
ROOT
ATOM      1  C   UNL     1       5.506  10.333  31.960  1.00  0.00     0.000 C 
ENDROOT
BRANCH   1   2
ATOM      2  C   UNL     1       6.589  11.119  31.203  1.00  0.00     0.000 C 
BRANCH   2   3
ATOM      3  C   UNL     1       8.014  10.731  31.636  1.00  0.00     0.000 C 
BRANCH   3   4
ATOM      4  C   UNL     1       8.625   9.634  30.737  1.00  0.00     0.000 C 
BRANCH   4   5
ATOM      5  C   UNL     1       9.108  10.150  29.369  1.00  0.00     0.000 C 
BRANCH   5   6
ATOM      6  C   UNL     1      10.222   9.313  28.714  1.00  0.00     0.000 C 
BRANCH   6   7
ATOM      7  C   UNL     1      10.156   7.799  29.004  1.00  0.00     0.006 C 
BRANCH   7   8
ATOM      8  C   UNL     1      10.908   6.922  27.991  1.00  0.00     0.053 C 
BRANCH   8   9
ATOM      9  C   UNL     1      10.760   5.463  28.292  1.00  0.00     0.041 C 
ATOM     10  O   UNL     1       9.620   4.975  28.514  1.00  0.00    -0.550 OA
ATOM     11  O   UNL     1      11.876   4.635  28.291  1.00  0.00    -0.550 OA
ENDBRANCH   8   9
ENDBRANCH   7   8
ENDBRANCH   6   7
ENDBRANCH   5   6
ENDBRANCH   4   5
ENDBRANCH   3   4
ENDBRANCH   2   3
ENDBRANCH   1   2
BRANCH   1  12
ATOM     12  C   UNL     1       4.284  10.018  31.079  1.00  0.00     0.000 C 
BRANCH  12  13
ATOM     13  C   UNL     1       4.474   8.741  30.246  1.00  0.00    -0.000 C 
BRANCH  13  14
ATOM     14  C   UNL     1       4.564   9.026  28.735  1.00  0.00    -0.000 C 
BRANCH  14  15
ATOM     15  C   UNL     1       5.996   8.892  28.195  1.00  0.00    -0.000 C 
BRANCH  15  16
ATOM     16  C   UNL     1       6.540   7.458  28.314  1.00  0.00    -0.000 C 
BRANCH  16  17
ATOM     17  C   UNL     1       6.855   6.836  26.938  1.00  0.00    -0.000 C 
BRANCH  17  18
ATOM     18  C   UNL     1       7.555   7.798  25.958  1.00  0.00    -0.000 C 
BRANCH  18  19
ATOM     19  C   UNL     1       8.651   7.137  25.099  1.00  0.00    -0.003 C 
ATOM     20  C   UNL     1       8.592   5.610  25.140  1.00  0.00     0.004 C 
ENDBRANCH  18  19
ENDBRANCH  17  18
ENDBRANCH  16  17
ENDBRANCH  15  16
ENDBRANCH  14  15
ENDBRANCH  13  14
ENDBRANCH  12  13
ENDBRANCH   1  12
TORSDOF 16
ENDMDL
