MODEL 1
REMARK VINA RESULT:    -3.189      0.000      0.000
REMARK INTER + INTRA:          -6.523
REMARK INTER:                  -5.986
REMARK INTRA:                  -0.538
REMARK UNBOUND:                -0.538
REMARK SMILES O=C([O-])CCCCCCCCCCCCCCC(=O)[O-]
REMARK SMILES IDX 10 1 9 2 8 3 7 4 6 5 5 6 4 7 2 8 1 9 3 10 11 11 12 12 13 13
REMARK SMILES IDX 14 14 15 15 16 16 17 17 18 18 19 19 20 20
REMARK H PARENT
REMARK Flexibility Score: inf
ROOT
ATOM      1  C   UNL     1      -4.987  20.202  16.868  1.00  0.00     0.000 C 
ENDROOT
BRANCH   1   2
ATOM      2  C   UNL     1      -4.935  20.408  15.346  1.00  0.00     0.000 C 
BRANCH   2   3
ATOM      3  C   UNL     1      -6.049  21.338  14.832  1.00  0.00     0.000 C 
BRANCH   3   4
ATOM      4  C   UNL     1      -7.092  21.750  15.890  1.00  0.00     0.000 C 
BRANCH   4   5
ATOM      5  C   UNL     1      -8.203  20.714  16.153  1.00  0.00     0.000 C 
BRANCH   5   6
ATOM      6  C   UNL     1      -9.125  21.037  17.346  1.00  0.00     0.006 C 
BRANCH   6   7
ATOM      7  C   UNL     1      -9.013  22.480  17.863  1.00  0.00     0.053 C 
BRANCH   7   8
ATOM      8  C   UNL     1      -8.590  22.532  19.298  1.00  0.00     0.041 C 
ATOM      9  O   UNL     1      -8.240  23.625  19.816  1.00  0.00    -0.550 OA
ATOM     10  O   UNL     1      -8.618  21.380  20.074  1.00  0.00    -0.550 OA
ENDBRANCH   7   8
ENDBRANCH   6   7
ENDBRANCH   5   6
ENDBRANCH   4   5
ENDBRANCH   3   4
ENDBRANCH   2   3
ENDBRANCH   1   2
BRANCH   1  11
ATOM     11  C   UNL     1      -3.574  20.212  17.470  1.00  0.00     0.000 C 
BRANCH  11  12
ATOM     12  C   UNL     1      -2.479  19.883  16.438  1.00  0.00     0.000 C 
BRANCH  12  13
ATOM     13  C   UNL     1      -1.238  20.790  16.496  1.00  0.00     0.000 C 
BRANCH  13  14
ATOM     14  C   UNL     1       0.068  20.006  16.701  1.00  0.00     0.000 C 
BRANCH  14  15
ATOM     15  C   UNL     1       1.211  20.617  15.877  1.00  0.00     0.000 C 
BRANCH  15  16
ATOM     16  C   UNL     1       2.539  20.692  16.650  1.00  0.00     0.006 C 
BRANCH  16  17
ATOM     17  C   UNL     1       3.725  20.040  15.919  1.00  0.00     0.053 C 
BRANCH  17  18
ATOM     18  C   UNL     1       4.955  20.897  15.939  1.00  0.00     0.041 C 
ATOM     19  O   UNL     1       5.289  21.500  16.992  1.00  0.00    -0.550 OA
ATOM     20  O   UNL     1       5.712  21.061  14.786  1.00  0.00    -0.550 OA
ENDBRANCH  17  18
ENDBRANCH  16  17
ENDBRANCH  15  16
ENDBRANCH  14  15
ENDBRANCH  13  14
ENDBRANCH  12  13
ENDBRANCH  11  12
ENDBRANCH   1  11
TORSDOF 15
ENDMDL
MODEL 2
REMARK VINA RESULT:    -3.142      1.203     11.282
REMARK INTER + INTRA:          -6.434
REMARK INTER:                  -5.940
REMARK INTRA:                  -0.494
REMARK UNBOUND:                -0.538
REMARK SMILES O=C([O-])CCCCCCCCCCCCCCC(=O)[O-]
REMARK SMILES IDX 10 1 9 2 8 3 7 4 6 5 5 6 4 7 2 8 1 9 3 10 11 11 12 12 13 13
REMARK SMILES IDX 14 14 15 15 16 16 17 17 18 18 19 19 20 20
REMARK H PARENT
REMARK Flexibility Score: inf
ROOT
ATOM      1  C   UNL     1      -1.467  20.741  16.870  1.00  0.00     0.000 C 
ENDROOT
BRANCH   1   2
ATOM      2  C   UNL     1      -0.178  19.918  16.726  1.00  0.00     0.000 C 
BRANCH   2   3
ATOM      3  C   UNL     1       0.917  20.659  15.937  1.00  0.00     0.000 C 
BRANCH   3   4
ATOM      4  C   UNL     1       2.226  20.901  16.714  1.00  0.00     0.000 C 
BRANCH   4   5
ATOM      5  C   UNL     1       3.407  19.996  16.308  1.00  0.00     0.000 C 
BRANCH   5   6
ATOM      6  C   UNL     1       4.587  20.728  15.639  1.00  0.00     0.006 C 
BRANCH   6   7
ATOM      7  C   UNL     1       5.921  20.606  16.394  1.00  0.00     0.053 C 
BRANCH   7   8
ATOM      8  C   UNL     1       7.084  20.468  15.461  1.00  0.00     0.041 C 
ATOM      9  O   UNL     1       8.228  20.857  15.814  1.00  0.00    -0.550 OA
ATOM     10  O   UNL     1       6.911  19.876  14.216  1.00  0.00    -0.550 OA
ENDBRANCH   7   8
ENDBRANCH   6   7
ENDBRANCH   5   6
ENDBRANCH   4   5
ENDBRANCH   3   4
ENDBRANCH   2   3
ENDBRANCH   1   2
BRANCH   1  11
ATOM     11  C   UNL     1      -2.704  19.876  16.583  1.00  0.00     0.000 C 
BRANCH  11  12
ATOM     12  C   UNL     1      -3.582  20.440  15.451  1.00  0.00     0.000 C 
BRANCH  12  13
ATOM     13  C   UNL     1      -5.089  20.486  15.760  1.00  0.00     0.000 C 
BRANCH  13  14
ATOM     14  C   UNL     1      -5.930  20.966  14.567  1.00  0.00     0.000 C 
BRANCH  14  15
ATOM     15  C   UNL     1      -7.427  20.739  14.823  1.00  0.00     0.000 C 
BRANCH  15  16
ATOM     16  C   UNL     1      -7.735  20.316  16.269  1.00  0.00     0.006 C 
BRANCH  16  17
ATOM     17  C   UNL     1      -8.815  21.171  16.954  1.00  0.00     0.053 C 
BRANCH  17  18
ATOM     18  C   UNL     1      -8.295  21.904  18.154  1.00  0.00     0.041 C 
ATOM     19  O   UNL     1      -7.469  21.350  18.924  1.00  0.00    -0.550 OA
ATOM     20  O   UNL     1      -8.750  23.184  18.442  1.00  0.00    -0.550 OA
ENDBRANCH  17  18
ENDBRANCH  16  17
ENDBRANCH  15  16
ENDBRANCH  14  15
ENDBRANCH  13  14
ENDBRANCH  12  13
ENDBRANCH  11  12
ENDBRANCH   1  11
TORSDOF 15
ENDMDL
MODEL 3
REMARK VINA RESULT:    -2.923      3.158      6.066
REMARK INTER + INTRA:          -6.025
REMARK INTER:                  -5.599
REMARK INTRA:                  -0.425
REMARK UNBOUND:                -0.538
REMARK SMILES O=C([O-])CCCCCCCCCCCCCCC(=O)[O-]
REMARK SMILES IDX 10 1 9 2 8 3 7 4 6 5 5 6 4 7 2 8 1 9 3 10 11 11 12 12 13 13
REMARK SMILES IDX 14 14 15 15 16 16 17 17 18 18 19 19 20 20
REMARK H PARENT
REMARK Flexibility Score: inf
ROOT
ATOM      1  C   UNL     1       2.092  20.902  16.571  1.00  0.00     0.000 C 
ENDROOT
BRANCH   1   2
ATOM      2  C   UNL     1       0.994  19.895  16.194  1.00  0.00     0.000 C 
BRANCH   2   3
ATOM      3  C   UNL     1      -0.277  20.050  17.049  1.00  0.00     0.000 C 
BRANCH   3   4
ATOM      4  C   UNL     1      -1.529  20.508  16.274  1.00  0.00     0.000 C 
BRANCH   4   5
ATOM      5  C   UNL     1      -2.875  20.076  16.888  1.00  0.00     0.000 C 
BRANCH   5   6
ATOM      6  C   UNL     1      -4.090  20.205  15.948  1.00  0.00     0.006 C 
BRANCH   6   7
ATOM      7  C   UNL     1      -5.449  20.232  16.667  1.00  0.00     0.053 C 
BRANCH   7   8
ATOM      8  C   UNL     1      -6.519  20.850  15.822  1.00  0.00     0.041 C 
ATOM      9  O   UNL     1      -7.462  21.486  16.361  1.00  0.00    -0.550 OA
ATOM     10  O   UNL     1      -6.456  20.754  14.438  1.00  0.00    -0.550 OA
ENDBRANCH   7   8
ENDBRANCH   6   7
ENDBRANCH   5   6
ENDBRANCH   4   5
ENDBRANCH   3   4
ENDBRANCH   2   3
ENDBRANCH   1   2
BRANCH   1  11
ATOM     11  C   UNL     1       3.487  20.314  16.310  1.00  0.00     0.000 C 
BRANCH  11  12
ATOM     12  C   UNL     1       4.625  21.282  16.682  1.00  0.00     0.000 C 
BRANCH  12  13
ATOM     13  C   UNL     1       6.032  20.821  16.263  1.00  0.00     0.000 C 
BRANCH  13  14
ATOM     14  C   UNL     1       6.233  20.823  14.740  1.00  0.00     0.000 C 
BRANCH  14  15
ATOM     15  C   UNL     1       7.588  20.204  14.363  1.00  0.00     0.000 C 
BRANCH  15  16
ATOM     16  C   UNL     1       8.784  20.946  14.985  1.00  0.00     0.006 C 
BRANCH  16  17
ATOM     17  C   UNL     1      10.033  20.979  14.087  1.00  0.00     0.053 C 
BRANCH  17  18
ATOM     18  C   UNL     1       9.802  21.723  12.806  1.00  0.00     0.041 C 
ATOM     19  O   UNL     1       9.804  22.981  12.796  1.00  0.00    -0.550 OA
ATOM     20  O   UNL     1       9.547  21.028  11.631  1.00  0.00    -0.550 OA
ENDBRANCH  17  18
ENDBRANCH  16  17
ENDBRANCH  15  16
ENDBRANCH  14  15
ENDBRANCH  13  14
ENDBRANCH  12  13
ENDBRANCH  11  12
ENDBRANCH   1  11
TORSDOF 15
ENDMDL
MODEL 4
REMARK VINA RESULT:    -2.783      2.048      4.134
REMARK INTER + INTRA:          -5.760
REMARK INTER:                  -5.273
REMARK INTRA:                  -0.487
REMARK UNBOUND:                -0.538
REMARK SMILES O=C([O-])CCCCCCCCCCCCCCC(=O)[O-]
REMARK SMILES IDX 10 1 9 2 8 3 7 4 6 5 5 6 4 7 2 8 1 9 3 10 11 11 12 12 13 13
REMARK SMILES IDX 14 14 15 15 16 16 17 17 18 18 19 19 20 20
REMARK H PARENT
REMARK Flexibility Score: inf
ROOT
ATOM      1  C   UNL     1       0.050  20.842  15.835  1.00  0.00     0.000 C 
ENDROOT
BRANCH   1   2
ATOM      2  C   UNL     1      -1.263  20.278  16.398  1.00  0.00     0.000 C 
BRANCH   2   3
ATOM      3  C   UNL     1      -2.500  21.068  15.933  1.00  0.00     0.000 C 
BRANCH   3   4
ATOM      4  C   UNL     1      -3.795  20.240  15.818  1.00  0.00     0.000 C 
BRANCH   4   5
ATOM      5  C   UNL     1      -4.997  20.983  15.202  1.00  0.00     0.000 C 
BRANCH   5   6
ATOM      6  C   UNL     1      -6.377  20.533  15.722  1.00  0.00     0.006 C 
BRANCH   6   7
ATOM      7  C   UNL     1      -6.527  20.583  17.251  1.00  0.00     0.053 C 
BRANCH   7   8
ATOM      8  C   UNL     1      -7.911  20.975  17.667  1.00  0.00     0.041 C 
ATOM      9  O   UNL     1      -8.861  20.912  16.843  1.00  0.00    -0.550 OA
ATOM     10  O   UNL     1      -8.158  21.376  18.974  1.00  0.00    -0.550 OA
ENDBRANCH   7   8
ENDBRANCH   6   7
ENDBRANCH   5   6
ENDBRANCH   4   5
ENDBRANCH   3   4
ENDBRANCH   2   3
ENDBRANCH   1   2
BRANCH   1  11
ATOM     11  C   UNL     1       1.245  19.979  16.266  1.00  0.00     0.000 C 
BRANCH  11  12
ATOM     12  C   UNL     1       2.513  20.807  16.546  1.00  0.00     0.000 C 
BRANCH  12  13
ATOM     13  C   UNL     1       3.836  20.029  16.429  1.00  0.00     0.000 C 
BRANCH  13  14
ATOM     14  C   UNL     1       4.920  20.804  15.664  1.00  0.00     0.000 C 
BRANCH  14  15
ATOM     15  C   UNL     1       5.904  21.475  16.635  1.00  0.00     0.000 C 
BRANCH  15  16
ATOM     16  C   UNL     1       7.254  20.744  16.727  1.00  0.00     0.006 C 
BRANCH  16  17
ATOM     17  C   UNL     1       7.579  19.875  15.499  1.00  0.00     0.053 C 
BRANCH  17  18
ATOM     18  C   UNL     1       8.700  20.437  14.678  1.00  0.00     0.041 C 
ATOM     19  O   UNL     1       8.489  21.395  13.890  1.00  0.00    -0.550 OA
ATOM     20  O   UNL     1       9.970  19.878  14.753  1.00  0.00    -0.550 OA
ENDBRANCH  17  18
ENDBRANCH  16  17
ENDBRANCH  15  16
ENDBRANCH  14  15
ENDBRANCH  13  14
ENDBRANCH  12  13
ENDBRANCH  11  12
ENDBRANCH   1  11
TORSDOF 15
ENDMDL
MODEL 5
REMARK VINA RESULT:    -2.716      2.605     12.326
REMARK INTER + INTRA:          -5.635
REMARK INTER:                  -5.180
REMARK INTRA:                  -0.456
REMARK UNBOUND:                -0.538
REMARK SMILES O=C([O-])CCCCCCCCCCCCCCC(=O)[O-]
REMARK SMILES IDX 10 1 9 2 8 3 7 4 6 5 5 6 4 7 2 8 1 9 3 10 11 11 12 12 13 13
REMARK SMILES IDX 14 14 15 15 16 16 17 17 18 18 19 19 20 20
REMARK H PARENT
REMARK Flexibility Score: inf
ROOT
ATOM      1  C   UNL     1       1.312  20.857  16.364  1.00  0.00     0.000 C 
ENDROOT
BRANCH   1   2
ATOM      2  C   UNL     1       2.647  20.106  16.246  1.00  0.00     0.000 C 
BRANCH   2   3
ATOM      3  C   UNL     1       3.861  20.988  16.590  1.00  0.00     0.000 C 
BRANCH   3   4
ATOM      4  C   UNL     1       5.226  20.402  16.180  1.00  0.00     0.000 C 
BRANCH   4   5
ATOM      5  C   UNL     1       5.881  21.064  14.951  1.00  0.00     0.000 C 
BRANCH   5   6
ATOM      6  C   UNL     1       7.103  20.315  14.382  1.00  0.00     0.006 C 
BRANCH   6   7
ATOM      7  C   UNL     1       8.441  21.050  14.565  1.00  0.00     0.053 C 
BRANCH   7   8
ATOM      8  C   UNL     1       9.375  20.809  13.420  1.00  0.00     0.041 C 
ATOM      9  O   UNL     1       8.959  20.893  12.235  1.00  0.00    -0.550 OA
ATOM     10  O   UNL     1      10.714  20.527  13.662  1.00  0.00    -0.550 OA
ENDBRANCH   7   8
ENDBRANCH   6   7
ENDBRANCH   5   6
ENDBRANCH   4   5
ENDBRANCH   3   4
ENDBRANCH   2   3
ENDBRANCH   1   2
BRANCH   1  11
ATOM     11  C   UNL     1       0.165  19.887  16.684  1.00  0.00     0.000 C 
BRANCH  11  12
ATOM     12  C   UNL     1      -1.220  20.560  16.638  1.00  0.00     0.000 C 
BRANCH  12  13
ATOM     13  C   UNL     1      -2.181  20.146  17.767  1.00  0.00     0.000 C 
BRANCH  13  14
ATOM     14  C   UNL     1      -3.660  20.292  17.378  1.00  0.00     0.000 C 
BRANCH  14  15
ATOM     15  C   UNL     1      -3.837  20.219  15.854  1.00  0.00     0.000 C 
BRANCH  15  16
ATOM     16  C   UNL     1      -5.231  20.672  15.386  1.00  0.00     0.006 C 
BRANCH  16  17
ATOM     17  C   UNL     1      -6.379  20.195  16.292  1.00  0.00     0.053 C 
BRANCH  17  18
ATOM     18  C   UNL     1      -7.600  21.057  16.176  1.00  0.00     0.041 C 
ATOM     19  O   UNL     1      -7.662  22.153  16.792  1.00  0.00    -0.550 OA
ATOM     20  O   UNL     1      -8.685  20.634  15.419  1.00  0.00    -0.550 OA
ENDBRANCH  17  18
ENDBRANCH  16  17
ENDBRANCH  15  16
ENDBRANCH  14  15
ENDBRANCH  13  14
ENDBRANCH  12  13
ENDBRANCH  11  12
ENDBRANCH   1  11
TORSDOF 15
ENDMDL
MODEL 6
REMARK VINA RESULT:    -2.351      4.235      7.887
REMARK INTER + INTRA:          -4.951
REMARK INTER:                  -4.409
REMARK INTRA:                  -0.542
REMARK UNBOUND:                -0.538
REMARK SMILES O=C([O-])CCCCCCCCCCCCCCC(=O)[O-]
REMARK SMILES IDX 10 1 9 2 8 3 7 4 6 5 5 6 4 7 2 8 1 9 3 10 11 11 12 12 13 13
REMARK SMILES IDX 14 14 15 15 16 16 17 17 18 18 19 19 20 20
REMARK H PARENT
REMARK Flexibility Score: inf
ROOT
ATOM      1  C   UNL     1       4.485  20.953  16.909  1.00  0.00     0.000 C 
ENDROOT
BRANCH   1   2
ATOM      2  C   UNL     1       3.275  20.537  16.059  1.00  0.00     0.000 C 
BRANCH   2   3
ATOM      3  C   UNL     1       1.930  20.885  16.724  1.00  0.00     0.000 C 
BRANCH   3   4
ATOM      4  C   UNL     1       0.686  20.333  16.001  1.00  0.00     0.000 C 
BRANCH   4   5
ATOM      5  C   UNL     1      -0.420  21.369  15.714  1.00  0.00     0.000 C 
BRANCH   5   6
ATOM      6  C   UNL     1      -1.855  20.885  16.001  1.00  0.00     0.006 C 
BRANCH   6   7
ATOM      7  C   UNL     1      -1.975  19.923  17.194  1.00  0.00     0.053 C 
BRANCH   7   8
ATOM      8  C   UNL     1      -3.361  19.901  17.760  1.00  0.00     0.041 C 
ATOM      9  O   UNL     1      -3.536  19.931  19.007  1.00  0.00    -0.550 OA
ATOM     10  O   UNL     1      -4.460  19.885  16.911  1.00  0.00    -0.550 OA
ENDBRANCH   7   8
ENDBRANCH   6   7
ENDBRANCH   5   6
ENDBRANCH   4   5
ENDBRANCH   3   4
ENDBRANCH   2   3
ENDBRANCH   1   2
BRANCH   1  11
ATOM     11  C   UNL     1       5.717  21.195  16.025  1.00  0.00     0.000 C 
BRANCH  11  12
ATOM     12  C   UNL     1       7.004  20.580  16.608  1.00  0.00     0.000 C 
BRANCH  12  13
ATOM     13  C   UNL     1       8.067  20.190  15.566  1.00  0.00     0.000 C 
BRANCH  13  14
ATOM     14  C   UNL     1       7.900  20.934  14.232  1.00  0.00     0.000 C 
BRANCH  14  15
ATOM     15  C   UNL     1       8.643  20.208  13.101  1.00  0.00     0.000 C 
BRANCH  15  16
ATOM     16  C   UNL     1       9.558  21.137  12.285  1.00  0.00     0.006 C 
BRANCH  16  17
ATOM     17  C   UNL     1      10.034  22.379  13.058  1.00  0.00     0.053 C 
BRANCH  17  18
ATOM     18  C   UNL     1      10.633  23.421  12.161  1.00  0.00     0.041 C 
ATOM     19  O   UNL     1      10.683  24.622  12.532  1.00  0.00    -0.550 OA
ATOM     20  O   UNL     1      11.101  23.072  10.900  1.00  0.00    -0.550 OA
ENDBRANCH  17  18
ENDBRANCH  16  17
ENDBRANCH  15  16
ENDBRANCH  14  15
ENDBRANCH  13  14
ENDBRANCH  12  13
ENDBRANCH  11  12
ENDBRANCH   1  11
TORSDOF 15
ENDMDL
MODEL 7
REMARK VINA RESULT:    -2.313      1.104     10.397
REMARK INTER + INTRA:          -4.878
REMARK INTER:                  -4.156
REMARK INTRA:                  -0.722
REMARK UNBOUND:                -0.538
REMARK SMILES O=C([O-])CCCCCCCCCCCCCCC(=O)[O-]
REMARK SMILES IDX 10 1 9 2 8 3 7 4 6 5 5 6 4 7 2 8 1 9 3 10 11 11 12 12 13 13
REMARK SMILES IDX 14 14 15 15 16 16 17 17 18 18 19 19 20 20
REMARK H PARENT
REMARK Flexibility Score: inf
ROOT
ATOM      1  C   UNL     1      -3.000  19.939  15.878  1.00  0.00     0.000 C 
ENDROOT
BRANCH   1   2
ATOM      2  C   UNL     1      -2.060  20.967  16.524  1.00  0.00     0.000 C 
BRANCH   2   3
ATOM      3  C   UNL     1      -1.189  21.710  15.495  1.00  0.00     0.000 C 
BRANCH   3   4
ATOM      4  C   UNL     1       0.271  21.223  15.407  1.00  0.00     0.000 C 
BRANCH   4   5
ATOM      5  C   UNL     1       0.752  20.374  16.601  1.00  0.00     0.000 C 
BRANCH   5   6
ATOM      6  C   UNL     1       2.208  19.876  16.501  1.00  0.00     0.006 C 
BRANCH   6   7
ATOM      7  C   UNL     1       3.242  20.985  16.248  1.00  0.00     0.053 C 
BRANCH   7   8
ATOM      8  C   UNL     1       4.569  20.430  15.830  1.00  0.00     0.041 C 
ATOM      9  O   UNL     1       4.749  20.046  14.644  1.00  0.00    -0.550 OA
ATOM     10  O   UNL     1       5.617  20.371  16.740  1.00  0.00    -0.550 OA
ENDBRANCH   7   8
ENDBRANCH   6   7
ENDBRANCH   5   6
ENDBRANCH   4   5
ENDBRANCH   3   4
ENDBRANCH   2   3
ENDBRANCH   1   2
BRANCH   1  11
ATOM     11  C   UNL     1      -4.469  20.353  16.053  1.00  0.00     0.000 C 
BRANCH  11  12
ATOM     12  C   UNL     1      -5.057  19.919  17.408  1.00  0.00     0.000 C 
BRANCH  12  13
ATOM     13  C   UNL     1      -6.595  19.913  17.476  1.00  0.00     0.000 C 
BRANCH  13  14
ATOM     14  C   UNL     1      -7.243  20.867  16.461  1.00  0.00     0.000 C 
BRANCH  14  15
ATOM     15  C   UNL     1      -8.606  21.364  16.966  1.00  0.00     0.000 C 
BRANCH  15  16
ATOM     16  C   UNL     1      -8.673  21.491  18.497  1.00  0.00     0.006 C 
BRANCH  16  17
ATOM     17  C   UNL     1      -8.339  22.898  19.023  1.00  0.00     0.053 C 
BRANCH  17  18
ATOM     18  C   UNL     1      -7.889  22.887  20.453  1.00  0.00     0.041 C 
ATOM     19  O   UNL     1      -7.937  21.823  21.123  1.00  0.00    -0.550 OA
ATOM     20  O   UNL     1      -7.452  24.058  21.057  1.00  0.00    -0.550 OA
ENDBRANCH  17  18
ENDBRANCH  16  17
ENDBRANCH  15  16
ENDBRANCH  14  15
ENDBRANCH  13  14
ENDBRANCH  12  13
ENDBRANCH  11  12
ENDBRANCH   1  11
TORSDOF 15
ENDMDL
MODEL 8
REMARK VINA RESULT:    -2.214      2.970     12.785
REMARK INTER + INTRA:          -4.693
REMARK INTER:                  -4.327
REMARK INTRA:                  -0.366
REMARK UNBOUND:                -0.538
REMARK SMILES O=C([O-])CCCCCCCCCCCCCCC(=O)[O-]
REMARK SMILES IDX 10 1 9 2 8 3 7 4 6 5 5 6 4 7 2 8 1 9 3 10 11 11 12 12 13 13
REMARK SMILES IDX 14 14 15 15 16 16 17 17 18 18 19 19 20 20
REMARK H PARENT
REMARK Flexibility Score: inf
ROOT
ATOM      1  C   UNL     1       2.783  20.634  15.879  1.00  0.00     0.000 C 
ENDROOT
BRANCH   1   2
ATOM      2  C   UNL     1       4.104  19.876  16.074  1.00  0.00     0.000 C 
BRANCH   2   3
ATOM      3  C   UNL     1       5.336  20.711  15.680  1.00  0.00     0.000 C 
BRANCH   3   4
ATOM      4  C   UNL     1       6.585  20.480  16.554  1.00  0.00     0.000 C 
BRANCH   4   5
ATOM      5  C   UNL     1       7.835  19.992  15.795  1.00  0.00     0.000 C 
BRANCH   5   6
ATOM      6  C   UNL     1       8.652  21.103  15.106  1.00  0.00     0.006 C 
BRANCH   6   7
ATOM      7  C   UNL     1       8.742  20.969  13.577  1.00  0.00     0.053 C 
BRANCH   7   8
ATOM      8  C   UNL     1       9.887  21.751  13.011  1.00  0.00     0.041 C 
ATOM      9  O   UNL     1      10.052  21.820  11.765  1.00  0.00    -0.550 OA
ATOM     10  O   UNL     1      10.749  22.435  13.859  1.00  0.00    -0.550 OA
ENDBRANCH   7   8
ENDBRANCH   6   7
ENDBRANCH   5   6
ENDBRANCH   4   5
ENDBRANCH   3   4
ENDBRANCH   2   3
ENDBRANCH   1   2
BRANCH   1  11
ATOM     11  C   UNL     1       1.704  20.110  16.839  1.00  0.00     0.000 C 
BRANCH  11  12
ATOM     12  C   UNL     1       0.341  19.901  16.154  1.00  0.00     0.000 C 
BRANCH  12  13
ATOM     13  C   UNL     1      -0.767  20.869  16.603  1.00  0.00     0.000 C 
BRANCH  13  14
ATOM     14  C   UNL     1      -2.078  20.153  16.964  1.00  0.00     0.000 C 
BRANCH  14  15
ATOM     15  C   UNL     1      -3.120  20.316  15.847  1.00  0.00     0.000 C 
BRANCH  15  16
ATOM     16  C   UNL     1      -4.569  20.219  16.354  1.00  0.00     0.006 C 
BRANCH  16  17
ATOM     17  C   UNL     1      -5.616  20.748  15.359  1.00  0.00     0.053 C 
BRANCH  17  18
ATOM     18  C   UNL     1      -6.968  20.920  15.983  1.00  0.00     0.041 C 
ATOM     19  O   UNL     1      -7.996  20.980  15.260  1.00  0.00    -0.550 OA
ATOM     20  O   UNL     1      -7.091  21.051  17.360  1.00  0.00    -0.550 OA
ENDBRANCH  17  18
ENDBRANCH  16  17
ENDBRANCH  15  16
ENDBRANCH  14  15
ENDBRANCH  13  14
ENDBRANCH  12  13
ENDBRANCH  11  12
ENDBRANCH   1  11
TORSDOF 15
ENDMDL
MODEL 9
REMARK VINA RESULT:    -2.049      3.585      7.224
REMARK INTER + INTRA:          -4.383
REMARK INTER:                  -3.838
REMARK INTRA:                  -0.546
REMARK UNBOUND:                -0.538
REMARK SMILES O=C([O-])CCCCCCCCCCCCCCC(=O)[O-]
REMARK SMILES IDX 10 1 9 2 8 3 7 4 6 5 5 6 4 7 2 8 1 9 3 10 11 11 12 12 13 13
REMARK SMILES IDX 14 14 15 15 16 16 17 17 18 18 19 19 20 20
REMARK H PARENT
REMARK Flexibility Score: inf
ROOT
ATOM      1  C   UNL     1       3.331  21.713  17.267  1.00  0.00     0.000 C 
ENDROOT
BRANCH   1   2
ATOM      2  C   UNL     1       2.849  20.692  16.225  1.00  0.00     0.000 C 
BRANCH   2   3
ATOM      3  C   UNL     1       1.625  19.887  16.699  1.00  0.00     0.000 C 
BRANCH   3   4
ATOM      4  C   UNL     1       0.264  20.567  16.447  1.00  0.00     0.000 C 
BRANCH   4   5
ATOM      5  C   UNL     1      -0.946  19.875  17.106  1.00  0.00     0.000 C 
BRANCH   5   6
ATOM      6  C   UNL     1      -2.266  20.669  17.038  1.00  0.00     0.006 C 
BRANCH   6   7
ATOM      7  C   UNL     1      -3.249  20.175  15.965  1.00  0.00     0.053 C 
BRANCH   7   8
ATOM      8  C   UNL     1      -4.675  20.365  16.381  1.00  0.00     0.041 C 
ATOM      9  O   UNL     1      -4.994  20.301  17.598  1.00  0.00    -0.550 OA
ATOM     10  O   UNL     1      -5.646  20.649  15.429  1.00  0.00    -0.550 OA
ENDBRANCH   7   8
ENDBRANCH   6   7
ENDBRANCH   5   6
ENDBRANCH   4   5
ENDBRANCH   3   4
ENDBRANCH   2   3
ENDBRANCH   1   2
BRANCH   1  11
ATOM     11  C   UNL     1       4.818  22.041  17.064  1.00  0.00     0.000 C 
BRANCH  11  12
ATOM     12  C   UNL     1       5.648  20.821  16.627  1.00  0.00     0.000 C 
BRANCH  12  13
ATOM     13  C   UNL     1       6.429  21.003  15.313  1.00  0.00     0.000 C 
BRANCH  13  14
ATOM     14  C   UNL     1       7.655  20.083  15.213  1.00  0.00     0.000 C 
BRANCH  14  15
ATOM     15  C   UNL     1       8.953  20.903  15.139  1.00  0.00     0.000 C 
BRANCH  15  16
ATOM     16  C   UNL     1       9.803  20.575  13.899  1.00  0.00     0.006 C 
BRANCH  16  17
ATOM     17  C   UNL     1       8.981  20.136  12.676  1.00  0.00     0.053 C 
BRANCH  17  18
ATOM     18  C   UNL     1       9.595  20.576  11.381  1.00  0.00     0.041 C 
ATOM     19  O   UNL     1       9.261  20.021  10.302  1.00  0.00    -0.550 OA
ATOM     20  O   UNL     1      10.563  21.572  11.369  1.00  0.00    -0.550 OA
ENDBRANCH  17  18
ENDBRANCH  16  17
ENDBRANCH  15  16
ENDBRANCH  14  15
ENDBRANCH  13  14
ENDBRANCH  12  13
ENDBRANCH  11  12
ENDBRANCH   1  11
TORSDOF 15
ENDMDL
