MODEL 1
REMARK VINA RESULT:    -5.312      0.000      0.000
REMARK INTER + INTRA:          -6.005
REMARK INTER:                  -5.778
REMARK INTRA:                  -0.228
REMARK UNBOUND:                -0.228
REMARK SMILES C=C1C[C@]2(O)O[C@@]3(C[C@H]2C(C)C)[C@@H]1CC[C@@H]3C
REMARK SMILES IDX 17 1 16 2 15 3 14 4 13 5 7 6 8 7 9 8 4 9 6 10 3 11 2 12 1 13
REMARK SMILES IDX 10 14 11 15 12 16 5 17
REMARK H PARENT 5 18
REMARK Flexibility Score: inf
ROOT
ATOM      1  C   UNL     1      24.124  26.857  27.660  1.00  0.00     0.011 C 
ATOM      2  C   UNL     1      22.606  26.809  27.401  1.00  0.00     0.019 C 
ATOM      3  C   UNL     1      21.834  27.000  28.710  1.00  0.00     0.007 C 
ATOM      4  C   UNL     1      21.508  28.492  28.824  1.00  0.00     0.011 C 
ATOM      5  C   UNL     1      21.869  29.139  27.477  1.00  0.00     0.047 C 
ATOM      6  C   UNL     1      22.095  27.952  26.507  1.00  0.00     0.081 C 
ATOM      7  C   UNL     1      22.982  28.299  25.315  1.00  0.00     0.046 C 
ATOM      8  C   UNL     1      22.013  29.004  24.372  1.00  0.00     0.054 C 
ATOM      9  C   UNL     1      20.626  28.600  24.977  1.00  0.00     0.173 C 
ATOM     10  O   UNL     1      20.865  27.589  25.932  1.00  0.00    -0.342 OA
ATOM     11  C   UNL     1      19.997  29.797  25.726  1.00  0.00     0.096 C 
ATOM     12  C   UNL     1      20.787  30.101  26.986  1.00  0.00    -0.066 C 
ATOM     13  C   UNL     1      20.531  31.226  27.671  1.00  0.00     0.008 C 
ENDROOT
BRANCH   8  14
ATOM     14  C   UNL     1      22.230  28.661  22.863  1.00  0.00    -0.009 C 
ATOM     15  C   UNL     1      22.626  29.919  22.066  1.00  0.00     0.008 C 
ATOM     16  C   UNL     1      23.337  27.606  22.666  1.00  0.00     0.008 C 
ENDBRANCH   8  14
BRANCH   9  17
ATOM     17  O   UNL     1      19.741  28.117  23.998  1.00  0.00    -0.365 OA
ATOM     18  H   UNL     1      18.823  28.170  24.374  1.00  0.00     0.214 HD
ENDBRANCH   9  17
TORSDOF 2
ENDMDL
MODEL 2
REMARK VINA RESULT:    -4.863      2.446      4.625
REMARK INTER + INTRA:          -5.517
REMARK INTER:                  -5.282
REMARK INTRA:                  -0.235
REMARK UNBOUND:                -0.228
REMARK SMILES C=C1C[C@]2(O)O[C@@]3(C[C@H]2C(C)C)[C@@H]1CC[C@@H]3C
REMARK SMILES IDX 17 1 16 2 15 3 14 4 13 5 7 6 8 7 9 8 4 9 6 10 3 11 2 12 1 13
REMARK SMILES IDX 10 14 11 15 12 16 5 17
REMARK H PARENT 5 18
REMARK Flexibility Score: inf
ROOT
ATOM      1  C   UNL     1      21.873  27.195  30.329  1.00  0.00     0.011 C 
ATOM      2  C   UNL     1      22.634  27.917  29.200  1.00  0.00     0.019 C 
ATOM      3  C   UNL     1      23.105  26.910  28.145  1.00  0.00     0.007 C 
ATOM      4  C   UNL     1      22.033  26.873  27.052  1.00  0.00     0.011 C 
ATOM      5  C   UNL     1      21.057  28.026  27.334  1.00  0.00     0.047 C 
ATOM      6  C   UNL     1      21.763  28.902  28.400  1.00  0.00     0.081 C 
ATOM      7  C   UNL     1      20.803  29.749  29.228  1.00  0.00     0.046 C 
ATOM      8  C   UNL     1      20.524  30.933  28.307  1.00  0.00     0.054 C 
ATOM      9  C   UNL     1      21.677  30.799  27.256  1.00  0.00     0.173 C 
ATOM     10  O   UNL     1      22.585  29.839  27.751  1.00  0.00    -0.342 OA
ATOM     11  C   UNL     1      21.126  30.260  25.917  1.00  0.00     0.096 C 
ATOM     12  C   UNL     1      20.702  28.809  26.071  1.00  0.00    -0.066 C 
ATOM     13  C   UNL     1      20.010  28.216  25.087  1.00  0.00     0.008 C 
ENDROOT
BRANCH   8  14
ATOM     14  C   UNL     1      20.424  32.305  29.048  1.00  0.00    -0.009 C 
ATOM     15  C   UNL     1      18.953  32.681  29.312  1.00  0.00     0.008 C 
ATOM     16  C   UNL     1      21.159  32.283  30.403  1.00  0.00     0.008 C 
ENDBRANCH   8  14
BRANCH   9  17
ATOM     17  O   UNL     1      22.351  32.016  27.051  1.00  0.00    -0.365 OA
ATOM     18  H   UNL     1      22.780  31.972  26.157  1.00  0.00     0.214 HD
ENDBRANCH   9  17
TORSDOF 2
ENDMDL
MODEL 3
REMARK VINA RESULT:    -4.755      1.903      4.339
REMARK INTER + INTRA:          -5.400
REMARK INTER:                  -5.182
REMARK INTRA:                  -0.218
REMARK UNBOUND:                -0.228
REMARK SMILES C=C1C[C@]2(O)O[C@@]3(C[C@H]2C(C)C)[C@@H]1CC[C@@H]3C
REMARK SMILES IDX 17 1 16 2 15 3 14 4 13 5 7 6 8 7 9 8 4 9 6 10 3 11 2 12 1 13
REMARK SMILES IDX 10 14 11 15 12 16 5 17
REMARK H PARENT 5 18
REMARK Flexibility Score: inf
ROOT
ATOM      1  C   UNL     1      23.188  25.657  27.007  1.00  0.00     0.011 C 
ATOM      2  C   UNL     1      23.491  27.019  26.352  1.00  0.00     0.019 C 
ATOM      3  C   UNL     1      23.662  26.858  24.838  1.00  0.00     0.007 C 
ATOM      4  C   UNL     1      22.299  27.144  24.202  1.00  0.00     0.011 C 
ATOM      5  C   UNL     1      21.391  27.708  25.307  1.00  0.00     0.047 C 
ATOM      6  C   UNL     1      22.344  28.036  26.484  1.00  0.00     0.081 C 
ATOM      7  C   UNL     1      21.649  28.068  27.841  1.00  0.00     0.046 C 
ATOM      8  C   UNL     1      21.007  29.452  27.855  1.00  0.00     0.054 C 
ATOM      9  C   UNL     1      21.764  30.167  26.684  1.00  0.00     0.173 C 
ATOM     10  O   UNL     1      22.846  29.338  26.318  1.00  0.00    -0.342 OA
ATOM     11  C   UNL     1      20.846  30.294  25.448  1.00  0.00     0.096 C 
ATOM     12  C   UNL     1      20.594  28.925  24.839  1.00  0.00    -0.066 C 
ATOM     13  C   UNL     1      19.662  28.789  23.885  1.00  0.00     0.008 C 
ENDROOT
BRANCH   8  14
ATOM     14  C   UNL     1      21.060  30.165  29.245  1.00  0.00    -0.009 C 
ATOM     15  C   UNL     1      19.685  30.755  29.612  1.00  0.00     0.008 C 
ATOM     16  C   UNL     1      21.479  29.198  30.371  1.00  0.00     0.008 C 
ENDBRANCH   8  14
BRANCH   9  17
ATOM     17  O   UNL     1      22.251  31.430  27.062  1.00  0.00    -0.365 OA
ATOM     18  H   UNL     1      23.198  31.485  26.767  1.00  0.00     0.214 HD
ENDBRANCH   9  17
TORSDOF 2
ENDMDL
MODEL 4
REMARK VINA RESULT:    -4.717      2.506      3.638
REMARK INTER + INTRA:          -5.359
REMARK INTER:                  -5.125
REMARK INTRA:                  -0.234
REMARK UNBOUND:                -0.228
REMARK SMILES C=C1C[C@]2(O)O[C@@]3(C[C@H]2C(C)C)[C@@H]1CC[C@@H]3C
REMARK SMILES IDX 17 1 16 2 15 3 14 4 13 5 7 6 8 7 9 8 4 9 6 10 3 11 2 12 1 13
REMARK SMILES IDX 10 14 11 15 12 16 5 17
REMARK H PARENT 5 18
REMARK Flexibility Score: inf
ROOT
ATOM      1  C   UNL     1      24.045  32.651  25.077  1.00  0.00     0.011 C 
ATOM      2  C   UNL     1      24.124  31.114  25.157  1.00  0.00     0.019 C 
ATOM      3  C   UNL     1      23.771  30.634  26.569  1.00  0.00     0.007 C 
ATOM      4  C   UNL     1      22.277  30.301  26.567  1.00  0.00     0.011 C 
ATOM      5  C   UNL     1      21.802  30.350  25.106  1.00  0.00     0.047 C 
ATOM      6  C   UNL     1      23.100  30.396  24.261  1.00  0.00     0.081 C 
ATOM      7  C   UNL     1      22.905  31.000  22.874  1.00  0.00     0.046 C 
ATOM      8  C   UNL     1      22.321  29.835  22.082  1.00  0.00     0.054 C 
ATOM      9  C   UNL     1      22.646  28.619  23.015  1.00  0.00     0.173 C 
ATOM     10  O   UNL     1      23.531  29.082  24.012  1.00  0.00    -0.342 OA
ATOM     11  C   UNL     1      21.365  28.132  23.730  1.00  0.00     0.096 C 
ATOM     12  C   UNL     1      20.908  29.164  24.745  1.00  0.00    -0.066 C 
ATOM     13  C   UNL     1      19.706  29.031  25.327  1.00  0.00     0.008 C 
ENDROOT
BRANCH   8  14
ATOM     14  C   UNL     1      22.849  29.735  20.614  1.00  0.00    -0.009 C 
ATOM     15  C   UNL     1      21.783  30.224  19.614  1.00  0.00     0.008 C 
ATOM     16  C   UNL     1      24.122  30.578  20.402  1.00  0.00     0.008 C 
ENDBRANCH   8  14
BRANCH   9  17
ATOM     17  O   UNL     1      23.246  27.559  22.314  1.00  0.00    -0.365 OA
ATOM     18  H   UNL     1      23.692  27.945  21.514  1.00  0.00     0.214 HD
ENDBRANCH   9  17
TORSDOF 2
ENDMDL
MODEL 5
REMARK VINA RESULT:    -4.706      1.747      4.564
REMARK INTER + INTRA:          -5.347
REMARK INTER:                  -5.114
REMARK INTRA:                  -0.233
REMARK UNBOUND:                -0.228
REMARK SMILES C=C1C[C@]2(O)O[C@@]3(C[C@H]2C(C)C)[C@@H]1CC[C@@H]3C
REMARK SMILES IDX 17 1 16 2 15 3 14 4 13 5 7 6 8 7 9 8 4 9 6 10 3 11 2 12 1 13
REMARK SMILES IDX 10 14 11 15 12 16 5 17
REMARK H PARENT 5 18
REMARK Flexibility Score: inf
ROOT
ATOM      1  C   UNL     1      23.032  25.455  24.678  1.00  0.00     0.011 C 
ATOM      2  C   UNL     1      23.201  26.971  24.902  1.00  0.00     0.019 C 
ATOM      3  C   UNL     1      22.668  27.751  23.696  1.00  0.00     0.007 C 
ATOM      4  C   UNL     1      21.217  28.126  24.012  1.00  0.00     0.011 C 
ATOM      5  C   UNL     1      20.972  27.784  25.490  1.00  0.00     0.047 C 
ATOM      6  C   UNL     1      22.379  27.516  26.082  1.00  0.00     0.081 C 
ATOM      7  C   UNL     1      22.360  26.639  27.330  1.00  0.00     0.046 C 
ATOM      8  C   UNL     1      21.986  27.628  28.428  1.00  0.00     0.054 C 
ATOM      9  C   UNL     1      22.244  29.003  27.722  1.00  0.00     0.173 C 
ATOM     10  O   UNL     1      22.931  28.732  26.520  1.00  0.00    -0.342 OA
ATOM     11  C   UNL     1      20.904  29.673  27.343  1.00  0.00     0.096 C 
ATOM     12  C   UNL     1      20.226  28.896  26.228  1.00  0.00    -0.066 C 
ATOM     13  C   UNL     1      18.962  29.190  25.893  1.00  0.00     0.008 C 
ENDROOT
BRANCH   8  14
ATOM     14  C   UNL     1      22.740  27.397  29.777  1.00  0.00    -0.009 C 
ATOM     15  C   UNL     1      21.795  26.800  30.838  1.00  0.00     0.008 C 
ATOM     16  C   UNL     1      23.935  26.437  29.611  1.00  0.00     0.008 C 
ENDBRANCH   8  14
BRANCH   9  17
ATOM     17  O   UNL     1      23.016  29.869  28.516  1.00  0.00    -0.365 OA
ATOM     18  H   UNL     1      23.801  29.356  28.841  1.00  0.00     0.214 HD
ENDBRANCH   9  17
TORSDOF 2
ENDMDL
MODEL 6
REMARK VINA RESULT:    -4.670      2.355      5.196
REMARK INTER + INTRA:          -5.308
REMARK INTER:                  -5.094
REMARK INTRA:                  -0.214
REMARK UNBOUND:                -0.228
REMARK SMILES C=C1C[C@]2(O)O[C@@]3(C[C@H]2C(C)C)[C@@H]1CC[C@@H]3C
REMARK SMILES IDX 17 1 16 2 15 3 14 4 13 5 7 6 8 7 9 8 4 9 6 10 3 11 2 12 1 13
REMARK SMILES IDX 10 14 11 15 12 16 5 17
REMARK H PARENT 5 18
REMARK Flexibility Score: inf
ROOT
ATOM      1  C   UNL     1      19.296  28.411  25.288  1.00  0.00     0.011 C 
ATOM      2  C   UNL     1      20.585  28.211  26.111  1.00  0.00     0.019 C 
ATOM      3  C   UNL     1      21.759  27.866  25.189  1.00  0.00     0.007 C 
ATOM      4  C   UNL     1      22.474  29.181  24.865  1.00  0.00     0.011 C 
ATOM      5  C   UNL     1      21.877  30.260  25.782  1.00  0.00     0.047 C 
ATOM      6  C   UNL     1      21.054  29.482  26.840  1.00  0.00     0.081 C 
ATOM      7  C   UNL     1      19.951  30.313  27.487  1.00  0.00     0.046 C 
ATOM      8  C   UNL     1      20.710  31.117  28.536  1.00  0.00     0.054 C 
ATOM      9  C   UNL     1      22.066  30.337  28.618  1.00  0.00     0.173 C 
ATOM     10  O   UNL     1      21.897  29.130  27.908  1.00  0.00    -0.342 OA
ATOM     11  C   UNL     1      23.187  31.131  27.910  1.00  0.00     0.096 C 
ATOM     12  C   UNL     1      22.951  31.148  26.410  1.00  0.00    -0.066 C 
ATOM     13  C   UNL     1      23.692  31.953  25.634  1.00  0.00     0.008 C 
ENDROOT
BRANCH   8  14
ATOM     14  C   UNL     1      19.939  31.296  29.884  1.00  0.00    -0.009 C 
ATOM     15  C   UNL     1      20.080  32.738  30.410  1.00  0.00     0.008 C 
ATOM     16  C   UNL     1      18.435  30.992  29.730  1.00  0.00     0.008 C 
ENDBRANCH   8  14
BRANCH   9  17
ATOM     17  O   UNL     1      22.434  30.051  29.944  1.00  0.00    -0.365 OA
ATOM     18  H   UNL     1      21.816  30.551  30.540  1.00  0.00     0.214 HD
ENDBRANCH   9  17
TORSDOF 2
ENDMDL
MODEL 7
REMARK VINA RESULT:    -4.663      2.417      4.632
REMARK INTER + INTRA:          -5.300
REMARK INTER:                  -5.091
REMARK INTRA:                  -0.209
REMARK UNBOUND:                -0.228
REMARK SMILES C=C1C[C@]2(O)O[C@@]3(C[C@H]2C(C)C)[C@@H]1CC[C@@H]3C
REMARK SMILES IDX 17 1 16 2 15 3 14 4 13 5 7 6 8 7 9 8 4 9 6 10 3 11 2 12 1 13
REMARK SMILES IDX 10 14 11 15 12 16 5 17
REMARK H PARENT 5 18
REMARK Flexibility Score: inf
ROOT
ATOM      1  C   UNL     1      22.241  29.523  23.864  1.00  0.00     0.011 C 
ATOM      2  C   UNL     1      21.044  29.713  24.816  1.00  0.00     0.019 C 
ATOM      3  C   UNL     1      20.306  28.386  25.018  1.00  0.00     0.007 C 
ATOM      4  C   UNL     1      20.881  27.742  26.283  1.00  0.00     0.011 C 
ATOM      5  C   UNL     1      21.777  28.792  26.959  1.00  0.00     0.047 C 
ATOM      6  C   UNL     1      21.449  30.126  26.242  1.00  0.00     0.081 C 
ATOM      7  C   UNL     1      22.567  31.160  26.334  1.00  0.00     0.046 C 
ATOM      8  C   UNL     1      22.362  31.751  27.724  1.00  0.00     0.054 C 
ATOM      9  C   UNL     1      20.914  31.263  28.069  1.00  0.00     0.173 C 
ATOM     10  O   UNL     1      20.358  30.735  26.885  1.00  0.00    -0.342 OA
ATOM     11  C   UNL     1      20.965  30.114  29.102  1.00  0.00     0.096 C 
ATOM     12  C   UNL     1      21.550  28.865  28.469  1.00  0.00    -0.066 C 
ATOM     13  C   UNL     1      21.870  27.819  29.245  1.00  0.00     0.008 C 
ENDROOT
BRANCH   8  14
ATOM     14  C   UNL     1      22.605  33.292  27.803  1.00  0.00    -0.009 C 
ATOM     15  C   UNL     1      23.341  33.666  29.104  1.00  0.00     0.008 C 
ATOM     16  C   UNL     1      23.447  33.804  26.617  1.00  0.00     0.008 C 
ENDBRANCH   8  14
BRANCH   9  17
ATOM     17  O   UNL     1      20.101  32.308  28.541  1.00  0.00    -0.365 OA
ATOM     18  H   UNL     1      19.159  31.997  28.494  1.00  0.00     0.214 HD
ENDBRANCH   9  17
TORSDOF 2
ENDMDL
MODEL 8
REMARK VINA RESULT:    -4.656      2.878      5.740
REMARK INTER + INTRA:          -5.292
REMARK INTER:                  -5.064
REMARK INTRA:                  -0.228
REMARK UNBOUND:                -0.228
REMARK SMILES C=C1C[C@]2(O)O[C@@]3(C[C@H]2C(C)C)[C@@H]1CC[C@@H]3C
REMARK SMILES IDX 17 1 16 2 15 3 14 4 13 5 7 6 8 7 9 8 4 9 6 10 3 11 2 12 1 13
REMARK SMILES IDX 10 14 11 15 12 16 5 17
REMARK H PARENT 5 18
REMARK Flexibility Score: inf
ROOT
ATOM      1  C   UNL     1      19.672  28.900  25.974  1.00  0.00     0.011 C 
ATOM      2  C   UNL     1      20.727  28.958  27.095  1.00  0.00     0.019 C 
ATOM      3  C   UNL     1      22.129  28.733  26.521  1.00  0.00     0.007 C 
ATOM      4  C   UNL     1      22.725  30.115  26.240  1.00  0.00     0.011 C 
ATOM      5  C   UNL     1      21.781  31.152  26.869  1.00  0.00     0.047 C 
ATOM      6  C   UNL     1      20.829  30.334  27.777  1.00  0.00     0.081 C 
ATOM      7  C   UNL     1      19.499  31.030  28.052  1.00  0.00     0.046 C 
ATOM      8  C   UNL     1      19.860  32.012  29.160  1.00  0.00     0.054 C 
ATOM      9  C   UNL     1      21.242  31.456  29.644  1.00  0.00     0.173 C 
ATOM     10  O   UNL     1      21.416  30.190  29.045  1.00  0.00    -0.342 OA
ATOM     11  C   UNL     1      22.391  32.360  29.143  1.00  0.00     0.096 C 
ATOM     12  C   UNL     1      22.538  32.236  27.637  1.00  0.00    -0.066 C 
ATOM     13  C   UNL     1      23.338  33.088  26.979  1.00  0.00     0.008 C 
ENDROOT
BRANCH   8  14
ATOM     14  C   UNL     1      18.758  32.165  30.258  1.00  0.00    -0.009 C 
ATOM     15  C   UNL     1      17.836  33.361  29.948  1.00  0.00     0.008 C 
ATOM     16  C   UNL     1      17.879  30.904  30.371  1.00  0.00     0.008 C 
ENDBRANCH   8  14
BRANCH   9  17
ATOM     17  O   UNL     1      21.300  31.323  31.042  1.00  0.00    -0.365 OA
ATOM     18  H   UNL     1      22.086  31.841  31.359  1.00  0.00     0.214 HD
ENDBRANCH   9  17
TORSDOF 2
ENDMDL
MODEL 9
REMARK VINA RESULT:    -4.579      2.349      4.483
REMARK INTER + INTRA:          -5.209
REMARK INTER:                  -5.065
REMARK INTRA:                  -0.144
REMARK UNBOUND:                -0.228
REMARK SMILES C=C1C[C@]2(O)O[C@@]3(C[C@H]2C(C)C)[C@@H]1CC[C@@H]3C
REMARK SMILES IDX 17 1 16 2 15 3 14 4 13 5 7 6 8 7 9 8 4 9 6 10 3 11 2 12 1 13
REMARK SMILES IDX 10 14 11 15 12 16 5 17
REMARK H PARENT 5 18
REMARK Flexibility Score: inf
ROOT
ATOM      1  C   UNL     1      18.791  32.391  29.201  1.00  0.00     0.011 C 
ATOM      2  C   UNL     1      20.326  32.256  29.151  1.00  0.00     0.019 C 
ATOM      3  C   UNL     1      20.920  32.394  30.556  1.00  0.00     0.007 C 
ATOM      4  C   UNL     1      21.071  30.978  31.118  1.00  0.00     0.011 C 
ATOM      5  C   UNL     1      20.797  30.000  29.965  1.00  0.00     0.047 C 
ATOM      6  C   UNL     1      20.809  30.872  28.684  1.00  0.00     0.081 C 
ATOM      7  C   UNL     1      20.030  30.263  27.523  1.00  0.00     0.046 C 
ATOM      8  C   UNL     1      21.018  29.251  26.953  1.00  0.00     0.054 C 
ATOM      9  C   UNL     1      22.363  29.712  27.609  1.00  0.00     0.173 C 
ATOM     10  O   UNL     1      22.127  30.968  28.207  1.00  0.00    -0.342 OA
ATOM     11  C   UNL     1      22.773  28.739  28.737  1.00  0.00     0.096 C 
ATOM     12  C   UNL     1      21.819  28.864  29.911  1.00  0.00    -0.066 C 
ATOM     13  C   UNL     1      21.874  27.967  30.906  1.00  0.00     0.008 C 
ENDROOT
BRANCH   8  14
ATOM     14  C   UNL     1      21.009  29.162  25.393  1.00  0.00    -0.009 C 
ATOM     15  C   UNL     1      21.424  27.755  24.921  1.00  0.00     0.008 C 
ATOM     16  C   UNL     1      19.617  29.468  24.806  1.00  0.00     0.008 C 
ENDBRANCH   8  14
BRANCH   9  17
ATOM     17  O   UNL     1      23.399  29.831  26.667  1.00  0.00    -0.365 OA
ATOM     18  H   UNL     1      24.057  30.482  27.028  1.00  0.00     0.214 HD
ENDBRANCH   9  17
TORSDOF 2
ENDMDL
