MODEL 1
REMARK VINA RESULT:    -4.735      0.000      0.000
REMARK INTER + INTRA:          -5.398
REMARK INTER:                  -5.150
REMARK INTRA:                  -0.248
REMARK UNBOUND:                -0.248
REMARK SMILES O=C([O-])c1ccccc1O
REMARK SMILES IDX 4 1 9 2 5 3 8 4 6 5 7 6 2 7 1 8 3 9 10 10
REMARK H PARENT 10 11
REMARK Flexibility Score: inf
ROOT
ATOM      1  C   UNL     1      20.818   0.253 -20.359  1.00  0.00     0.039 A 
ATOM      2  C   UNL     1      21.311   0.644 -19.088  1.00  0.00     0.124 A 
ATOM      3  C   UNL     1      19.685  -0.581 -20.421  1.00  0.00     0.014 A 
ATOM      4  C   UNL     1      20.631   0.252 -17.929  1.00  0.00     0.047 A 
ATOM      5  C   UNL     1      19.031  -0.982 -19.254  1.00  0.00     0.001 A 
ATOM      6  C   UNL     1      19.496  -0.557 -18.011  1.00  0.00     0.004 A 
ENDROOT
BRANCH   1   7
ATOM      7  C   UNL     1      21.427   0.717 -21.625  1.00  0.00     0.075 C 
ATOM      8  O   UNL     1      21.719   1.932 -21.777  1.00  0.00    -0.545 OA
ATOM      9  O   UNL     1      21.748  -0.184 -22.633  1.00  0.00    -0.545 OA
ENDBRANCH   1   7
BRANCH   2  10
ATOM     10  O   UNL     1      22.484   1.387 -18.934  1.00  0.00    -0.507 OA
ATOM     11  H   UNL     1      23.225   1.132 -18.297  1.00  0.00     0.293 HD
ENDBRANCH   2  10
TORSDOF 2
ENDMDL
MODEL 2
REMARK VINA RESULT:    -4.690      1.172      2.171
REMARK INTER + INTRA:          -5.350
REMARK INTER:                  -5.135
REMARK INTRA:                  -0.215
REMARK UNBOUND:                -0.248
REMARK SMILES O=C([O-])c1ccccc1O
REMARK SMILES IDX 4 1 9 2 5 3 8 4 6 5 7 6 2 7 1 8 3 9 10 10
REMARK H PARENT 10 11
REMARK Flexibility Score: inf
ROOT
ATOM      1  C   UNL     1      20.954   0.574 -20.187  1.00  0.00     0.039 A 
ATOM      2  C   UNL     1      19.783  -0.180 -19.916  1.00  0.00     0.124 A 
ATOM      3  C   UNL     1      21.732   1.032 -19.107  1.00  0.00     0.014 A 
ATOM      4  C   UNL     1      19.460  -0.508 -18.593  1.00  0.00     0.047 A 
ATOM      5  C   UNL     1      21.385   0.713 -17.792  1.00  0.00     0.001 A 
ATOM      6  C   UNL     1      20.257  -0.064 -17.537  1.00  0.00     0.004 A 
ENDROOT
BRANCH   1   7
ATOM      7  C   UNL     1      21.408   0.867 -21.564  1.00  0.00     0.075 C 
ATOM      8  O   UNL     1      21.672   2.051 -21.904  1.00  0.00    -0.545 OA
ATOM      9  O   UNL     1      21.615  -0.158 -22.479  1.00  0.00    -0.545 OA
ENDBRANCH   1   7
BRANCH   2  10
ATOM     10  O   UNL     1      18.903  -0.588 -20.921  1.00  0.00    -0.507 OA
ATOM     11  H   UNL     1      17.949  -0.870 -20.745  1.00  0.00     0.293 HD
ENDBRANCH   2  10
TORSDOF 2
ENDMDL
MODEL 3
REMARK VINA RESULT:    -4.551      1.672      3.427
REMARK INTER + INTRA:          -5.198
REMARK INTER:                  -4.947
REMARK INTRA:                  -0.250
REMARK UNBOUND:                -0.248
REMARK SMILES O=C([O-])c1ccccc1O
REMARK SMILES IDX 4 1 9 2 5 3 8 4 6 5 7 6 2 7 1 8 3 9 10 10
REMARK H PARENT 10 11
REMARK Flexibility Score: inf
ROOT
ATOM      1  C   UNL     1      20.855   0.120 -19.855  1.00  0.00     0.039 A 
ATOM      2  C   UNL     1      21.546   1.144 -20.552  1.00  0.00     0.124 A 
ATOM      3  C   UNL     1      20.469  -1.038 -20.556  1.00  0.00     0.014 A 
ATOM      4  C   UNL     1      21.885   0.959 -21.898  1.00  0.00     0.047 A 
ATOM      5  C   UNL     1      20.797  -1.198 -21.904  1.00  0.00     0.001 A 
ATOM      6  C   UNL     1      21.513  -0.205 -22.571  1.00  0.00     0.004 A 
ENDROOT
BRANCH   1   7
ATOM      7  C   UNL     1      20.558   0.206 -18.409  1.00  0.00     0.075 C 
ATOM      8  O   UNL     1      21.412   0.682 -17.614  1.00  0.00    -0.545 OA
ATOM      9  O   UNL     1      19.315  -0.170 -17.914  1.00  0.00    -0.545 OA
ENDBRANCH   1   7
BRANCH   2  10
ATOM     10  O   UNL     1      21.878   2.364 -19.959  1.00  0.00    -0.507 OA
ATOM     11  H   UNL     1      21.223   3.124 -19.844  1.00  0.00     0.293 HD
ENDBRANCH   2  10
TORSDOF 2
ENDMDL
MODEL 4
REMARK VINA RESULT:    -4.370      2.302      3.979
REMARK INTER + INTRA:          -5.002
REMARK INTER:                  -4.751
REMARK INTRA:                  -0.250
REMARK UNBOUND:                -0.248
REMARK SMILES O=C([O-])c1ccccc1O
REMARK SMILES IDX 4 1 9 2 5 3 8 4 6 5 7 6 2 7 1 8 3 9 10 10
REMARK H PARENT 10 11
REMARK Flexibility Score: inf
ROOT
ATOM      1  C   UNL     1      20.915   0.039 -19.394  1.00  0.00     0.039 A 
ATOM      2  C   UNL     1      20.547  -1.091 -20.168  1.00  0.00     0.124 A 
ATOM      3  C   UNL     1      21.501   1.144 -20.041  1.00  0.00     0.014 A 
ATOM      4  C   UNL     1      20.713  -1.064 -21.558  1.00  0.00     0.047 A 
ATOM      5  C   UNL     1      21.679   1.146 -21.426  1.00  0.00     0.001 A 
ATOM      6  C   UNL     1      21.275   0.049 -22.185  1.00  0.00     0.004 A 
ENDROOT
BRANCH   1   7
ATOM      7  C   UNL     1      20.673   0.117 -17.937  1.00  0.00     0.075 C 
ATOM      8  O   UNL     1      19.598  -0.325 -17.450  1.00  0.00    -0.545 OA
ATOM      9  O   UNL     1      21.647   0.612 -17.079  1.00  0.00    -0.545 OA
ENDBRANCH   1   7
BRANCH   2  10
ATOM     10  O   UNL     1      20.052  -2.264 -19.595  1.00  0.00    -0.507 OA
ATOM     11  H   UNL     1      19.334  -2.833 -20.022  1.00  0.00     0.293 HD
ENDBRANCH   2  10
TORSDOF 2
ENDMDL
MODEL 5
REMARK VINA RESULT:    -4.343      1.058      3.007
REMARK INTER + INTRA:          -4.972
REMARK INTER:                  -4.742
REMARK INTRA:                  -0.231
REMARK UNBOUND:                -0.248
REMARK SMILES O=C([O-])c1ccccc1O
REMARK SMILES IDX 4 1 9 2 5 3 8 4 6 5 7 6 2 7 1 8 3 9 10 10
REMARK H PARENT 10 11
REMARK Flexibility Score: inf
ROOT
ATOM      1  C   UNL     1      21.248   0.633 -18.602  1.00  0.00     0.039 A 
ATOM      2  C   UNL     1      21.009   0.543 -19.997  1.00  0.00     0.124 A 
ATOM      3  C   UNL     1      20.358  -0.007 -17.718  1.00  0.00     0.014 A 
ATOM      4  C   UNL     1      19.939  -0.227 -20.471  1.00  0.00     0.047 A 
ATOM      5  C   UNL     1      19.283  -0.754 -18.206  1.00  0.00     0.001 A 
ATOM      6  C   UNL     1      19.081  -0.873 -19.580  1.00  0.00     0.004 A 
ENDROOT
BRANCH   1   7
ATOM      7  C   UNL     1      22.417   1.343 -18.040  1.00  0.00     0.075 C 
ATOM      8  O   UNL     1      22.916   2.324 -18.653  1.00  0.00    -0.545 OA
ATOM      9  O   UNL     1      22.940   0.986 -16.804  1.00  0.00    -0.545 OA
ENDBRANCH   1   7
BRANCH   2  10
ATOM     10  O   UNL     1      21.784   1.228 -20.937  1.00  0.00    -0.507 OA
ATOM     11  H   UNL     1      22.042   2.200 -20.843  1.00  0.00     0.293 HD
ENDBRANCH   2  10
TORSDOF 2
ENDMDL
MODEL 6
REMARK VINA RESULT:    -4.333     17.474     19.071
REMARK INTER + INTRA:          -4.961
REMARK INTER:                  -4.729
REMARK INTRA:                  -0.232
REMARK UNBOUND:                -0.248
REMARK SMILES O=C([O-])c1ccccc1O
REMARK SMILES IDX 4 1 9 2 5 3 8 4 6 5 7 6 2 7 1 8 3 9 10 10
REMARK H PARENT 10 11
REMARK Flexibility Score: inf
ROOT
ATOM      1  C   UNL     1       8.657  -6.812  -7.133  1.00  0.00     0.039 A 
ATOM      2  C   UNL     1       9.793  -5.974  -7.269  1.00  0.00     0.124 A 
ATOM      3  C   UNL     1       8.315  -7.671  -8.194  1.00  0.00     0.014 A 
ATOM      4  C   UNL     1      10.585  -6.061  -8.421  1.00  0.00     0.047 A 
ATOM      5  C   UNL     1       9.104  -7.731  -9.345  1.00  0.00     0.001 A 
ATOM      6  C   UNL     1      10.243  -6.935  -9.454  1.00  0.00     0.004 A 
ENDROOT
BRANCH   1   7
ATOM      7  C   UNL     1       7.838  -6.845  -5.902  1.00  0.00     0.075 C 
ATOM      8  O   UNL     1       7.222  -7.895  -5.579  1.00  0.00    -0.545 OA
ATOM      9  O   UNL     1       7.788  -5.748  -5.050  1.00  0.00    -0.545 OA
ENDBRANCH   1   7
BRANCH   2  10
ATOM     10  O   UNL     1      10.145  -5.023  -6.308  1.00  0.00    -0.507 OA
ATOM     11  H   UNL     1      10.845  -5.183  -5.597  1.00  0.00     0.293 HD
ENDBRANCH   2  10
TORSDOF 2
ENDMDL
MODEL 7
REMARK VINA RESULT:    -4.265      2.030      3.141
REMARK INTER + INTRA:          -4.887
REMARK INTER:                  -4.667
REMARK INTRA:                  -0.220
REMARK UNBOUND:                -0.248
REMARK SMILES O=C([O-])c1ccccc1O
REMARK SMILES IDX 4 1 9 2 5 3 8 4 6 5 7 6 2 7 1 8 3 9 10 10
REMARK H PARENT 10 11
REMARK Flexibility Score: inf
ROOT
ATOM      1  C   UNL     1      20.765   0.242 -19.075  1.00  0.00     0.039 A 
ATOM      2  C   UNL     1      21.696   1.080 -19.740  1.00  0.00     0.124 A 
ATOM      3  C   UNL     1      20.862   0.092 -17.678  1.00  0.00     0.014 A 
ATOM      4  C   UNL     1      22.647   1.789 -18.995  1.00  0.00     0.047 A 
ATOM      5  C   UNL     1      21.830   0.790 -16.952  1.00  0.00     0.001 A 
ATOM      6  C   UNL     1      22.714   1.645 -17.608  1.00  0.00     0.004 A 
ENDROOT
BRANCH   1   7
ATOM      7  C   UNL     1      19.671  -0.453 -19.788  1.00  0.00     0.075 C 
ATOM      8  O   UNL     1      19.775  -0.696 -21.020  1.00  0.00    -0.545 OA
ATOM      9  O   UNL     1      18.550  -0.907 -19.105  1.00  0.00    -0.545 OA
ENDBRANCH   1   7
BRANCH   2  10
ATOM     10  O   UNL     1      21.732   1.208 -21.130  1.00  0.00    -0.507 OA
ATOM     11  H   UNL     1      22.173   1.981 -21.607  1.00  0.00     0.293 HD
ENDBRANCH   2  10
TORSDOF 2
ENDMDL
MODEL 8
REMARK VINA RESULT:    -4.224      1.330      2.574
REMARK INTER + INTRA:          -4.843
REMARK INTER:                  -4.590
REMARK INTRA:                  -0.253
REMARK UNBOUND:                -0.248
REMARK SMILES O=C([O-])c1ccccc1O
REMARK SMILES IDX 4 1 9 2 5 3 8 4 6 5 7 6 2 7 1 8 3 9 10 10
REMARK H PARENT 10 11
REMARK Flexibility Score: inf
ROOT
ATOM      1  C   UNL     1      20.709   0.186 -18.887  1.00  0.00     0.039 A 
ATOM      2  C   UNL     1      20.283  -0.931 -19.650  1.00  0.00     0.124 A 
ATOM      3  C   UNL     1      20.132   0.404 -17.621  1.00  0.00     0.014 A 
ATOM      4  C   UNL     1      19.351  -1.826 -19.110  1.00  0.00     0.047 A 
ATOM      5  C   UNL     1      19.187  -0.487 -17.106  1.00  0.00     0.001 A 
ATOM      6  C   UNL     1      18.805  -1.605 -17.844  1.00  0.00     0.004 A 
ENDROOT
BRANCH   1   7
ATOM      7  C   UNL     1      21.764   1.111 -19.354  1.00  0.00     0.075 C 
ATOM      8  O   UNL     1      22.686   1.464 -18.572  1.00  0.00    -0.545 OA
ATOM      9  O   UNL     1      21.795   1.548 -20.672  1.00  0.00    -0.545 OA
ENDBRANCH   1   7
BRANCH   2  10
ATOM     10  O   UNL     1      20.731  -1.166 -20.952  1.00  0.00    -0.507 OA
ATOM     11  H   UNL     1      21.597  -0.796 -21.318  1.00  0.00     0.293 HD
ENDBRANCH   2  10
TORSDOF 2
ENDMDL
