MODEL 1
REMARK VINA RESULT:    -8.892      0.000      0.000
REMARK INTER + INTRA:          -9.152
REMARK INTER:                  -9.152
REMARK INTRA:                   0.000
REMARK UNBOUND:                 0.000
REMARK SMILES CC1(C)CC[C@]2(C)CC[C@]3(C)C(=CC[C@@H]4[C@@]5(C)CC[C@H](O)C(C)(C)[C@H]5CC[C@]43C)[C@@H]2C1
REMARK SMILES IDX 1 1 2 2 4 3 5 4 6 5 8 6 9 7 10 8 12 9 13 10 14 11 15 12
REMARK SMILES IDX 28 13 27 14 26 15 25 16 16 17 18 18 19 19 20 20 22 21 23 22
REMARK SMILES IDX 24 23 17 24 29 25 30 26 31 27 11 28 7 29 3 30 21 31
REMARK H PARENT 21 32
REMARK Flexibility Score: inf
ROOT
ATOM      1  C   UNL     1       1.745  19.576  45.513  1.00  0.00     0.011 C 
ATOM      2  C   UNL     1       0.735  19.261  46.638  1.00  0.00    -0.035 C 
ATOM      3  C   UNL     1      -0.272  18.211  46.115  1.00  0.00     0.007 C 
ATOM      4  C   UNL     1      -1.420  17.944  47.099  1.00  0.00     0.008 C 
ATOM      5  C   UNL     1      -2.192  19.225  47.549  1.00  0.00    -0.026 C 
ATOM      6  C   UNL     1      -3.168  19.715  46.421  1.00  0.00     0.008 C 
ATOM      7  C   UNL     1      -3.162  21.226  46.043  1.00  0.00     0.012 C 
ATOM      8  C   UNL     1      -2.797  22.297  47.155  1.00  0.00    -0.006 C 
ATOM      9  C   UNL     1      -1.961  21.638  48.260  1.00  0.00    -0.064 C 
ATOM     10  C   UNL     1      -1.885  22.183  49.496  1.00  0.00    -0.027 C 
ATOM     11  C   UNL     1      -2.749  23.312  49.999  1.00  0.00     0.032 C 
ATOM     12  C   UNL     1      -3.628  24.006  48.918  1.00  0.00     0.006 C 
ATOM     13  C   UNL     1      -4.101  23.007  47.785  1.00  0.00    -0.020 C 
ATOM     14  C   UNL     1      -4.924  23.794  46.690  1.00  0.00     0.008 C 
ATOM     15  C   UNL     1      -4.908  25.319  46.857  1.00  0.00     0.005 C 
ATOM     16  C   UNL     1      -5.469  25.745  48.238  1.00  0.00     0.003 C 
ATOM     17  C   UNL     1      -4.726  25.030  49.466  1.00  0.00    -0.025 C 
ATOM     18  C   UNL     1      -3.976  26.075  50.359  1.00  0.00     0.010 C 
ATOM     19  C   UNL     1      -4.781  27.322  50.774  1.00  0.00     0.033 C 
ATOM     20  C   UNL     1      -5.925  27.713  49.824  1.00  0.00     0.120 C 
ATOM     21  C   UNL     1      -5.651  27.315  48.346  1.00  0.00    -0.006 C 
ATOM     22  C   UNL     1      -6.872  27.771  47.499  1.00  0.00     0.014 C 
ATOM     23  C   UNL     1      -4.425  28.107  47.810  1.00  0.00     0.014 C 
ATOM     24  C   UNL     1      -5.782  24.325  50.387  1.00  0.00     0.012 C 
ATOM     25  C   UNL     1      -5.048  21.934  48.401  1.00  0.00     0.012 C 
ATOM     26  C   UNL     1      -1.199  20.339  47.989  1.00  0.00     0.022 C 
ATOM     27  C   UNL     1      -0.035  20.554  46.991  1.00  0.00     0.015 C 
ATOM     28  C   UNL     1      -1.866  23.374  46.490  1.00  0.00     0.017 C 
ATOM     29  C   UNL     1      -3.033  18.793  48.781  1.00  0.00     0.012 C 
ATOM     30  C   UNL     1       1.534  18.727  47.851  1.00  0.00     0.011 C 
ENDROOT
BRANCH  20  31
ATOM     31  O   UNL     1      -7.122  27.123  50.278  1.00  0.00    -0.393 OA
ATOM     32  H   UNL     1      -6.991  26.868  51.229  1.00  0.00     0.210 HD
ENDBRANCH  20  31
TORSDOF 1
ENDMDL
MODEL 2
REMARK VINA RESULT:    -7.704      1.685      3.288
REMARK INTER + INTRA:          -7.929
REMARK INTER:                  -7.929
REMARK INTRA:                   0.000
REMARK UNBOUND:                 0.000
REMARK SMILES CC1(C)CC[C@]2(C)CC[C@]3(C)C(=CC[C@@H]4[C@@]5(C)CC[C@H](O)C(C)(C)[C@H]5CC[C@]43C)[C@@H]2C1
REMARK SMILES IDX 1 1 2 2 4 3 5 4 6 5 8 6 9 7 10 8 12 9 13 10 14 11 15 12
REMARK SMILES IDX 28 13 27 14 26 15 25 16 16 17 18 18 19 19 20 20 22 21 23 22
REMARK SMILES IDX 24 23 17 24 29 25 30 26 31 27 11 28 7 29 3 30 21 31
REMARK H PARENT 21 32
REMARK Flexibility Score: inf
ROOT
ATOM      1  C   UNL     1      -2.191  17.569  50.097  1.00  0.00     0.011 C 
ATOM      2  C   UNL     1      -2.710  18.164  48.768  1.00  0.00    -0.035 C 
ATOM      3  C   UNL     1      -1.541  18.201  47.757  1.00  0.00     0.007 C 
ATOM      4  C   UNL     1      -1.905  18.925  46.454  1.00  0.00     0.008 C 
ATOM      5  C   UNL     1      -2.465  20.369  46.654  1.00  0.00    -0.026 C 
ATOM      6  C   UNL     1      -1.306  21.377  46.983  1.00  0.00     0.008 C 
ATOM      7  C   UNL     1      -1.495  22.357  48.178  1.00  0.00     0.012 C 
ATOM      8  C   UNL     1      -2.958  22.838  48.555  1.00  0.00    -0.006 C 
ATOM      9  C   UNL     1      -3.990  21.823  48.046  1.00  0.00    -0.064 C 
ATOM     10  C   UNL     1      -5.280  22.179  47.850  1.00  0.00    -0.027 C 
ATOM     11  C   UNL     1      -5.802  23.594  47.871  1.00  0.00     0.032 C 
ATOM     12  C   UNL     1      -4.787  24.665  48.367  1.00  0.00     0.006 C 
ATOM     13  C   UNL     1      -3.293  24.311  47.987  1.00  0.00    -0.020 C 
ATOM     14  C   UNL     1      -2.319  25.401  48.584  1.00  0.00     0.008 C 
ATOM     15  C   UNL     1      -2.991  26.406  49.529  1.00  0.00     0.005 C 
ATOM     16  C   UNL     1      -4.144  27.166  48.823  1.00  0.00     0.003 C 
ATOM     17  C   UNL     1      -5.230  26.188  48.166  1.00  0.00    -0.025 C 
ATOM     18  C   UNL     1      -6.629  26.355  48.848  1.00  0.00     0.010 C 
ATOM     19  C   UNL     1      -7.134  27.800  49.025  1.00  0.00     0.033 C 
ATOM     20  C   UNL     1      -6.038  28.876  49.106  1.00  0.00     0.120 C 
ATOM     21  C   UNL     1      -4.710  28.345  49.716  1.00  0.00    -0.006 C 
ATOM     22  C   UNL     1      -3.699  29.526  49.747  1.00  0.00     0.014 C 
ATOM     23  C   UNL     1      -4.944  27.930  51.196  1.00  0.00     0.014 C 
ATOM     24  C   UNL     1      -5.421  26.550  46.651  1.00  0.00     0.012 C 
ATOM     25  C   UNL     1      -3.131  24.335  46.439  1.00  0.00     0.012 C 
ATOM     26  C   UNL     1      -3.577  20.382  47.741  1.00  0.00     0.022 C 
ATOM     27  C   UNL     1      -3.189  19.611  49.026  1.00  0.00     0.015 C 
ATOM     28  C   UNL     1      -3.074  22.827  50.122  1.00  0.00     0.017 C 
ATOM     29  C   UNL     1      -3.095  20.764  45.291  1.00  0.00     0.012 C 
ATOM     30  C   UNL     1      -3.866  17.263  48.270  1.00  0.00     0.011 C 
ENDROOT
BRANCH  20  31
ATOM     31  O   UNL     1      -5.812  29.400  47.818  1.00  0.00    -0.393 OA
ATOM     32  H   UNL     1      -6.636  29.252  47.282  1.00  0.00     0.210 HD
ENDBRANCH  20  31
TORSDOF 1
ENDMDL
MODEL 3
REMARK VINA RESULT:    -7.643      2.329      8.013
REMARK INTER + INTRA:          -7.867
REMARK INTER:                  -7.867
REMARK INTRA:                   0.000
REMARK UNBOUND:                 0.000
REMARK SMILES CC1(C)CC[C@]2(C)CC[C@]3(C)C(=CC[C@@H]4[C@@]5(C)CC[C@H](O)C(C)(C)[C@H]5CC[C@]43C)[C@@H]2C1
REMARK SMILES IDX 1 1 2 2 4 3 5 4 6 5 8 6 9 7 10 8 12 9 13 10 14 11 15 12
REMARK SMILES IDX 28 13 27 14 26 15 25 16 16 17 18 18 19 19 20 20 22 21 23 22
REMARK SMILES IDX 24 23 17 24 29 25 30 26 31 27 11 28 7 29 3 30 21 31
REMARK H PARENT 21 32
REMARK Flexibility Score: inf
ROOT
ATOM      1  C   UNL     1      -4.770  29.598  46.702  1.00  0.00     0.011 C 
ATOM      2  C   UNL     1      -5.551  28.457  47.393  1.00  0.00    -0.035 C 
ATOM      3  C   UNL     1      -5.575  28.730  48.915  1.00  0.00     0.007 C 
ATOM      4  C   UNL     1      -6.187  27.573  49.717  1.00  0.00     0.008 C 
ATOM      5  C   UNL     1      -5.527  26.184  49.448  1.00  0.00    -0.026 C 
ATOM      6  C   UNL     1      -4.145  26.069  50.186  1.00  0.00     0.008 C 
ATOM      7  C   UNL     1      -2.921  25.539  49.383  1.00  0.00     0.012 C 
ATOM      8  C   UNL     1      -3.160  24.510  48.201  1.00  0.00    -0.006 C 
ATOM      9  C   UNL     1      -4.596  24.642  47.677  1.00  0.00    -0.064 C 
ATOM     10  C   UNL     1      -5.186  23.633  46.996  1.00  0.00    -0.027 C 
ATOM     11  C   UNL     1      -4.638  22.233  46.875  1.00  0.00     0.032 C 
ATOM     12  C   UNL     1      -3.187  22.042  47.407  1.00  0.00     0.006 C 
ATOM     13  C   UNL     1      -2.860  22.985  48.634  1.00  0.00    -0.020 C 
ATOM     14  C   UNL     1      -1.355  22.788  49.071  1.00  0.00     0.008 C 
ATOM     15  C   UNL     1      -0.526  21.915  48.120  1.00  0.00     0.005 C 
ATOM     16  C   UNL     1      -1.142  20.500  47.966  1.00  0.00     0.003 C 
ATOM     17  C   UNL     1      -2.680  20.530  47.516  1.00  0.00    -0.025 C 
ATOM     18  C   UNL     1      -2.870  19.878  46.106  1.00  0.00     0.010 C 
ATOM     19  C   UNL     1      -2.196  18.508  45.890  1.00  0.00     0.033 C 
ATOM     20  C   UNL     1      -0.967  18.232  46.773  1.00  0.00     0.120 C 
ATOM     21  C   UNL     1      -0.192  19.525  47.155  1.00  0.00    -0.006 C 
ATOM     22  C   UNL     1       1.020  19.106  48.034  1.00  0.00     0.014 C 
ATOM     23  C   UNL     1       0.399  20.179  45.874  1.00  0.00     0.014 C 
ATOM     24  C   UNL     1      -3.543  19.691  48.521  1.00  0.00     0.012 C 
ATOM     25  C   UNL     1      -3.755  22.589  49.846  1.00  0.00     0.012 C 
ATOM     26  C   UNL     1      -5.398  25.923  47.920  1.00  0.00     0.022 C 
ATOM     27  C   UNL     1      -4.811  27.124  47.139  1.00  0.00     0.015 C 
ATOM     28  C   UNL     1      -2.223  24.925  47.011  1.00  0.00     0.017 C 
ATOM     29  C   UNL     1      -6.501  25.136  50.051  1.00  0.00     0.012 C 
ATOM     30  C   UNL     1      -6.979  28.438  46.796  1.00  0.00     0.011 C 
ENDROOT
BRANCH  20  31
ATOM     31  O   UNL     1      -1.379  17.545  47.932  1.00  0.00    -0.393 OA
ATOM     32  H   UNL     1      -0.917  17.958  48.709  1.00  0.00     0.210 HD
ENDBRANCH  20  31
TORSDOF 1
ENDMDL
MODEL 4
REMARK VINA RESULT:    -7.296      2.642      7.828
REMARK INTER + INTRA:          -7.509
REMARK INTER:                  -7.509
REMARK INTRA:                   0.000
REMARK UNBOUND:                 0.000
REMARK SMILES CC1(C)CC[C@]2(C)CC[C@]3(C)C(=CC[C@@H]4[C@@]5(C)CC[C@H](O)C(C)(C)[C@H]5CC[C@]43C)[C@@H]2C1
REMARK SMILES IDX 1 1 2 2 4 3 5 4 6 5 8 6 9 7 10 8 12 9 13 10 14 11 15 12
REMARK SMILES IDX 28 13 27 14 26 15 25 16 16 17 18 18 19 19 20 20 22 21 23 22
REMARK SMILES IDX 24 23 17 24 29 25 30 26 31 27 11 28 7 29 3 30 21 31
REMARK H PARENT 21 32
REMARK Flexibility Score: inf
ROOT
ATOM      1  C   UNL     1      -2.367  28.913  52.925  1.00  0.00     0.011 C 
ATOM      2  C   UNL     1      -2.187  28.842  51.391  1.00  0.00    -0.035 C 
ATOM      3  C   UNL     1      -3.390  29.547  50.722  1.00  0.00     0.007 C 
ATOM      4  C   UNL     1      -3.395  29.393  49.196  1.00  0.00     0.008 C 
ATOM      5  C   UNL     1      -3.316  27.915  48.697  1.00  0.00    -0.026 C 
ATOM      6  C   UNL     1      -4.704  27.197  48.854  1.00  0.00     0.008 C 
ATOM      7  C   UNL     1      -4.735  25.783  49.507  1.00  0.00     0.012 C 
ATOM      8  C   UNL     1      -3.478  24.831  49.343  1.00  0.00    -0.006 C 
ATOM      9  C   UNL     1      -2.224  25.666  49.056  1.00  0.00    -0.064 C 
ATOM     10  C   UNL     1      -1.140  25.114  48.463  1.00  0.00    -0.027 C 
ATOM     11  C   UNL     1      -1.102  23.749  47.824  1.00  0.00     0.032 C 
ATOM     12  C   UNL     1      -2.360  22.866  48.075  1.00  0.00     0.006 C 
ATOM     13  C   UNL     1      -3.687  23.718  48.194  1.00  0.00    -0.020 C 
ATOM     14  C   UNL     1      -4.904  22.765  48.519  1.00  0.00     0.008 C 
ATOM     15  C   UNL     1      -4.511  21.316  48.834  1.00  0.00     0.005 C 
ATOM     16  C   UNL     1      -3.732  20.671  47.659  1.00  0.00     0.003 C 
ATOM     17  C   UNL     1      -2.451  21.524  47.211  1.00  0.00    -0.025 C 
ATOM     18  C   UNL     1      -1.126  20.727  47.457  1.00  0.00     0.010 C 
ATOM     19  C   UNL     1      -1.100  19.273  46.949  1.00  0.00     0.033 C 
ATOM     20  C   UNL     1      -2.472  18.587  46.843  1.00  0.00     0.120 C 
ATOM     21  C   UNL     1      -3.499  19.120  47.882  1.00  0.00    -0.006 C 
ATOM     22  C   UNL     1      -4.830  18.344  47.672  1.00  0.00     0.014 C 
ATOM     23  C   UNL     1      -3.014  18.779  49.319  1.00  0.00     0.014 C 
ATOM     24  C   UNL     1      -2.522  21.818  45.672  1.00  0.00     0.012 C 
ATOM     25  C   UNL     1      -3.986  24.409  46.830  1.00  0.00     0.012 C 
ATOM     26  C   UNL     1      -2.175  27.149  49.427  1.00  0.00     0.022 C 
ATOM     27  C   UNL     1      -2.179  27.357  50.961  1.00  0.00     0.015 C 
ATOM     28  C   UNL     1      -3.227  24.132  50.728  1.00  0.00     0.017 C 
ATOM     29  C   UNL     1      -2.969  28.003  47.186  1.00  0.00     0.012 C 
ATOM     30  C   UNL     1      -0.852  29.543  51.042  1.00  0.00     0.011 C 
ENDROOT
BRANCH  20  31
ATOM     31  O   UNL     1      -2.968  18.750  45.534  1.00  0.00    -0.393 OA
ATOM     32  H   UNL     1      -2.936  17.864  45.086  1.00  0.00     0.210 HD
ENDBRANCH  20  31
TORSDOF 1
ENDMDL
MODEL 5
REMARK VINA RESULT:    -7.221      2.548      8.465
REMARK INTER + INTRA:          -7.432
REMARK INTER:                  -7.432
REMARK INTRA:                   0.000
REMARK UNBOUND:                 0.000
REMARK SMILES CC1(C)CC[C@]2(C)CC[C@]3(C)C(=CC[C@@H]4[C@@]5(C)CC[C@H](O)C(C)(C)[C@H]5CC[C@]43C)[C@@H]2C1
REMARK SMILES IDX 1 1 2 2 4 3 5 4 6 5 8 6 9 7 10 8 12 9 13 10 14 11 15 12
REMARK SMILES IDX 28 13 27 14 26 15 25 16 16 17 18 18 19 19 20 20 22 21 23 22
REMARK SMILES IDX 24 23 17 24 29 25 30 26 31 27 11 28 7 29 3 30 21 31
REMARK H PARENT 21 32
REMARK Flexibility Score: inf
ROOT
ATOM      1  C   UNL     1      -5.794  31.356  44.071  1.00  0.00     0.011 C 
ATOM      2  C   UNL     1      -5.946  30.955  45.556  1.00  0.00    -0.035 C 
ATOM      3  C   UNL     1      -4.928  31.767  46.391  1.00  0.00     0.007 C 
ATOM      4  C   UNL     1      -4.881  31.329  47.860  1.00  0.00     0.008 C 
ATOM      5  C   UNL     1      -4.625  29.802  48.070  1.00  0.00    -0.026 C 
ATOM      6  C   UNL     1      -3.112  29.452  47.835  1.00  0.00     0.008 C 
ATOM      7  C   UNL     1      -2.768  28.232  46.930  1.00  0.00     0.012 C 
ATOM      8  C   UNL     1      -3.778  27.012  46.864  1.00  0.00    -0.006 C 
ATOM      9  C   UNL     1      -5.186  27.479  47.255  1.00  0.00    -0.064 C 
ATOM     10  C   UNL     1      -6.117  26.598  47.691  1.00  0.00    -0.027 C 
ATOM     11  C   UNL     1      -5.844  25.162  48.062  1.00  0.00     0.032 C 
ATOM     12  C   UNL     1      -4.422  24.644  47.698  1.00  0.00     0.006 C 
ATOM     13  C   UNL     1      -3.320  25.775  47.792  1.00  0.00    -0.020 C 
ATOM     14  C   UNL     1      -1.921  25.194  47.341  1.00  0.00     0.008 C 
ATOM     15  C   UNL     1      -1.982  23.781  46.745  1.00  0.00     0.005 C 
ATOM     16  C   UNL     1      -2.591  22.768  47.748  1.00  0.00     0.003 C 
ATOM     17  C   UNL     1      -4.028  23.215  48.298  1.00  0.00    -0.025 C 
ATOM     18  C   UNL     1      -5.142  22.207  47.857  1.00  0.00     0.010 C 
ATOM     19  C   UNL     1      -4.839  20.713  48.082  1.00  0.00     0.033 C 
ATOM     20  C   UNL     1      -3.347  20.340  48.110  1.00  0.00     0.120 C 
ATOM     21  C   UNL     1      -2.471  21.276  47.230  1.00  0.00    -0.006 C 
ATOM     22  C   UNL     1      -0.999  20.787  47.341  1.00  0.00     0.014 C 
ATOM     23  C   UNL     1      -2.874  21.117  45.736  1.00  0.00     0.014 C 
ATOM     24  C   UNL     1      -4.018  23.218  49.867  1.00  0.00     0.012 C 
ATOM     25  C   UNL     1      -3.178  26.241  49.271  1.00  0.00     0.012 C 
ATOM     26  C   UNL     1      -5.568  28.958  47.167  1.00  0.00     0.022 C 
ATOM     27  C   UNL     1      -5.619  29.451  45.700  1.00  0.00     0.015 C 
ATOM     28  C   UNL     1      -3.873  26.554  45.364  1.00  0.00     0.017 C 
ATOM     29  C   UNL     1      -4.975  29.521  49.556  1.00  0.00     0.012 C 
ATOM     30  C   UNL     1      -7.402  31.263  45.979  1.00  0.00     0.011 C 
ENDROOT
BRANCH  20  31
ATOM     31  O   UNL     1      -2.894  20.356  49.444  1.00  0.00    -0.393 OA
ATOM     32  H   UNL     1      -1.995  19.933  49.464  1.00  0.00     0.210 HD
ENDBRANCH  20  31
TORSDOF 1
ENDMDL
MODEL 6
REMARK VINA RESULT:    -7.113      2.770      8.892
REMARK INTER + INTRA:          -7.321
REMARK INTER:                  -7.321
REMARK INTRA:                   0.000
REMARK UNBOUND:                 0.000
REMARK SMILES CC1(C)CC[C@]2(C)CC[C@]3(C)C(=CC[C@@H]4[C@@]5(C)CC[C@H](O)C(C)(C)[C@H]5CC[C@]43C)[C@@H]2C1
REMARK SMILES IDX 1 1 2 2 4 3 5 4 6 5 8 6 9 7 10 8 12 9 13 10 14 11 15 12
REMARK SMILES IDX 28 13 27 14 26 15 25 16 16 17 18 18 19 19 20 20 22 21 23 22
REMARK SMILES IDX 24 23 17 24 29 25 30 26 31 27 11 28 7 29 3 30 21 31
REMARK H PARENT 21 32
REMARK Flexibility Score: inf
ROOT
ATOM      1  C   UNL     1      -4.690  33.065  45.053  1.00  0.00     0.011 C 
ATOM      2  C   UNL     1      -5.785  31.985  45.205  1.00  0.00    -0.035 C 
ATOM      3  C   UNL     1      -6.759  32.426  46.322  1.00  0.00     0.007 C 
ATOM      4  C   UNL     1      -7.795  31.348  46.668  1.00  0.00     0.008 C 
ATOM      5  C   UNL     1      -7.181  29.959  47.033  1.00  0.00    -0.026 C 
ATOM      6  C   UNL     1      -6.592  29.974  48.489  1.00  0.00     0.008 C 
ATOM      7  C   UNL     1      -5.164  29.397  48.715  1.00  0.00     0.012 C 
ATOM      8  C   UNL     1      -4.644  28.234  47.771  1.00  0.00    -0.006 C 
ATOM      9  C   UNL     1      -5.409  28.259  46.441  1.00  0.00    -0.064 C 
ATOM     10  C   UNL     1      -5.477  27.161  45.654  1.00  0.00    -0.027 C 
ATOM     11  C   UNL     1      -5.044  25.775  46.062  1.00  0.00     0.032 C 
ATOM     12  C   UNL     1      -4.275  25.693  47.413  1.00  0.00     0.006 C 
ATOM     13  C   UNL     1      -4.760  26.778  48.457  1.00  0.00    -0.020 C 
ATOM     14  C   UNL     1      -3.889  26.681  49.771  1.00  0.00     0.008 C 
ATOM     15  C   UNL     1      -2.686  25.734  49.667  1.00  0.00     0.005 C 
ATOM     16  C   UNL     1      -3.129  24.292  49.310  1.00  0.00     0.003 C 
ATOM     17  C   UNL     1      -4.024  24.221  47.982  1.00  0.00    -0.025 C 
ATOM     18  C   UNL     1      -3.303  23.407  46.856  1.00  0.00     0.010 C 
ATOM     19  C   UNL     1      -2.712  22.045  47.268  1.00  0.00     0.033 C 
ATOM     20  C   UNL     1      -2.341  21.911  48.755  1.00  0.00     0.120 C 
ATOM     21  C   UNL     1      -1.927  23.263  49.401  1.00  0.00    -0.006 C 
ATOM     22  C   UNL     1      -1.573  22.986  50.890  1.00  0.00     0.014 C 
ATOM     23  C   UNL     1      -0.626  23.787  48.731  1.00  0.00     0.014 C 
ATOM     24  C   UNL     1      -5.368  23.472  48.290  1.00  0.00     0.012 C 
ATOM     25  C   UNL     1      -6.239  26.492  48.854  1.00  0.00     0.012 C 
ATOM     26  C   UNL     1      -6.121  29.532  45.978  1.00  0.00     0.022 C 
ATOM     27  C   UNL     1      -5.116  30.656  45.626  1.00  0.00     0.015 C 
ATOM     28  C   UNL     1      -3.145  28.543  47.416  1.00  0.00     0.017 C 
ATOM     29  C   UNL     1      -8.364  28.955  46.985  1.00  0.00     0.012 C 
ATOM     30  C   UNL     1      -6.505  31.851  43.842  1.00  0.00     0.011 C 
ENDROOT
BRANCH  20  31
ATOM     31  O   UNL     1      -3.428  21.346  49.451  1.00  0.00    -0.393 OA
ATOM     32  H   UNL     1      -3.854  20.676  48.854  1.00  0.00     0.210 HD
ENDBRANCH  20  31
TORSDOF 1
ENDMDL
MODEL 7
REMARK VINA RESULT:    -7.067      4.220      8.095
REMARK INTER + INTRA:          -7.273
REMARK INTER:                  -7.273
REMARK INTRA:                   0.000
REMARK UNBOUND:                 0.000
REMARK SMILES CC1(C)CC[C@]2(C)CC[C@]3(C)C(=CC[C@@H]4[C@@]5(C)CC[C@H](O)C(C)(C)[C@H]5CC[C@]43C)[C@@H]2C1
REMARK SMILES IDX 1 1 2 2 4 3 5 4 6 5 8 6 9 7 10 8 12 9 13 10 14 11 15 12
REMARK SMILES IDX 28 13 27 14 26 15 25 16 16 17 18 18 19 19 20 20 22 21 23 22
REMARK SMILES IDX 24 23 17 24 29 25 30 26 31 27 11 28 7 29 3 30 21 31
REMARK H PARENT 21 32
REMARK Flexibility Score: inf
ROOT
ATOM      1  C   UNL     1      -6.471  29.736  46.124  1.00  0.00     0.011 C 
ATOM      2  C   UNL     1      -6.645  28.310  46.695  1.00  0.00    -0.035 C 
ATOM      3  C   UNL     1      -7.770  28.339  47.755  1.00  0.00     0.007 C 
ATOM      4  C   UNL     1      -7.917  27.008  48.504  1.00  0.00     0.008 C 
ATOM      5  C   UNL     1      -6.598  26.490  49.161  1.00  0.00    -0.026 C 
ATOM      6  C   UNL     1      -6.279  27.286  50.477  1.00  0.00     0.008 C 
ATOM      7  C   UNL     1      -4.833  27.828  50.681  1.00  0.00     0.012 C 
ATOM      8  C   UNL     1      -3.617  27.040  50.038  1.00  0.00    -0.006 C 
ATOM      9  C   UNL     1      -4.108  26.199  48.853  1.00  0.00    -0.064 C 
ATOM     10  C   UNL     1      -3.399  25.134  48.411  1.00  0.00    -0.027 C 
ATOM     11  C   UNL     1      -2.224  24.518  49.129  1.00  0.00     0.032 C 
ATOM     12  C   UNL     1      -1.696  25.327  50.350  1.00  0.00     0.006 C 
ATOM     13  C   UNL     1      -2.846  26.108  51.105  1.00  0.00    -0.020 C 
ATOM     14  C   UNL     1      -2.226  26.960  52.283  1.00  0.00     0.008 C 
ATOM     15  C   UNL     1      -0.692  26.997  52.301  1.00  0.00     0.005 C 
ATOM     16  C   UNL     1      -0.091  25.572  52.408  1.00  0.00     0.003 C 
ATOM     17  C   UNL     1      -0.622  24.580  51.267  1.00  0.00    -0.025 C 
ATOM     18  C   UNL     1       0.544  24.119  50.330  1.00  0.00     0.010 C 
ATOM     19  C   UNL     1       1.825  23.620  51.027  1.00  0.00     0.033 C 
ATOM     20  C   UNL     1       2.068  24.181  52.439  1.00  0.00     0.120 C 
ATOM     21  C   UNL     1       1.476  25.605  52.636  1.00  0.00    -0.006 C 
ATOM     22  C   UNL     1       1.797  26.053  54.090  1.00  0.00     0.014 C 
ATOM     23  C   UNL     1       2.206  26.609  51.698  1.00  0.00     0.014 C 
ATOM     24  C   UNL     1      -1.211  23.283  51.926  1.00  0.00     0.012 C 
ATOM     25  C   UNL     1      -3.838  25.088  51.738  1.00  0.00     0.012 C 
ATOM     26  C   UNL     1      -5.421  26.543  48.146  1.00  0.00     0.022 C 
ATOM     27  C   UNL     1      -5.326  27.887  47.382  1.00  0.00     0.015 C 
ATOM     28  C   UNL     1      -2.627  28.101  49.436  1.00  0.00     0.017 C 
ATOM     29  C   UNL     1      -6.870  25.007  49.531  1.00  0.00     0.012 C 
ATOM     30  C   UNL     1      -6.998  27.372  45.516  1.00  0.00     0.011 C 
ENDROOT
BRANCH  20  31
ATOM     31  O   UNL     1       1.528  23.289  53.387  1.00  0.00    -0.393 OA
ATOM     32  H   UNL     1       1.061  23.829  54.078  1.00  0.00     0.210 HD
ENDBRANCH  20  31
TORSDOF 1
ENDMDL
MODEL 8
REMARK VINA RESULT:    -7.059      2.860      5.817
REMARK INTER + INTRA:          -7.265
REMARK INTER:                  -7.265
REMARK INTRA:                   0.000
REMARK UNBOUND:                 0.000
REMARK SMILES CC1(C)CC[C@]2(C)CC[C@]3(C)C(=CC[C@@H]4[C@@]5(C)CC[C@H](O)C(C)(C)[C@H]5CC[C@]43C)[C@@H]2C1
REMARK SMILES IDX 1 1 2 2 4 3 5 4 6 5 8 6 9 7 10 8 12 9 13 10 14 11 15 12
REMARK SMILES IDX 28 13 27 14 26 15 25 16 16 17 18 18 19 19 20 20 22 21 23 22
REMARK SMILES IDX 24 23 17 24 29 25 30 26 31 27 11 28 7 29 3 30 21 31
REMARK H PARENT 21 32
REMARK Flexibility Score: inf
ROOT
ATOM      1  C   UNL     1      -2.672  21.941  46.589  1.00  0.00     0.011 C 
ATOM      2  C   UNL     1      -2.680  22.831  47.852  1.00  0.00    -0.035 C 
ATOM      3  C   UNL     1      -3.667  22.223  48.875  1.00  0.00     0.007 C 
ATOM      4  C   UNL     1      -3.875  23.117  50.104  1.00  0.00     0.008 C 
ATOM      5  C   UNL     1      -4.308  24.580  49.771  1.00  0.00    -0.026 C 
ATOM      6  C   UNL     1      -5.826  24.638  49.374  1.00  0.00     0.008 C 
ATOM      7  C   UNL     1      -6.227  25.431  48.095  1.00  0.00     0.012 C 
ATOM      8  C   UNL     1      -5.350  26.676  47.655  1.00  0.00    -0.006 C 
ATOM      9  C   UNL     1      -3.935  26.549  48.233  1.00  0.00    -0.064 C 
ATOM     10  C   UNL     1      -3.140  27.635  48.378  1.00  0.00    -0.027 C 
ATOM     11  C   UNL     1      -3.592  29.066  48.226  1.00  0.00     0.032 C 
ATOM     12  C   UNL     1      -5.028  29.248  47.654  1.00  0.00     0.006 C 
ATOM     13  C   UNL     1      -6.008  28.084  48.087  1.00  0.00    -0.020 C 
ATOM     14  C   UNL     1      -7.421  28.298  47.413  1.00  0.00     0.008 C 
ATOM     15  C   UNL     1      -7.465  29.426  46.374  1.00  0.00     0.005 C 
ATOM     16  C   UNL     1      -7.047  30.785  46.993  1.00  0.00     0.003 C 
ATOM     17  C   UNL     1      -5.617  30.733  47.715  1.00  0.00    -0.025 C 
ATOM     18  C   UNL     1      -4.587  31.668  46.999  1.00  0.00     0.010 C 
ATOM     19  C   UNL     1      -5.063  33.100  46.689  1.00  0.00     0.033 C 
ATOM     20  C   UNL     1      -6.584  33.269  46.533  1.00  0.00     0.120 C 
ATOM     21  C   UNL     1      -7.284  31.990  45.992  1.00  0.00    -0.006 C 
ATOM     22  C   UNL     1      -8.804  32.298  45.875  1.00  0.00     0.014 C 
ATOM     23  C   UNL     1      -6.785  31.690  44.550  1.00  0.00     0.014 C 
ATOM     24  C   UNL     1      -5.750  31.254  49.189  1.00  0.00     0.012 C 
ATOM     25  C   UNL     1      -6.215  28.125  49.630  1.00  0.00     0.012 C 
ATOM     26  C   UNL     1      -3.392  25.187  48.669  1.00  0.00     0.022 C 
ATOM     27  C   UNL     1      -3.175  24.242  47.462  1.00  0.00     0.015 C 
ATOM     28  C   UNL     1      -5.187  26.615  46.093  1.00  0.00     0.017 C 
ATOM     29  C   UNL     1      -4.106  25.384  51.084  1.00  0.00     0.012 C 
ATOM     30  C   UNL     1      -1.236  22.869  48.408  1.00  0.00     0.011 C 
ENDROOT
BRANCH  20  31
ATOM     31  O   UNL     1      -7.135  33.644  47.774  1.00  0.00    -0.393 OA
ATOM     32  H   UNL     1      -6.796  34.550  47.995  1.00  0.00     0.210 HD
ENDBRANCH  20  31
TORSDOF 1
ENDMDL
MODEL 9
REMARK VINA RESULT:    -7.008      3.587      6.088
REMARK INTER + INTRA:          -7.213
REMARK INTER:                  -7.213
REMARK INTRA:                   0.000
REMARK UNBOUND:                 0.000
REMARK SMILES CC1(C)CC[C@]2(C)CC[C@]3(C)C(=CC[C@@H]4[C@@]5(C)CC[C@H](O)C(C)(C)[C@H]5CC[C@]43C)[C@@H]2C1
REMARK SMILES IDX 1 1 2 2 4 3 5 4 6 5 8 6 9 7 10 8 12 9 13 10 14 11 15 12
REMARK SMILES IDX 28 13 27 14 26 15 25 16 16 17 18 18 19 19 20 20 22 21 23 22
REMARK SMILES IDX 24 23 17 24 29 25 30 26 31 27 11 28 7 29 3 30 21 31
REMARK H PARENT 21 32
REMARK Flexibility Score: inf
ROOT
ATOM      1  C   UNL     1      -0.579  24.476  51.067  1.00  0.00     0.011 C 
ATOM      2  C   UNL     1      -2.097  24.292  50.844  1.00  0.00    -0.035 C 
ATOM      3  C   UNL     1      -2.313  23.093  49.892  1.00  0.00     0.007 C 
ATOM      4  C   UNL     1      -3.779  22.922  49.473  1.00  0.00     0.008 C 
ATOM      5  C   UNL     1      -4.425  24.201  48.852  1.00  0.00    -0.026 C 
ATOM      6  C   UNL     1      -3.944  24.408  47.372  1.00  0.00     0.008 C 
ATOM      7  C   UNL     1      -3.456  25.823  46.944  1.00  0.00     0.012 C 
ATOM      8  C   UNL     1      -4.073  27.099  47.654  1.00  0.00    -0.006 C 
ATOM      9  C   UNL     1      -4.628  26.712  49.031  1.00  0.00    -0.064 C 
ATOM     10  C   UNL     1      -5.563  27.474  49.645  1.00  0.00    -0.027 C 
ATOM     11  C   UNL     1      -6.320  28.607  48.998  1.00  0.00     0.032 C 
ATOM     12  C   UNL     1      -5.803  29.028  47.591  1.00  0.00     0.006 C 
ATOM     13  C   UNL     1      -5.217  27.811  46.768  1.00  0.00    -0.020 C 
ATOM     14  C   UNL     1      -4.649  28.326  45.387  1.00  0.00     0.008 C 
ATOM     15  C   UNL     1      -4.610  29.853  45.245  1.00  0.00     0.005 C 
ATOM     16  C   UNL     1      -6.020  30.476  45.416  1.00  0.00     0.003 C 
ATOM     17  C   UNL     1      -6.733  30.049  46.786  1.00  0.00    -0.025 C 
ATOM     18  C   UNL     1      -6.966  31.289  47.713  1.00  0.00     0.010 C 
ATOM     19  C   UNL     1      -7.603  32.527  47.052  1.00  0.00     0.033 C 
ATOM     20  C   UNL     1      -7.373  32.656  45.536  1.00  0.00     0.120 C 
ATOM     21  C   UNL     1      -6.032  32.022  45.070  1.00  0.00    -0.006 C 
ATOM     22  C   UNL     1      -5.922  32.227  43.533  1.00  0.00     0.014 C 
ATOM     23  C   UNL     1      -4.840  32.795  45.702  1.00  0.00     0.014 C 
ATOM     24  C   UNL     1      -8.148  29.442  46.481  1.00  0.00     0.012 C 
ATOM     25  C   UNL     1      -6.358  26.797  46.456  1.00  0.00     0.012 C 
ATOM     26  C   UNL     1      -4.140  25.447  49.739  1.00  0.00     0.022 C 
ATOM     27  C   UNL     1      -2.659  25.567  50.173  1.00  0.00     0.015 C 
ATOM     28  C   UNL     1      -2.899  28.107  47.927  1.00  0.00     0.017 C 
ATOM     29  C   UNL     1      -5.955  23.934  48.845  1.00  0.00     0.012 C 
ATOM     30  C   UNL     1      -2.748  24.045  52.226  1.00  0.00     0.011 C 
ENDROOT
BRANCH  20  31
ATOM     31  O   UNL     1      -8.457  32.068  44.855  1.00  0.00    -0.393 OA
ATOM     32  H   UNL     1      -8.510  31.116  45.134  1.00  0.00     0.210 HD
ENDBRANCH  20  31
TORSDOF 1
ENDMDL
