MODEL 1
REMARK VINA RESULT:     2.173      0.000      0.000
REMARK INTER + INTRA:           3.252
REMARK INTER:                   3.317
REMARK INTRA:                  -0.065
REMARK UNBOUND:                -0.065
REMARK SMILES OC[C@@H]1O[C@H](O[C@]2(CO)O[C@@H](CO)[C@H](O)[C@H]2O)[C@H](O)[C@@H](O)[C@H]1O
REMARK SMILES IDX 6 1 5 2 3 3 22 4 4 5 20 6 18 7 2 8 1 9 23 11 21 13 19 15
REMARK SMILES IDX 7 17 16 18 10 19 14 20 11 21 8 22 9 23 17 25 15 27 12 29
REMARK SMILES IDX 13 30
REMARK H PARENT 1 10 23 12 21 14 19 16 9 24 17 26 15 28 13 31
REMARK Flexibility Score: inf
ROOT
ATOM      1  O   UNL     1      38.069  25.140  34.952  1.00  0.00    -0.313 OA
ENDROOT
BRANCH   1   2
ATOM      2  C   UNL     1      37.723  25.576  36.274  1.00  0.00     0.285 C 
ATOM      3  C   UNL     1      37.259  27.660  37.367  1.00  0.00     0.178 C 
ATOM      4  C   UNL     1      35.819  27.640  36.788  1.00  0.00     0.177 C 
ATOM      5  O   UNL     1      38.125  26.905  36.551  1.00  0.00    -0.341 OA
ATOM      6  C   UNL     1      35.241  26.216  36.886  1.00  0.00     0.179 C 
ATOM      7  C   UNL     1      36.309  25.094  36.740  1.00  0.00     0.202 C 
BRANCH   3   8
ATOM      8  C   UNL     1      37.774  29.121  37.397  1.00  0.00     0.191 C 
BRANCH   8   9
ATOM      9  O   UNL     1      38.125  29.536  38.689  1.00  0.00    -0.394 OA
ATOM     10  H   UNL     1      39.044  29.190  38.843  1.00  0.00     0.210 HD
ENDBRANCH   8   9
ENDBRANCH   3   8
BRANCH   4  11
ATOM     11  O   UNL     1      34.974  28.514  37.506  1.00  0.00    -0.387 OA
ATOM     12  H   UNL     1      34.454  29.045  36.850  1.00  0.00     0.211 HD
ENDBRANCH   4  11
BRANCH   6  13
ATOM     13  O   UNL     1      34.517  26.035  38.087  1.00  0.00    -0.387 OA
ATOM     14  H   UNL     1      34.362  26.926  38.495  1.00  0.00     0.211 HD
ENDBRANCH   6  13
BRANCH   7  15
ATOM     15  O   UNL     1      35.884  24.053  35.891  1.00  0.00    -0.385 OA
ATOM     16  H   UNL     1      35.943  24.347  34.946  1.00  0.00     0.211 HD
ENDBRANCH   7  15
ENDBRANCH   1   2
BRANCH   1  17
ATOM     17  C   UNL     1      37.566  25.723  33.740  1.00  0.00     0.224 C 
ATOM     18  C   UNL     1      37.701  24.899  32.420  1.00  0.00     0.208 C 
ATOM     19  O   UNL     1      36.164  25.867  33.972  1.00  0.00    -0.337 OA
ATOM     20  C   UNL     1      36.399  24.107  32.394  1.00  0.00     0.180 C 
ATOM     21  C   UNL     1      35.427  25.068  33.074  1.00  0.00     0.179 C 
BRANCH  17  22
ATOM     22  C   UNL     1      38.060  27.184  33.601  1.00  0.00     0.225 C 
BRANCH  22  23
ATOM     23  O   UNL     1      37.026  28.083  33.298  1.00  0.00    -0.391 OA
ATOM     24  H   UNL     1      37.252  28.967  33.712  1.00  0.00     0.210 HD
ENDBRANCH  22  23
ENDBRANCH  17  22
BRANCH  18  25
ATOM     25  O   UNL     1      37.757  25.743  31.291  1.00  0.00    -0.385 OA
ATOM     26  H   UNL     1      38.623  25.567  30.827  1.00  0.00     0.211 HD
ENDBRANCH  18  25
BRANCH  20  27
ATOM     27  O   UNL     1      36.473  22.894  33.118  1.00  0.00    -0.387 OA
ATOM     28  H   UNL     1      36.218  22.141  32.520  1.00  0.00     0.211 HD
ENDBRANCH  20  27
BRANCH  21  29
ATOM     29  C   UNL     1      34.664  25.991  32.085  1.00  0.00     0.191 C 
BRANCH  29  30
ATOM     30  O   UNL     1      33.275  25.802  32.141  1.00  0.00    -0.394 OA
ATOM     31  H   UNL     1      32.879  26.683  32.375  1.00  0.00     0.210 HD
ENDBRANCH  29  30
ENDBRANCH  21  29
ENDBRANCH   1  17
TORSDOF 13
ENDMDL
MODEL 2
REMARK VINA RESULT:     4.302      1.408      5.638
REMARK INTER + INTRA:           6.501
REMARK INTER:                   6.251
REMARK INTRA:                   0.250
REMARK UNBOUND:                -0.065
REMARK SMILES OC[C@@H]1O[C@H](O[C@]2(CO)O[C@@H](CO)[C@H](O)[C@H]2O)[C@H](O)[C@@H](O)[C@H]1O
REMARK SMILES IDX 6 1 5 2 3 3 22 4 4 5 20 6 18 7 2 8 1 9 23 11 21 13 19 15
REMARK SMILES IDX 7 17 16 18 10 19 14 20 11 21 8 22 9 23 17 25 15 27 12 29
REMARK SMILES IDX 13 30
REMARK H PARENT 1 10 23 12 21 14 19 16 9 24 17 26 15 28 13 31
REMARK Flexibility Score: inf
ROOT
ATOM      1  O   UNL     1      34.906  26.756  35.309  1.00  0.00    -0.313 OA
ENDROOT
BRANCH   1   2
ATOM      2  C   UNL     1      34.976  26.472  33.905  1.00  0.00     0.285 C 
ATOM      3  C   UNL     1      36.403  25.223  32.437  1.00  0.00     0.178 C 
ATOM      4  C   UNL     1      35.691  23.912  32.864  1.00  0.00     0.177 C 
ATOM      5  O   UNL     1      36.288  26.195  33.451  1.00  0.00    -0.341 OA
ATOM      6  C   UNL     1      34.172  24.151  32.949  1.00  0.00     0.179 C 
ATOM      7  C   UNL     1      33.788  25.594  33.387  1.00  0.00     0.202 C 
BRANCH   3   8
ATOM      8  C   UNL     1      37.909  24.933  32.215  1.00  0.00     0.191 C 
BRANCH   8   9
ATOM      9  O   UNL     1      38.125  23.721  31.544  1.00  0.00    -0.394 OA
ATOM     10  H   UNL     1      39.003  23.388  31.867  1.00  0.00     0.210 HD
ENDBRANCH   8   9
ENDBRANCH   3   8
BRANCH   4  11
ATOM     11  O   UNL     1      35.928  22.882  31.928  1.00  0.00    -0.387 OA
ATOM     12  H   UNL     1      36.224  23.301  31.080  1.00  0.00     0.211 HD
ENDBRANCH   4  11
BRANCH   6  13
ATOM     13  O   UNL     1      33.532  23.836  31.728  1.00  0.00    -0.387 OA
ATOM     14  H   UNL     1      32.583  24.118  31.791  1.00  0.00     0.211 HD
ENDBRANCH   6  13
BRANCH   7  15
ATOM     15  O   UNL     1      32.761  25.608  34.351  1.00  0.00    -0.385 OA
ATOM     16  H   UNL     1      32.653  24.703  34.739  1.00  0.00     0.211 HD
ENDBRANCH   7  15
ENDBRANCH   1   2
BRANCH   1  17
ATOM     17  C   UNL     1      35.952  26.476  36.254  1.00  0.00     0.224 C 
ATOM     18  C   UNL     1      37.384  26.194  35.698  1.00  0.00     0.208 C 
ATOM     19  O   UNL     1      36.058  27.671  37.028  1.00  0.00    -0.337 OA
ATOM     20  C   UNL     1      38.002  27.587  35.665  1.00  0.00     0.180 C 
ATOM     21  C   UNL     1      37.325  28.265  36.854  1.00  0.00     0.179 C 
BRANCH  17  22
ATOM     22  C   UNL     1      35.478  25.421  37.283  1.00  0.00     0.225 C 
BRANCH  22  23
ATOM     23  O   UNL     1      35.506  24.112  36.776  1.00  0.00    -0.391 OA
ATOM     24  H   UNL     1      36.455  23.889  36.546  1.00  0.00     0.210 HD
ENDBRANCH  22  23
ENDBRANCH  17  22
BRANCH  18  25
ATOM     25  O   UNL     1      38.125  25.375  36.577  1.00  0.00    -0.385 OA
ATOM     26  H   UNL     1      38.575  24.675  36.028  1.00  0.00     0.211 HD
ENDBRANCH  18  25
BRANCH  20  27
ATOM     27  O   UNL     1      37.715  28.293  34.473  1.00  0.00    -0.387 OA
ATOM     28  H   UNL     1      38.342  27.995  33.759  1.00  0.00     0.211 HD
ENDBRANCH  20  27
BRANCH  21  29
ATOM     29  C   UNL     1      38.125  28.149  38.180  1.00  0.00     0.191 C 
BRANCH  29  30
ATOM     30  O   UNL     1      38.116  29.343  38.916  1.00  0.00    -0.394 OA
ATOM     31  H   UNL     1      39.067  29.583  39.077  1.00  0.00     0.210 HD
ENDBRANCH  29  30
ENDBRANCH  21  29
ENDBRANCH   1  17
TORSDOF 13
ENDMDL
