MODEL 1
REMARK VINA RESULT:    -3.460      0.000      0.000
REMARK INTER + INTRA:          -8.383
REMARK INTER:                  -6.292
REMARK INTRA:                  -2.091
REMARK UNBOUND:                -2.091
REMARK SMILES CCCCCCCCCCCCCC[C@@H](C)C(=O)[O-]
REMARK SMILES IDX 9 1 10 2 11 3 12 4 13 5 14 6 15 7 16 8 17 9 18 10 19 11 8 12
REMARK SMILES IDX 7 13 6 14 5 15 4 16 3 17 2 18 1 19
REMARK H PARENT
REMARK Flexibility Score: inf
ROOT
ATOM      1  C   UNL     1      -6.614  -9.150  28.014  1.00  0.00     0.000 C 
ENDROOT
BRANCH   1   2
ATOM      2  C   UNL     1      -5.374  -8.343  28.430  1.00  0.00     0.000 C 
BRANCH   2   3
ATOM      3  C   UNL     1      -4.227  -9.238  28.932  1.00  0.00     0.000 C 
BRANCH   3   4
ATOM      4  C   UNL     1      -3.928  -9.028  30.425  1.00  0.00     0.000 C 
BRANCH   4   5
ATOM      5  C   UNL     1      -3.569  -7.570  30.755  1.00  0.00     0.001 C 
BRANCH   5   6
ATOM      6  C   UNL     1      -2.118  -7.409  31.245  1.00  0.00     0.009 C 
BRANCH   6   7
ATOM      7  C   UNL     1      -1.521  -6.003  31.004  1.00  0.00     0.032 C 
ATOM      8  C   UNL     1      -1.845  -5.520  29.586  1.00  0.00     0.014 C 
BRANCH   7   9
ATOM      9  C   UNL     1      -2.024  -5.006  32.014  1.00  0.00     0.044 C 
ATOM     10  O   UNL     1      -2.424  -3.869  31.648  1.00  0.00    -0.550 OA
ATOM     11  O   UNL     1      -2.057  -5.342  33.361  1.00  0.00    -0.550 OA
ENDBRANCH   7   9
ENDBRANCH   6   7
ENDBRANCH   5   6
ENDBRANCH   4   5
ENDBRANCH   3   4
ENDBRANCH   2   3
ENDBRANCH   1   2
BRANCH   1  12
ATOM     12  C   UNL     1      -6.322 -10.652  27.873  1.00  0.00     0.000 C 
BRANCH  12  13
ATOM     13  C   UNL     1      -6.741 -11.165  26.488  1.00  0.00    -0.000 C 
BRANCH  13  14
ATOM     14  C   UNL     1      -7.007 -10.028  25.485  1.00  0.00    -0.000 C 
BRANCH  14  15
ATOM     15  C   UNL     1      -5.900  -9.814  24.434  1.00  0.00    -0.000 C 
BRANCH  15  16
ATOM     16  C   UNL     1      -4.908  -8.675  24.748  1.00  0.00    -0.000 C 
BRANCH  16  17
ATOM     17  C   UNL     1      -3.472  -9.134  25.058  1.00  0.00    -0.000 C 
BRANCH  17  18
ATOM     18  C   UNL     1      -3.290 -10.652  24.923  1.00  0.00    -0.003 C 
ATOM     19  C   UNL     1      -2.893 -11.278  26.258  1.00  0.00     0.004 C 
ENDBRANCH  17  18
ENDBRANCH  16  17
ENDBRANCH  15  16
ENDBRANCH  14  15
ENDBRANCH  13  14
ENDBRANCH  12  13
ENDBRANCH   1  12
TORSDOF 14
ENDMDL
MODEL 2
REMARK VINA RESULT:    -3.436     13.882     16.473
REMARK INTER + INTRA:          -8.340
REMARK INTER:                  -6.057
REMARK INTRA:                  -2.283
REMARK UNBOUND:                -2.091
REMARK SMILES CCCCCCCCCCCCCC[C@@H](C)C(=O)[O-]
REMARK SMILES IDX 9 1 10 2 11 3 12 4 13 5 14 6 15 7 16 8 17 9 18 10 19 11 8 12
REMARK SMILES IDX 7 13 6 14 5 15 4 16 3 17 2 18 1 19
REMARK H PARENT
REMARK Flexibility Score: inf
ROOT
ATOM      1  C   UNL     1      -6.473   2.787  39.614  1.00  0.00     0.000 C 
ENDROOT
BRANCH   1   2
ATOM      2  C   UNL     1      -7.755   3.529  39.203  1.00  0.00     0.000 C 
BRANCH   2   3
ATOM      3  C   UNL     1      -7.584   5.058  39.219  1.00  0.00     0.000 C 
BRANCH   3   4
ATOM      4  C   UNL     1      -8.080   5.718  37.923  1.00  0.00     0.000 C 
BRANCH   4   5
ATOM      5  C   UNL     1      -8.644   4.697  36.920  1.00  0.00     0.001 C 
BRANCH   5   6
ATOM      6  C   UNL     1      -9.995   5.132  36.322  1.00  0.00     0.009 C 
BRANCH   6   7
ATOM      7  C   UNL     1     -10.750   4.005  35.581  1.00  0.00     0.032 C 
ATOM      8  C   UNL     1     -11.927   3.503  36.425  1.00  0.00     0.014 C 
BRANCH   7   9
ATOM      9  C   UNL     1     -11.243   4.461  34.234  1.00  0.00     0.044 C 
ATOM     10  O   UNL     1     -10.465   5.036  33.427  1.00  0.00    -0.550 OA
ATOM     11  O   UNL     1     -12.565   4.239  33.869  1.00  0.00    -0.550 OA
ENDBRANCH   7   9
ENDBRANCH   6   7
ENDBRANCH   5   6
ENDBRANCH   4   5
ENDBRANCH   3   4
ENDBRANCH   2   3
ENDBRANCH   1   2
BRANCH   1  12
ATOM     12  C   UNL     1      -5.241   3.705  39.635  1.00  0.00     0.000 C 
BRANCH  12  13
ATOM     13  C   UNL     1      -3.969   2.923  39.273  1.00  0.00    -0.000 C 
BRANCH  13  14
ATOM     14  C   UNL     1      -4.263   1.643  38.472  1.00  0.00    -0.000 C 
BRANCH  14  15
ATOM     15  C   UNL     1      -4.074   1.769  36.947  1.00  0.00    -0.000 C 
BRANCH  15  16
ATOM     16  C   UNL     1      -5.367   2.024  36.145  1.00  0.00    -0.000 C 
BRANCH  16  17
ATOM     17  C   UNL     1      -5.546   3.469  35.648  1.00  0.00    -0.000 C 
BRANCH  17  18
ATOM     18  C   UNL     1      -4.275   4.315  35.803  1.00  0.00    -0.003 C 
ATOM     19  C   UNL     1      -4.564   5.606  36.566  1.00  0.00     0.004 C 
ENDBRANCH  17  18
ENDBRANCH  16  17
ENDBRANCH  15  16
ENDBRANCH  14  15
ENDBRANCH  13  14
ENDBRANCH  12  13
ENDBRANCH   1  12
TORSDOF 14
ENDMDL
MODEL 3
REMARK VINA RESULT:    -3.403     12.909     15.205
REMARK INTER + INTRA:          -8.280
REMARK INTER:                  -5.597
REMARK INTRA:                  -2.683
REMARK UNBOUND:                -2.091
REMARK SMILES CCCCCCCCCCCCCC[C@@H](C)C(=O)[O-]
REMARK SMILES IDX 9 1 10 2 11 3 12 4 13 5 14 6 15 7 16 8 17 9 18 10 19 11 8 12
REMARK SMILES IDX 7 13 6 14 5 15 4 16 3 17 2 18 1 19
REMARK H PARENT
REMARK Flexibility Score: inf
ROOT
ATOM      1  C   UNL     1      -6.317  -0.625  37.703  1.00  0.00     0.000 C 
ENDROOT
BRANCH   1   2
ATOM      2  C   UNL     1      -4.951  -0.696  38.405  1.00  0.00     0.000 C 
BRANCH   2   3
ATOM      3  C   UNL     1      -3.879   0.153  37.699  1.00  0.00     0.000 C 
BRANCH   3   4
ATOM      4  C   UNL     1      -3.442   1.363  38.540  1.00  0.00     0.000 C 
BRANCH   4   5
ATOM      5  C   UNL     1      -3.610   2.694  37.788  1.00  0.00     0.001 C 
BRANCH   5   6
ATOM      6  C   UNL     1      -4.366   2.536  36.456  1.00  0.00     0.009 C 
BRANCH   6   7
ATOM      7  C   UNL     1      -5.265   3.740  36.092  1.00  0.00     0.032 C 
ATOM      8  C   UNL     1      -4.632   5.048  36.579  1.00  0.00     0.014 C 
BRANCH   7   9
ATOM      9  C   UNL     1      -5.521   3.813  34.611  1.00  0.00     0.044 C 
ATOM     10  O   UNL     1      -4.617   4.196  33.822  1.00  0.00    -0.550 OA
ATOM     11  O   UNL     1      -6.762   3.448  34.103  1.00  0.00    -0.550 OA
ENDBRANCH   7   9
ENDBRANCH   6   7
ENDBRANCH   5   6
ENDBRANCH   4   5
ENDBRANCH   3   4
ENDBRANCH   2   3
ENDBRANCH   1   2
BRANCH   1  12
ATOM     12  C   UNL     1      -7.390   0.055  38.566  1.00  0.00     0.000 C 
BRANCH  12  13
ATOM     13  C   UNL     1      -7.404   1.573  38.330  1.00  0.00    -0.000 C 
BRANCH  13  14
ATOM     14  C   UNL     1      -6.807   2.366  39.505  1.00  0.00    -0.000 C 
BRANCH  14  15
ATOM     15  C   UNL     1      -6.890   3.899  39.367  1.00  0.00    -0.000 C 
BRANCH  15  16
ATOM     16  C   UNL     1      -8.260   4.444  38.912  1.00  0.00    -0.000 C 
BRANCH  16  17
ATOM     17  C   UNL     1      -8.224   5.305  37.637  1.00  0.00    -0.000 C 
BRANCH  17  18
ATOM     18  C   UNL     1      -9.052   4.708  36.491  1.00  0.00    -0.003 C 
ATOM     19  C   UNL     1     -10.166   3.813  37.028  1.00  0.00     0.004 C 
ENDBRANCH  17  18
ENDBRANCH  16  17
ENDBRANCH  15  16
ENDBRANCH  14  15
ENDBRANCH  13  14
ENDBRANCH  12  13
ENDBRANCH   1  12
TORSDOF 14
ENDMDL
MODEL 4
REMARK VINA RESULT:    -3.396     12.637     15.059
REMARK INTER + INTRA:          -8.267
REMARK INTER:                  -5.724
REMARK INTRA:                  -2.543
REMARK UNBOUND:                -2.091
REMARK SMILES CCCCCCCCCCCCCC[C@@H](C)C(=O)[O-]
REMARK SMILES IDX 9 1 10 2 11 3 12 4 13 5 14 6 15 7 16 8 17 9 18 10 19 11 8 12
REMARK SMILES IDX 7 13 6 14 5 15 4 16 3 17 2 18 1 19
REMARK H PARENT
REMARK Flexibility Score: inf
ROOT
ATOM      1  C   UNL     1      -7.597   0.062  39.425  1.00  0.00     0.000 C 
ENDROOT
BRANCH   1   2
ATOM      2  C   UNL     1      -7.567   0.031  37.888  1.00  0.00     0.000 C 
BRANCH   2   3
ATOM      3  C   UNL     1      -6.249  -0.537  37.334  1.00  0.00     0.000 C 
BRANCH   3   4
ATOM      4  C   UNL     1      -5.154  -0.634  38.408  1.00  0.00     0.000 C 
BRANCH   4   5
ATOM      5  C   UNL     1      -3.834   0.022  37.965  1.00  0.00     0.001 C 
BRANCH   5   6
ATOM      6  C   UNL     1      -3.648   1.438  38.542  1.00  0.00     0.009 C 
BRANCH   6   7
ATOM      7  C   UNL     1      -4.186   2.566  37.633  1.00  0.00     0.032 C 
ATOM      8  C   UNL     1      -3.825   3.939  38.211  1.00  0.00     0.014 C 
BRANCH   7   9
ATOM      9  C   UNL     1      -3.658   2.446  36.228  1.00  0.00     0.044 C 
ATOM     10  O   UNL     1      -2.439   2.654  35.981  1.00  0.00    -0.550 OA
ATOM     11  O   UNL     1      -4.516   2.096  35.193  1.00  0.00    -0.550 OA
ENDBRANCH   7   9
ENDBRANCH   6   7
ENDBRANCH   5   6
ENDBRANCH   4   5
ENDBRANCH   3   4
ENDBRANCH   2   3
ENDBRANCH   1   2
BRANCH   1  12
ATOM     12  C   UNL     1      -8.100   1.404  39.979  1.00  0.00     0.000 C 
BRANCH  12  13
ATOM     13  C   UNL     1      -7.005   2.476  39.896  1.00  0.00    -0.000 C 
BRANCH  13  14
ATOM     14  C   UNL     1      -7.504   3.793  39.276  1.00  0.00    -0.000 C 
BRANCH  14  15
ATOM     15  C   UNL     1      -7.838   3.721  37.772  1.00  0.00    -0.000 C 
BRANCH  15  16
ATOM     16  C   UNL     1      -8.899   4.730  37.287  1.00  0.00    -0.000 C 
BRANCH  16  17
ATOM     17  C   UNL     1     -10.235   4.104  36.846  1.00  0.00    -0.000 C 
BRANCH  17  18
ATOM     18  C   UNL     1     -10.356   2.624  37.235  1.00  0.00    -0.003 C 
ATOM     19  C   UNL     1     -11.306   2.442  38.416  1.00  0.00     0.004 C 
ENDBRANCH  17  18
ENDBRANCH  16  17
ENDBRANCH  15  16
ENDBRANCH  14  15
ENDBRANCH  13  14
ENDBRANCH  12  13
ENDBRANCH   1  12
TORSDOF 14
ENDMDL
MODEL 5
REMARK VINA RESULT:    -3.360     13.247     16.032
REMARK INTER + INTRA:          -8.201
REMARK INTER:                  -5.506
REMARK INTRA:                  -2.696
REMARK UNBOUND:                -2.091
REMARK SMILES CCCCCCCCCCCCCC[C@@H](C)C(=O)[O-]
REMARK SMILES IDX 9 1 10 2 11 3 12 4 13 5 14 6 15 7 16 8 17 9 18 10 19 11 8 12
REMARK SMILES IDX 7 13 6 14 5 15 4 16 3 17 2 18 1 19
REMARK H PARENT
REMARK Flexibility Score: inf
ROOT
ATOM      1  C   UNL     1      -6.322   1.928  38.518  1.00  0.00     0.000 C 
ENDROOT
BRANCH   1   2
ATOM      2  C   UNL     1      -6.264   2.951  39.664  1.00  0.00     0.000 C 
BRANCH   2   3
ATOM      3  C   UNL     1      -7.358   4.027  39.550  1.00  0.00     0.000 C 
BRANCH   3   4
ATOM      4  C   UNL     1      -7.994   4.073  38.152  1.00  0.00     0.000 C 
BRANCH   4   5
ATOM      5  C   UNL     1      -8.369   5.501  37.721  1.00  0.00     0.001 C 
BRANCH   5   6
ATOM      6  C   UNL     1      -9.421   5.529  36.597  1.00  0.00     0.009 C 
BRANCH   6   7
ATOM      7  C   UNL     1      -9.929   4.132  36.172  1.00  0.00     0.032 C 
ATOM      8  C   UNL     1     -11.298   3.846  36.800  1.00  0.00     0.014 C 
BRANCH   7   9
ATOM      9  C   UNL     1     -10.014   4.003  34.675  1.00  0.00     0.044 C 
ATOM     10  O   UNL     1     -10.242   2.886  34.139  1.00  0.00    -0.550 OA
ATOM     11  O   UNL     1      -9.848   5.126  33.873  1.00  0.00    -0.550 OA
ENDBRANCH   7   9
ENDBRANCH   6   7
ENDBRANCH   5   6
ENDBRANCH   4   5
ENDBRANCH   3   4
ENDBRANCH   2   3
ENDBRANCH   1   2
BRANCH   1  12
ATOM     12  C   UNL     1      -4.952   1.299  38.218  1.00  0.00     0.000 C 
BRANCH  12  13
ATOM     13  C   UNL     1      -3.814   2.254  38.607  1.00  0.00    -0.000 C 
BRANCH  13  14
ATOM     14  C   UNL     1      -3.363   3.152  37.441  1.00  0.00    -0.000 C 
BRANCH  14  15
ATOM     15  C   UNL     1      -3.790   4.629  37.553  1.00  0.00    -0.000 C 
BRANCH  15  16
ATOM     16  C   UNL     1      -4.766   5.114  36.462  1.00  0.00    -0.000 C 
BRANCH  16  17
ATOM     17  C   UNL     1      -4.908   4.170  35.254  1.00  0.00    -0.000 C 
BRANCH  17  18
ATOM     18  C   UNL     1      -6.329   3.609  35.102  1.00  0.00    -0.003 C 
ATOM     19  C   UNL     1      -6.298   2.114  34.794  1.00  0.00     0.004 C 
ENDBRANCH  17  18
ENDBRANCH  16  17
ENDBRANCH  15  16
ENDBRANCH  14  15
ENDBRANCH  13  14
ENDBRANCH  12  13
ENDBRANCH   1  12
TORSDOF 14
ENDMDL
MODEL 6
REMARK VINA RESULT:    -3.353     13.488     15.629
REMARK INTER + INTRA:          -8.189
REMARK INTER:                  -5.884
REMARK INTRA:                  -2.305
REMARK UNBOUND:                -2.091
REMARK SMILES CCCCCCCCCCCCCC[C@@H](C)C(=O)[O-]
REMARK SMILES IDX 9 1 10 2 11 3 12 4 13 5 14 6 15 7 16 8 17 9 18 10 19 11 8 12
REMARK SMILES IDX 7 13 6 14 5 15 4 16 3 17 2 18 1 19
REMARK H PARENT
REMARK Flexibility Score: inf
ROOT
ATOM      1  C   UNL     1      -7.179  -0.399  39.252  1.00  0.00     0.000 C 
ENDROOT
BRANCH   1   2
ATOM      2  C   UNL     1      -7.823   0.694  40.122  1.00  0.00     0.000 C 
BRANCH   2   3
ATOM      3  C   UNL     1      -7.267   2.096  39.816  1.00  0.00     0.000 C 
BRANCH   3   4
ATOM      4  C   UNL     1      -8.379   3.121  39.541  1.00  0.00     0.000 C 
BRANCH   4   5
ATOM      5  C   UNL     1      -9.545   2.524  38.735  1.00  0.00     0.001 C 
BRANCH   5   6
ATOM      6  C   UNL     1      -9.262   2.478  37.221  1.00  0.00     0.009 C 
BRANCH   6   7
ATOM      7  C   UNL     1     -10.314   3.211  36.359  1.00  0.00     0.032 C 
ATOM      8  C   UNL     1     -11.546   3.564  37.200  1.00  0.00     0.014 C 
BRANCH   7   9
ATOM      9  C   UNL     1      -9.747   4.457  35.732  1.00  0.00     0.044 C 
ATOM     10  O   UNL     1      -9.138   4.401  34.630  1.00  0.00    -0.550 OA
ATOM     11  O   UNL     1      -9.901   5.683  36.367  1.00  0.00    -0.550 OA
ENDBRANCH   7   9
ENDBRANCH   6   7
ENDBRANCH   5   6
ENDBRANCH   4   5
ENDBRANCH   3   4
ENDBRANCH   2   3
ENDBRANCH   1   2
BRANCH   1  12
ATOM     12  C   UNL     1      -6.238   0.176  38.183  1.00  0.00     0.000 C 
BRANCH  12  13
ATOM     13  C   UNL     1      -4.849  -0.473  38.269  1.00  0.00    -0.000 C 
BRANCH  13  14
ATOM     14  C   UNL     1      -3.710   0.504  37.928  1.00  0.00    -0.000 C 
BRANCH  14  15
ATOM     15  C   UNL     1      -3.717   1.820  38.732  1.00  0.00    -0.000 C 
BRANCH  15  16
ATOM     16  C   UNL     1      -3.663   3.107  37.884  1.00  0.00    -0.000 C 
BRANCH  16  17
ATOM     17  C   UNL     1      -4.945   3.957  37.915  1.00  0.00    -0.000 C 
BRANCH  17  18
ATOM     18  C   UNL     1      -5.503   4.247  36.514  1.00  0.00    -0.003 C 
ATOM     19  C   UNL     1      -5.943   2.959  35.823  1.00  0.00     0.004 C 
ENDBRANCH  17  18
ENDBRANCH  16  17
ENDBRANCH  15  16
ENDBRANCH  14  15
ENDBRANCH  13  14
ENDBRANCH  12  13
ENDBRANCH   1  12
TORSDOF 14
ENDMDL
MODEL 7
REMARK VINA RESULT:    -3.346     12.956     15.691
REMARK INTER + INTRA:          -8.176
REMARK INTER:                  -6.013
REMARK INTRA:                  -2.163
REMARK UNBOUND:                -2.091
REMARK SMILES CCCCCCCCCCCCCC[C@@H](C)C(=O)[O-]
REMARK SMILES IDX 9 1 10 2 11 3 12 4 13 5 14 6 15 7 16 8 17 9 18 10 19 11 8 12
REMARK SMILES IDX 7 13 6 14 5 15 4 16 3 17 2 18 1 19
REMARK H PARENT
REMARK Flexibility Score: inf
ROOT
ATOM      1  C   UNL     1      -5.833   3.088  35.764  1.00  0.00     0.000 C 
ENDROOT
BRANCH   1   2
ATOM      2  C   UNL     1      -7.172   2.825  36.471  1.00  0.00     0.000 C 
BRANCH   2   3
ATOM      3  C   UNL     1      -7.182   3.331  37.925  1.00  0.00     0.000 C 
BRANCH   3   4
ATOM      4  C   UNL     1      -8.366   4.268  38.212  1.00  0.00     0.000 C 
BRANCH   4   5
ATOM      5  C   UNL     1      -8.476   5.410  37.187  1.00  0.00     0.001 C 
BRANCH   5   6
ATOM      6  C   UNL     1      -9.890   5.540  36.589  1.00  0.00     0.009 C 
BRANCH   6   7
ATOM      7  C   UNL     1     -10.340   4.316  35.760  1.00  0.00     0.032 C 
ATOM      8  C   UNL     1     -11.562   3.652  36.404  1.00  0.00     0.014 C 
BRANCH   7   9
ATOM      9  C   UNL     1     -10.652   4.694  34.337  1.00  0.00     0.044 C 
ATOM     10  O   UNL     1      -9.738   5.085  33.562  1.00  0.00    -0.550 OA
ATOM     11  O   UNL     1     -11.956   4.604  33.866  1.00  0.00    -0.550 OA
ENDBRANCH   7   9
ENDBRANCH   6   7
ENDBRANCH   5   6
ENDBRANCH   4   5
ENDBRANCH   3   4
ENDBRANCH   2   3
ENDBRANCH   1   2
BRANCH   1  12
ATOM     12  C   UNL     1      -4.886   3.963  36.599  1.00  0.00     0.000 C 
BRANCH  12  13
ATOM     13  C   UNL     1      -3.602   3.199  36.952  1.00  0.00    -0.000 C 
BRANCH  13  14
ATOM     14  C   UNL     1      -3.579   2.711  38.411  1.00  0.00    -0.000 C 
BRANCH  14  15
ATOM     15  C   UNL     1      -3.565   1.179  38.586  1.00  0.00    -0.000 C 
BRANCH  15  16
ATOM     16  C   UNL     1      -3.791   0.369  37.293  1.00  0.00    -0.000 C 
BRANCH  16  17
ATOM     17  C   UNL     1      -5.169  -0.308  37.184  1.00  0.00    -0.000 C 
BRANCH  17  18
ATOM     18  C   UNL     1      -5.707  -0.785  38.541  1.00  0.00    -0.003 C 
ATOM     19  C   UNL     1      -7.105  -0.231  38.803  1.00  0.00     0.004 C 
ENDBRANCH  17  18
ENDBRANCH  16  17
ENDBRANCH  15  16
ENDBRANCH  14  15
ENDBRANCH  13  14
ENDBRANCH  12  13
ENDBRANCH   1  12
TORSDOF 14
ENDMDL
MODEL 8
REMARK VINA RESULT:    -3.328     13.258     15.640
REMARK INTER + INTRA:          -8.142
REMARK INTER:                  -6.025
REMARK INTRA:                  -2.118
REMARK UNBOUND:                -2.091
REMARK SMILES CCCCCCCCCCCCCC[C@@H](C)C(=O)[O-]
REMARK SMILES IDX 9 1 10 2 11 3 12 4 13 5 14 6 15 7 16 8 17 9 18 10 19 11 8 12
REMARK SMILES IDX 7 13 6 14 5 15 4 16 3 17 2 18 1 19
REMARK H PARENT
REMARK Flexibility Score: inf
ROOT
ATOM      1  C   UNL     1      -8.051   4.006  36.689  1.00  0.00     0.000 C 
ENDROOT
BRANCH   1   2
ATOM      2  C   UNL     1      -8.351   4.805  37.968  1.00  0.00     0.000 C 
BRANCH   2   3
ATOM      3  C   UNL     1      -7.444   4.401  39.144  1.00  0.00     0.000 C 
BRANCH   3   4
ATOM      4  C   UNL     1      -6.014   4.065  38.694  1.00  0.00     0.000 C 
BRANCH   4   5
ATOM      5  C   UNL     1      -5.486   2.765  39.325  1.00  0.00     0.001 C 
BRANCH   5   6
ATOM      6  C   UNL     1      -4.025   2.466  38.942  1.00  0.00     0.009 C 
BRANCH   6   7
ATOM      7  C   UNL     1      -3.813   1.077  38.296  1.00  0.00     0.032 C 
ATOM      8  C   UNL     1      -5.128   0.290  38.273  1.00  0.00     0.014 C 
BRANCH   7   9
ATOM      9  C   UNL     1      -3.260   1.194  36.901  1.00  0.00     0.044 C 
ATOM     10  O   UNL     1      -3.066   0.165  36.199  1.00  0.00    -0.550 OA
ATOM     11  O   UNL     1      -2.966   2.445  36.374  1.00  0.00    -0.550 OA
ENDBRANCH   7   9
ENDBRANCH   6   7
ENDBRANCH   5   6
ENDBRANCH   4   5
ENDBRANCH   3   4
ENDBRANCH   2   3
ENDBRANCH   1   2
BRANCH   1  12
ATOM     12  C   UNL     1      -9.271   3.895  35.763  1.00  0.00     0.000 C 
BRANCH  12  13
ATOM     13  C   UNL     1     -10.511   4.531  36.409  1.00  0.00    -0.000 C 
BRANCH  13  14
ATOM     14  C   UNL     1     -11.718   3.577  36.452  1.00  0.00    -0.000 C 
BRANCH  14  15
ATOM     15  C   UNL     1     -12.330   3.363  37.851  1.00  0.00    -0.000 C 
BRANCH  15  16
ATOM     16  C   UNL     1     -11.924   2.050  38.551  1.00  0.00    -0.000 C 
BRANCH  16  17
ATOM     17  C   UNL     1     -10.617   2.123  39.359  1.00  0.00    -0.000 C 
BRANCH  17  18
ATOM     18  C   UNL     1      -9.499   1.255  38.765  1.00  0.00    -0.003 C 
ATOM     19  C   UNL     1      -8.536   0.782  39.851  1.00  0.00     0.004 C 
ENDBRANCH  17  18
ENDBRANCH  16  17
ENDBRANCH  15  16
ENDBRANCH  14  15
ENDBRANCH  13  14
ENDBRANCH  12  13
ENDBRANCH   1  12
TORSDOF 14
ENDMDL
MODEL 9
REMARK VINA RESULT:    -3.308     13.045     15.214
REMARK INTER + INTRA:          -8.106
REMARK INTER:                  -5.588
REMARK INTRA:                  -2.518
REMARK UNBOUND:                -2.091
REMARK SMILES CCCCCCCCCCCCCC[C@@H](C)C(=O)[O-]
REMARK SMILES IDX 9 1 10 2 11 3 12 4 13 5 14 6 15 7 16 8 17 9 18 10 19 11 8 12
REMARK SMILES IDX 7 13 6 14 5 15 4 16 3 17 2 18 1 19
REMARK H PARENT
REMARK Flexibility Score: inf
ROOT
ATOM      1  C   UNL     1      -8.424   2.638  39.528  1.00  0.00     0.000 C 
ENDROOT
BRANCH   1   2
ATOM      2  C   UNL     1      -7.606   1.452  40.065  1.00  0.00     0.000 C 
BRANCH   2   3
ATOM      3  C   UNL     1      -7.643   0.235  39.124  1.00  0.00     0.000 C 
BRANCH   3   4
ATOM      4  C   UNL     1      -6.788   0.441  37.863  1.00  0.00     0.000 C 
BRANCH   4   5
ATOM      5  C   UNL     1      -5.475  -0.359  37.904  1.00  0.00     0.001 C 
BRANCH   5   6
ATOM      6  C   UNL     1      -4.269   0.496  38.337  1.00  0.00     0.009 C 
BRANCH   6   7
ATOM      7  C   UNL     1      -4.438   2.009  38.069  1.00  0.00     0.032 C 
ATOM      8  C   UNL     1      -3.987   2.822  39.287  1.00  0.00     0.014 C 
BRANCH   7   9
ATOM      9  C   UNL     1      -3.672   2.445  36.849  1.00  0.00     0.044 C 
ATOM     10  O   UNL     1      -4.018   2.056  35.701  1.00  0.00    -0.550 OA
ATOM     11  O   UNL     1      -2.577   3.290  36.983  1.00  0.00    -0.550 OA
ENDBRANCH   7   9
ENDBRANCH   6   7
ENDBRANCH   5   6
ENDBRANCH   4   5
ENDBRANCH   3   4
ENDBRANCH   2   3
ENDBRANCH   1   2
BRANCH   1  12
ATOM     12  C   UNL     1      -7.554   3.867  39.227  1.00  0.00     0.000 C 
BRANCH  12  13
ATOM     13  C   UNL     1      -7.641   4.251  37.743  1.00  0.00    -0.000 C 
BRANCH  13  14
ATOM     14  C   UNL     1      -8.539   5.477  37.495  1.00  0.00    -0.000 C 
BRANCH  14  15
ATOM     15  C   UNL     1      -9.672   5.259  36.472  1.00  0.00    -0.000 C 
BRANCH  15  16
ATOM     16  C   UNL     1     -10.623   4.086  36.787  1.00  0.00    -0.000 C 
BRANCH  16  17
ATOM     17  C   UNL     1     -10.622   2.953  35.745  1.00  0.00    -0.000 C 
BRANCH  17  18
ATOM     18  C   UNL     1      -9.943   1.675  36.255  1.00  0.00    -0.003 C 
ATOM     19  C   UNL     1     -10.830   0.946  37.261  1.00  0.00     0.004 C 
ENDBRANCH  17  18
ENDBRANCH  16  17
ENDBRANCH  15  16
ENDBRANCH  14  15
ENDBRANCH  13  14
ENDBRANCH  12  13
ENDBRANCH   1  12
TORSDOF 14
ENDMDL
