MODEL 1
REMARK VINA RESULT:    -5.317      0.000      0.000
REMARK INTER + INTRA:          -6.380
REMARK INTER:                  -6.094
REMARK INTRA:                  -0.286
REMARK UNBOUND:                -0.286
REMARK SMILES O=C1C[C@@H](c2ccc(O)cc2)Oc2cc(O)cc(O)c21
REMARK SMILES IDX 3 1 4 2 12 3 13 4 14 5 15 6 17 7 18 8 20 9 2 10 1 11 5 12
REMARK SMILES IDX 6 13 11 14 7 15 10 16 8 17 9 18 19 20 16 22
REMARK H PARENT 9 19 19 21 16 23
REMARK Flexibility Score: inf
ROOT
ATOM      1  C   UNL     1     134.501 128.666 115.850  1.00  0.00     0.131 C 
ATOM      2  C   UNL     1     134.135 127.263 116.356  1.00  0.00     0.211 C 
ATOM      3  O   UNL     1     132.740 127.007 116.164  1.00  0.00    -0.484 OA
ATOM      4  C   UNL     1     132.047 127.421 115.019  1.00  0.00     0.138 A 
ATOM      5  C   UNL     1     130.773 126.900 114.773  1.00  0.00     0.093 A 
ATOM      6  C   UNL     1     130.064 127.282 113.631  1.00  0.00     0.123 A 
ATOM      7  C   UNL     1     130.618 128.211 112.749  1.00  0.00     0.093 A 
ATOM      8  C   UNL     1     131.875 128.777 112.996  1.00  0.00     0.133 A 
ATOM      9  C   UNL     1     132.620 128.355 114.128  1.00  0.00     0.102 A 
ATOM     10  C   UNL     1     133.988 128.832 114.450  1.00  0.00     0.174 C 
ATOM     11  O   UNL     1     134.744 129.320 113.569  1.00  0.00    -0.294 OA
ENDROOT
BRANCH   2  12
ATOM     12  C   UNL     1     134.493 127.112 117.814  1.00  0.00    -0.007 A 
ATOM     13  C   UNL     1     134.137 128.105 118.744  1.00  0.00     0.011 A 
ATOM     14  C   UNL     1     135.236 126.002 118.249  1.00  0.00     0.011 A 
ATOM     15  C   UNL     1     134.497 127.975 120.089  1.00  0.00     0.046 A 
ATOM     16  C   UNL     1     135.595 125.875 119.595  1.00  0.00     0.046 A 
ATOM     17  C   UNL     1     135.226 126.859 120.517  1.00  0.00     0.115 A 
BRANCH  17  18
ATOM     18  O   UNL     1     135.590 126.718 121.855  1.00  0.00    -0.508 OA
ATOM     19  H   UNL     1     136.446 126.247 122.122  1.00  0.00     0.293 HD
ENDBRANCH  17  18
ENDBRANCH   2  12
BRANCH   8  20
ATOM     20  O   UNL     1     132.318 129.767 112.116  1.00  0.00    -0.507 OA
ATOM     21  H   UNL     1     131.706 130.307 111.521  1.00  0.00     0.293 HD
ENDBRANCH   8  20
BRANCH   6  22
ATOM     22  O   UNL     1     128.803 126.751 113.369  1.00  0.00    -0.508 OA
ATOM     23  H   UNL     1     128.148 127.220 112.754  1.00  0.00     0.293 HD
ENDBRANCH   6  22
TORSDOF 4
ENDMDL
MODEL 2
REMARK VINA RESULT:    -5.138      2.961      7.829
REMARK INTER + INTRA:          -6.174
REMARK INTER:                  -5.891
REMARK INTRA:                  -0.283
REMARK UNBOUND:                -0.286
REMARK SMILES O=C1C[C@@H](c2ccc(O)cc2)Oc2cc(O)cc(O)c21
REMARK SMILES IDX 3 1 4 2 12 3 13 4 14 5 15 6 17 7 18 8 20 9 2 10 1 11 5 12
REMARK SMILES IDX 6 13 11 14 7 15 10 16 8 17 9 18 19 20 16 22
REMARK H PARENT 9 19 19 21 16 23
REMARK Flexibility Score: inf
ROOT
ATOM      1  C   UNL     1     135.230 129.647 118.946  1.00  0.00     0.131 C 
ATOM      2  C   UNL     1     134.797 128.209 119.266  1.00  0.00     0.211 C 
ATOM      3  O   UNL     1     135.925 127.418 119.653  1.00  0.00    -0.484 OA
ATOM      4  C   UNL     1     136.956 127.917 120.460  1.00  0.00     0.138 A 
ATOM      5  C   UNL     1     137.870 127.022 121.022  1.00  0.00     0.093 A 
ATOM      6  C   UNL     1     138.900 127.488 121.844  1.00  0.00     0.123 A 
ATOM      7  C   UNL     1     139.033 128.858 122.078  1.00  0.00     0.093 A 
ATOM      8  C   UNL     1     138.153 129.777 121.493  1.00  0.00     0.133 A 
ATOM      9  C   UNL     1     137.077 129.304 120.698  1.00  0.00     0.102 A 
ATOM     10  C   UNL     1     136.046 130.179 120.087  1.00  0.00     0.174 C 
ATOM     11  O   UNL     1     135.802 131.330 120.536  1.00  0.00    -0.294 OA
ENDROOT
BRANCH   2  12
ATOM     12  C   UNL     1     134.109 127.582 118.077  1.00  0.00    -0.007 A 
ATOM     13  C   UNL     1     134.214 128.165 116.802  1.00  0.00     0.011 A 
ATOM     14  C   UNL     1     133.309 126.439 118.244  1.00  0.00     0.011 A 
ATOM     15  C   UNL     1     133.551 127.598 115.710  1.00  0.00     0.046 A 
ATOM     16  C   UNL     1     132.647 125.875 117.149  1.00  0.00     0.046 A 
ATOM     17  C   UNL     1     132.767 126.450 115.881  1.00  0.00     0.115 A 
BRANCH  17  18
ATOM     18  O   UNL     1     132.101 125.876 114.800  1.00  0.00    -0.508 OA
ATOM     19  H   UNL     1     131.341 126.356 114.332  1.00  0.00     0.293 HD
ENDBRANCH  17  18
ENDBRANCH   2  12
BRANCH   8  20
ATOM     20  O   UNL     1     138.411 131.134 121.701  1.00  0.00    -0.507 OA
ATOM     21  H   UNL     1     137.850 131.730 122.292  1.00  0.00     0.293 HD
ENDBRANCH   8  20
BRANCH   6  22
ATOM     22  O   UNL     1     139.802 126.600 122.424  1.00  0.00    -0.508 OA
ATOM     23  H   UNL     1     139.658 126.233 123.358  1.00  0.00     0.293 HD
ENDBRANCH   6  22
TORSDOF 4
ENDMDL
MODEL 3
REMARK VINA RESULT:    -5.082      2.295      6.948
REMARK INTER + INTRA:          -6.111
REMARK INTER:                  -5.790
REMARK INTRA:                  -0.321
REMARK UNBOUND:                -0.286
REMARK SMILES O=C1C[C@@H](c2ccc(O)cc2)Oc2cc(O)cc(O)c21
REMARK SMILES IDX 3 1 4 2 12 3 13 4 14 5 15 6 17 7 18 8 20 9 2 10 1 11 5 12
REMARK SMILES IDX 6 13 11 14 7 15 10 16 8 17 9 18 19 20 16 22
REMARK H PARENT 9 19 19 21 16 23
REMARK Flexibility Score: inf
ROOT
ATOM      1  C   UNL     1     132.930 126.703 116.383  1.00  0.00     0.131 C 
ATOM      2  C   UNL     1     133.846 127.319 115.316  1.00  0.00     0.211 C 
ATOM      3  O   UNL     1     134.219 128.651 115.681  1.00  0.00    -0.484 OA
ATOM      4  C   UNL     1     134.520 129.017 117.000  1.00  0.00     0.138 A 
ATOM      5  C   UNL     1     135.139 130.247 117.237  1.00  0.00     0.093 A 
ATOM      6  C   UNL     1     135.466 130.632 118.540  1.00  0.00     0.123 A 
ATOM      7  C   UNL     1     135.144 129.797 119.611  1.00  0.00     0.093 A 
ATOM      8  C   UNL     1     134.488 128.578 119.400  1.00  0.00     0.133 A 
ATOM      9  C   UNL     1     134.198 128.160 118.075  1.00  0.00     0.102 A 
ATOM     10  C   UNL     1     133.570 126.861 117.730  1.00  0.00     0.174 C 
ATOM     11  O   UNL     1     133.610 125.876 118.514  1.00  0.00    -0.294 OA
ENDROOT
BRANCH   2  12
ATOM     12  C   UNL     1     133.167 127.323 113.968  1.00  0.00    -0.007 A 
ATOM     13  C   UNL     1     133.116 128.497 113.196  1.00  0.00     0.011 A 
ATOM     14  C   UNL     1     132.527 126.165 113.494  1.00  0.00     0.011 A 
ATOM     15  C   UNL     1     132.460 128.504 111.962  1.00  0.00     0.046 A 
ATOM     16  C   UNL     1     131.871 126.175 112.259  1.00  0.00     0.046 A 
ATOM     17  C   UNL     1     131.837 127.342 111.490  1.00  0.00     0.115 A 
BRANCH  17  18
ATOM     18  O   UNL     1     131.180 127.336 110.261  1.00  0.00    -0.508 OA
ATOM     19  H   UNL     1     131.598 127.749 109.436  1.00  0.00     0.293 HD
ENDBRANCH  17  18
ENDBRANCH   2  12
BRANCH   8  20
ATOM     20  O   UNL     1     134.118 127.845 120.530  1.00  0.00    -0.507 OA
ATOM     21  H   UNL     1     133.530 127.024 120.503  1.00  0.00     0.293 HD
ENDBRANCH   8  20
BRANCH   6  22
ATOM     22  O   UNL     1     136.102 131.847 118.782  1.00  0.00    -0.508 OA
ATOM     23  H   UNL     1     135.627 132.731 118.644  1.00  0.00     0.293 HD
ENDBRANCH   6  22
TORSDOF 4
ENDMDL
MODEL 4
REMARK VINA RESULT:    -5.040      2.080      3.756
REMARK INTER + INTRA:          -6.062
REMARK INTER:                  -5.743
REMARK INTRA:                  -0.319
REMARK UNBOUND:                -0.286
REMARK SMILES O=C1C[C@@H](c2ccc(O)cc2)Oc2cc(O)cc(O)c21
REMARK SMILES IDX 3 1 4 2 12 3 13 4 14 5 15 6 17 7 18 8 20 9 2 10 1 11 5 12
REMARK SMILES IDX 6 13 11 14 7 15 10 16 8 17 9 18 19 20 16 22
REMARK H PARENT 9 19 19 21 16 23
REMARK Flexibility Score: inf
ROOT
ATOM      1  C   UNL     1     134.124 126.756 118.438  1.00  0.00     0.131 C 
ATOM      2  C   UNL     1     134.293 128.228 118.843  1.00  0.00     0.211 C 
ATOM      3  O   UNL     1     134.846 128.987 117.764  1.00  0.00    -0.484 OA
ATOM      4  C   UNL     1     134.474 128.782 116.428  1.00  0.00     0.138 A 
ATOM      5  C   UNL     1     134.837 129.733 115.471  1.00  0.00     0.093 A 
ATOM      6  C   UNL     1     134.467 129.563 114.134  1.00  0.00     0.123 A 
ATOM      7  C   UNL     1     133.759 128.424 113.749  1.00  0.00     0.093 A 
ATOM      8  C   UNL     1     133.419 127.438 114.685  1.00  0.00     0.133 A 
ATOM      9  C   UNL     1     133.750 127.630 116.052  1.00  0.00     0.102 A 
ATOM     10  C   UNL     1     133.380 126.688 117.138  1.00  0.00     0.174 C 
ATOM     11  O   UNL     1     132.425 125.876 117.014  1.00  0.00    -0.294 OA
ENDROOT
BRANCH   2  12
ATOM     12  C   UNL     1     135.174 128.347 120.064  1.00  0.00    -0.007 A 
ATOM     13  C   UNL     1     136.060 129.431 120.203  1.00  0.00     0.011 A 
ATOM     14  C   UNL     1     135.160 127.344 121.048  1.00  0.00     0.011 A 
ATOM     15  C   UNL     1     136.895 129.520 121.320  1.00  0.00     0.046 A 
ATOM     16  C   UNL     1     135.997 127.438 122.163  1.00  0.00     0.046 A 
ATOM     17  C   UNL     1     136.864 128.524 122.304  1.00  0.00     0.115 A 
BRANCH  17  18
ATOM     18  O   UNL     1     137.692 128.603 123.422  1.00  0.00    -0.508 OA
ATOM     19  H   UNL     1     137.605 129.358 124.092  1.00  0.00     0.293 HD
ENDBRANCH  17  18
ENDBRANCH   2  12
BRANCH   8  20
ATOM     20  O   UNL     1     132.793 126.286 114.204  1.00  0.00    -0.507 OA
ATOM     21  H   UNL     1     132.858 125.965 113.249  1.00  0.00     0.293 HD
ENDBRANCH   8  20
BRANCH   6  22
ATOM     22  O   UNL     1     134.807 130.517 113.177  1.00  0.00    -0.508 OA
ATOM     23  H   UNL     1     135.659 130.442 112.633  1.00  0.00     0.293 HD
ENDBRANCH   6  22
TORSDOF 4
ENDMDL
MODEL 5
REMARK VINA RESULT:    -5.002      2.564      7.564
REMARK INTER + INTRA:          -6.019
REMARK INTER:                  -5.723
REMARK INTRA:                  -0.297
REMARK UNBOUND:                -0.286
REMARK SMILES O=C1C[C@@H](c2ccc(O)cc2)Oc2cc(O)cc(O)c21
REMARK SMILES IDX 3 1 4 2 12 3 13 4 14 5 15 6 17 7 18 8 20 9 2 10 1 11 5 12
REMARK SMILES IDX 6 13 11 14 7 15 10 16 8 17 9 18 19 20 16 22
REMARK H PARENT 9 19 19 21 16 23
REMARK Flexibility Score: inf
ROOT
ATOM      1  C   UNL     1     135.337 129.344 118.597  1.00  0.00     0.131 C 
ATOM      2  C   UNL     1     134.253 128.268 118.751  1.00  0.00     0.211 C 
ATOM      3  O   UNL     1     134.665 127.268 119.688  1.00  0.00    -0.484 OA
ATOM      4  C   UNL     1     135.361 127.577 120.864  1.00  0.00     0.138 A 
ATOM      5  C   UNL     1     135.483 126.599 121.855  1.00  0.00     0.093 A 
ATOM      6  C   UNL     1     136.158 126.883 123.046  1.00  0.00     0.123 A 
ATOM      7  C   UNL     1     136.738 128.138 123.232  1.00  0.00     0.093 A 
ATOM      8  C   UNL     1     136.663 129.120 122.236  1.00  0.00     0.133 A 
ATOM      9  C   UNL     1     135.937 128.854 121.046  1.00  0.00     0.102 A 
ATOM     10  C   UNL     1     135.732 129.840 119.957  1.00  0.00     0.174 C 
ATOM     11  O   UNL     1     135.828 131.080 120.158  1.00  0.00    -0.294 OA
ENDROOT
BRANCH   2  12
ATOM     12  C   UNL     1     133.942 127.631 117.418  1.00  0.00    -0.007 A 
ATOM     13  C   UNL     1     134.542 128.108 116.240  1.00  0.00     0.011 A 
ATOM     14  C   UNL     1     133.003 126.588 117.334  1.00  0.00     0.011 A 
ATOM     15  C   UNL     1     134.228 127.535 115.004  1.00  0.00     0.046 A 
ATOM     16  C   UNL     1     132.692 126.017 116.096  1.00  0.00     0.046 A 
ATOM     17  C   UNL     1     133.303 126.486 114.930  1.00  0.00     0.115 A 
BRANCH  17  18
ATOM     18  O   UNL     1     132.982 125.907 113.705  1.00  0.00    -0.508 OA
ATOM     19  H   UNL     1     132.605 124.968 113.646  1.00  0.00     0.293 HD
ENDBRANCH  17  18
ENDBRANCH   2  12
BRANCH   8  20
ATOM     20  O   UNL     1     137.349 130.316 122.461  1.00  0.00    -0.507 OA
ATOM     21  H   UNL     1     138.353 130.409 122.408  1.00  0.00     0.293 HD
ENDBRANCH   8  20
BRANCH   6  22
ATOM     22  O   UNL     1     136.265 125.920 124.047  1.00  0.00    -0.508 OA
ATOM     23  H   UNL     1     136.598 126.155 124.975  1.00  0.00     0.293 HD
ENDBRANCH   6  22
TORSDOF 4
ENDMDL
MODEL 6
REMARK VINA RESULT:    -4.708      4.429     10.152
REMARK INTER + INTRA:          -5.682
REMARK INTER:                  -5.364
REMARK INTRA:                  -0.318
REMARK UNBOUND:                -0.286
REMARK SMILES O=C1C[C@@H](c2ccc(O)cc2)Oc2cc(O)cc(O)c21
REMARK SMILES IDX 3 1 4 2 12 3 13 4 14 5 15 6 17 7 18 8 20 9 2 10 1 11 5 12
REMARK SMILES IDX 6 13 11 14 7 15 10 16 8 17 9 18 19 20 16 22
REMARK H PARENT 9 19 19 21 16 23
REMARK Flexibility Score: inf
ROOT
ATOM      1  C   UNL     1     138.247 126.314 121.934  1.00  0.00     0.131 C 
ATOM      2  C   UNL     1     137.700 127.624 121.350  1.00  0.00     0.211 C 
ATOM      3  O   UNL     1     137.327 128.525 122.397  1.00  0.00    -0.484 OA
ATOM      4  C   UNL     1     138.078 128.671 123.571  1.00  0.00     0.138 A 
ATOM      5  C   UNL     1     137.815 129.755 124.413  1.00  0.00     0.093 A 
ATOM      6  C   UNL     1     138.558 129.935 125.584  1.00  0.00     0.123 A 
ATOM      7  C   UNL     1     139.546 129.011 125.927  1.00  0.00     0.093 A 
ATOM      8  C   UNL     1     139.799 127.895 125.118  1.00  0.00     0.133 A 
ATOM      9  C   UNL     1     139.081 127.735 123.905  1.00  0.00     0.102 A 
ATOM     10  C   UNL     1     139.315 126.633 122.939  1.00  0.00     0.174 C 
ATOM     11  O   UNL     1     140.403 125.999 122.906  1.00  0.00    -0.294 OA
ENDROOT
BRANCH   2  12
ATOM     12  C   UNL     1     136.515 127.354 120.454  1.00  0.00    -0.007 A 
ATOM     13  C   UNL     1     135.466 128.285 120.356  1.00  0.00     0.011 A 
ATOM     14  C   UNL     1     136.423 126.142 119.749  1.00  0.00     0.011 A 
ATOM     15  C   UNL     1     134.357 128.018 119.548  1.00  0.00     0.046 A 
ATOM     16  C   UNL     1     135.312 125.878 118.942  1.00  0.00     0.046 A 
ATOM     17  C   UNL     1     134.278 126.813 118.838  1.00  0.00     0.115 A 
BRANCH  17  18
ATOM     18  O   UNL     1     133.178 126.535 118.029  1.00  0.00    -0.508 OA
ATOM     19  H   UNL     1     133.258 126.507 117.019  1.00  0.00     0.293 HD
ENDBRANCH  17  18
ENDBRANCH   2  12
BRANCH   8  20
ATOM     20  O   UNL     1     140.738 126.969 125.579  1.00  0.00    -0.507 OA
ATOM     21  H   UNL     1     140.801 126.659 126.538  1.00  0.00     0.293 HD
ENDBRANCH   8  20
BRANCH   6  22
ATOM     22  O   UNL     1     138.315 131.024 126.417  1.00  0.00    -0.508 OA
ATOM     23  H   UNL     1     138.547 131.969 126.134  1.00  0.00     0.293 HD
ENDBRANCH   6  22
TORSDOF 4
ENDMDL
MODEL 7
REMARK VINA RESULT:    -4.682      6.644     12.525
REMARK INTER + INTRA:          -5.652
REMARK INTER:                  -5.346
REMARK INTRA:                  -0.307
REMARK UNBOUND:                -0.286
REMARK SMILES O=C1C[C@@H](c2ccc(O)cc2)Oc2cc(O)cc(O)c21
REMARK SMILES IDX 3 1 4 2 12 3 13 4 14 5 15 6 17 7 18 8 20 9 2 10 1 11 5 12
REMARK SMILES IDX 6 13 11 14 7 15 10 16 8 17 9 18 19 20 16 22
REMARK H PARENT 9 19 19 21 16 23
REMARK Flexibility Score: inf
ROOT
ATOM      1  C   UNL     1     138.528 128.883 124.826  1.00  0.00     0.131 C 
ATOM      2  C   UNL     1     138.456 127.389 124.479  1.00  0.00     0.211 C 
ATOM      3  O   UNL     1     139.766 126.815 124.454  1.00  0.00    -0.484 OA
ATOM      4  C   UNL     1     140.760 127.158 125.381  1.00  0.00     0.138 A 
ATOM      5  C   UNL     1     141.907 126.365 125.470  1.00  0.00     0.093 A 
ATOM      6  C   UNL     1     142.907 126.674 126.395  1.00  0.00     0.123 A 
ATOM      7  C   UNL     1     142.773 127.797 127.212  1.00  0.00     0.093 A 
ATOM      8  C   UNL     1     141.651 128.629 127.113  1.00  0.00     0.133 A 
ATOM      9  C   UNL     1     140.610 128.292 126.209  1.00  0.00     0.102 A 
ATOM     10  C   UNL     1     139.347 129.060 126.070  1.00  0.00     0.174 C 
ATOM     11  O   UNL     1     138.922 129.809 126.988  1.00  0.00    -0.294 OA
ENDROOT
BRANCH   2  12
ATOM     12  C   UNL     1     137.775 127.182 123.148  1.00  0.00    -0.007 A 
ATOM     13  C   UNL     1     138.531 127.088 121.965  1.00  0.00     0.011 A 
ATOM     14  C   UNL     1     136.373 127.139 123.069  1.00  0.00     0.011 A 
ATOM     15  C   UNL     1     137.894 126.928 120.731  1.00  0.00     0.046 A 
ATOM     16  C   UNL     1     135.740 126.978 121.833  1.00  0.00     0.046 A 
ATOM     17  C   UNL     1     136.497 126.870 120.663  1.00  0.00     0.115 A 
BRANCH  17  18
ATOM     18  O   UNL     1     135.851 126.710 119.439  1.00  0.00    -0.508 OA
ATOM     19  H   UNL     1     134.990 127.200 119.227  1.00  0.00     0.293 HD
ENDBRANCH  17  18
ENDBRANCH   2  12
BRANCH   8  20
ATOM     20  O   UNL     1     141.636 129.784 127.899  1.00  0.00    -0.507 OA
ATOM     21  H   UNL     1     140.800 130.182 128.301  1.00  0.00     0.293 HD
ENDBRANCH   8  20
BRANCH   6  22
ATOM     22  O   UNL     1     144.044 125.875 126.504  1.00  0.00    -0.508 OA
ATOM     23  H   UNL     1     144.632 125.900 127.329  1.00  0.00     0.293 HD
ENDBRANCH   6  22
TORSDOF 4
ENDMDL
MODEL 8
REMARK VINA RESULT:    -4.669      1.823      2.413
REMARK INTER + INTRA:          -5.637
REMARK INTER:                  -5.326
REMARK INTRA:                  -0.310
REMARK UNBOUND:                -0.286
REMARK SMILES O=C1C[C@@H](c2ccc(O)cc2)Oc2cc(O)cc(O)c21
REMARK SMILES IDX 3 1 4 2 12 3 13 4 14 5 15 6 17 7 18 8 20 9 2 10 1 11 5 12
REMARK SMILES IDX 6 13 11 14 7 15 10 16 8 17 9 18 19 20 16 22
REMARK H PARENT 9 19 19 21 16 23
REMARK Flexibility Score: inf
ROOT
ATOM      1  C   UNL     1     134.304 129.804 114.485  1.00  0.00     0.131 C 
ATOM      2  C   UNL     1     134.254 128.310 114.838  1.00  0.00     0.211 C 
ATOM      3  O   UNL     1     133.111 127.690 114.243  1.00  0.00    -0.484 OA
ATOM      4  C   UNL     1     132.666 128.006 112.952  1.00  0.00     0.138 A 
ATOM      5  C   UNL     1     131.728 127.174 112.336  1.00  0.00     0.093 A 
ATOM      6  C   UNL     1     131.278 127.455 111.043  1.00  0.00     0.123 A 
ATOM      7  C   UNL     1     131.745 128.589 110.377  1.00  0.00     0.093 A 
ATOM      8  C   UNL     1     132.655 129.459 110.991  1.00  0.00     0.133 A 
ATOM      9  C   UNL     1     133.153 129.151 112.284  1.00  0.00     0.102 A 
ATOM     10  C   UNL     1     134.170 129.961 112.999  1.00  0.00     0.174 C 
ATOM     11  O   UNL     1     134.955 130.732 112.386  1.00  0.00    -0.294 OA
ENDROOT
BRANCH   2  12
ATOM     12  C   UNL     1     134.227 128.117 116.335  1.00  0.00    -0.007 A 
ATOM     13  C   UNL     1     133.815 126.892 116.891  1.00  0.00     0.011 A 
ATOM     14  C   UNL     1     134.559 129.180 117.192  1.00  0.00     0.011 A 
ATOM     15  C   UNL     1     133.762 126.728 118.278  1.00  0.00     0.046 A 
ATOM     16  C   UNL     1     134.505 129.012 118.579  1.00  0.00     0.046 A 
ATOM     17  C   UNL     1     134.109 127.788 119.126  1.00  0.00     0.115 A 
BRANCH  17  18
ATOM     18  O   UNL     1     134.060 127.636 120.510  1.00  0.00    -0.508 OA
ATOM     19  H   UNL     1     133.491 128.242 121.088  1.00  0.00     0.293 HD
ENDBRANCH  17  18
ENDBRANCH   2  12
BRANCH   8  20
ATOM     20  O   UNL     1     133.002 130.620 110.295  1.00  0.00    -0.507 OA
ATOM     21  H   UNL     1     132.910 130.727 109.295  1.00  0.00     0.293 HD
ENDBRANCH   8  20
BRANCH   6  22
ATOM     22  O   UNL     1     130.358 126.618 110.415  1.00  0.00    -0.508 OA
ATOM     23  H   UNL     1     129.583 126.990 109.878  1.00  0.00     0.293 HD
ENDBRANCH   6  22
TORSDOF 4
ENDMDL
MODEL 9
REMARK VINA RESULT:    -4.654      4.398      6.984
REMARK INTER + INTRA:          -5.620
REMARK INTER:                  -5.327
REMARK INTRA:                  -0.293
REMARK UNBOUND:                -0.286
REMARK SMILES O=C1C[C@@H](c2ccc(O)cc2)Oc2cc(O)cc(O)c21
REMARK SMILES IDX 3 1 4 2 12 3 13 4 14 5 15 6 17 7 18 8 20 9 2 10 1 11 5 12
REMARK SMILES IDX 6 13 11 14 7 15 10 16 8 17 9 18 19 20 16 22
REMARK H PARENT 9 19 19 21 16 23
REMARK Flexibility Score: inf
ROOT
ATOM      1  C   UNL     1     137.626 129.461 122.052  1.00  0.00     0.131 C 
ATOM      2  C   UNL     1     138.308 128.134 121.690  1.00  0.00     0.211 C 
ATOM      3  O   UNL     1     137.346 127.187 121.214  1.00  0.00    -0.484 OA
ATOM      4  C   UNL     1     136.279 127.549 120.381  1.00  0.00     0.138 A 
ATOM      5  C   UNL     1     135.553 126.544 119.736  1.00  0.00     0.093 A 
ATOM      6  C   UNL     1     134.493 126.875 118.887  1.00  0.00     0.123 A 
ATOM      7  C   UNL     1     134.140 128.213 118.708  1.00  0.00     0.093 A 
ATOM      8  C   UNL     1     134.827 129.234 119.375  1.00  0.00     0.133 A 
ATOM      9  C   UNL     1     135.935 128.907 120.200  1.00  0.00     0.102 A 
ATOM     10  C   UNL     1     136.778 129.908 120.898  1.00  0.00     0.174 C 
ATOM     11  O   UNL     1     136.842 131.106 120.513  1.00  0.00    -0.294 OA
ENDROOT
BRANCH   2  12
ATOM     12  C   UNL     1     139.043 127.570 122.882  1.00  0.00    -0.007 A 
ATOM     13  C   UNL     1     139.041 128.252 124.112  1.00  0.00     0.011 A 
ATOM     14  C   UNL     1     139.785 126.383 122.759  1.00  0.00     0.011 A 
ATOM     15  C   UNL     1     139.748 127.741 125.204  1.00  0.00     0.046 A 
ATOM     16  C   UNL     1     140.491 125.875 123.853  1.00  0.00     0.046 A 
ATOM     17  C   UNL     1     140.474 126.550 125.078  1.00  0.00     0.115 A 
BRANCH  17  18
ATOM     18  O   UNL     1     141.182 126.031 126.159  1.00  0.00    -0.508 OA
ATOM     19  H   UNL     1     140.818 126.082 127.103  1.00  0.00     0.293 HD
ENDBRANCH  17  18
ENDBRANCH   2  12
BRANCH   8  20
ATOM     20  O   UNL     1     134.353 130.538 119.216  1.00  0.00    -0.507 OA
ATOM     21  H   UNL     1     134.202 130.978 118.319  1.00  0.00     0.293 HD
ENDBRANCH   8  20
BRANCH   6  22
ATOM     22  O   UNL     1     133.778 125.879 118.224  1.00  0.00    -0.508 OA
ATOM     23  H   UNL     1     134.152 125.416 117.405  1.00  0.00     0.293 HD
ENDBRANCH   6  22
TORSDOF 4
ENDMDL
