MODEL 1
REMARK VINA RESULT:    -4.326      0.000      0.000
REMARK INTER + INTRA:         -10.579
REMARK INTER:                  -8.373
REMARK INTRA:                  -2.206
REMARK UNBOUND:                -2.206
REMARK SMILES CCCCCCCCCCCCCCCCCC(=O)[O-]
REMARK SMILES IDX 10 1 11 2 12 3 13 4 14 5 15 6 16 7 17 8 18 9 19 10 20 11
REMARK SMILES IDX 9 12 8 13 7 14 6 15 5 16 4 17 3 18 2 19 1 20
REMARK H PARENT
REMARK Flexibility Score: inf
ROOT
ATOM      1  C   UNL     1       3.804  11.767  81.088  1.00  0.00     0.000 C 
ENDROOT
BRANCH   1   2
ATOM      2  C   UNL     1       4.536  11.895  82.441  1.00  0.00     0.000 C 
BRANCH   2   3
ATOM      3  C   UNL     1       4.981  10.527  82.990  1.00  0.00     0.000 C 
BRANCH   3   4
ATOM      4  C   UNL     1       4.332   9.349  82.246  1.00  0.00     0.000 C 
BRANCH   4   5
ATOM      5  C   UNL     1       5.334   8.233  81.915  1.00  0.00     0.000 C 
BRANCH   5   6
ATOM      6  C   UNL     1       6.727   8.814  81.626  1.00  0.00     0.000 C 
BRANCH   6   7
ATOM      7  C   UNL     1       7.285   8.379  80.259  1.00  0.00     0.006 C 
BRANCH   7   8
ATOM      8  C   UNL     1       7.055   6.897  79.922  1.00  0.00     0.053 C 
BRANCH   8   9
ATOM      9  C   UNL     1       8.336   6.182  79.621  1.00  0.00     0.041 C 
ATOM     10  O   UNL     1       8.505   4.995  80.007  1.00  0.00    -0.550 OA
ATOM     11  O   UNL     1       9.329   6.815  78.884  1.00  0.00    -0.550 OA
ENDBRANCH   8   9
ENDBRANCH   7   8
ENDBRANCH   6   7
ENDBRANCH   5   6
ENDBRANCH   4   5
ENDBRANCH   3   4
ENDBRANCH   2   3
ENDBRANCH   1   2
BRANCH   1  12
ATOM     12  C   UNL     1       2.602  12.718  80.947  1.00  0.00     0.000 C 
BRANCH  12  13
ATOM     13  C   UNL     1       1.407  12.300  81.813  1.00  0.00    -0.000 C 
BRANCH  13  14
ATOM     14  C   UNL     1       0.999  10.850  81.527  1.00  0.00    -0.000 C 
BRANCH  14  15
ATOM     15  C   UNL     1       0.739  10.084  82.833  1.00  0.00    -0.000 C 
BRANCH  15  16
ATOM     16  C   UNL     1       1.312  10.804  84.063  1.00  0.00    -0.000 C 
BRANCH  16  17
ATOM     17  C   UNL     1       1.331   9.911  85.317  1.00  0.00    -0.000 C 
BRANCH  17  18
ATOM     18  C   UNL     1       2.627   9.080  85.419  1.00  0.00    -0.000 C 
BRANCH  18  19
ATOM     19  C   UNL     1       2.424   7.703  86.074  1.00  0.00    -0.003 C 
ATOM     20  C   UNL     1       3.000   6.555  85.249  1.00  0.00     0.004 C 
ENDBRANCH  18  19
ENDBRANCH  17  18
ENDBRANCH  16  17
ENDBRANCH  15  16
ENDBRANCH  14  15
ENDBRANCH  13  14
ENDBRANCH  12  13
ENDBRANCH   1  12
TORSDOF 16
ENDMDL
MODEL 2
REMARK VINA RESULT:    -4.247      1.693      3.460
REMARK INTER + INTRA:         -10.425
REMARK INTER:                  -9.429
REMARK INTRA:                  -0.996
REMARK UNBOUND:                -2.206
REMARK SMILES CCCCCCCCCCCCCCCCCC(=O)[O-]
REMARK SMILES IDX 10 1 11 2 12 3 13 4 14 5 15 6 16 7 17 8 18 9 19 10 20 11
REMARK SMILES IDX 9 12 8 13 7 14 6 15 5 16 4 17 3 18 2 19 1 20
REMARK H PARENT
REMARK Flexibility Score: inf
ROOT
ATOM      1  C   UNL     1       3.223   9.140  83.011  1.00  0.00     0.000 C 
ENDROOT
BRANCH   1   2
ATOM      2  C   UNL     1       3.765  10.578  82.867  1.00  0.00     0.000 C 
BRANCH   2   3
ATOM      3  C   UNL     1       5.275  10.601  82.567  1.00  0.00     0.000 C 
BRANCH   3   4
ATOM      4  C   UNL     1       5.626   9.913  81.238  1.00  0.00     0.000 C 
BRANCH   4   5
ATOM      5  C   UNL     1       6.595   8.735  81.420  1.00  0.00     0.000 C 
BRANCH   5   6
ATOM      6  C   UNL     1       7.759   8.821  80.421  1.00  0.00     0.000 C 
BRANCH   6   7
ATOM      7  C   UNL     1       7.696   7.731  79.335  1.00  0.00     0.006 C 
BRANCH   7   8
ATOM      8  C   UNL     1       7.658   6.294  79.879  1.00  0.00     0.053 C 
BRANCH   8   9
ATOM      9  C   UNL     1       8.976   5.599  79.724  1.00  0.00     0.041 C 
ATOM     10  O   UNL     1       9.934   6.180  79.150  1.00  0.00    -0.550 OA
ATOM     11  O   UNL     1       9.156   4.324  80.244  1.00  0.00    -0.550 OA
ENDBRANCH   8   9
ENDBRANCH   7   8
ENDBRANCH   6   7
ENDBRANCH   5   6
ENDBRANCH   4   5
ENDBRANCH   3   4
ENDBRANCH   2   3
ENDBRANCH   1   2
BRANCH   1  12
ATOM     12  C   UNL     1       2.149   8.994  84.102  1.00  0.00     0.000 C 
BRANCH  12  13
ATOM     13  C   UNL     1       2.549   9.658  85.427  1.00  0.00    -0.000 C 
BRANCH  13  14
ATOM     14  C   UNL     1       2.673   8.618  86.547  1.00  0.00    -0.000 C 
BRANCH  14  15
ATOM     15  C   UNL     1       1.349   7.863  86.746  1.00  0.00    -0.000 C 
BRANCH  15  16
ATOM     16  C   UNL     1       1.532   6.338  86.723  1.00  0.00    -0.000 C 
BRANCH  16  17
ATOM     17  C   UNL     1       2.442   5.869  85.573  1.00  0.00    -0.000 C 
BRANCH  17  18
ATOM     18  C   UNL     1       2.954   4.429  85.788  1.00  0.00    -0.000 C 
BRANCH  18  19
ATOM     19  C   UNL     1       2.340   3.735  87.016  1.00  0.00    -0.003 C 
ATOM     20  C   UNL     1       3.251   2.672  87.623  1.00  0.00     0.004 C 
ENDBRANCH  18  19
ENDBRANCH  17  18
ENDBRANCH  16  17
ENDBRANCH  15  16
ENDBRANCH  14  15
ENDBRANCH  13  14
ENDBRANCH  12  13
ENDBRANCH   1  12
TORSDOF 16
ENDMDL
MODEL 3
REMARK VINA RESULT:    -4.204      1.464      3.169
REMARK INTER + INTRA:         -10.343
REMARK INTER:                  -8.661
REMARK INTRA:                  -1.681
REMARK UNBOUND:                -2.206
REMARK SMILES CCCCCCCCCCCCCCCCCC(=O)[O-]
REMARK SMILES IDX 10 1 11 2 12 3 13 4 14 5 15 6 16 7 17 8 18 9 19 10 20 11
REMARK SMILES IDX 9 12 8 13 7 14 6 15 5 16 4 17 3 18 2 19 1 20
REMARK H PARENT
REMARK Flexibility Score: inf
ROOT
ATOM      1  C   UNL     1       1.958   9.613  84.196  1.00  0.00     0.000 C 
ENDROOT
BRANCH   1   2
ATOM      2  C   UNL     1       2.206   9.851  82.692  1.00  0.00     0.000 C 
BRANCH   2   3
ATOM      3  C   UNL     1       3.049  11.113  82.435  1.00  0.00     0.000 C 
BRANCH   3   4
ATOM      4  C   UNL     1       4.371  10.809  81.714  1.00  0.00     0.000 C 
BRANCH   4   5
ATOM      5  C   UNL     1       5.302   9.909  82.540  1.00  0.00     0.000 C 
BRANCH   5   6
ATOM      6  C   UNL     1       5.438   8.521  81.896  1.00  0.00     0.000 C 
BRANCH   6   7
ATOM      7  C   UNL     1       6.782   8.328  81.170  1.00  0.00     0.006 C 
BRANCH   7   8
ATOM      8  C   UNL     1       6.795   7.174  80.155  1.00  0.00     0.053 C 
BRANCH   8   9
ATOM      9  C   UNL     1       8.185   6.825  79.717  1.00  0.00     0.041 C 
ATOM     10  O   UNL     1       8.568   5.625  79.726  1.00  0.00    -0.550 OA
ATOM     11  O   UNL     1       9.043   7.819  79.266  1.00  0.00    -0.550 OA
ENDBRANCH   8   9
ENDBRANCH   7   8
ENDBRANCH   6   7
ENDBRANCH   5   6
ENDBRANCH   4   5
ENDBRANCH   3   4
ENDBRANCH   2   3
ENDBRANCH   1   2
BRANCH   1  12
ATOM     12  C   UNL     1       1.373  10.836  84.924  1.00  0.00     0.000 C 
BRANCH  12  13
ATOM     13  C   UNL     1       1.222  10.617  86.435  1.00  0.00    -0.000 C 
BRANCH  13  14
ATOM     14  C   UNL     1       2.471   9.946  87.020  1.00  0.00    -0.000 C 
BRANCH  14  15
ATOM     15  C   UNL     1       2.086   8.791  87.958  1.00  0.00    -0.000 C 
BRANCH  15  16
ATOM     16  C   UNL     1       0.606   8.398  87.832  1.00  0.00    -0.000 C 
BRANCH  16  17
ATOM     17  C   UNL     1       0.415   6.895  87.561  1.00  0.00    -0.000 C 
BRANCH  17  18
ATOM     18  C   UNL     1       0.758   6.518  86.104  1.00  0.00    -0.000 C 
BRANCH  18  19
ATOM     19  C   UNL     1       2.057   5.704  85.970  1.00  0.00    -0.003 C 
ATOM     20  C   UNL     1       3.113   6.396  85.112  1.00  0.00     0.004 C 
ENDBRANCH  18  19
ENDBRANCH  17  18
ENDBRANCH  16  17
ENDBRANCH  15  16
ENDBRANCH  14  15
ENDBRANCH  13  14
ENDBRANCH  12  13
ENDBRANCH   1  12
TORSDOF 16
ENDMDL
MODEL 4
REMARK VINA RESULT:    -4.115      2.908      6.564
REMARK INTER + INTRA:         -10.170
REMARK INTER:                  -8.340
REMARK INTRA:                  -1.830
REMARK UNBOUND:                -2.206
REMARK SMILES CCCCCCCCCCCCCCCCCC(=O)[O-]
REMARK SMILES IDX 10 1 11 2 12 3 13 4 14 5 15 6 16 7 17 8 18 9 19 10 20 11
REMARK SMILES IDX 9 12 8 13 7 14 6 15 5 16 4 17 3 18 2 19 1 20
REMARK H PARENT
REMARK Flexibility Score: inf
ROOT
ATOM      1  C   UNL     1       1.406  11.203  84.952  1.00  0.00     0.000 C 
ENDROOT
BRANCH   1   2
ATOM      2  C   UNL     1       2.388  11.134  86.140  1.00  0.00     0.000 C 
BRANCH   2   3
ATOM      3  C   UNL     1       2.955   9.717  86.341  1.00  0.00     0.000 C 
BRANCH   3   4
ATOM      4  C   UNL     1       2.593   9.121  87.711  1.00  0.00     0.000 C 
BRANCH   4   5
ATOM      5  C   UNL     1       1.133   9.389  88.105  1.00  0.00     0.000 C 
BRANCH   5   6
ATOM      6  C   UNL     1       0.202   8.310  87.530  1.00  0.00     0.000 C 
BRANCH   6   7
ATOM      7  C   UNL     1       0.892   6.942  87.383  1.00  0.00     0.006 C 
BRANCH   7   8
ATOM      8  C   UNL     1       0.982   6.428  85.937  1.00  0.00     0.053 C 
BRANCH   8   9
ATOM      9  C   UNL     1       2.310   5.800  85.645  1.00  0.00     0.041 C 
ATOM     10  O   UNL     1       2.560   4.632  86.046  1.00  0.00    -0.550 OA
ATOM     11  O   UNL     1       3.258   6.489  84.900  1.00  0.00    -0.550 OA
ENDBRANCH   8   9
ENDBRANCH   7   8
ENDBRANCH   6   7
ENDBRANCH   5   6
ENDBRANCH   4   5
ENDBRANCH   3   4
ENDBRANCH   2   3
ENDBRANCH   1   2
BRANCH   1  12
ATOM     12  C   UNL     1       1.125   9.835  84.305  1.00  0.00     0.000 C 
BRANCH  12  13
ATOM     13  C   UNL     1       1.368   9.830  82.790  1.00  0.00    -0.000 C 
BRANCH  13  14
ATOM     14  C   UNL     1       2.750  10.404  82.453  1.00  0.00    -0.000 C 
BRANCH  14  15
ATOM     15  C   UNL     1       3.844   9.339  82.623  1.00  0.00    -0.000 C 
BRANCH  15  16
ATOM     16  C   UNL     1       5.255   9.900  82.388  1.00  0.00    -0.000 C 
BRANCH  16  17
ATOM     17  C   UNL     1       6.253   8.822  81.929  1.00  0.00    -0.000 C 
BRANCH  17  18
ATOM     18  C   UNL     1       6.867   9.147  80.551  1.00  0.00    -0.000 C 
BRANCH  18  19
ATOM     19  C   UNL     1       7.863   8.084  80.056  1.00  0.00    -0.003 C 
ATOM     20  C   UNL     1       7.247   6.692  79.943  1.00  0.00     0.004 C 
ENDBRANCH  18  19
ENDBRANCH  17  18
ENDBRANCH  16  17
ENDBRANCH  15  16
ENDBRANCH  14  15
ENDBRANCH  13  14
ENDBRANCH  12  13
ENDBRANCH   1  12
TORSDOF 16
ENDMDL
MODEL 5
REMARK VINA RESULT:    -4.110      1.335      3.949
REMARK INTER + INTRA:         -10.160
REMARK INTER:                  -8.147
REMARK INTRA:                  -2.013
REMARK UNBOUND:                -2.206
REMARK SMILES CCCCCCCCCCCCCCCCCC(=O)[O-]
REMARK SMILES IDX 10 1 11 2 12 3 13 4 14 5 15 6 16 7 17 8 18 9 19 10 20 11
REMARK SMILES IDX 9 12 8 13 7 14 6 15 5 16 4 17 3 18 2 19 1 20
REMARK H PARENT
REMARK Flexibility Score: inf
ROOT
ATOM      1  C   UNL     1       2.630   9.759  84.191  1.00  0.00     0.000 C 
ENDROOT
BRANCH   1   2
ATOM      2  C   UNL     1       3.678  10.880  84.354  1.00  0.00     0.000 C 
BRANCH   2   3
ATOM      3  C   UNL     1       4.851  10.724  83.369  1.00  0.00     0.000 C 
BRANCH   3   4
ATOM      4  C   UNL     1       4.501   9.836  82.164  1.00  0.00     0.000 C 
BRANCH   4   5
ATOM      5  C   UNL     1       5.293   8.520  82.150  1.00  0.00     0.000 C 
BRANCH   5   6
ATOM      6  C   UNL     1       6.615   8.682  81.386  1.00  0.00     0.000 C 
BRANCH   6   7
ATOM      7  C   UNL     1       6.924   7.487  80.465  1.00  0.00     0.006 C 
BRANCH   7   8
ATOM      8  C   UNL     1       7.928   7.793  79.342  1.00  0.00     0.053 C 
BRANCH   8   9
ATOM      9  C   UNL     1       9.005   6.756  79.252  1.00  0.00     0.041 C 
ATOM     10  O   UNL     1      10.210   7.104  79.139  1.00  0.00    -0.550 OA
ATOM     11  O   UNL     1       8.682   5.408  79.331  1.00  0.00    -0.550 OA
ENDBRANCH   8   9
ENDBRANCH   7   8
ENDBRANCH   6   7
ENDBRANCH   5   6
ENDBRANCH   4   5
ENDBRANCH   3   4
ENDBRANCH   2   3
ENDBRANCH   1   2
BRANCH   1  12
ATOM     12  C   UNL     1       1.205  10.281  83.937  1.00  0.00     0.000 C 
BRANCH  12  13
ATOM     13  C   UNL     1       0.695   9.965  82.525  1.00  0.00    -0.000 C 
BRANCH  13  14
ATOM     14  C   UNL     1       0.106  11.215  81.860  1.00  0.00    -0.000 C 
BRANCH  14  15
ATOM     15  C   UNL     1       1.103  11.832  80.867  1.00  0.00    -0.000 C 
BRANCH  15  16
ATOM     16  C   UNL     1       1.806  13.074  81.434  1.00  0.00    -0.000 C 
BRANCH  16  17
ATOM     17  C   UNL     1       3.304  13.120  81.080  1.00  0.00    -0.000 C 
BRANCH  17  18
ATOM     18  C   UNL     1       3.578  12.613  79.648  1.00  0.00    -0.000 C 
BRANCH  18  19
ATOM     19  C   UNL     1       4.978  12.978  79.125  1.00  0.00    -0.003 C 
ATOM     20  C   UNL     1       6.072  12.045  79.636  1.00  0.00     0.004 C 
ENDBRANCH  18  19
ENDBRANCH  17  18
ENDBRANCH  16  17
ENDBRANCH  15  16
ENDBRANCH  14  15
ENDBRANCH  13  14
ENDBRANCH  12  13
ENDBRANCH   1  12
TORSDOF 16
ENDMDL
MODEL 6
REMARK VINA RESULT:    -4.105      2.256      4.058
REMARK INTER + INTRA:         -10.152
REMARK INTER:                  -8.693
REMARK INTRA:                  -1.459
REMARK UNBOUND:                -2.206
REMARK SMILES CCCCCCCCCCCCCCCCCC(=O)[O-]
REMARK SMILES IDX 10 1 11 2 12 3 13 4 14 5 15 6 16 7 17 8 18 9 19 10 20 11
REMARK SMILES IDX 9 12 8 13 7 14 6 15 5 16 4 17 3 18 2 19 1 20
REMARK H PARENT
REMARK Flexibility Score: inf
ROOT
ATOM      1  C   UNL     1       3.089  10.219  85.878  1.00  0.00     0.000 C 
ENDROOT
BRANCH   1   2
ATOM      2  C   UNL     1       2.552  10.738  84.528  1.00  0.00     0.000 C 
BRANCH   2   3
ATOM      3  C   UNL     1       3.480  10.372  83.355  1.00  0.00     0.000 C 
BRANCH   3   4
ATOM      4  C   UNL     1       3.299   8.920  82.885  1.00  0.00     0.000 C 
BRANCH   4   5
ATOM      5  C   UNL     1       4.595   8.313  82.328  1.00  0.00     0.000 C 
BRANCH   5   6
ATOM      6  C   UNL     1       5.652   9.401  82.085  1.00  0.00     0.000 C 
BRANCH   6   7
ATOM      7  C   UNL     1       6.775   8.942  81.137  1.00  0.00     0.006 C 
BRANCH   7   8
ATOM      8  C   UNL     1       6.595   7.521  80.579  1.00  0.00     0.053 C 
BRANCH   8   9
ATOM      9  C   UNL     1       7.870   6.971  80.018  1.00  0.00     0.041 C 
ATOM     10  O   UNL     1       7.974   5.741  79.771  1.00  0.00    -0.550 OA
ATOM     11  O   UNL     1       8.930   7.823  79.733  1.00  0.00    -0.550 OA
ENDBRANCH   8   9
ENDBRANCH   7   8
ENDBRANCH   6   7
ENDBRANCH   5   6
ENDBRANCH   4   5
ENDBRANCH   3   4
ENDBRANCH   2   3
ENDBRANCH   1   2
BRANCH   1  12
ATOM     12  C   UNL     1       2.163   9.194  86.556  1.00  0.00     0.000 C 
BRANCH  12  13
ATOM     13  C   UNL     1       2.566   7.742  86.265  1.00  0.00    -0.000 C 
BRANCH  13  14
ATOM     14  C   UNL     1       1.442   6.995  85.536  1.00  0.00    -0.000 C 
BRANCH  14  15
ATOM     15  C   UNL     1       0.144   7.016  86.359  1.00  0.00    -0.000 C 
BRANCH  15  16
ATOM     16  C   UNL     1      -0.342   5.606  86.727  1.00  0.00    -0.000 C 
BRANCH  16  17
ATOM     17  C   UNL     1       0.257   5.101  88.052  1.00  0.00    -0.000 C 
BRANCH  17  18
ATOM     18  C   UNL     1       0.973   3.743  87.887  1.00  0.00    -0.000 C 
BRANCH  18  19
ATOM     19  C   UNL     1       2.346   3.852  87.202  1.00  0.00    -0.003 C 
ATOM     20  C   UNL     1       3.077   2.515  87.107  1.00  0.00     0.004 C 
ENDBRANCH  18  19
ENDBRANCH  17  18
ENDBRANCH  16  17
ENDBRANCH  15  16
ENDBRANCH  14  15
ENDBRANCH  13  14
ENDBRANCH  12  13
ENDBRANCH   1  12
TORSDOF 16
ENDMDL
MODEL 7
REMARK VINA RESULT:    -4.087      3.940      7.269
REMARK INTER + INTRA:         -10.116
REMARK INTER:                  -9.112
REMARK INTRA:                  -1.004
REMARK UNBOUND:                -2.206
REMARK SMILES CCCCCCCCCCCCCCCCCC(=O)[O-]
REMARK SMILES IDX 10 1 11 2 12 3 13 4 14 5 15 6 16 7 17 8 18 9 19 10 20 11
REMARK SMILES IDX 9 12 8 13 7 14 6 15 5 16 4 17 3 18 2 19 1 20
REMARK H PARENT
REMARK Flexibility Score: inf
ROOT
ATOM      1  C   UNL     1       1.640  10.081  84.758  1.00  0.00     0.000 C 
ENDROOT
BRANCH   1   2
ATOM      2  C   UNL     1       2.727  10.036  85.852  1.00  0.00     0.000 C 
BRANCH   2   3
ATOM      3  C   UNL     1       2.619   8.773  86.725  1.00  0.00     0.000 C 
BRANCH   3   4
ATOM      4  C   UNL     1       1.308   8.003  86.496  1.00  0.00     0.000 C 
BRANCH   4   5
ATOM      5  C   UNL     1       1.487   6.794  85.565  1.00  0.00     0.000 C 
BRANCH   5   6
ATOM      6  C   UNL     1       2.771   6.023  85.906  1.00  0.00     0.000 C 
BRANCH   6   7
ATOM      7  C   UNL     1       2.680   4.527  85.556  1.00  0.00     0.006 C 
BRANCH   7   8
ATOM      8  C   UNL     1       3.318   3.592  86.597  1.00  0.00     0.053 C 
BRANCH   8   9
ATOM      9  C   UNL     1       2.298   2.996  87.518  1.00  0.00     0.041 C 
ATOM     10  O   UNL     1       1.249   3.635  87.798  1.00  0.00    -0.550 OA
ATOM     11  O   UNL     1       2.488   1.722  88.037  1.00  0.00    -0.550 OA
ENDBRANCH   8   9
ENDBRANCH   7   8
ENDBRANCH   6   7
ENDBRANCH   5   6
ENDBRANCH   4   5
ENDBRANCH   3   4
ENDBRANCH   2   3
ENDBRANCH   1   2
BRANCH   1  12
ATOM     12  C   UNL     1       2.202  10.281  83.340  1.00  0.00     0.000 C 
BRANCH  12  13
ATOM     13  C   UNL     1       3.272   9.245  82.970  1.00  0.00    -0.000 C 
BRANCH  13  14
ATOM     14  C   UNL     1       4.573   9.929  82.534  1.00  0.00    -0.000 C 
BRANCH  14  15
ATOM     15  C   UNL     1       5.612   8.893  82.077  1.00  0.00    -0.000 C 
BRANCH  15  16
ATOM     16  C   UNL     1       6.444   9.381  80.881  1.00  0.00    -0.000 C 
BRANCH  16  17
ATOM     17  C   UNL     1       7.622   8.444  80.558  1.00  0.00    -0.000 C 
BRANCH  17  18
ATOM     18  C   UNL     1       7.149   7.015  80.211  1.00  0.00    -0.000 C 
BRANCH  18  19
ATOM     19  C   UNL     1       8.214   6.176  79.484  1.00  0.00    -0.003 C 
ATOM     20  C   UNL     1       9.479   6.965  79.155  1.00  0.00     0.004 C 
ENDBRANCH  18  19
ENDBRANCH  17  18
ENDBRANCH  16  17
ENDBRANCH  15  16
ENDBRANCH  14  15
ENDBRANCH  13  14
ENDBRANCH  12  13
ENDBRANCH   1  12
TORSDOF 16
ENDMDL
MODEL 8
REMARK VINA RESULT:    -4.063      0.934      1.297
REMARK INTER + INTRA:         -10.069
REMARK INTER:                  -7.798
REMARK INTRA:                  -2.271
REMARK UNBOUND:                -2.206
REMARK SMILES CCCCCCCCCCCCCCCCCC(=O)[O-]
REMARK SMILES IDX 10 1 11 2 12 3 13 4 14 5 15 6 16 7 17 8 18 9 19 10 20 11
REMARK SMILES IDX 9 12 8 13 7 14 6 15 5 16 4 17 3 18 2 19 1 20
REMARK H PARENT
REMARK Flexibility Score: inf
ROOT
ATOM      1  C   UNL     1       4.064  11.883  80.954  1.00  0.00     0.000 C 
ENDROOT
BRANCH   1   2
ATOM      2  C   UNL     1       4.885  12.069  82.247  1.00  0.00     0.000 C 
BRANCH   2   3
ATOM      3  C   UNL     1       5.022  10.757  83.040  1.00  0.00     0.000 C 
BRANCH   3   4
ATOM      4  C   UNL     1       4.215   9.604  82.424  1.00  0.00     0.000 C 
BRANCH   4   5
ATOM      5  C   UNL     1       5.086   8.384  82.088  1.00  0.00     0.000 C 
BRANCH   5   6
ATOM      6  C   UNL     1       6.355   8.808  81.333  1.00  0.00     0.000 C 
BRANCH   6   7
ATOM      7  C   UNL     1       7.071   7.625  80.656  1.00  0.00     0.006 C 
BRANCH   7   8
ATOM      8  C   UNL     1       8.090   8.032  79.579  1.00  0.00     0.053 C 
BRANCH   8   9
ATOM      9  C   UNL     1       9.070   6.936  79.289  1.00  0.00     0.041 C 
ATOM     10  O   UNL     1      10.293   7.202  79.152  1.00  0.00    -0.550 OA
ATOM     11  O   UNL     1       8.638   5.619  79.207  1.00  0.00    -0.550 OA
ENDBRANCH   8   9
ENDBRANCH   7   8
ENDBRANCH   6   7
ENDBRANCH   5   6
ENDBRANCH   4   5
ENDBRANCH   3   4
ENDBRANCH   2   3
ENDBRANCH   1   2
BRANCH   1  12
ATOM     12  C   UNL     1       2.763  12.705  80.928  1.00  0.00     0.000 C 
BRANCH  12  13
ATOM     13  C   UNL     1       1.512  11.837  80.732  1.00  0.00    -0.000 C 
BRANCH  13  14
ATOM     14  C   UNL     1       1.012  11.282  82.071  1.00  0.00    -0.000 C 
BRANCH  14  15
ATOM     15  C   UNL     1       0.886  12.401  83.117  1.00  0.00    -0.000 C 
BRANCH  15  16
ATOM     16  C   UNL     1       1.760  12.151  84.355  1.00  0.00    -0.000 C 
BRANCH  16  17
ATOM     17  C   UNL     1       1.434  10.817  85.050  1.00  0.00    -0.000 C 
BRANCH  17  18
ATOM     18  C   UNL     1       2.589  10.335  85.954  1.00  0.00    -0.000 C 
BRANCH  18  19
ATOM     19  C   UNL     1       2.816   8.815  85.902  1.00  0.00    -0.003 C 
ATOM     20  C   UNL     1       1.753   8.076  85.093  1.00  0.00     0.004 C 
ENDBRANCH  18  19
ENDBRANCH  17  18
ENDBRANCH  16  17
ENDBRANCH  15  16
ENDBRANCH  14  15
ENDBRANCH  13  14
ENDBRANCH  12  13
ENDBRANCH   1  12
TORSDOF 16
ENDMDL
MODEL 9
REMARK VINA RESULT:    -4.036      2.115      4.525
REMARK INTER + INTRA:         -10.017
REMARK INTER:                  -7.866
REMARK INTRA:                  -2.151
REMARK UNBOUND:                -2.206
REMARK SMILES CCCCCCCCCCCCCCCCCC(=O)[O-]
REMARK SMILES IDX 10 1 11 2 12 3 13 4 14 5 15 6 16 7 17 8 18 9 19 10 20 11
REMARK SMILES IDX 9 12 8 13 7 14 6 15 5 16 4 17 3 18 2 19 1 20
REMARK H PARENT
REMARK Flexibility Score: inf
ROOT
ATOM      1  C   UNL     1       3.744  12.695  83.139  1.00  0.00     0.000 C 
ENDROOT
BRANCH   1   2
ATOM      2  C   UNL     1       4.315  11.494  83.923  1.00  0.00     0.000 C 
BRANCH   2   3
ATOM      3  C   UNL     1       5.230  10.616  83.051  1.00  0.00     0.000 C 
BRANCH   3   4
ATOM      4  C   UNL     1       4.474   9.464  82.370  1.00  0.00     0.000 C 
BRANCH   4   5
ATOM      5  C   UNL     1       5.414   8.372  81.838  1.00  0.00     0.000 C 
BRANCH   5   6
ATOM      6  C   UNL     1       6.786   8.958  81.471  1.00  0.00     0.000 C 
BRANCH   6   7
ATOM      7  C   UNL     1       7.338   8.404  80.145  1.00  0.00     0.006 C 
BRANCH   7   8
ATOM      8  C   UNL     1       7.237   6.877  80.004  1.00  0.00     0.053 C 
BRANCH   8   9
ATOM      9  C   UNL     1       8.542   6.262  79.601  1.00  0.00     0.041 C 
ATOM     10  O   UNL     1       8.698   5.013  79.659  1.00  0.00    -0.550 OA
ATOM     11  O   UNL     1       9.573   7.063  79.128  1.00  0.00    -0.550 OA
ENDBRANCH   8   9
ENDBRANCH   7   8
ENDBRANCH   6   7
ENDBRANCH   5   6
ENDBRANCH   4   5
ENDBRANCH   3   4
ENDBRANCH   2   3
ENDBRANCH   1   2
BRANCH   1  12
ATOM     12  C   UNL     1       2.241  12.571  82.833  1.00  0.00     0.000 C 
BRANCH  12  13
ATOM     13  C   UNL     1       1.887  12.994  81.402  1.00  0.00    -0.000 C 
BRANCH  13  14
ATOM     14  C   UNL     1       2.661  12.160  80.374  1.00  0.00    -0.000 C 
BRANCH  14  15
ATOM     15  C   UNL     1       3.268  13.057  79.283  1.00  0.00    -0.000 C 
BRANCH  15  16
ATOM     16  C   UNL     1       4.756  13.352  79.524  1.00  0.00    -0.000 C 
BRANCH  16  17
ATOM     17  C   UNL     1       5.566  12.084  79.847  1.00  0.00    -0.000 C 
BRANCH  17  18
ATOM     18  C   UNL     1       6.708  11.850  78.835  1.00  0.00    -0.000 C 
BRANCH  18  19
ATOM     19  C   UNL     1       8.015  12.572  79.205  1.00  0.00    -0.003 C 
ATOM     20  C   UNL     1       9.236  11.657  79.176  1.00  0.00     0.004 C 
ENDBRANCH  18  19
ENDBRANCH  17  18
ENDBRANCH  16  17
ENDBRANCH  15  16
ENDBRANCH  14  15
ENDBRANCH  13  14
ENDBRANCH  12  13
ENDBRANCH   1  12
TORSDOF 16
ENDMDL
