MODEL 1
REMARK VINA RESULT:    -4.198      0.000      0.000
REMARK INTER + INTRA:          -5.134
REMARK INTER:                  -5.057
REMARK INTRA:                  -0.077
REMARK UNBOUND:                -0.077
REMARK SMILES OCCc1ccc(O)c(O)c1
REMARK SMILES IDX 3 1 4 2 5 3 6 4 7 5 11 6 9 7 8 8 10 10 2 12 1 13
REMARK H PARENT 8 9 10 11 1 14
REMARK Flexibility Score: inf
ROOT
ATOM      1  C   UNL     1      72.836  38.128  20.218  1.00  0.00     0.064 C 
ENDROOT
BRANCH   1   2
ATOM      2  C   UNL     1      73.552  39.209  20.984  1.00  0.00    -0.042 A 
ATOM      3  C   UNL     1      72.987  39.737  22.155  1.00  0.00     0.008 A 
ATOM      4  C   UNL     1      73.637  40.759  22.852  1.00  0.00     0.050 A 
ATOM      5  C   UNL     1      74.853  41.272  22.383  1.00  0.00     0.157 A 
ATOM      6  C   UNL     1      74.766  39.732  20.509  1.00  0.00     0.054 A 
ATOM      7  C   UNL     1      75.419  40.756  21.204  1.00  0.00     0.157 A 
BRANCH   5   8
ATOM      8  O   UNL     1      75.499  42.292  23.080  1.00  0.00    -0.504 OA
ATOM      9  H   UNL     1      75.604  43.220  22.685  1.00  0.00     0.293 HD
ENDBRANCH   5   8
BRANCH   7  10
ATOM     10  O   UNL     1      76.626  41.249  20.708  1.00  0.00    -0.504 OA
ATOM     11  H   UNL     1      76.783  41.394  19.719  1.00  0.00     0.293 HD
ENDBRANCH   7  10
ENDBRANCH   1   2
BRANCH   1  12
ATOM     12  C   UNL     1      71.327  38.170  20.475  1.00  0.00     0.161 C 
BRANCH  12  13
ATOM     13  O   UNL     1      70.614  38.246  19.270  1.00  0.00    -0.396 OA
ATOM     14  H   UNL     1      70.966  39.036  18.782  1.00  0.00     0.210 HD
ENDBRANCH  12  13
ENDBRANCH   1  12
TORSDOF 5
ENDMDL
MODEL 2
REMARK VINA RESULT:    -4.138      1.074      2.131
REMARK INTER + INTRA:          -5.062
REMARK INTER:                  -4.970
REMARK INTRA:                  -0.092
REMARK UNBOUND:                -0.077
REMARK SMILES OCCc1ccc(O)c(O)c1
REMARK SMILES IDX 3 1 4 2 5 3 6 4 7 5 11 6 9 7 8 8 10 10 2 12 1 13
REMARK H PARENT 8 9 10 11 1 14
REMARK Flexibility Score: inf
ROOT
ATOM      1  C   UNL     1      72.986  38.271  19.904  1.00  0.00     0.064 C 
ENDROOT
BRANCH   1   2
ATOM      2  C   UNL     1      73.565  39.282  20.859  1.00  0.00    -0.042 A 
ATOM      3  C   UNL     1      74.938  39.566  20.838  1.00  0.00     0.008 A 
ATOM      4  C   UNL     1      75.482  40.483  21.742  1.00  0.00     0.050 A 
ATOM      5  C   UNL     1      74.660  41.120  22.682  1.00  0.00     0.157 A 
ATOM      6  C   UNL     1      72.745  39.913  21.807  1.00  0.00     0.054 A 
ATOM      7  C   UNL     1      73.285  40.832  22.714  1.00  0.00     0.157 A 
BRANCH   5   8
ATOM      8  O   UNL     1      75.204  42.035  23.582  1.00  0.00    -0.504 OA
ATOM      9  H   UNL     1      75.420  41.774  24.537  1.00  0.00     0.293 HD
ENDBRANCH   5   8
BRANCH   7  10
ATOM     10  O   UNL     1      72.442  41.445  23.642  1.00  0.00    -0.504 OA
ATOM     11  H   UNL     1      71.520  41.084  23.853  1.00  0.00     0.293 HD
ENDBRANCH   7  10
ENDBRANCH   1   2
BRANCH   1  12
ATOM     12  C   UNL     1      71.560  37.879  20.304  1.00  0.00     0.161 C 
BRANCH  12  13
ATOM     13  O   UNL     1      70.639  38.262  19.319  1.00  0.00    -0.396 OA
ATOM     14  H   UNL     1      71.121  38.871  18.701  1.00  0.00     0.210 HD
ENDBRANCH  12  13
ENDBRANCH   1  12
TORSDOF 5
ENDMDL
MODEL 3
REMARK VINA RESULT:    -4.137      1.858      2.131
REMARK INTER + INTRA:          -5.060
REMARK INTER:                  -5.002
REMARK INTRA:                  -0.058
REMARK UNBOUND:                -0.077
REMARK SMILES OCCc1ccc(O)c(O)c1
REMARK SMILES IDX 3 1 4 2 5 3 6 4 7 5 11 6 9 7 8 8 10 10 2 12 1 13
REMARK H PARENT 8 9 10 11 1 14
REMARK Flexibility Score: inf
ROOT
ATOM      1  C   UNL     1      72.477  39.335  19.806  1.00  0.00     0.064 C 
ENDROOT
BRANCH   1   2
ATOM      2  C   UNL     1      72.925  40.321  20.853  1.00  0.00    -0.042 A 
ATOM      3  C   UNL     1      72.734  41.697  20.654  1.00  0.00     0.008 A 
ATOM      4  C   UNL     1      73.174  42.615  21.612  1.00  0.00     0.050 A 
ATOM      5  C   UNL     1      73.817  42.169  22.775  1.00  0.00     0.157 A 
ATOM      6  C   UNL     1      73.579  39.877  22.014  1.00  0.00     0.054 A 
ATOM      7  C   UNL     1      74.021  40.793  22.975  1.00  0.00     0.157 A 
BRANCH   5   8
ATOM      8  O   UNL     1      74.255  43.087  23.729  1.00  0.00    -0.504 OA
ATOM      9  H   UNL     1      74.392  42.820  24.697  1.00  0.00     0.293 HD
ENDBRANCH   5   8
BRANCH   7  10
ATOM     10  O   UNL     1      74.663  40.318  24.119  1.00  0.00    -0.504 OA
ATOM     11  H   UNL     1      75.672  40.272  24.190  1.00  0.00     0.293 HD
ENDBRANCH   7  10
ENDBRANCH   1   2
BRANCH   1  12
ATOM     12  C   UNL     1      71.478  38.327  20.383  1.00  0.00     0.161 C 
BRANCH  12  13
ATOM     13  O   UNL     1      72.097  37.093  20.631  1.00  0.00    -0.396 OA
ATOM     14  H   UNL     1      71.925  36.877  21.585  1.00  0.00     0.210 HD
ENDBRANCH  12  13
ENDBRANCH   1  12
TORSDOF 5
ENDMDL
MODEL 4
REMARK VINA RESULT:    -4.024      1.628      4.653
REMARK INTER + INTRA:          -4.924
REMARK INTER:                  -4.829
REMARK INTRA:                  -0.095
REMARK UNBOUND:                -0.077
REMARK SMILES OCCc1ccc(O)c(O)c1
REMARK SMILES IDX 3 1 4 2 5 3 6 4 7 5 11 6 9 7 8 8 10 10 2 12 1 13
REMARK H PARENT 8 9 10 11 1 14
REMARK Flexibility Score: inf
ROOT
ATOM      1  C   UNL     1      75.189  40.500  21.751  1.00  0.00     0.064 C 
ENDROOT
BRANCH   1   2
ATOM      2  C   UNL     1      73.949  39.966  21.082  1.00  0.00    -0.042 A 
ATOM      3  C   UNL     1      73.021  40.848  20.510  1.00  0.00     0.008 A 
ATOM      4  C   UNL     1      71.856  40.356  19.913  1.00  0.00     0.050 A 
ATOM      5  C   UNL     1      71.602  38.978  19.891  1.00  0.00     0.157 A 
ATOM      6  C   UNL     1      73.688  38.587  21.069  1.00  0.00     0.054 A 
ATOM      7  C   UNL     1      72.523  38.090  20.473  1.00  0.00     0.157 A 
BRANCH   5   8
ATOM      8  O   UNL     1      70.439  38.490  19.296  1.00  0.00    -0.504 OA
ATOM      9  H   UNL     1      69.798  37.889  19.800  1.00  0.00     0.293 HD
ENDBRANCH   5   8
BRANCH   7  10
ATOM     10  O   UNL     1      72.295  36.714  20.472  1.00  0.00    -0.504 OA
ATOM     11  H   UNL     1      71.482  36.303  20.031  1.00  0.00     0.293 HD
ENDBRANCH   7  10
ENDBRANCH   1   2
BRANCH   1  12
ATOM     12  C   UNL     1      74.851  41.212  23.064  1.00  0.00     0.161 C 
BRANCH  12  13
ATOM     13  O   UNL     1      74.769  40.297  24.124  1.00  0.00    -0.396 OA
ATOM     14  H   UNL     1      75.279  40.690  24.879  1.00  0.00     0.210 HD
ENDBRANCH  12  13
ENDBRANCH   1  12
TORSDOF 5
ENDMDL
MODEL 5
REMARK VINA RESULT:    -3.992      1.701      4.287
REMARK INTER + INTRA:          -4.885
REMARK INTER:                  -4.792
REMARK INTRA:                  -0.093
REMARK UNBOUND:                -0.077
REMARK SMILES OCCc1ccc(O)c(O)c1
REMARK SMILES IDX 3 1 4 2 5 3 6 4 7 5 11 6 9 7 8 8 10 10 2 12 1 13
REMARK H PARENT 8 9 10 11 1 14
REMARK Flexibility Score: inf
ROOT
ATOM      1  C   UNL     1      74.622  41.449  23.071  1.00  0.00     0.064 C 
ENDROOT
BRANCH   1   2
ATOM      2  C   UNL     1      74.270  40.505  21.951  1.00  0.00    -0.042 A 
ATOM      3  C   UNL     1      73.040  39.831  21.957  1.00  0.00     0.008 A 
ATOM      4  C   UNL     1      72.723  38.934  20.933  1.00  0.00     0.050 A 
ATOM      5  C   UNL     1      73.636  38.695  19.896  1.00  0.00     0.157 A 
ATOM      6  C   UNL     1      75.187  40.257  20.917  1.00  0.00     0.054 A 
ATOM      7  C   UNL     1      74.874  39.360  19.890  1.00  0.00     0.157 A 
BRANCH   5   8
ATOM      8  O   UNL     1      73.318  37.800  18.875  1.00  0.00    -0.504 OA
ATOM      9  H   UNL     1      74.031  37.249  18.413  1.00  0.00     0.293 HD
ENDBRANCH   5   8
BRANCH   7  10
ATOM     10  O   UNL     1      75.806  39.139  18.875  1.00  0.00    -0.504 OA
ATOM     11  H   UNL     1      76.326  39.895  18.448  1.00  0.00     0.293 HD
ENDBRANCH   7  10
ENDBRANCH   1   2
BRANCH   1  12
ATOM     12  C   UNL     1      75.862  40.971  23.833  1.00  0.00     0.161 C 
BRANCH  12  13
ATOM     13  O   UNL     1      75.505  40.125  24.893  1.00  0.00    -0.396 OA
ATOM     14  H   UNL     1      76.353  39.785  25.282  1.00  0.00     0.210 HD
ENDBRANCH  12  13
ENDBRANCH   1  12
TORSDOF 5
ENDMDL
MODEL 6
REMARK VINA RESULT:    -3.907      1.861      4.774
REMARK INTER + INTRA:          -4.783
REMARK INTER:                  -4.684
REMARK INTRA:                  -0.099
REMARK UNBOUND:                -0.077
REMARK SMILES OCCc1ccc(O)c(O)c1
REMARK SMILES IDX 3 1 4 2 5 3 6 4 7 5 11 6 9 7 8 8 10 10 2 12 1 13
REMARK H PARENT 8 9 10 11 1 14
REMARK Flexibility Score: inf
ROOT
ATOM      1  C   UNL     1      74.567  41.481  22.997  1.00  0.00     0.064 C 
ENDROOT
BRANCH   1   2
ATOM      2  C   UNL     1      74.248  40.473  21.923  1.00  0.00    -0.042 A 
ATOM      3  C   UNL     1      75.131  40.281  20.851  1.00  0.00     0.008 A 
ATOM      4  C   UNL     1      74.823  39.366  19.840  1.00  0.00     0.050 A 
ATOM      5  C   UNL     1      73.625  38.640  19.885  1.00  0.00     0.157 A 
ATOM      6  C   UNL     1      73.043  39.752  21.962  1.00  0.00     0.054 A 
ATOM      7  C   UNL     1      72.731  38.835  20.951  1.00  0.00     0.157 A 
BRANCH   5   8
ATOM      8  O   UNL     1      73.321  37.728  18.875  1.00  0.00    -0.504 OA
ATOM      9  H   UNL     1      73.673  37.844  17.932  1.00  0.00     0.293 HD
ENDBRANCH   5   8
BRANCH   7  10
ATOM     10  O   UNL     1      71.528  38.132  21.021  1.00  0.00    -0.504 OA
ATOM     11  H   UNL     1      70.914  38.036  20.223  1.00  0.00     0.293 HD
ENDBRANCH   7  10
ENDBRANCH   1   2
BRANCH   1  12
ATOM     12  C   UNL     1      75.802  41.064  23.802  1.00  0.00     0.161 C 
BRANCH  12  13
ATOM     13  O   UNL     1      75.464  40.125  24.787  1.00  0.00    -0.396 OA
ATOM     14  H   UNL     1      74.660  39.646  24.459  1.00  0.00     0.210 HD
ENDBRANCH  12  13
ENDBRANCH   1  12
TORSDOF 5
ENDMDL
MODEL 7
REMARK VINA RESULT:    -3.896      1.305      2.184
REMARK INTER + INTRA:          -4.769
REMARK INTER:                  -4.654
REMARK INTRA:                  -0.115
REMARK UNBOUND:                -0.077
REMARK SMILES OCCc1ccc(O)c(O)c1
REMARK SMILES IDX 3 1 4 2 5 3 6 4 7 5 11 6 9 7 8 8 10 10 2 12 1 13
REMARK H PARENT 8 9 10 11 1 14
REMARK Flexibility Score: inf
ROOT
ATOM      1  C   UNL     1      71.595  39.268  20.843  1.00  0.00     0.064 C 
ENDROOT
BRANCH   1   2
ATOM      2  C   UNL     1      72.968  39.884  20.784  1.00  0.00    -0.042 A 
ATOM      3  C   UNL     1      73.476  40.359  19.565  1.00  0.00     0.008 A 
ATOM      4  C   UNL     1      74.761  40.906  19.503  1.00  0.00     0.050 A 
ATOM      5  C   UNL     1      75.556  40.975  20.655  1.00  0.00     0.157 A 
ATOM      6  C   UNL     1      73.770  39.944  21.935  1.00  0.00     0.054 A 
ATOM      7  C   UNL     1      75.057  40.491  21.876  1.00  0.00     0.157 A 
BRANCH   5   8
ATOM      8  O   UNL     1      76.837  41.520  20.590  1.00  0.00    -0.504 OA
ATOM      9  H   UNL     1      77.172  41.990  19.757  1.00  0.00     0.293 HD
ENDBRANCH   5   8
BRANCH   7  10
ATOM     10  O   UNL     1      75.826  40.540  23.040  1.00  0.00    -0.504 OA
ATOM     11  H   UNL     1      76.199  39.706  23.474  1.00  0.00     0.293 HD
ENDBRANCH   7  10
ENDBRANCH   1   2
BRANCH   1  12
ATOM     12  C   UNL     1      71.499  38.032  19.943  1.00  0.00     0.161 C 
BRANCH  12  13
ATOM     13  O   UNL     1      72.307  36.994  20.429  1.00  0.00    -0.396 OA
ATOM     14  H   UNL     1      73.139  37.416  20.766  1.00  0.00     0.210 HD
ENDBRANCH  12  13
ENDBRANCH   1  12
TORSDOF 5
ENDMDL
MODEL 8
REMARK VINA RESULT:    -3.842      1.617      4.574
REMARK INTER + INTRA:          -4.704
REMARK INTER:                  -4.601
REMARK INTRA:                  -0.104
REMARK UNBOUND:                -0.077
REMARK SMILES OCCc1ccc(O)c(O)c1
REMARK SMILES IDX 3 1 4 2 5 3 6 4 7 5 11 6 9 7 8 8 10 10 2 12 1 13
REMARK H PARENT 8 9 10 11 1 14
REMARK Flexibility Score: inf
ROOT
ATOM      1  C   UNL     1      75.294  40.421  21.625  1.00  0.00     0.064 C 
ENDROOT
BRANCH   1   2
ATOM      2  C   UNL     1      74.001  39.912  21.042  1.00  0.00    -0.042 A 
ATOM      3  C   UNL     1      73.743  38.535  20.994  1.00  0.00     0.008 A 
ATOM      4  C   UNL     1      72.556  38.060  20.429  1.00  0.00     0.050 A 
ATOM      5  C   UNL     1      71.618  38.956  19.898  1.00  0.00     0.157 A 
ATOM      6  C   UNL     1      73.066  40.809  20.500  1.00  0.00     0.054 A 
ATOM      7  C   UNL     1      71.876  40.337  19.934  1.00  0.00     0.157 A 
BRANCH   5   8
ATOM      8  O   UNL     1      70.435  38.480  19.335  1.00  0.00    -0.504 OA
ATOM      9  H   UNL     1      70.388  38.190  18.365  1.00  0.00     0.293 HD
ENDBRANCH   5   8
BRANCH   7  10
ATOM     10  O   UNL     1      70.966  41.254  19.408  1.00  0.00    -0.504 OA
ATOM     11  H   UNL     1      70.592  42.017  19.958  1.00  0.00     0.293 HD
ENDBRANCH   7  10
ENDBRANCH   1   2
BRANCH   1  12
ATOM     12  C   UNL     1      75.053  41.194  22.925  1.00  0.00     0.161 C 
BRANCH  12  13
ATOM     13  O   UNL     1      74.499  40.361  23.908  1.00  0.00    -0.396 OA
ATOM     14  H   UNL     1      75.023  39.518  23.895  1.00  0.00     0.210 HD
ENDBRANCH  12  13
ENDBRANCH   1  12
TORSDOF 5
ENDMDL
MODEL 9
REMARK VINA RESULT:    -3.807      2.139      3.292
REMARK INTER + INTRA:          -4.662
REMARK INTER:                  -4.572
REMARK INTRA:                  -0.090
REMARK UNBOUND:                -0.077
REMARK SMILES OCCc1ccc(O)c(O)c1
REMARK SMILES IDX 3 1 4 2 5 3 6 4 7 5 11 6 9 7 8 8 10 10 2 12 1 13
REMARK H PARENT 8 9 10 11 1 14
REMARK Flexibility Score: inf
ROOT
ATOM      1  C   UNL     1      72.582  41.803  23.056  1.00  0.00     0.064 C 
ENDROOT
BRANCH   1   2
ATOM      2  C   UNL     1      73.436  41.152  21.999  1.00  0.00    -0.042 A 
ATOM      3  C   UNL     1      72.978  40.009  21.326  1.00  0.00     0.008 A 
ATOM      4  C   UNL     1      73.781  39.389  20.365  1.00  0.00     0.050 A 
ATOM      5  C   UNL     1      75.054  39.897  20.072  1.00  0.00     0.157 A 
ATOM      6  C   UNL     1      74.716  41.654  21.712  1.00  0.00     0.054 A 
ATOM      7  C   UNL     1      75.523  41.035  20.751  1.00  0.00     0.157 A 
BRANCH   5   8
ATOM      8  O   UNL     1      75.853  39.276  19.113  1.00  0.00    -0.504 OA
ATOM      9  H   UNL     1      76.003  39.689  18.200  1.00  0.00     0.293 HD
ENDBRANCH   5   8
BRANCH   7  10
ATOM     10  O   UNL     1      76.787  41.562  20.486  1.00  0.00    -0.504 OA
ATOM     11  H   UNL     1      77.470  41.716  21.217  1.00  0.00     0.293 HD
ENDBRANCH   7  10
ENDBRANCH   1   2
BRANCH   1  12
ATOM     12  C   UNL     1      71.091  41.579  22.781  1.00  0.00     0.161 C 
BRANCH  12  13
ATOM     13  O   UNL     1      70.456  41.012  23.896  1.00  0.00    -0.396 OA
ATOM     14  H   UNL     1      71.169  40.809  24.556  1.00  0.00     0.210 HD
ENDBRANCH  12  13
ENDBRANCH   1  12
TORSDOF 5
ENDMDL
