MODEL 1
REMARK VINA RESULT:    -3.140      0.000      0.000
REMARK INTER + INTRA:          -6.415
REMARK INTER:                  -4.976
REMARK INTRA:                  -1.439
REMARK UNBOUND:                -1.439
REMARK SMILES CCCCCCCCCCCC(=O)[O-]
REMARK SMILES IDX 7 1 8 2 9 3 10 4 11 5 12 6 13 7 14 8 6 9 5 10 4 11 3 12 2 13
REMARK SMILES IDX 1 14
REMARK H PARENT
REMARK Flexibility Score: inf
ROOT
ATOM      1  C   UNL     1      71.109  15.012  78.654  1.00  0.00     0.000 C 
ENDROOT
BRANCH   1   2
ATOM      2  C   UNL     1      71.062  16.537  78.829  1.00  0.00     0.000 C 
BRANCH   2   3
ATOM      3  C   UNL     1      69.870  16.954  79.700  1.00  0.00     0.000 C 
BRANCH   3   4
ATOM      4  C   UNL     1      69.127  15.727  80.241  1.00  0.00     0.006 C 
BRANCH   4   5
ATOM      5  C   UNL     1      67.615  15.967  80.267  1.00  0.00     0.053 C 
BRANCH   5   6
ATOM      6  C   UNL     1      67.123  16.064  81.676  1.00  0.00     0.041 C 
ATOM      7  O   UNL     1      67.936  16.249  82.620  1.00  0.00    -0.550 OA
ATOM      8  O   UNL     1      65.761  16.001  81.943  1.00  0.00    -0.550 OA
ENDBRANCH   5   6
ENDBRANCH   4   5
ENDBRANCH   3   4
ENDBRANCH   2   3
ENDBRANCH   1   2
BRANCH   1   9
ATOM      9  C   UNL     1      71.204  14.580  77.179  1.00  0.00     0.000 C 
BRANCH   9  10
ATOM     10  C   UNL     1      70.106  15.141  76.250  1.00  0.00    -0.000 C 
BRANCH  10  11
ATOM     11  C   UNL     1      68.760  14.392  76.300  1.00  0.00    -0.000 C 
BRANCH  11  12
ATOM     12  C   UNL     1      67.544  15.314  76.548  1.00  0.00    -0.000 C 
BRANCH  12  13
ATOM     13  C   UNL     1      67.911  16.804  76.629  1.00  0.00    -0.003 C 
ATOM     14  C   UNL     1      66.773  17.721  76.184  1.00  0.00     0.004 C 
ENDBRANCH  12  13
ENDBRANCH  11  12
ENDBRANCH  10  11
ENDBRANCH   9  10
ENDBRANCH   1   9
TORSDOF 10
ENDMDL
MODEL 2
REMARK VINA RESULT:    -3.119      2.264      3.184
REMARK INTER + INTRA:          -6.382
REMARK INTER:                  -4.782
REMARK INTRA:                  -1.600
REMARK UNBOUND:                -1.439
REMARK SMILES CCCCCCCCCCCC(=O)[O-]
REMARK SMILES IDX 7 1 8 2 9 3 10 4 11 5 12 6 13 7 14 8 6 9 5 10 4 11 3 12 2 13
REMARK SMILES IDX 1 14
REMARK H PARENT
REMARK Flexibility Score: inf
ROOT
ATOM      1  C   UNL     1      69.566  14.708  76.261  1.00  0.00     0.000 C 
ENDROOT
BRANCH   1   2
ATOM      2  C   UNL     1      69.860  16.173  76.615  1.00  0.00     0.000 C 
BRANCH   2   3
ATOM      3  C   UNL     1      70.585  16.277  77.963  1.00  0.00     0.000 C 
BRANCH   3   4
ATOM      4  C   UNL     1      70.150  15.154  78.912  1.00  0.00     0.006 C 
BRANCH   4   5
ATOM      5  C   UNL     1      69.778  15.710  80.288  1.00  0.00     0.053 C 
BRANCH   5   6
ATOM      6  C   UNL     1      70.931  16.455  80.883  1.00  0.00     0.041 C 
ATOM      7  O   UNL     1      71.998  15.849  81.167  1.00  0.00    -0.550 OA
ATOM      8  O   UNL     1      70.846  17.828  81.076  1.00  0.00    -0.550 OA
ENDBRANCH   5   6
ENDBRANCH   4   5
ENDBRANCH   3   4
ENDBRANCH   2   3
ENDBRANCH   1   2
BRANCH   1   9
ATOM      9  C   UNL     1      68.078  14.450  75.961  1.00  0.00     0.000 C 
BRANCH   9  10
ATOM     10  C   UNL     1      67.126  15.629  76.257  1.00  0.00    -0.000 C 
BRANCH  10  11
ATOM     11  C   UNL     1      66.246  15.462  77.512  1.00  0.00    -0.000 C 
BRANCH  11  12
ATOM     12  C   UNL     1      66.618  16.420  78.666  1.00  0.00    -0.000 C 
BRANCH  12  13
ATOM     13  C   UNL     1      67.097  17.800  78.185  1.00  0.00    -0.003 C 
ATOM     14  C   UNL     1      67.789  18.603  79.285  1.00  0.00     0.004 C 
ENDBRANCH  12  13
ENDBRANCH  11  12
ENDBRANCH  10  11
ENDBRANCH   9  10
ENDBRANCH   1   9
TORSDOF 10
ENDMDL
MODEL 3
REMARK VINA RESULT:    -3.109      3.526      5.120
REMARK INTER + INTRA:          -6.366
REMARK INTER:                  -4.840
REMARK INTRA:                  -1.526
REMARK UNBOUND:                -1.439
REMARK SMILES CCCCCCCCCCCC(=O)[O-]
REMARK SMILES IDX 7 1 8 2 9 3 10 4 11 5 12 6 13 7 14 8 6 9 5 10 4 11 3 12 2 13
REMARK SMILES IDX 1 14
REMARK H PARENT
REMARK Flexibility Score: inf
ROOT
ATOM      1  C   UNL     1      67.157  16.067  77.502  1.00  0.00     0.000 C 
ENDROOT
BRANCH   1   2
ATOM      2  C   UNL     1      67.769  17.459  77.718  1.00  0.00     0.000 C 
BRANCH   2   3
ATOM      3  C   UNL     1      68.115  18.122  76.379  1.00  0.00     0.000 C 
BRANCH   3   4
ATOM      4  C   UNL     1      69.599  18.504  76.320  1.00  0.00     0.006 C 
BRANCH   4   5
ATOM      5  C   UNL     1      70.009  19.310  77.555  1.00  0.00     0.053 C 
BRANCH   5   6
ATOM      6  C   UNL     1      70.348  20.716  77.175  1.00  0.00     0.041 C 
ATOM      7  O   UNL     1      70.123  21.129  76.007  1.00  0.00    -0.550 OA
ATOM      8  O   UNL     1      70.866  21.587  78.126  1.00  0.00    -0.550 OA
ENDBRANCH   5   6
ENDBRANCH   4   5
ENDBRANCH   3   4
ENDBRANCH   2   3
ENDBRANCH   1   2
BRANCH   1   9
ATOM      9  C   UNL     1      67.609  15.410  76.185  1.00  0.00     0.000 C 
BRANCH   9  10
ATOM     10  C   UNL     1      68.745  14.373  76.316  1.00  0.00    -0.000 C 
BRANCH  10  11
ATOM     11  C   UNL     1      70.171  14.943  76.186  1.00  0.00    -0.000 C 
BRANCH  11  12
ATOM     12  C   UNL     1      71.052  14.710  77.435  1.00  0.00    -0.000 C 
BRANCH  12  13
ATOM     13  C   UNL     1      71.062  15.900  78.409  1.00  0.00    -0.003 C 
ATOM     14  C   UNL     1      70.339  15.600  79.720  1.00  0.00     0.004 C 
ENDBRANCH  12  13
ENDBRANCH  11  12
ENDBRANCH  10  11
ENDBRANCH   9  10
ENDBRANCH   1   9
TORSDOF 10
ENDMDL
MODEL 4
REMARK VINA RESULT:    -3.094      2.327      4.293
REMARK INTER + INTRA:          -6.342
REMARK INTER:                  -5.235
REMARK INTRA:                  -1.106
REMARK UNBOUND:                -1.439
REMARK SMILES CCCCCCCCCCCC(=O)[O-]
REMARK SMILES IDX 7 1 8 2 9 3 10 4 11 5 12 6 13 7 14 8 6 9 5 10 4 11 3 12 2 13
REMARK SMILES IDX 1 14
REMARK H PARENT
REMARK Flexibility Score: inf
ROOT
ATOM      1  C   UNL     1      70.242  15.669  77.444  1.00  0.00     0.000 C 
ENDROOT
BRANCH   1   2
ATOM      2  C   UNL     1      69.912  14.779  76.237  1.00  0.00     0.000 C 
BRANCH   2   3
ATOM      3  C   UNL     1      68.430  14.381  76.236  1.00  0.00     0.000 C 
BRANCH   3   4
ATOM      4  C   UNL     1      67.534  15.594  76.513  1.00  0.00     0.006 C 
BRANCH   4   5
ATOM      5  C   UNL     1      66.137  15.392  75.921  1.00  0.00     0.053 C 
BRANCH   5   6
ATOM      6  C   UNL     1      65.339  14.450  76.765  1.00  0.00     0.041 C 
ATOM      7  O   UNL     1      64.906  14.818  77.889  1.00  0.00    -0.550 OA
ATOM      8  O   UNL     1      65.030  13.181  76.289  1.00  0.00    -0.550 OA
ENDBRANCH   5   6
ENDBRANCH   4   5
ENDBRANCH   3   4
ENDBRANCH   2   3
ENDBRANCH   1   2
BRANCH   1   9
ATOM      9  C   UNL     1      70.988  14.915  78.560  1.00  0.00     0.000 C 
BRANCH   9  10
ATOM     10  C   UNL     1      70.899  15.550  79.965  1.00  0.00    -0.000 C 
BRANCH  10  11
ATOM     11  C   UNL     1      69.609  16.348  80.242  1.00  0.00    -0.000 C 
BRANCH  11  12
ATOM     12  C   UNL     1      68.396  15.462  80.608  1.00  0.00    -0.000 C 
BRANCH  12  13
ATOM     13  C   UNL     1      67.048  16.192  80.489  1.00  0.00    -0.003 C 
ATOM     14  C   UNL     1      67.112  17.411  79.572  1.00  0.00     0.004 C 
ENDBRANCH  12  13
ENDBRANCH  11  12
ENDBRANCH  10  11
ENDBRANCH   9  10
ENDBRANCH   1   9
TORSDOF 10
ENDMDL
MODEL 5
REMARK VINA RESULT:    -3.086      2.123      3.594
REMARK INTER + INTRA:          -6.329
REMARK INTER:                  -4.896
REMARK INTRA:                  -1.432
REMARK UNBOUND:                -1.439
REMARK SMILES CCCCCCCCCCCC(=O)[O-]
REMARK SMILES IDX 7 1 8 2 9 3 10 4 11 5 12 6 13 7 14 8 6 9 5 10 4 11 3 12 2 13
REMARK SMILES IDX 1 14
REMARK H PARENT
REMARK Flexibility Score: inf
ROOT
ATOM      1  C   UNL     1      68.859  14.407  76.271  1.00  0.00     0.000 C 
ENDROOT
BRANCH   1   2
ATOM      2  C   UNL     1      70.234  15.089  76.222  1.00  0.00     0.000 C 
BRANCH   2   3
ATOM      3  C   UNL     1      71.211  14.426  77.201  1.00  0.00     0.000 C 
BRANCH   3   4
ATOM      4  C   UNL     1      70.977  14.919  78.634  1.00  0.00     0.006 C 
BRANCH   4   5
ATOM      5  C   UNL     1      71.316  16.406  78.765  1.00  0.00     0.053 C 
BRANCH   5   6
ATOM      6  C   UNL     1      70.706  16.976  80.006  1.00  0.00     0.041 C 
ATOM      7  O   UNL     1      70.538  16.250  81.021  1.00  0.00    -0.550 OA
ATOM      8  O   UNL     1      70.371  18.324  80.061  1.00  0.00    -0.550 OA
ENDBRANCH   5   6
ENDBRANCH   4   5
ENDBRANCH   3   4
ENDBRANCH   2   3
ENDBRANCH   1   2
BRANCH   1   9
ATOM      9  C   UNL     1      67.700  15.404  76.451  1.00  0.00     0.000 C 
BRANCH   9  10
ATOM     10  C   UNL     1      67.602  16.064  77.844  1.00  0.00    -0.000 C 
BRANCH  10  11
ATOM     11  C   UNL     1      67.699  17.603  77.847  1.00  0.00    -0.000 C 
BRANCH  11  12
ATOM     12  C   UNL     1      68.106  18.204  76.483  1.00  0.00    -0.000 C 
BRANCH  12  13
ATOM     13  C   UNL     1      69.586  18.615  76.412  1.00  0.00    -0.003 C 
ATOM     14  C   UNL     1      69.812  20.084  76.767  1.00  0.00     0.004 C 
ENDBRANCH  12  13
ENDBRANCH  11  12
ENDBRANCH  10  11
ENDBRANCH   9  10
ENDBRANCH   1   9
TORSDOF 10
ENDMDL
MODEL 6
REMARK VINA RESULT:    -3.082      1.225      1.689
REMARK INTER + INTRA:          -6.323
REMARK INTER:                  -4.756
REMARK INTRA:                  -1.566
REMARK UNBOUND:                -1.439
REMARK SMILES CCCCCCCCCCCC(=O)[O-]
REMARK SMILES IDX 7 1 8 2 9 3 10 4 11 5 12 6 13 7 14 8 6 9 5 10 4 11 3 12 2 13
REMARK SMILES IDX 1 14
REMARK H PARENT
REMARK Flexibility Score: inf
ROOT
ATOM      1  C   UNL     1      71.013  14.722  78.484  1.00  0.00     0.000 C 
ENDROOT
BRANCH   1   2
ATOM      2  C   UNL     1      71.757  15.901  79.128  1.00  0.00     0.000 C 
BRANCH   2   3
ATOM      3  C   UNL     1      70.955  16.484  80.299  1.00  0.00     0.000 C 
BRANCH   3   4
ATOM      4  C   UNL     1      69.683  15.668  80.556  1.00  0.00     0.006 C 
BRANCH   4   5
ATOM      5  C   UNL     1      68.458  16.579  80.670  1.00  0.00     0.053 C 
BRANCH   5   6
ATOM      6  C   UNL     1      67.914  16.556  82.062  1.00  0.00     0.041 C 
ATOM      7  O   UNL     1      66.756  16.114  82.283  1.00  0.00    -0.550 OA
ATOM      8  O   UNL     1      68.705  16.975  83.125  1.00  0.00    -0.550 OA
ENDBRANCH   5   6
ENDBRANCH   4   5
ENDBRANCH   3   4
ENDBRANCH   2   3
ENDBRANCH   1   2
BRANCH   1   9
ATOM      9  C   UNL     1      71.122  14.711  76.949  1.00  0.00     0.000 C 
BRANCH   9  10
ATOM     10  C   UNL     1      69.799  14.948  76.187  1.00  0.00    -0.000 C 
BRANCH  10  11
ATOM     11  C   UNL     1      68.639  15.492  77.044  1.00  0.00    -0.000 C 
BRANCH  11  12
ATOM     12  C   UNL     1      68.307  16.977  76.770  1.00  0.00    -0.000 C 
BRANCH  12  13
ATOM     13  C   UNL     1      69.553  17.860  76.589  1.00  0.00    -0.003 C 
ATOM     14  C   UNL     1      69.775  18.819  77.756  1.00  0.00     0.004 C 
ENDBRANCH  12  13
ENDBRANCH  11  12
ENDBRANCH  10  11
ENDBRANCH   9  10
ENDBRANCH   1   9
TORSDOF 10
ENDMDL
MODEL 7
REMARK VINA RESULT:    -3.076      2.523      3.988
REMARK INTER + INTRA:          -6.313
REMARK INTER:                  -4.851
REMARK INTRA:                  -1.462
REMARK UNBOUND:                -1.439
REMARK SMILES CCCCCCCCCCCC(=O)[O-]
REMARK SMILES IDX 7 1 8 2 9 3 10 4 11 5 12 6 13 7 14 8 6 9 5 10 4 11 3 12 2 13
REMARK SMILES IDX 1 14
REMARK H PARENT
REMARK Flexibility Score: inf
ROOT
ATOM      1  C   UNL     1      70.978  14.746  77.495  1.00  0.00     0.000 C 
ENDROOT
BRANCH   1   2
ATOM      2  C   UNL     1      70.144  15.091  76.253  1.00  0.00     0.000 C 
BRANCH   2   3
ATOM      3  C   UNL     1      68.754  14.446  76.327  1.00  0.00     0.000 C 
BRANCH   3   4
ATOM      4  C   UNL     1      67.649  15.498  76.176  1.00  0.00     0.006 C 
BRANCH   4   5
ATOM      5  C   UNL     1      66.758  15.542  77.419  1.00  0.00     0.053 C 
BRANCH   5   6
ATOM      6  C   UNL     1      65.448  14.873  77.150  1.00  0.00     0.041 C 
ATOM      7  O   UNL     1      64.522  14.926  78.003  1.00  0.00    -0.550 OA
ATOM      8  O   UNL     1      65.230  14.233  75.936  1.00  0.00    -0.550 OA
ENDBRANCH   5   6
ENDBRANCH   4   5
ENDBRANCH   3   4
ENDBRANCH   2   3
ENDBRANCH   1   2
BRANCH   1   9
ATOM      9  C   UNL     1      70.405  15.352  78.790  1.00  0.00     0.000 C 
BRANCH   9  10
ATOM     10  C   UNL     1      70.886  16.781  79.124  1.00  0.00    -0.000 C 
BRANCH  10  11
ATOM     11  C   UNL     1      69.778  17.759  79.563  1.00  0.00    -0.000 C 
BRANCH  11  12
ATOM     12  C   UNL     1      68.915  18.287  78.395  1.00  0.00    -0.000 C 
BRANCH  12  13
ATOM     13  C   UNL     1      69.734  18.655  77.146  1.00  0.00    -0.003 C 
ATOM     14  C   UNL     1      68.866  19.160  75.995  1.00  0.00     0.004 C 
ENDBRANCH  12  13
ENDBRANCH  11  12
ENDBRANCH  10  11
ENDBRANCH   9  10
ENDBRANCH   1   9
TORSDOF 10
ENDMDL
MODEL 8
REMARK VINA RESULT:    -3.030      1.578      2.196
REMARK INTER + INTRA:          -6.241
REMARK INTER:                  -5.223
REMARK INTRA:                  -1.018
REMARK UNBOUND:                -1.439
REMARK SMILES CCCCCCCCCCCC(=O)[O-]
REMARK SMILES IDX 7 1 8 2 9 3 10 4 11 5 12 6 13 7 14 8 6 9 5 10 4 11 3 12 2 13
REMARK SMILES IDX 1 14
REMARK H PARENT
REMARK Flexibility Score: inf
ROOT
ATOM      1  C   UNL     1      70.245  15.123  77.485  1.00  0.00     0.000 C 
ENDROOT
BRANCH   1   2
ATOM      2  C   UNL     1      70.232  16.633  77.762  1.00  0.00     0.000 C 
BRANCH   2   3
ATOM      3  C   UNL     1      69.668  16.931  79.157  1.00  0.00     0.000 C 
BRANCH   3   4
ATOM      4  C   UNL     1      68.888  15.730  79.704  1.00  0.00     0.006 C 
BRANCH   4   5
ATOM      5  C   UNL     1      67.391  16.038  79.787  1.00  0.00     0.053 C 
BRANCH   5   6
ATOM      6  C   UNL     1      66.914  15.953  81.202  1.00  0.00     0.041 C 
ATOM      7  O   UNL     1      67.731  16.069  82.154  1.00  0.00    -0.550 OA
ATOM      8  O   UNL     1      65.560  15.796  81.472  1.00  0.00    -0.550 OA
ENDBRANCH   5   6
ENDBRANCH   4   5
ENDBRANCH   3   4
ENDBRANCH   2   3
ENDBRANCH   1   2
BRANCH   1   9
ATOM      9  C   UNL     1      69.622  14.756  76.126  1.00  0.00     0.000 C 
BRANCH   9  10
ATOM     10  C   UNL     1      68.133  14.346  76.167  1.00  0.00    -0.000 C 
BRANCH  10  11
ATOM     11  C   UNL     1      67.130  15.514  76.095  1.00  0.00    -0.000 C 
BRANCH  11  12
ATOM     12  C   UNL     1      65.653  15.075  76.216  1.00  0.00    -0.000 C 
BRANCH  12  13
ATOM     13  C   UNL     1      65.443  13.567  76.001  1.00  0.00    -0.003 C 
ATOM     14  C   UNL     1      64.050  13.096  76.414  1.00  0.00     0.004 C 
ENDBRANCH  12  13
ENDBRANCH  11  12
ENDBRANCH  10  11
ENDBRANCH   9  10
ENDBRANCH   1   9
TORSDOF 10
ENDMDL
MODEL 9
REMARK VINA RESULT:    -2.969      2.890      4.463
REMARK INTER + INTRA:          -6.144
REMARK INTER:                  -5.384
REMARK INTRA:                  -0.760
REMARK UNBOUND:                -1.439
REMARK SMILES CCCCCCCCCCCC(=O)[O-]
REMARK SMILES IDX 7 1 8 2 9 3 10 4 11 5 12 6 13 7 14 8 6 9 5 10 4 11 3 12 2 13
REMARK SMILES IDX 1 14
REMARK H PARENT
REMARK Flexibility Score: inf
ROOT
ATOM      1  C   UNL     1      67.461  15.555  76.350  1.00  0.00     0.000 C 
ENDROOT
BRANCH   1   2
ATOM      2  C   UNL     1      68.443  14.377  76.266  1.00  0.00     0.000 C 
BRANCH   2   3
ATOM      3  C   UNL     1      69.892  14.873  76.198  1.00  0.00     0.000 C 
BRANCH   3   4
ATOM      4  C   UNL     1      70.183  15.880  77.317  1.00  0.00     0.006 C 
BRANCH   4   5
ATOM      5  C   UNL     1      70.826  15.190  78.523  1.00  0.00     0.053 C 
BRANCH   5   6
ATOM      6  C   UNL     1      70.107  15.557  79.783  1.00  0.00     0.041 C 
ATOM      7  O   UNL     1      68.849  15.550  79.819  1.00  0.00    -0.550 OA
ATOM      8  O   UNL     1      70.828  15.857  80.932  1.00  0.00    -0.550 OA
ENDBRANCH   5   6
ENDBRANCH   4   5
ENDBRANCH   3   4
ENDBRANCH   2   3
ENDBRANCH   1   2
BRANCH   1   9
ATOM      9  C   UNL     1      66.016  15.159  75.996  1.00  0.00     0.000 C 
BRANCH   9  10
ATOM     10  C   UNL     1      65.754  13.642  75.875  1.00  0.00    -0.000 C 
BRANCH  10  11
ATOM     11  C   UNL     1      64.474  13.141  76.573  1.00  0.00    -0.000 C 
BRANCH  11  12
ATOM     12  C   UNL     1      63.233  14.023  76.306  1.00  0.00    -0.000 C 
BRANCH  12  13
ATOM     13  C   UNL     1      62.456  14.389  77.582  1.00  0.00    -0.003 C 
ATOM     14  C   UNL     1      63.364  14.869  78.712  1.00  0.00     0.004 C 
ENDBRANCH  12  13
ENDBRANCH  11  12
ENDBRANCH  10  11
ENDBRANCH   9  10
ENDBRANCH   1   9
TORSDOF 10
ENDMDL
