MODEL 1
REMARK VINA RESULT:    -5.334      0.000      0.000
REMARK INTER + INTRA:          -6.163
REMARK INTER:                  -6.113
REMARK INTRA:                  -0.050
REMARK UNBOUND:                -0.050
REMARK SMILES O=C([O-])c1cc(O)c(O)c(O)c1
REMARK SMILES IDX 4 1 5 2 12 3 6 4 10 5 8 6 2 7 1 8 3 9 7 10 11 12 9 14
REMARK H PARENT 7 11 11 13 9 15
REMARK Flexibility Score: inf
ROOT
ATOM      1  C   UNL     1      51.944 -39.404  -3.057  1.00  0.00     0.005 A 
ATOM      2  C   UNL     1      51.906 -40.745  -2.646  1.00  0.00     0.060 A 
ATOM      3  C   UNL     1      53.155 -38.698  -2.967  1.00  0.00     0.060 A 
ATOM      4  C   UNL     1      53.057 -41.372  -2.152  1.00  0.00     0.162 A 
ATOM      5  C   UNL     1      54.313 -39.313  -2.475  1.00  0.00     0.162 A 
ATOM      6  C   UNL     1      54.264 -40.666  -2.063  1.00  0.00     0.200 A 
ENDROOT
BRANCH   1   7
ATOM      7  C   UNL     1      50.725 -38.747  -3.578  1.00  0.00     0.072 C 
ATOM      8  O   UNL     1      49.913 -39.385  -4.302  1.00  0.00    -0.545 OA
ATOM      9  O   UNL     1      50.456 -37.417  -3.276  1.00  0.00    -0.545 OA
ENDBRANCH   1   7
BRANCH   4  10
ATOM     10  O   UNL     1      53.008 -42.705  -1.747  1.00  0.00    -0.504 OA
ATOM     11  H   UNL     1      52.142 -43.138  -1.449  1.00  0.00     0.293 HD
ENDBRANCH   4  10
BRANCH   5  12
ATOM     12  O   UNL     1      55.480 -38.547  -2.414  1.00  0.00    -0.504 OA
ATOM     13  H   UNL     1      56.402 -38.906  -2.612  1.00  0.00     0.293 HD
ENDBRANCH   5  12
BRANCH   6  14
ATOM     14  O   UNL     1      55.382 -41.340  -1.563  1.00  0.00    -0.502 OA
ATOM     15  H   UNL     1      56.174 -41.617  -2.125  1.00  0.00     0.293 HD
ENDBRANCH   6  14
TORSDOF 4
ENDMDL
MODEL 2
REMARK VINA RESULT:    -5.281      0.100      2.438
REMARK INTER + INTRA:          -6.102
REMARK INTER:                  -6.053
REMARK INTRA:                  -0.049
REMARK UNBOUND:                -0.050
REMARK SMILES O=C([O-])c1cc(O)c(O)c(O)c1
REMARK SMILES IDX 4 1 5 2 12 3 6 4 10 5 8 6 2 7 1 8 3 9 7 10 11 12 9 14
REMARK H PARENT 7 11 11 13 9 15
REMARK Flexibility Score: inf
ROOT
ATOM      1  C   UNL     1      51.889 -39.449  -3.043  1.00  0.00     0.005 A 
ATOM      2  C   UNL     1      53.093 -38.737  -2.937  1.00  0.00     0.060 A 
ATOM      3  C   UNL     1      51.863 -40.802  -2.664  1.00  0.00     0.060 A 
ATOM      4  C   UNL     1      54.252 -39.362  -2.461  1.00  0.00     0.162 A 
ATOM      5  C   UNL     1      53.015 -41.439  -2.187  1.00  0.00     0.162 A 
ATOM      6  C   UNL     1      54.224 -40.711  -2.084  1.00  0.00     0.200 A 
ENDROOT
BRANCH   1   7
ATOM      7  C   UNL     1      50.669 -38.783  -3.547  1.00  0.00     0.072 C 
ATOM      8  O   UNL     1      49.899 -39.377  -4.350  1.00  0.00    -0.545 OA
ATOM      9  O   UNL     1      50.352 -37.491  -3.143  1.00  0.00    -0.545 OA
ENDBRANCH   1   7
BRANCH   4  10
ATOM     10  O   UNL     1      55.444 -38.644  -2.360  1.00  0.00    -0.504 OA
ATOM     11  H   UNL     1      55.464 -37.697  -2.002  1.00  0.00     0.293 HD
ENDBRANCH   4  10
BRANCH   5  12
ATOM     12  O   UNL     1      52.912 -42.786  -1.830  1.00  0.00    -0.504 OA
ATOM     13  H   UNL     1      52.039 -43.253  -1.633  1.00  0.00     0.293 HD
ENDBRANCH   5  12
BRANCH   6  14
ATOM     14  O   UNL     1      55.409 -41.286  -1.615  1.00  0.00    -0.502 OA
ATOM     15  H   UNL     1      55.489 -42.243  -1.302  1.00  0.00     0.293 HD
ENDBRANCH   6  14
TORSDOF 4
ENDMDL
MODEL 3
REMARK VINA RESULT:    -5.076     13.686     14.116
REMARK INTER + INTRA:          -5.868
REMARK INTER:                  -5.818
REMARK INTRA:                  -0.050
REMARK UNBOUND:                -0.050
REMARK SMILES O=C([O-])c1cc(O)c(O)c(O)c1
REMARK SMILES IDX 4 1 5 2 12 3 6 4 10 5 8 6 2 7 1 8 3 9 7 10 11 12 9 14
REMARK H PARENT 7 11 11 13 9 15
REMARK Flexibility Score: inf
ROOT
ATOM      1  C   UNL     1      50.380 -35.164  10.892  1.00  0.00     0.005 A 
ATOM      2  C   UNL     1      50.555 -34.702   9.579  1.00  0.00     0.060 A 
ATOM      3  C   UNL     1      50.247 -36.545  11.116  1.00  0.00     0.060 A 
ATOM      4  C   UNL     1      50.598 -35.601   8.506  1.00  0.00     0.162 A 
ATOM      5  C   UNL     1      50.288 -37.454  10.052  1.00  0.00     0.162 A 
ATOM      6  C   UNL     1      50.465 -36.978   8.731  1.00  0.00     0.200 A 
ENDROOT
BRANCH   1   7
ATOM      7  C   UNL     1      50.335 -34.209  12.021  1.00  0.00     0.072 C 
ATOM      8  O   UNL     1      51.070 -33.185  12.023  1.00  0.00    -0.545 OA
ATOM      9  O   UNL     1      49.482 -34.427  13.097  1.00  0.00    -0.545 OA
ENDBRANCH   1   7
BRANCH   4  10
ATOM     10  O   UNL     1      50.773 -35.131   7.205  1.00  0.00    -0.504 OA
ATOM     11  H   UNL     1      51.461 -34.421   6.986  1.00  0.00     0.293 HD
ENDBRANCH   4  10
BRANCH   5  12
ATOM     12  O   UNL     1      50.149 -38.812  10.352  1.00  0.00    -0.504 OA
ATOM     13  H   UNL     1      50.676 -39.290  11.068  1.00  0.00     0.293 HD
ENDBRANCH   5  12
BRANCH   6  14
ATOM     14  O   UNL     1      50.516 -37.831   7.626  1.00  0.00    -0.502 OA
ATOM     15  H   UNL     1      49.842 -38.560   7.442  1.00  0.00     0.293 HD
ENDBRANCH   6  14
TORSDOF 4
ENDMDL
MODEL 4
REMARK VINA RESULT:    -5.000     13.583     13.847
REMARK INTER + INTRA:          -5.781
REMARK INTER:                  -5.731
REMARK INTRA:                  -0.050
REMARK UNBOUND:                -0.050
REMARK SMILES O=C([O-])c1cc(O)c(O)c(O)c1
REMARK SMILES IDX 4 1 5 2 12 3 6 4 10 5 8 6 2 7 1 8 3 9 7 10 11 12 9 14
REMARK H PARENT 7 11 11 13 9 15
REMARK Flexibility Score: inf
ROOT
ATOM      1  C   UNL     1      50.393 -35.243  10.815  1.00  0.00     0.005 A 
ATOM      2  C   UNL     1      50.306 -36.627  11.031  1.00  0.00     0.060 A 
ATOM      3  C   UNL     1      50.542 -34.767   9.502  1.00  0.00     0.060 A 
ATOM      4  C   UNL     1      50.368 -37.522   9.955  1.00  0.00     0.162 A 
ATOM      5  C   UNL     1      50.605 -35.651   8.418  1.00  0.00     0.162 A 
ATOM      6  C   UNL     1      50.517 -37.045   8.646  1.00  0.00     0.200 A 
ENDROOT
BRANCH   1   7
ATOM      7  C   UNL     1      50.327 -34.304  11.956  1.00  0.00     0.072 C 
ATOM      8  O   UNL     1      51.018 -33.249  11.958  1.00  0.00    -0.545 OA
ATOM      9  O   UNL     1      49.504 -34.571  13.044  1.00  0.00    -0.545 OA
ENDBRANCH   1   7
BRANCH   4  10
ATOM     10  O   UNL     1      50.281 -38.895  10.181  1.00  0.00    -0.504 OA
ATOM     11  H   UNL     1      51.092 -39.498  10.106  1.00  0.00     0.293 HD
ENDBRANCH   4  10
BRANCH   5  12
ATOM     12  O   UNL     1      50.754 -35.103   7.141  1.00  0.00    -0.504 OA
ATOM     13  H   UNL     1      50.751 -35.645   6.290  1.00  0.00     0.293 HD
ENDBRANCH   5  12
BRANCH   6  14
ATOM     14  O   UNL     1      50.572 -37.980   7.609  1.00  0.00    -0.502 OA
ATOM     15  H   UNL     1      51.424 -38.412   7.281  1.00  0.00     0.293 HD
ENDBRANCH   6  14
TORSDOF 4
ENDMDL
MODEL 5
REMARK VINA RESULT:    -4.959      1.413      4.324
REMARK INTER + INTRA:          -5.734
REMARK INTER:                  -5.682
REMARK INTRA:                  -0.052
REMARK UNBOUND:                -0.050
REMARK SMILES O=C([O-])c1cc(O)c(O)c(O)c1
REMARK SMILES IDX 4 1 5 2 12 3 6 4 10 5 8 6 2 7 1 8 3 9 7 10 11 12 9 14
REMARK H PARENT 7 11 11 13 9 15
REMARK Flexibility Score: inf
ROOT
ATOM      1  C   UNL     1      52.547 -40.343  -2.680  1.00  0.00     0.005 A 
ATOM      2  C   UNL     1      51.676 -41.433  -2.820  1.00  0.00     0.060 A 
ATOM      3  C   UNL     1      52.184 -39.105  -3.236  1.00  0.00     0.060 A 
ATOM      4  C   UNL     1      50.461 -41.292  -3.504  1.00  0.00     0.162 A 
ATOM      5  C   UNL     1      50.973 -38.950  -3.922  1.00  0.00     0.162 A 
ATOM      6  C   UNL     1      50.101 -40.057  -4.058  1.00  0.00     0.200 A 
ENDROOT
BRANCH   1   7
ATOM      7  C   UNL     1      53.829 -40.499  -1.958  1.00  0.00     0.072 C 
ATOM      8  O   UNL     1      54.414 -39.496  -1.467  1.00  0.00    -0.545 OA
ATOM      9  O   UNL     1      54.407 -41.754  -1.810  1.00  0.00    -0.545 OA
ENDBRANCH   1   7
BRANCH   4  10
ATOM     10  O   UNL     1      49.602 -42.382  -3.637  1.00  0.00    -0.504 OA
ATOM     11  H   UNL     1      49.930 -43.334  -3.521  1.00  0.00     0.293 HD
ENDBRANCH   4  10
BRANCH   5  12
ATOM     12  O   UNL     1      50.680 -37.689  -4.448  1.00  0.00    -0.504 OA
ATOM     13  H   UNL     1      51.352 -36.941  -4.529  1.00  0.00     0.293 HD
ENDBRANCH   5  12
BRANCH   6  14
ATOM     14  O   UNL     1      48.878 -39.970  -4.729  1.00  0.00    -0.502 OA
ATOM     15  H   UNL     1      48.342 -40.770  -5.034  1.00  0.00     0.293 HD
ENDBRANCH   6  14
TORSDOF 4
ENDMDL
MODEL 6
REMARK VINA RESULT:    -4.911      1.465      4.933
REMARK INTER + INTRA:          -5.679
REMARK INTER:                  -5.627
REMARK INTRA:                  -0.052
REMARK UNBOUND:                -0.050
REMARK SMILES O=C([O-])c1cc(O)c(O)c(O)c1
REMARK SMILES IDX 4 1 5 2 12 3 6 4 10 5 8 6 2 7 1 8 3 9 7 10 11 12 9 14
REMARK H PARENT 7 11 11 13 9 15
REMARK Flexibility Score: inf
ROOT
ATOM      1  C   UNL     1      52.546 -40.392  -2.717  1.00  0.00     0.005 A 
ATOM      2  C   UNL     1      52.170 -39.158  -3.269  1.00  0.00     0.060 A 
ATOM      3  C   UNL     1      51.704 -41.502  -2.894  1.00  0.00     0.060 A 
ATOM      4  C   UNL     1      50.973 -39.034  -3.987  1.00  0.00     0.162 A 
ATOM      5  C   UNL     1      50.505 -41.391  -3.609  1.00  0.00     0.162 A 
ATOM      6  C   UNL     1      50.135 -40.142  -4.162  1.00  0.00     0.200 A 
ENDROOT
BRANCH   1   7
ATOM      7  C   UNL     1      53.810 -40.517  -1.960  1.00  0.00     0.072 C 
ATOM      8  O   UNL     1      54.356 -39.500  -1.452  1.00  0.00    -0.545 OA
ATOM      9  O   UNL     1      54.416 -41.757  -1.798  1.00  0.00    -0.545 OA
ENDBRANCH   1   7
BRANCH   4  10
ATOM     10  O   UNL     1      50.609 -37.803  -4.532  1.00  0.00    -0.504 OA
ATOM     11  H   UNL     1      51.134 -37.381  -5.288  1.00  0.00     0.293 HD
ENDBRANCH   4  10
BRANCH   5  12
ATOM     12  O   UNL     1      49.720 -42.539  -3.744  1.00  0.00    -0.504 OA
ATOM     13  H   UNL     1      49.774 -43.172  -4.528  1.00  0.00     0.293 HD
ENDBRANCH   5  12
BRANCH   6  14
ATOM     14  O   UNL     1      48.953 -39.963  -4.887  1.00  0.00    -0.502 OA
ATOM     15  H   UNL     1      48.438 -39.095  -4.925  1.00  0.00     0.293 HD
ENDBRANCH   6  14
TORSDOF 4
ENDMDL
MODEL 7
REMARK VINA RESULT:    -4.752     12.523     13.080
REMARK INTER + INTRA:          -5.497
REMARK INTER:                  -5.445
REMARK INTRA:                  -0.051
REMARK UNBOUND:                -0.050
REMARK SMILES O=C([O-])c1cc(O)c(O)c(O)c1
REMARK SMILES IDX 4 1 5 2 12 3 6 4 10 5 8 6 2 7 1 8 3 9 7 10 11 12 9 14
REMARK H PARENT 7 11 11 13 9 15
REMARK Flexibility Score: inf
ROOT
ATOM      1  C   UNL     1      49.817 -38.648  10.016  1.00  0.00     0.005 A 
ATOM      2  C   UNL     1      49.340 -38.590   8.698  1.00  0.00     0.060 A 
ATOM      3  C   UNL     1      50.625 -37.605  10.494  1.00  0.00     0.060 A 
ATOM      4  C   UNL     1      49.665 -37.508   7.869  1.00  0.00     0.162 A 
ATOM      5  C   UNL     1      50.958 -36.518   9.677  1.00  0.00     0.162 A 
ATOM      6  C   UNL     1      50.472 -36.468   8.348  1.00  0.00     0.200 A 
ENDROOT
BRANCH   1   7
ATOM      7  C   UNL     1      49.470 -39.794  10.885  1.00  0.00     0.072 C 
ATOM      8  O   UNL     1      49.493 -39.676  12.140  1.00  0.00    -0.545 OA
ATOM      9  O   UNL     1      49.114 -41.018  10.331  1.00  0.00    -0.545 OA
ENDBRANCH   1   7
BRANCH   4  10
ATOM     10  O   UNL     1      49.186 -37.460   6.561  1.00  0.00    -0.504 OA
ATOM     11  H   UNL     1      48.523 -36.754   6.264  1.00  0.00     0.293 HD
ENDBRANCH   4  10
BRANCH   5  12
ATOM     12  O   UNL     1      51.767 -35.518  10.222  1.00  0.00    -0.504 OA
ATOM     13  H   UNL     1      51.857 -35.340  11.212  1.00  0.00     0.293 HD
ENDBRANCH   5  12
BRANCH   6  14
ATOM     14  O   UNL     1      50.766 -35.412   7.481  1.00  0.00    -0.502 OA
ATOM     15  H   UNL     1      50.123 -35.051   6.791  1.00  0.00     0.293 HD
ENDBRANCH   6  14
TORSDOF 4
ENDMDL
MODEL 8
REMARK VINA RESULT:    -4.731     12.429     13.081
REMARK INTER + INTRA:          -5.472
REMARK INTER:                  -5.421
REMARK INTRA:                  -0.052
REMARK UNBOUND:                -0.050
REMARK SMILES O=C([O-])c1cc(O)c(O)c(O)c1
REMARK SMILES IDX 4 1 5 2 12 3 6 4 10 5 8 6 2 7 1 8 3 9 7 10 11 12 9 14
REMARK H PARENT 7 11 11 13 9 15
REMARK Flexibility Score: inf
ROOT
ATOM      1  C   UNL     1      49.811 -38.749   9.873  1.00  0.00     0.005 A 
ATOM      2  C   UNL     1      50.600 -37.716  10.402  1.00  0.00     0.060 A 
ATOM      3  C   UNL     1      49.341 -38.639   8.554  1.00  0.00     0.060 A 
ATOM      4  C   UNL     1      50.915 -36.592   9.628  1.00  0.00     0.162 A 
ATOM      5  C   UNL     1      49.648 -37.520   7.770  1.00  0.00     0.162 A 
ATOM      6  C   UNL     1      50.445 -36.484   8.313  1.00  0.00     0.200 A 
ENDROOT
BRANCH   1   7
ATOM      7  C   UNL     1      49.482 -39.934  10.695  1.00  0.00     0.072 C 
ATOM      8  O   UNL     1      49.095 -41.003  10.152  1.00  0.00    -0.545 OA
ATOM      9  O   UNL     1      49.595 -39.885  12.080  1.00  0.00    -0.545 OA
ENDBRANCH   1   7
BRANCH   4  10
ATOM     10  O   UNL     1      51.700 -35.571  10.164  1.00  0.00    -0.504 OA
ATOM     11  H   UNL     1      51.352 -34.962  10.895  1.00  0.00     0.293 HD
ENDBRANCH   4  10
BRANCH   5  12
ATOM     12  O   UNL     1      49.144 -37.481   6.467  1.00  0.00    -0.504 OA
ATOM     13  H   UNL     1      48.203 -37.745   6.217  1.00  0.00     0.293 HD
ENDBRANCH   5  12
BRANCH   6  14
ATOM     14  O   UNL     1      50.788 -35.341   7.585  1.00  0.00    -0.502 OA
ATOM     15  H   UNL     1      51.211 -35.360   6.668  1.00  0.00     0.293 HD
ENDBRANCH   6  14
TORSDOF 4
ENDMDL
MODEL 9
REMARK VINA RESULT:    -4.713     12.369     12.895
REMARK INTER + INTRA:          -5.452
REMARK INTER:                  -5.407
REMARK INTRA:                  -0.045
REMARK UNBOUND:                -0.050
REMARK SMILES O=C([O-])c1cc(O)c(O)c(O)c1
REMARK SMILES IDX 4 1 5 2 12 3 6 4 10 5 8 6 2 7 1 8 3 9 7 10 11 12 9 14
REMARK H PARENT 7 11 11 13 9 15
REMARK Flexibility Score: inf
ROOT
ATOM      1  C   UNL     1      49.624 -39.293   8.873  1.00  0.00     0.005 A 
ATOM      2  C   UNL     1      50.039 -38.222   8.068  1.00  0.00     0.060 A 
ATOM      3  C   UNL     1      49.734 -39.178  10.268  1.00  0.00     0.060 A 
ATOM      4  C   UNL     1      50.556 -37.055   8.645  1.00  0.00     0.162 A 
ATOM      5  C   UNL     1      50.249 -38.018  10.858  1.00  0.00     0.162 A 
ATOM      6  C   UNL     1      50.665 -36.942  10.037  1.00  0.00     0.200 A 
ENDROOT
BRANCH   1   7
ATOM      7  C   UNL     1      49.079 -40.523   8.257  1.00  0.00     0.072 C 
ATOM      8  O   UNL     1      47.839 -40.652   8.075  1.00  0.00    -0.545 OA
ATOM      9  O   UNL     1      49.928 -41.554   7.871  1.00  0.00    -0.545 OA
ENDBRANCH   1   7
BRANCH   4  10
ATOM     10  O   UNL     1      50.966 -35.996   7.835  1.00  0.00    -0.504 OA
ATOM     11  H   UNL     1      51.554 -35.252   8.191  1.00  0.00     0.293 HD
ENDBRANCH   4  10
BRANCH   5  12
ATOM     12  O   UNL     1      50.329 -37.977  12.252  1.00  0.00    -0.504 OA
ATOM     13  H   UNL     1      50.453 -37.130  12.787  1.00  0.00     0.293 HD
ENDBRANCH   5  12
BRANCH   6  14
ATOM     14  O   UNL     1      51.188 -35.756  10.561  1.00  0.00    -0.502 OA
ATOM     15  H   UNL     1      50.642 -35.071  11.063  1.00  0.00     0.293 HD
ENDBRANCH   6  14
TORSDOF 4
ENDMDL
