MODEL 1
REMARK VINA RESULT:    -3.860      0.000      0.000
REMARK INTER + INTRA:         -11.151
REMARK INTER:                  -8.373
REMARK INTRA:                  -2.778
REMARK UNBOUND:                -2.778
REMARK SMILES CCCCCCCCCCCCCCCCCCCCCC(=O)[O-]
REMARK SMILES IDX 12 1 11 2 10 3 9 4 8 5 7 6 6 7 5 8 4 9 3 10 2 11 1 12 13 13
REMARK SMILES IDX 14 14 15 15 16 16 17 17 18 18 19 19 20 20 21 21 22 22 23 23
REMARK SMILES IDX 24 24
REMARK H PARENT
REMARK Flexibility Score: inf
ROOT
ATOM      1  C   UNL     1     -91.609 145.639 237.790  1.00  0.00     0.000 C 
ENDROOT
BRANCH   1   2
ATOM      2  C   UNL     1     -92.520 145.942 236.583  1.00  0.00     0.000 C 
BRANCH   2   3
ATOM      3  C   UNL     1     -92.410 144.939 235.421  1.00  0.00     0.000 C 
BRANCH   3   4
ATOM      4  C   UNL     1     -92.653 145.586 234.048  1.00  0.00    -0.000 C 
BRANCH   4   5
ATOM      5  C   UNL     1     -92.309 147.084 234.034  1.00  0.00    -0.000 C 
BRANCH   5   6
ATOM      6  C   UNL     1     -93.512 147.959 233.637  1.00  0.00    -0.000 C 
BRANCH   6   7
ATOM      7  C   UNL     1     -94.858 147.227 233.787  1.00  0.00    -0.000 C 
BRANCH   7   8
ATOM      8  C   UNL     1     -95.627 147.521 235.094  1.00  0.00    -0.000 C 
BRANCH   8   9
ATOM      9  C   UNL     1     -95.135 148.749 235.888  1.00  0.00    -0.000 C 
BRANCH   9  10
ATOM     10  C   UNL     1     -95.985 149.070 237.138  1.00  0.00    -0.000 C 
BRANCH  10  11
ATOM     11  C   UNL     1     -96.799 147.871 237.653  1.00  0.00    -0.003 C 
ATOM     12  C   UNL     1     -98.233 148.244 238.026  1.00  0.00     0.004 C 
ENDBRANCH  10  11
ENDBRANCH   9  10
ENDBRANCH   8   9
ENDBRANCH   7   8
ENDBRANCH   6   7
ENDBRANCH   5   6
ENDBRANCH   4   5
ENDBRANCH   3   4
ENDBRANCH   2   3
ENDBRANCH   1   2
BRANCH   1  13
ATOM     13  C   UNL     1     -92.195 146.024 239.163  1.00  0.00     0.000 C 
BRANCH  13  14
ATOM     14  C   UNL     1     -93.544 146.769 239.113  1.00  0.00     0.000 C 
BRANCH  14  15
ATOM     15  C   UNL     1     -93.493 148.244 239.550  1.00  0.00     0.000 C 
BRANCH  15  16
ATOM     16  C   UNL     1     -94.539 148.583 240.626  1.00  0.00     0.000 C 
BRANCH  16  17
ATOM     17  C   UNL     1     -95.386 147.367 241.031  1.00  0.00     0.000 C 
BRANCH  17  18
ATOM     18  C   UNL     1     -96.664 147.758 241.797  1.00  0.00     0.000 C 
BRANCH  18  19
ATOM     19  C   UNL     1     -96.933 149.276 241.741  1.00  0.00     0.000 C 
BRANCH  19  20
ATOM     20  C   UNL     1     -98.029 149.743 242.715  1.00  0.00     0.006 C 
BRANCH  20  21
ATOM     21  C   UNL     1     -98.055 148.933 244.017  1.00  0.00     0.053 C 
BRANCH  21  22
ATOM     22  C   UNL     1     -98.731 149.710 245.103  1.00  0.00     0.041 C 
ATOM     23  O   UNL     1     -98.352 150.880 245.374  1.00  0.00    -0.550 OA
ATOM     24  O   UNL     1     -99.748 149.126 245.845  1.00  0.00    -0.550 OA
ENDBRANCH  21  22
ENDBRANCH  20  21
ENDBRANCH  19  20
ENDBRANCH  18  19
ENDBRANCH  17  18
ENDBRANCH  16  17
ENDBRANCH  15  16
ENDBRANCH  14  15
ENDBRANCH  13  14
ENDBRANCH   1  13
TORSDOF 20
ENDMDL
MODEL 2
REMARK VINA RESULT:    -3.838      3.395      6.689
REMARK INTER + INTRA:         -11.104
REMARK INTER:                  -8.609
REMARK INTRA:                  -2.495
REMARK UNBOUND:                -2.778
REMARK SMILES CCCCCCCCCCCCCCCCCCCCCC(=O)[O-]
REMARK SMILES IDX 12 1 11 2 10 3 9 4 8 5 7 6 6 7 5 8 4 9 3 10 2 11 1 12 13 13
REMARK SMILES IDX 14 14 15 15 16 16 17 17 18 18 19 19 20 20 21 21 22 22 23 23
REMARK SMILES IDX 24 24
REMARK H PARENT
REMARK Flexibility Score: inf
ROOT
ATOM      1  C   UNL     1     -92.439 146.560 238.933  1.00  0.00     0.000 C 
ENDROOT
BRANCH   1   2
ATOM      2  C   UNL     1     -93.361 145.841 239.937  1.00  0.00     0.000 C 
BRANCH   2   3
ATOM      3  C   UNL     1     -94.332 146.762 240.698  1.00  0.00     0.000 C 
BRANCH   3   4
ATOM      4  C   UNL     1     -94.299 148.214 240.192  1.00  0.00    -0.000 C 
BRANCH   4   5
ATOM      5  C   UNL     1     -95.557 149.003 240.587  1.00  0.00    -0.000 C 
BRANCH   5   6
ATOM      6  C   UNL     1     -96.426 148.248 241.610  1.00  0.00    -0.000 C 
BRANCH   6   7
ATOM      7  C   UNL     1     -97.508 149.138 242.247  1.00  0.00    -0.000 C 
BRANCH   7   8
ATOM      8  C   UNL     1     -97.954 150.348 241.397  1.00  0.00    -0.000 C 
BRANCH   8   9
ATOM      9  C   UNL     1     -99.316 150.192 240.690  1.00  0.00    -0.000 C 
BRANCH   9  10
ATOM     10  C   UNL     1     -99.336 150.723 239.239  1.00  0.00    -0.000 C 
BRANCH  10  11
ATOM     11  C   UNL     1     -98.609 149.808 238.239  1.00  0.00    -0.003 C 
ATOM     12  C   UNL     1     -99.512 148.718 237.667  1.00  0.00     0.004 C 
ENDBRANCH  10  11
ENDBRANCH   9  10
ENDBRANCH   8   9
ENDBRANCH   7   8
ENDBRANCH   6   7
ENDBRANCH   5   6
ENDBRANCH   4   5
ENDBRANCH   3   4
ENDBRANCH   2   3
ENDBRANCH   1   2
BRANCH   1  13
ATOM     13  C   UNL     1     -91.764 145.644 237.893  1.00  0.00     0.000 C 
BRANCH  13  14
ATOM     14  C   UNL     1     -92.343 145.738 236.466  1.00  0.00     0.000 C 
BRANCH  14  15
ATOM     15  C   UNL     1     -93.863 145.964 236.392  1.00  0.00     0.000 C 
BRANCH  15  16
ATOM     16  C   UNL     1     -94.234 147.377 235.911  1.00  0.00     0.000 C 
BRANCH  16  17
ATOM     17  C   UNL     1     -95.395 147.987 236.711  1.00  0.00     0.000 C 
BRANCH  17  18
ATOM     18  C   UNL     1     -95.421 149.526 236.646  1.00  0.00     0.000 C 
BRANCH  18  19
ATOM     19  C   UNL     1     -95.374 150.048 235.195  1.00  0.00     0.000 C 
BRANCH  19  20
ATOM     20  C   UNL     1     -95.551 151.572 235.083  1.00  0.00     0.006 C 
BRANCH  20  21
ATOM     21  C   UNL     1     -96.968 151.979 234.661  1.00  0.00     0.053 C 
BRANCH  21  22
ATOM     22  C   UNL     1     -97.502 153.037 235.574  1.00  0.00     0.041 C 
ATOM     23  O   UNL     1     -98.515 152.809 236.285  1.00  0.00    -0.550 OA
ATOM     24  O   UNL     1     -96.907 154.291 235.605  1.00  0.00    -0.550 OA
ENDBRANCH  21  22
ENDBRANCH  20  21
ENDBRANCH  19  20
ENDBRANCH  18  19
ENDBRANCH  17  18
ENDBRANCH  16  17
ENDBRANCH  15  16
ENDBRANCH  14  15
ENDBRANCH  13  14
ENDBRANCH   1  13
TORSDOF 20
ENDMDL
MODEL 3
REMARK VINA RESULT:    -3.789      3.590      6.433
REMARK INTER + INTRA:         -10.998
REMARK INTER:                  -8.817
REMARK INTRA:                  -2.181
REMARK UNBOUND:                -2.778
REMARK SMILES CCCCCCCCCCCCCCCCCCCCCC(=O)[O-]
REMARK SMILES IDX 12 1 11 2 10 3 9 4 8 5 7 6 6 7 5 8 4 9 3 10 2 11 1 12 13 13
REMARK SMILES IDX 14 14 15 15 16 16 17 17 18 18 19 19 20 20 21 21 22 22 23 23
REMARK SMILES IDX 24 24
REMARK H PARENT
REMARK Flexibility Score: inf
ROOT
ATOM      1  C   UNL     1     -92.639 145.607 236.445  1.00  0.00     0.000 C 
ENDROOT
BRANCH   1   2
ATOM      2  C   UNL     1     -91.522 145.634 237.507  1.00  0.00     0.000 C 
BRANCH   2   3
ATOM      3  C   UNL     1     -91.988 146.005 238.926  1.00  0.00     0.000 C 
BRANCH   3   4
ATOM      4  C   UNL     1     -93.447 146.489 238.969  1.00  0.00    -0.000 C 
BRANCH   4   5
ATOM      5  C   UNL     1     -93.560 147.992 239.270  1.00  0.00    -0.000 C 
BRANCH   5   6
ATOM      6  C   UNL     1     -94.660 148.677 238.439  1.00  0.00    -0.000 C 
BRANCH   6   7
ATOM      7  C   UNL     1     -96.030 148.669 239.139  1.00  0.00    -0.000 C 
BRANCH   7   8
ATOM      8  C   UNL     1     -95.984 148.648 240.683  1.00  0.00    -0.000 C 
BRANCH   8   9
ATOM      9  C   UNL     1     -96.536 149.910 241.377  1.00  0.00    -0.000 C 
BRANCH   9  10
ATOM     10  C   UNL     1     -97.681 149.627 242.376  1.00  0.00    -0.000 C 
BRANCH  10  11
ATOM     11  C   UNL     1     -99.083 149.829 241.777  1.00  0.00    -0.003 C 
ATOM     12  C   UNL     1     -99.048 150.418 240.369  1.00  0.00     0.004 C 
ENDBRANCH  10  11
ENDBRANCH   9  10
ENDBRANCH   8   9
ENDBRANCH   7   8
ENDBRANCH   6   7
ENDBRANCH   5   6
ENDBRANCH   4   5
ENDBRANCH   3   4
ENDBRANCH   2   3
ENDBRANCH   1   2
BRANCH   1  13
ATOM     13  C   UNL     1     -92.211 146.064 235.035  1.00  0.00     0.000 C 
BRANCH  13  14
ATOM     14  C   UNL     1     -93.272 146.872 234.260  1.00  0.00     0.000 C 
BRANCH  14  15
ATOM     15  C   UNL     1     -94.534 147.232 235.064  1.00  0.00     0.000 C 
BRANCH  15  16
ATOM     16  C   UNL     1     -95.054 148.646 234.754  1.00  0.00     0.000 C 
BRANCH  16  17
ATOM     17  C   UNL     1     -96.524 148.836 235.159  1.00  0.00     0.000 C 
BRANCH  17  18
ATOM     18  C   UNL     1     -96.810 150.237 235.732  1.00  0.00     0.000 C 
BRANCH  18  19
ATOM     19  C   UNL     1     -95.714 151.255 235.351  1.00  0.00     0.000 C 
BRANCH  19  20
ATOM     20  C   UNL     1     -96.261 152.656 235.030  1.00  0.00     0.006 C 
BRANCH  20  21
ATOM     21  C   UNL     1     -97.787 152.746 235.159  1.00  0.00     0.053 C 
BRANCH  21  22
ATOM     22  C   UNL     1     -98.180 154.025 235.827  1.00  0.00     0.041 C 
ATOM     23  O   UNL     1     -99.285 154.115 236.424  1.00  0.00    -0.550 OA
ATOM     24  O   UNL     1     -97.347 155.133 235.752  1.00  0.00    -0.550 OA
ENDBRANCH  21  22
ENDBRANCH  20  21
ENDBRANCH  19  20
ENDBRANCH  18  19
ENDBRANCH  17  18
ENDBRANCH  16  17
ENDBRANCH  15  16
ENDBRANCH  14  15
ENDBRANCH  13  14
ENDBRANCH   1  13
TORSDOF 20
ENDMDL
MODEL 4
REMARK VINA RESULT:    -3.745      2.343      5.789
REMARK INTER + INTRA:         -10.901
REMARK INTER:                  -7.830
REMARK INTRA:                  -3.071
REMARK UNBOUND:                -2.778
REMARK SMILES CCCCCCCCCCCCCCCCCCCCCC(=O)[O-]
REMARK SMILES IDX 12 1 11 2 10 3 9 4 8 5 7 6 6 7 5 8 4 9 3 10 2 11 1 12 13 13
REMARK SMILES IDX 14 14 15 15 16 16 17 17 18 18 19 19 20 20 21 21 22 22 23 23
REMARK SMILES IDX 24 24
REMARK H PARENT
REMARK Flexibility Score: inf
ROOT
ATOM      1  C   UNL     1     -97.847 150.171 240.868  1.00  0.00     0.000 C 
ENDROOT
BRANCH   1   2
ATOM      2  C   UNL     1     -96.499 149.740 241.481  1.00  0.00     0.000 C 
BRANCH   2   3
ATOM      3  C   UNL     1     -96.272 148.219 241.539  1.00  0.00     0.000 C 
BRANCH   3   4
ATOM      4  C   UNL     1     -94.850 147.810 241.120  1.00  0.00    -0.000 C 
BRANCH   4   5
ATOM      5  C   UNL     1     -94.659 146.286 241.094  1.00  0.00    -0.000 C 
BRANCH   5   6
ATOM      6  C   UNL     1     -93.629 145.841 240.040  1.00  0.00    -0.000 C 
BRANCH   6   7
ATOM      7  C   UNL     1     -93.217 146.979 239.089  1.00  0.00    -0.000 C 
BRANCH   7   8
ATOM      8  C   UNL     1     -93.339 146.658 237.583  1.00  0.00    -0.000 C 
BRANCH   8   9
ATOM      9  C   UNL     1     -94.377 147.497 236.810  1.00  0.00    -0.000 C 
BRANCH   9  10
ATOM     10  C   UNL     1     -94.972 148.667 237.626  1.00  0.00    -0.000 C 
BRANCH  10  11
ATOM     11  C   UNL     1     -96.508 148.644 237.702  1.00  0.00    -0.003 C 
ATOM     12  C   UNL     1     -97.062 147.280 238.108  1.00  0.00     0.004 C 
ENDBRANCH  10  11
ENDBRANCH   9  10
ENDBRANCH   8   9
ENDBRANCH   7   8
ENDBRANCH   6   7
ENDBRANCH   5   6
ENDBRANCH   4   5
ENDBRANCH   3   4
ENDBRANCH   2   3
ENDBRANCH   1   2
BRANCH   1  13
ATOM     13  C   UNL     1     -98.928 149.072 240.828  1.00  0.00     0.000 C 
BRANCH  13  14
ATOM     14  C   UNL     1    -100.302 149.487 241.392  1.00  0.00     0.000 C 
BRANCH  14  15
ATOM     15  C   UNL     1    -100.368 149.610 242.924  1.00  0.00     0.000 C 
BRANCH  15  16
ATOM     16  C   UNL     1     -99.867 148.348 243.646  1.00  0.00     0.000 C 
BRANCH  16  17
ATOM     17  C   UNL     1     -98.569 148.593 244.430  1.00  0.00     0.000 C 
BRANCH  17  18
ATOM     18  C   UNL     1     -98.320 150.085 244.723  1.00  0.00     0.000 C 
BRANCH  18  19
ATOM     19  C   UNL     1     -98.842 150.499 246.115  1.00  0.00     0.000 C 
BRANCH  19  20
ATOM     20  C   UNL     1     -99.161 151.999 246.230  1.00  0.00     0.006 C 
BRANCH  20  21
ATOM     21  C   UNL     1     -98.673 152.614 247.548  1.00  0.00     0.053 C 
BRANCH  21  22
ATOM     22  C   UNL     1     -99.285 153.963 247.754  1.00  0.00     0.041 C 
ATOM     23  O   UNL     1     -99.858 154.551 246.800  1.00  0.00    -0.550 OA
ATOM     24  O   UNL     1     -99.183 154.591 248.988  1.00  0.00    -0.550 OA
ENDBRANCH  21  22
ENDBRANCH  20  21
ENDBRANCH  19  20
ENDBRANCH  18  19
ENDBRANCH  17  18
ENDBRANCH  16  17
ENDBRANCH  15  16
ENDBRANCH  14  15
ENDBRANCH  13  14
ENDBRANCH   1  13
TORSDOF 20
ENDMDL
MODEL 5
REMARK VINA RESULT:    -3.737      3.664      6.613
REMARK INTER + INTRA:         -10.885
REMARK INTER:                  -7.464
REMARK INTRA:                  -3.421
REMARK UNBOUND:                -2.778
REMARK SMILES CCCCCCCCCCCCCCCCCCCCCC(=O)[O-]
REMARK SMILES IDX 12 1 11 2 10 3 9 4 8 5 7 6 6 7 5 8 4 9 3 10 2 11 1 12 13 13
REMARK SMILES IDX 14 14 15 15 16 16 17 17 18 18 19 19 20 20 21 21 22 22 23 23
REMARK SMILES IDX 24 24
REMARK H PARENT
REMARK Flexibility Score: inf
ROOT
ATOM      1  C   UNL     1     -91.992 145.642 237.047  1.00  0.00     0.000 C 
ENDROOT
BRANCH   1   2
ATOM      2  C   UNL     1     -91.824 145.851 238.566  1.00  0.00     0.000 C 
BRANCH   2   3
ATOM      3  C   UNL     1     -92.893 146.746 239.217  1.00  0.00     0.000 C 
BRANCH   3   4
ATOM      4  C   UNL     1     -93.740 146.001 240.263  1.00  0.00    -0.000 C 
BRANCH   4   5
ATOM      5  C   UNL     1     -94.577 146.955 241.129  1.00  0.00    -0.000 C 
BRANCH   5   6
ATOM      6  C   UNL     1     -94.332 148.434 240.779  1.00  0.00    -0.000 C 
BRANCH   6   7
ATOM      7  C   UNL     1     -95.593 149.303 240.938  1.00  0.00    -0.000 C 
BRANCH   7   8
ATOM      8  C   UNL     1     -96.813 148.589 241.560  1.00  0.00    -0.000 C 
BRANCH   8   9
ATOM      9  C   UNL     1     -97.605 149.415 242.595  1.00  0.00    -0.000 C 
BRANCH   9  10
ATOM     10  C   UNL     1     -98.912 150.026 242.043  1.00  0.00    -0.000 C 
BRANCH  10  11
ATOM     11  C   UNL     1     -99.251 149.566 240.615  1.00  0.00    -0.003 C 
ATOM     12  C   UNL     1     -99.544 150.729 239.670  1.00  0.00     0.004 C 
ENDBRANCH  10  11
ENDBRANCH   9  10
ENDBRANCH   8   9
ENDBRANCH   7   8
ENDBRANCH   6   7
ENDBRANCH   5   6
ENDBRANCH   4   5
ENDBRANCH   3   4
ENDBRANCH   2   3
ENDBRANCH   1   2
BRANCH   1  13
ATOM     13  C   UNL     1     -93.196 146.369 236.416  1.00  0.00     0.000 C 
BRANCH  13  14
ATOM     14  C   UNL     1     -94.042 145.515 235.449  1.00  0.00     0.000 C 
BRANCH  14  15
ATOM     15  C   UNL     1     -95.535 145.413 235.804  1.00  0.00     0.000 C 
BRANCH  15  16
ATOM     16  C   UNL     1     -95.785 145.348 237.320  1.00  0.00     0.000 C 
BRANCH  16  17
ATOM     17  C   UNL     1     -96.741 146.446 237.810  1.00  0.00     0.000 C 
BRANCH  17  18
ATOM     18  C   UNL     1     -96.165 147.863 237.629  1.00  0.00     0.000 C 
BRANCH  18  19
ATOM     19  C   UNL     1     -97.273 148.927 237.479  1.00  0.00     0.000 C 
BRANCH  19  20
ATOM     20  C   UNL     1     -97.197 149.712 236.159  1.00  0.00     0.006 C 
BRANCH  20  21
ATOM     21  C   UNL     1     -96.530 148.917 235.029  1.00  0.00     0.053 C 
BRANCH  21  22
ATOM     22  C   UNL     1     -95.258 149.581 234.604  1.00  0.00     0.041 C 
ATOM     23  O   UNL     1     -94.335 148.905 234.080  1.00  0.00    -0.550 OA
ATOM     24  O   UNL     1     -95.076 150.939 234.827  1.00  0.00    -0.550 OA
ENDBRANCH  21  22
ENDBRANCH  20  21
ENDBRANCH  19  20
ENDBRANCH  18  19
ENDBRANCH  17  18
ENDBRANCH  16  17
ENDBRANCH  15  16
ENDBRANCH  14  15
ENDBRANCH  13  14
ENDBRANCH   1  13
TORSDOF 20
ENDMDL
MODEL 6
REMARK VINA RESULT:    -3.726      3.215      6.780
REMARK INTER + INTRA:         -10.860
REMARK INTER:                  -7.856
REMARK INTRA:                  -3.004
REMARK UNBOUND:                -2.778
REMARK SMILES CCCCCCCCCCCCCCCCCCCCCC(=O)[O-]
REMARK SMILES IDX 12 1 11 2 10 3 9 4 8 5 7 6 6 7 5 8 4 9 3 10 2 11 1 12 13 13
REMARK SMILES IDX 14 14 15 15 16 16 17 17 18 18 19 19 20 20 21 21 22 22 23 23
REMARK SMILES IDX 24 24
REMARK H PARENT
REMARK Flexibility Score: inf
ROOT
ATOM      1  C   UNL     1     -93.349 145.829 239.845  1.00  0.00     0.000 C 
ENDROOT
BRANCH   1   2
ATOM      2  C   UNL     1     -94.264 147.031 240.151  1.00  0.00     0.000 C 
BRANCH   2   3
ATOM      3  C   UNL     1     -94.020 148.271 239.272  1.00  0.00     0.000 C 
BRANCH   3   4
ATOM      4  C   UNL     1     -95.173 148.546 238.293  1.00  0.00    -0.000 C 
BRANCH   4   5
ATOM      5  C   UNL     1     -96.100 147.332 238.119  1.00  0.00    -0.000 C 
BRANCH   5   6
ATOM      6  C   UNL     1     -97.583 147.692 238.323  1.00  0.00    -0.000 C 
BRANCH   6   7
ATOM      7  C   UNL     1     -97.793 149.169 238.701  1.00  0.00    -0.000 C 
BRANCH   7   8
ATOM      8  C   UNL     1     -98.323 149.417 240.130  1.00  0.00    -0.000 C 
BRANCH   8   9
ATOM      9  C   UNL     1     -97.255 149.813 241.171  1.00  0.00    -0.000 C 
BRANCH   9  10
ATOM     10  C   UNL     1     -96.874 148.676 242.145  1.00  0.00    -0.000 C 
BRANCH  10  11
ATOM     11  C   UNL     1     -97.919 148.435 243.247  1.00  0.00    -0.003 C 
ATOM     12  C   UNL     1     -98.321 149.715 243.975  1.00  0.00     0.004 C 
ENDBRANCH  10  11
ENDBRANCH   9  10
ENDBRANCH   8   9
ENDBRANCH   7   8
ENDBRANCH   6   7
ENDBRANCH   5   6
ENDBRANCH   4   5
ENDBRANCH   3   4
ENDBRANCH   2   3
ENDBRANCH   1   2
BRANCH   1  13
ATOM     13  C   UNL     1     -91.985 146.187 239.222  1.00  0.00     0.000 C 
BRANCH  13  14
ATOM     14  C   UNL     1     -91.754 145.641 237.798  1.00  0.00     0.000 C 
BRANCH  14  15
ATOM     15  C   UNL     1     -92.890 145.923 236.798  1.00  0.00     0.000 C 
BRANCH  15  16
ATOM     16  C   UNL     1     -92.498 145.604 235.345  1.00  0.00     0.000 C 
BRANCH  16  17
ATOM     17  C   UNL     1     -92.926 146.706 234.363  1.00  0.00     0.000 C 
BRANCH  17  18
ATOM     18  C   UNL     1     -93.906 147.716 234.989  1.00  0.00     0.000 C 
BRANCH  18  19
ATOM     19  C   UNL     1     -95.339 147.552 234.442  1.00  0.00     0.000 C 
BRANCH  19  20
ATOM     20  C   UNL     1     -95.998 148.880 234.034  1.00  0.00     0.006 C 
BRANCH  20  21
ATOM     21  C   UNL     1     -95.218 150.108 234.521  1.00  0.00     0.053 C 
BRANCH  21  22
ATOM     22  C   UNL     1     -96.158 151.160 235.020  1.00  0.00     0.041 C 
ATOM     23  O   UNL     1     -95.950 152.373 234.755  1.00  0.00    -0.550 OA
ATOM     24  O   UNL     1     -97.239 150.805 235.815  1.00  0.00    -0.550 OA
ENDBRANCH  21  22
ENDBRANCH  20  21
ENDBRANCH  19  20
ENDBRANCH  18  19
ENDBRANCH  17  18
ENDBRANCH  16  17
ENDBRANCH  15  16
ENDBRANCH  14  15
ENDBRANCH  13  14
ENDBRANCH   1  13
TORSDOF 20
ENDMDL
MODEL 7
REMARK VINA RESULT:    -3.712      2.222      3.579
REMARK INTER + INTRA:         -10.830
REMARK INTER:                  -7.171
REMARK INTRA:                  -3.659
REMARK UNBOUND:                -2.778
REMARK SMILES CCCCCCCCCCCCCCCCCCCCCC(=O)[O-]
REMARK SMILES IDX 12 1 11 2 10 3 9 4 8 5 7 6 6 7 5 8 4 9 3 10 2 11 1 12 13 13
REMARK SMILES IDX 14 14 15 15 16 16 17 17 18 18 19 19 20 20 21 21 22 22 23 23
REMARK SMILES IDX 24 24
REMARK H PARENT
REMARK Flexibility Score: inf
ROOT
ATOM      1  C   UNL     1     -95.781 148.629 238.047  1.00  0.00     0.000 C 
ENDROOT
BRANCH   1   2
ATOM      2  C   UNL     1     -96.584 147.328 237.847  1.00  0.00     0.000 C 
BRANCH   2   3
ATOM      3  C   UNL     1     -96.334 146.612 236.508  1.00  0.00     0.000 C 
BRANCH   3   4
ATOM      4  C   UNL     1     -95.509 145.323 236.665  1.00  0.00    -0.000 C 
BRANCH   4   5
ATOM      5  C   UNL     1     -94.575 145.074 235.470  1.00  0.00    -0.000 C 
BRANCH   5   6
ATOM      6  C   UNL     1     -93.135 145.544 235.743  1.00  0.00    -0.000 C 
BRANCH   6   7
ATOM      7  C   UNL     1     -92.648 146.597 234.731  1.00  0.00    -0.000 C 
BRANCH   7   8
ATOM      8  C   UNL     1     -93.753 147.245 233.869  1.00  0.00    -0.000 C 
BRANCH   8   9
ATOM      9  C   UNL     1     -94.175 148.666 234.295  1.00  0.00    -0.000 C 
BRANCH   9  10
ATOM     10  C   UNL     1     -95.491 149.152 233.646  1.00  0.00    -0.000 C 
BRANCH  10  11
ATOM     11  C   UNL     1     -95.959 150.524 234.159  1.00  0.00    -0.003 C 
ATOM     12  C   UNL     1     -95.886 151.614 233.092  1.00  0.00     0.004 C 
ENDBRANCH  10  11
ENDBRANCH   9  10
ENDBRANCH   8   9
ENDBRANCH   7   8
ENDBRANCH   6   7
ENDBRANCH   5   6
ENDBRANCH   4   5
ENDBRANCH   3   4
ENDBRANCH   2   3
ENDBRANCH   1   2
BRANCH   1  13
ATOM     13  C   UNL     1     -94.254 148.484 237.896  1.00  0.00     0.000 C 
BRANCH  13  14
ATOM     14  C   UNL     1     -93.507 148.067 239.179  1.00  0.00     0.000 C 
BRANCH  14  15
ATOM     15  C   UNL     1     -93.173 146.569 239.283  1.00  0.00     0.000 C 
BRANCH  15  16
ATOM     16  C   UNL     1     -94.009 145.844 240.352  1.00  0.00     0.000 C 
BRANCH  16  17
ATOM     17  C   UNL     1     -94.627 146.811 241.374  1.00  0.00     0.000 C 
BRANCH  17  18
ATOM     18  C   UNL     1     -96.166 146.747 241.402  1.00  0.00     0.000 C 
BRANCH  18  19
ATOM     19  C   UNL     1     -96.786 147.975 242.100  1.00  0.00     0.000 C 
BRANCH  19  20
ATOM     20  C   UNL     1     -96.427 149.311 241.426  1.00  0.00     0.006 C 
BRANCH  20  21
ATOM     21  C   UNL     1     -97.528 150.368 241.573  1.00  0.00     0.053 C 
BRANCH  21  22
ATOM     22  C   UNL     1     -98.718 150.003 240.742  1.00  0.00     0.041 C 
ATOM     23  O   UNL     1     -98.635 149.995 239.486  1.00  0.00    -0.550 OA
ATOM     24  O   UNL     1     -99.930 149.715 241.354  1.00  0.00    -0.550 OA
ENDBRANCH  21  22
ENDBRANCH  20  21
ENDBRANCH  19  20
ENDBRANCH  18  19
ENDBRANCH  17  18
ENDBRANCH  16  17
ENDBRANCH  15  16
ENDBRANCH  14  15
ENDBRANCH  13  14
ENDBRANCH   1  13
TORSDOF 20
ENDMDL
MODEL 8
REMARK VINA RESULT:    -3.690      3.078      4.670
REMARK INTER + INTRA:         -10.782
REMARK INTER:                  -7.709
REMARK INTRA:                  -3.074
REMARK UNBOUND:                -2.778
REMARK SMILES CCCCCCCCCCCCCCCCCCCCCC(=O)[O-]
REMARK SMILES IDX 12 1 11 2 10 3 9 4 8 5 7 6 6 7 5 8 4 9 3 10 2 11 1 12 13 13
REMARK SMILES IDX 14 14 15 15 16 16 17 17 18 18 19 19 20 20 21 21 22 22 23 23
REMARK SMILES IDX 24 24
REMARK H PARENT
REMARK Flexibility Score: inf
ROOT
ATOM      1  C   UNL     1     -96.671 147.578 237.216  1.00  0.00     0.000 C 
ENDROOT
BRANCH   1   2
ATOM      2  C   UNL     1     -97.206 149.022 237.303  1.00  0.00     0.000 C 
BRANCH   2   3
ATOM      3  C   UNL     1     -97.894 149.535 236.026  1.00  0.00     0.000 C 
BRANCH   3   4
ATOM      4  C   UNL     1     -96.910 149.762 234.866  1.00  0.00    -0.000 C 
BRANCH   4   5
ATOM      5  C   UNL     1     -95.639 150.502 235.310  1.00  0.00    -0.000 C 
BRANCH   5   6
ATOM      6  C   UNL     1     -95.793 152.032 235.232  1.00  0.00    -0.000 C 
BRANCH   6   7
ATOM      7  C   UNL     1     -96.811 152.476 234.165  1.00  0.00    -0.000 C 
BRANCH   7   8
ATOM      8  C   UNL     1     -97.703 153.672 234.562  1.00  0.00    -0.000 C 
BRANCH   8   9
ATOM      9  C   UNL     1     -98.191 153.676 236.026  1.00  0.00    -0.000 C 
BRANCH   9  10
ATOM     10  C   UNL     1     -99.477 152.854 236.262  1.00  0.00    -0.000 C 
BRANCH  10  11
ATOM     11  C   UNL     1     -99.986 152.912 237.713  1.00  0.00    -0.003 C 
ATOM     12  C   UNL     1     -99.569 151.696 238.537  1.00  0.00     0.004 C 
ENDBRANCH  10  11
ENDBRANCH   9  10
ENDBRANCH   8   9
ENDBRANCH   7   8
ENDBRANCH   6   7
ENDBRANCH   5   6
ENDBRANCH   4   5
ENDBRANCH   3   4
ENDBRANCH   2   3
ENDBRANCH   1   2
BRANCH   1  13
ATOM     13  C   UNL     1     -95.143 147.437 237.361  1.00  0.00     0.000 C 
BRANCH  13  14
ATOM     14  C   UNL     1     -94.473 148.489 238.270  1.00  0.00     0.000 C 
BRANCH  14  15
ATOM     15  C   UNL     1     -93.463 147.926 239.285  1.00  0.00     0.000 C 
BRANCH  15  16
ATOM     16  C   UNL     1     -93.223 146.416 239.113  1.00  0.00     0.000 C 
BRANCH  16  17
ATOM     17  C   UNL     1     -93.578 145.614 240.374  1.00  0.00     0.000 C 
BRANCH  17  18
ATOM     18  C   UNL     1     -95.078 145.273 240.462  1.00  0.00     0.000 C 
BRANCH  18  19
ATOM     19  C   UNL     1     -95.812 146.147 241.500  1.00  0.00     0.000 C 
BRANCH  19  20
ATOM     20  C   UNL     1     -96.779 147.166 240.871  1.00  0.00     0.006 C 
BRANCH  20  21
ATOM     21  C   UNL     1     -97.394 148.120 241.902  1.00  0.00     0.053 C 
BRANCH  21  22
ATOM     22  C   UNL     1     -97.024 149.536 241.590  1.00  0.00     0.041 C 
ATOM     23  O   UNL     1     -97.906 150.434 241.580  1.00  0.00    -0.550 OA
ATOM     24  O   UNL     1     -95.712 149.855 241.267  1.00  0.00    -0.550 OA
ENDBRANCH  21  22
ENDBRANCH  20  21
ENDBRANCH  19  20
ENDBRANCH  18  19
ENDBRANCH  17  18
ENDBRANCH  16  17
ENDBRANCH  15  16
ENDBRANCH  14  15
ENDBRANCH  13  14
ENDBRANCH   1  13
TORSDOF 20
ENDMDL
MODEL 9
REMARK VINA RESULT:    -3.664      2.730      4.241
REMARK INTER + INTRA:         -10.727
REMARK INTER:                  -7.037
REMARK INTRA:                  -3.689
REMARK UNBOUND:                -2.778
REMARK SMILES CCCCCCCCCCCCCCCCCCCCCC(=O)[O-]
REMARK SMILES IDX 12 1 11 2 10 3 9 4 8 5 7 6 6 7 5 8 4 9 3 10 2 11 1 12 13 13
REMARK SMILES IDX 14 14 15 15 16 16 17 17 18 18 19 19 20 20 21 21 22 22 23 23
REMARK SMILES IDX 24 24
REMARK H PARENT
REMARK Flexibility Score: inf
ROOT
ATOM      1  C   UNL     1     -97.389 146.430 237.633  1.00  0.00     0.000 C 
ENDROOT
BRANCH   1   2
ATOM      2  C   UNL     1     -97.755 147.788 238.265  1.00  0.00     0.000 C 
BRANCH   2   3
ATOM      3  C   UNL     1     -97.396 149.017 237.412  1.00  0.00     0.000 C 
BRANCH   3   4
ATOM      4  C   UNL     1     -97.891 148.902 235.961  1.00  0.00    -0.000 C 
BRANCH   4   5
ATOM      5  C   UNL     1     -96.741 148.948 234.942  1.00  0.00    -0.000 C 
BRANCH   5   6
ATOM      6  C   UNL     1     -95.451 149.537 235.539  1.00  0.00    -0.000 C 
BRANCH   6   7
ATOM      7  C   UNL     1     -95.370 151.068 235.393  1.00  0.00    -0.000 C 
BRANCH   7   8
ATOM      8  C   UNL     1     -95.807 151.624 234.021  1.00  0.00    -0.000 C 
BRANCH   8   9
ATOM      9  C   UNL     1     -96.878 152.734 234.069  1.00  0.00    -0.000 C 
BRANCH   9  10
ATOM     10  C   UNL     1     -97.239 153.198 235.498  1.00  0.00    -0.000 C 
BRANCH  10  11
ATOM     11  C   UNL     1     -98.619 152.711 235.972  1.00  0.00    -0.003 C 
ATOM     12  C   UNL     1     -99.444 152.082 234.852  1.00  0.00     0.004 C 
ENDBRANCH  10  11
ENDBRANCH   9  10
ENDBRANCH   8   9
ENDBRANCH   7   8
ENDBRANCH   6   7
ENDBRANCH   5   6
ENDBRANCH   4   5
ENDBRANCH   3   4
ENDBRANCH   2   3
ENDBRANCH   1   2
BRANCH   1  13
ATOM     13  C   UNL     1     -96.044 145.835 238.095  1.00  0.00     0.000 C 
BRANCH  13  14
ATOM     14  C   UNL     1     -94.823 146.238 237.242  1.00  0.00     0.000 C 
BRANCH  14  15
ATOM     15  C   UNL     1     -93.644 146.834 238.030  1.00  0.00     0.000 C 
BRANCH  15  16
ATOM     16  C   UNL     1     -93.952 148.230 238.598  1.00  0.00     0.000 C 
BRANCH  16  17
ATOM     17  C   UNL     1     -93.942 148.258 240.134  1.00  0.00     0.000 C 
BRANCH  17  18
ATOM     18  C   UNL     1     -95.262 148.782 240.731  1.00  0.00     0.000 C 
BRANCH  18  19
ATOM     19  C   UNL     1     -96.027 147.685 241.500  1.00  0.00     0.000 C 
BRANCH  19  20
ATOM     20  C   UNL     1     -97.249 148.214 242.272  1.00  0.00     0.006 C 
BRANCH  20  21
ATOM     21  C   UNL     1     -97.381 149.741 242.207  1.00  0.00     0.053 C 
BRANCH  21  22
ATOM     22  C   UNL     1     -98.692 150.127 241.599  1.00  0.00     0.041 C 
ATOM     23  O   UNL     1     -99.748 150.071 242.282  1.00  0.00    -0.550 OA
ATOM     24  O   UNL     1     -98.754 150.505 240.265  1.00  0.00    -0.550 OA
ENDBRANCH  21  22
ENDBRANCH  20  21
ENDBRANCH  19  20
ENDBRANCH  18  19
ENDBRANCH  17  18
ENDBRANCH  16  17
ENDBRANCH  15  16
ENDBRANCH  14  15
ENDBRANCH  13  14
ENDBRANCH   1  13
TORSDOF 20
ENDMDL
