MODEL 1
REMARK VINA RESULT:    -3.070      0.000      0.000
REMARK INTER + INTRA:          -5.884
REMARK INTER:                  -4.686
REMARK INTRA:                  -1.198
REMARK UNBOUND:                -1.198
REMARK SMILES CCCCCCCCCCC(=O)[O-]
REMARK SMILES IDX 7 1 8 2 9 3 10 4 11 5 12 6 13 7 6 8 5 9 4 10 3 11 2 12 1 13
REMARK H PARENT
REMARK Flexibility Score: inf
ROOT
ATOM      1  C   UNL     1     -98.399 -45.227 -12.093  1.00  0.00     0.000 C 
ENDROOT
BRANCH   1   2
ATOM      2  C   UNL     1     -97.261 -46.263 -12.104  1.00  0.00     0.000 C 
BRANCH   2   3
ATOM      3  C   UNL     1     -95.868 -45.620 -11.993  1.00  0.00     0.006 C 
BRANCH   3   4
ATOM      4  C   UNL     1     -94.832 -46.583 -11.398  1.00  0.00     0.053 C 
BRANCH   4   5
ATOM      5  C   UNL     1     -93.664 -46.777 -12.317  1.00  0.00     0.041 C 
ATOM      6  O   UNL     1     -93.268 -45.829 -13.046  1.00  0.00    -0.550 OA
ATOM      7  O   UNL     1     -92.992 -47.992 -12.342  1.00  0.00    -0.550 OA
ENDBRANCH   4   5
ENDBRANCH   3   4
ENDBRANCH   2   3
ENDBRANCH   1   2
BRANCH   1   8
ATOM      8  C   UNL     1     -97.944 -43.762 -11.927  1.00  0.00     0.000 C 
BRANCH   8   9
ATOM      9  C   UNL     1     -98.509 -43.039 -10.689  1.00  0.00    -0.000 C 
BRANCH   9  10
ATOM     10  C   UNL     1     -97.515 -42.877  -9.522  1.00  0.00    -0.000 C 
BRANCH  10  11
ATOM     11  C   UNL     1     -97.638 -43.938  -8.409  1.00  0.00    -0.000 C 
BRANCH  11  12
ATOM     12  C   UNL     1     -96.500 -44.973  -8.372  1.00  0.00    -0.003 C 
ATOM     13  C   UNL     1     -97.007 -46.415  -8.382  1.00  0.00     0.004 C 
ENDBRANCH  11  12
ENDBRANCH  10  11
ENDBRANCH   9  10
ENDBRANCH   8   9
ENDBRANCH   1   8
TORSDOF 9
ENDMDL
MODEL 2
REMARK VINA RESULT:    -3.046      0.987      1.913
REMARK INTER + INTRA:          -5.847
REMARK INTER:                  -4.714
REMARK INTRA:                  -1.134
REMARK UNBOUND:                -1.198
REMARK SMILES CCCCCCCCCCC(=O)[O-]
REMARK SMILES IDX 7 1 8 2 9 3 10 4 11 5 12 6 13 7 6 8 5 9 4 10 3 11 2 12 1 13
REMARK H PARENT
REMARK Flexibility Score: inf
ROOT
ATOM      1  C   UNL     1     -98.852 -46.394 -11.455  1.00  0.00     0.000 C 
ENDROOT
BRANCH   1   2
ATOM      2  C   UNL     1     -97.656 -47.178 -12.026  1.00  0.00     0.000 C 
BRANCH   2   3
ATOM      3  C   UNL     1     -96.328 -46.827 -11.337  1.00  0.00     0.006 C 
BRANCH   3   4
ATOM      4  C   UNL     1     -95.493 -45.834 -12.157  1.00  0.00     0.053 C 
BRANCH   4   5
ATOM      5  C   UNL     1     -94.121 -46.364 -12.438  1.00  0.00     0.041 C 
ATOM      6  O   UNL     1     -93.726 -47.425 -11.886  1.00  0.00    -0.550 OA
ATOM      7  O   UNL     1     -93.290 -45.705 -13.335  1.00  0.00    -0.550 OA
ENDBRANCH   4   5
ENDBRANCH   3   4
ENDBRANCH   2   3
ENDBRANCH   1   2
BRANCH   1   8
ATOM      8  C   UNL     1     -99.621 -45.540 -12.484  1.00  0.00     0.000 C 
BRANCH   8   9
ATOM      9  C   UNL     1     -99.550 -44.018 -12.252  1.00  0.00    -0.000 C 
BRANCH   9  10
ATOM     10  C   UNL     1     -98.170 -43.491 -11.813  1.00  0.00    -0.000 C 
BRANCH  10  11
ATOM     11  C   UNL     1     -98.106 -42.955 -10.369  1.00  0.00    -0.000 C 
BRANCH  11  12
ATOM     12  C   UNL     1     -96.835 -43.336  -9.591  1.00  0.00    -0.003 C 
ATOM     13  C   UNL     1     -97.081 -44.423  -8.545  1.00  0.00     0.004 C 
ENDBRANCH  11  12
ENDBRANCH  10  11
ENDBRANCH   9  10
ENDBRANCH   8   9
ENDBRANCH   1   8
TORSDOF 9
ENDMDL
MODEL 3
REMARK VINA RESULT:    -2.961      1.083      2.879
REMARK INTER + INTRA:          -5.717
REMARK INTER:                  -4.375
REMARK INTRA:                  -1.342
REMARK UNBOUND:                -1.198
REMARK SMILES CCCCCCCCCCC(=O)[O-]
REMARK SMILES IDX 7 1 8 2 9 3 10 4 11 5 12 6 13 7 6 8 5 9 4 10 3 11 2 12 1 13
REMARK H PARENT
REMARK Flexibility Score: inf
ROOT
ATOM      1  C   UNL     1     -96.781 -44.775  -8.467  1.00  0.00     0.000 C 
ENDROOT
BRANCH   1   2
ATOM      2  C   UNL     1     -95.819 -45.970  -8.593  1.00  0.00     0.000 C 
BRANCH   2   3
ATOM      3  C   UNL     1     -94.831 -45.821  -9.761  1.00  0.00     0.006 C 
BRANCH   3   4
ATOM      4  C   UNL     1     -94.603 -47.146 -10.500  1.00  0.00     0.053 C 
BRANCH   4   5
ATOM      5  C   UNL     1     -93.970 -46.931 -11.841  1.00  0.00     0.041 C 
ATOM      6  O   UNL     1     -93.026 -47.674 -12.222  1.00  0.00    -0.550 OA
ATOM      7  O   UNL     1     -94.444 -45.935 -12.683  1.00  0.00    -0.550 OA
ENDBRANCH   4   5
ENDBRANCH   3   4
ENDBRANCH   2   3
ENDBRANCH   1   2
BRANCH   1   8
ATOM      8  C   UNL     1     -96.438 -43.567  -9.363  1.00  0.00     0.000 C 
BRANCH   8   9
ATOM      9  C   UNL     1     -97.497 -43.220 -10.426  1.00  0.00    -0.000 C 
BRANCH   9  10
ATOM     10  C   UNL     1     -97.311 -43.926 -11.784  1.00  0.00    -0.000 C 
BRANCH  10  11
ATOM     11  C   UNL     1     -98.384 -44.981 -12.122  1.00  0.00    -0.000 C 
BRANCH  11  12
ATOM     12  C   UNL     1     -97.885 -46.436 -12.123  1.00  0.00    -0.003 C 
ATOM     13  C   UNL     1     -98.418 -47.249 -10.943  1.00  0.00     0.004 C 
ENDBRANCH  11  12
ENDBRANCH  10  11
ENDBRANCH   9  10
ENDBRANCH   8   9
ENDBRANCH   1   8
TORSDOF 9
ENDMDL
MODEL 4
REMARK VINA RESULT:    -2.945      1.135      3.154
REMARK INTER + INTRA:          -5.693
REMARK INTER:                  -4.458
REMARK INTRA:                  -1.235
REMARK UNBOUND:                -1.198
REMARK SMILES CCCCCCCCCCC(=O)[O-]
REMARK SMILES IDX 7 1 8 2 9 3 10 4 11 5 12 6 13 7 6 8 5 9 4 10 3 11 2 12 1 13
REMARK H PARENT
REMARK Flexibility Score: inf
ROOT
ATOM      1  C   UNL     1     -97.384 -45.137  -8.101  1.00  0.00     0.000 C 
ENDROOT
BRANCH   1   2
ATOM      2  C   UNL     1     -95.869 -45.390  -8.204  1.00  0.00     0.000 C 
BRANCH   2   3
ATOM      3  C   UNL     1     -95.519 -46.551  -9.150  1.00  0.00     0.006 C 
BRANCH   3   4
ATOM      4  C   UNL     1     -94.268 -46.257  -9.989  1.00  0.00     0.053 C 
BRANCH   4   5
ATOM      5  C   UNL     1     -94.333 -46.920 -11.330  1.00  0.00     0.041 C 
ATOM      6  O   UNL     1     -94.928 -48.023 -11.464  1.00  0.00    -0.550 OA
ATOM      7  O   UNL     1     -93.768 -46.305 -12.440  1.00  0.00    -0.550 OA
ENDBRANCH   4   5
ENDBRANCH   3   4
ENDBRANCH   2   3
ENDBRANCH   1   2
BRANCH   1   8
ATOM      8  C   UNL     1     -97.843 -43.739  -8.564  1.00  0.00     0.000 C 
BRANCH   8   9
ATOM      9  C   UNL     1     -96.983 -43.103  -9.673  1.00  0.00    -0.000 C 
BRANCH   9  10
ATOM     10  C   UNL     1     -97.558 -43.235 -11.097  1.00  0.00    -0.000 C 
BRANCH  10  11
ATOM     11  C   UNL     1     -96.987 -44.406 -11.924  1.00  0.00    -0.000 C 
BRANCH  11  12
ATOM     12  C   UNL     1     -97.882 -45.656 -11.981  1.00  0.00    -0.003 C 
ATOM     13  C   UNL     1     -99.330 -45.336 -12.351  1.00  0.00     0.004 C 
ENDBRANCH  11  12
ENDBRANCH  10  11
ENDBRANCH   9  10
ENDBRANCH   8   9
ENDBRANCH   1   8
TORSDOF 9
ENDMDL
MODEL 5
REMARK VINA RESULT:    -2.903      1.225      3.061
REMARK INTER + INTRA:          -5.628
REMARK INTER:                  -4.630
REMARK INTRA:                  -0.997
REMARK UNBOUND:                -1.198
REMARK SMILES CCCCCCCCCCC(=O)[O-]
REMARK SMILES IDX 7 1 8 2 9 3 10 4 11 5 12 6 13 7 6 8 5 9 4 10 3 11 2 12 1 13
REMARK H PARENT
REMARK Flexibility Score: inf
ROOT
ATOM      1  C   UNL     1     -97.372 -44.309  -9.165  1.00  0.00     0.000 C 
ENDROOT
BRANCH   1   2
ATOM      2  C   UNL     1     -96.137 -44.987  -8.545  1.00  0.00     0.000 C 
BRANCH   2   3
ATOM      3  C   UNL     1     -95.762 -46.302  -9.249  1.00  0.00     0.006 C 
BRANCH   3   4
ATOM      4  C   UNL     1     -94.438 -46.189 -10.018  1.00  0.00     0.053 C 
BRANCH   4   5
ATOM      5  C   UNL     1     -94.533 -46.813 -11.377  1.00  0.00     0.041 C 
ATOM      6  O   UNL     1     -94.244 -46.142 -12.403  1.00  0.00    -0.550 OA
ATOM      7  O   UNL     1     -94.907 -48.144 -11.508  1.00  0.00    -0.550 OA
ENDBRANCH   4   5
ENDBRANCH   3   4
ENDBRANCH   2   3
ENDBRANCH   1   2
BRANCH   1   8
ATOM      8  C   UNL     1     -97.060 -43.246 -10.238  1.00  0.00     0.000 C 
BRANCH   8   9
ATOM      9  C   UNL     1     -97.289 -43.699 -11.692  1.00  0.00    -0.000 C 
BRANCH   9  10
ATOM     10  C   UNL     1     -98.766 -43.895 -12.087  1.00  0.00    -0.000 C 
BRANCH  10  11
ATOM     11  C   UNL     1     -99.170 -45.350 -12.398  1.00  0.00    -0.000 C 
BRANCH  11  12
ATOM     12  C   UNL     1     -98.050 -46.388 -12.211  1.00  0.00    -0.003 C 
ATOM     13  C   UNL     1     -98.436 -47.778 -12.715  1.00  0.00     0.004 C 
ENDBRANCH  11  12
ENDBRANCH  10  11
ENDBRANCH   9  10
ENDBRANCH   8   9
ENDBRANCH   1   8
TORSDOF 9
ENDMDL
MODEL 6
REMARK VINA RESULT:    -2.852      1.572      3.148
REMARK INTER + INTRA:          -5.550
REMARK INTER:                  -4.124
REMARK INTRA:                  -1.426
REMARK UNBOUND:                -1.198
REMARK SMILES CCCCCCCCCCC(=O)[O-]
REMARK SMILES IDX 7 1 8 2 9 3 10 4 11 5 12 6 13 7 6 8 5 9 4 10 3 11 2 12 1 13
REMARK H PARENT
REMARK Flexibility Score: inf
ROOT
ATOM      1  C   UNL     1     -96.531 -43.551  -9.222  1.00  0.00     0.000 C 
ENDROOT
BRANCH   1   2
ATOM      2  C   UNL     1     -96.936 -44.707  -8.290  1.00  0.00     0.000 C 
BRANCH   2   3
ATOM      3  C   UNL     1     -95.927 -45.868  -8.303  1.00  0.00     0.006 C 
BRANCH   3   4
ATOM      4  C   UNL     1     -94.732 -45.586  -9.225  1.00  0.00     0.053 C 
BRANCH   4   5
ATOM      5  C   UNL     1     -94.574 -46.650 -10.267  1.00  0.00     0.041 C 
ATOM      6  O   UNL     1     -94.201 -46.345 -11.431  1.00  0.00    -0.550 OA
ATOM      7  O   UNL     1     -94.805 -47.980  -9.945  1.00  0.00    -0.550 OA
ENDBRANCH   4   5
ENDBRANCH   3   4
ENDBRANCH   2   3
ENDBRANCH   1   2
BRANCH   1   8
ATOM      8  C   UNL     1     -97.592 -43.158 -10.270  1.00  0.00     0.000 C 
BRANCH   8   9
ATOM      9  C   UNL     1     -97.345 -43.706 -11.688  1.00  0.00    -0.000 C 
BRANCH   9  10
ATOM     10  C   UNL     1     -98.318 -44.814 -12.136  1.00  0.00    -0.000 C 
BRANCH  10  11
ATOM     11  C   UNL     1     -97.744 -46.244 -12.087  1.00  0.00    -0.000 C 
BRANCH  11  12
ATOM     12  C   UNL     1     -98.254 -47.108 -10.920  1.00  0.00    -0.003 C 
ATOM     13  C   UNL     1     -99.500 -46.528 -10.250  1.00  0.00     0.004 C 
ENDBRANCH  11  12
ENDBRANCH  10  11
ENDBRANCH   9  10
ENDBRANCH   8   9
ENDBRANCH   1   8
TORSDOF 9
ENDMDL
MODEL 7
REMARK VINA RESULT:    -2.788      2.643      4.526
REMARK INTER + INTRA:          -5.452
REMARK INTER:                  -4.324
REMARK INTRA:                  -1.129
REMARK UNBOUND:                -1.198
REMARK SMILES CCCCCCCCCCC(=O)[O-]
REMARK SMILES IDX 7 1 8 2 9 3 10 4 11 5 12 6 13 7 6 8 5 9 4 10 3 11 2 12 1 13
REMARK H PARENT
REMARK Flexibility Score: inf
ROOT
ATOM      1  C   UNL     1     -99.424 -45.046 -12.005  1.00  0.00     0.000 C 
ENDROOT
BRANCH   1   2
ATOM      2  C   UNL     1     -98.833 -43.627 -12.086  1.00  0.00     0.000 C 
BRANCH   2   3
ATOM      3  C   UNL     1     -97.357 -43.570 -11.657  1.00  0.00     0.006 C 
BRANCH   3   4
ATOM      4  C   UNL     1     -97.186 -42.991 -10.246  1.00  0.00     0.053 C 
BRANCH   4   5
ATOM      5  C   UNL     1     -97.020 -44.071  -9.221  1.00  0.00     0.041 C 
ATOM      6  O   UNL     1     -98.032 -44.636  -8.727  1.00  0.00    -0.550 OA
ATOM      7  O   UNL     1     -95.750 -44.477  -8.836  1.00  0.00    -0.550 OA
ENDBRANCH   4   5
ENDBRANCH   3   4
ENDBRANCH   2   3
ENDBRANCH   1   2
BRANCH   1   8
ATOM      8  C   UNL     1     -98.442 -46.181 -12.361  1.00  0.00     0.000 C 
BRANCH   8   9
ATOM      9  C   UNL     1     -98.169 -47.188 -11.227  1.00  0.00    -0.000 C 
BRANCH   9  10
ATOM     10  C   UNL     1     -96.694 -47.295 -10.794  1.00  0.00    -0.000 C 
BRANCH  10  11
ATOM     11  C   UNL     1     -95.673 -46.774 -11.826  1.00  0.00    -0.000 C 
BRANCH  11  12
ATOM     12  C   UNL     1     -94.688 -47.831 -12.355  1.00  0.00    -0.003 C 
ATOM     13  C   UNL     1     -95.383 -49.105 -12.833  1.00  0.00     0.004 C 
ENDBRANCH  11  12
ENDBRANCH  10  11
ENDBRANCH   9  10
ENDBRANCH   8   9
ENDBRANCH   1   8
TORSDOF 9
ENDMDL
MODEL 8
REMARK VINA RESULT:    -2.749      2.874      3.748
REMARK INTER + INTRA:          -5.393
REMARK INTER:                  -4.267
REMARK INTRA:                  -1.126
REMARK UNBOUND:                -1.198
REMARK SMILES CCCCCCCCCCC(=O)[O-]
REMARK SMILES IDX 7 1 8 2 9 3 10 4 11 5 12 6 13 7 6 8 5 9 4 10 3 11 2 12 1 13
REMARK H PARENT
REMARK Flexibility Score: inf
ROOT
ATOM      1  C   UNL     1     -97.290 -44.189 -11.780  1.00  0.00     0.000 C 
ENDROOT
BRANCH   1   2
ATOM      2  C   UNL     1     -98.569 -44.967 -12.138  1.00  0.00     0.000 C 
BRANCH   2   3
ATOM      3  C   UNL     1     -98.602 -46.377 -11.526  1.00  0.00     0.006 C 
BRANCH   3   4
ATOM      4  C   UNL     1     -97.952 -47.422 -12.444  1.00  0.00     0.053 C 
BRANCH   4   5
ATOM      5  C   UNL     1     -98.898 -48.537 -12.770  1.00  0.00     0.041 C 
ATOM      6  O   UNL     1     -98.899 -49.589 -12.077  1.00  0.00    -0.550 OA
ATOM      7  O   UNL     1     -99.800 -48.402 -13.816  1.00  0.00    -0.550 OA
ENDBRANCH   4   5
ENDBRANCH   3   4
ENDBRANCH   2   3
ENDBRANCH   1   2
BRANCH   1   8
ATOM      8  C   UNL     1     -97.454 -43.152 -10.651  1.00  0.00     0.000 C 
BRANCH   8   9
ATOM      9  C   UNL     1     -96.617 -43.425  -9.386  1.00  0.00    -0.000 C 
BRANCH   9  10
ATOM     10  C   UNL     1     -97.096 -44.615  -8.533  1.00  0.00    -0.000 C 
BRANCH  10  11
ATOM     11  C   UNL     1     -96.086 -45.774  -8.405  1.00  0.00    -0.000 C 
BRANCH  11  12
ATOM     12  C   UNL     1     -94.834 -45.643  -9.289  1.00  0.00    -0.003 C 
ATOM     13  C   UNL     1     -94.836 -46.613 -10.470  1.00  0.00     0.004 C 
ENDBRANCH  11  12
ENDBRANCH  10  11
ENDBRANCH   9  10
ENDBRANCH   8   9
ENDBRANCH   1   8
TORSDOF 9
ENDMDL
MODEL 9
REMARK VINA RESULT:    -2.712      1.318      3.009
REMARK INTER + INTRA:          -5.336
REMARK INTER:                  -4.126
REMARK INTRA:                  -1.211
REMARK UNBOUND:                -1.198
REMARK SMILES CCCCCCCCCCC(=O)[O-]
REMARK SMILES IDX 7 1 8 2 9 3 10 4 11 5 12 6 13 7 6 8 5 9 4 10 3 11 2 12 1 13
REMARK H PARENT
REMARK Flexibility Score: inf
ROOT
ATOM      1  C   UNL     1     -95.833 -46.728  -9.670  1.00  0.00     0.000 C 
ENDROOT
BRANCH   1   2
ATOM      2  C   UNL     1     -94.548 -46.251 -10.372  1.00  0.00     0.000 C 
BRANCH   2   3
ATOM      3  C   UNL     1     -94.616 -46.392 -11.901  1.00  0.00     0.006 C 
BRANCH   3   4
ATOM      4  C   UNL     1     -95.148 -47.765 -12.334  1.00  0.00     0.053 C 
BRANCH   4   5
ATOM      5  C   UNL     1     -94.083 -48.817 -12.268  1.00  0.00     0.041 C 
ATOM      6  O   UNL     1     -92.875 -48.508 -12.450  1.00  0.00    -0.550 OA
ATOM      7  O   UNL     1     -94.420 -50.131 -11.972  1.00  0.00    -0.550 OA
ENDBRANCH   4   5
ENDBRANCH   3   4
ENDBRANCH   2   3
ENDBRANCH   1   2
BRANCH   1   8
ATOM      8  C   UNL     1     -96.486 -45.691  -8.734  1.00  0.00     0.000 C 
BRANCH   8   9
ATOM      9  C   UNL     1     -96.171 -44.220  -9.068  1.00  0.00    -0.000 C 
BRANCH   9  10
ATOM     10  C   UNL     1     -97.264 -43.487  -9.869  1.00  0.00    -0.000 C 
BRANCH  10  11
ATOM     11  C   UNL     1     -97.204 -43.698 -11.396  1.00  0.00    -0.000 C 
BRANCH  11  12
ATOM     12  C   UNL     1     -98.485 -44.277 -12.021  1.00  0.00    -0.003 C 
ATOM     13  C   UNL     1     -98.470 -45.804 -12.100  1.00  0.00     0.004 C 
ENDBRANCH  11  12
ENDBRANCH  10  11
ENDBRANCH   9  10
ENDBRANCH   8   9
ENDBRANCH   1   8
TORSDOF 9
ENDMDL
