MODEL 1
REMARK VINA RESULT:    -5.624      0.000      0.000
REMARK INTER + INTRA:          -6.497
REMARK INTER:                  -6.282
REMARK INTRA:                  -0.215
REMARK UNBOUND:                -0.215
REMARK SMILES CC(C)c1ccc(C(=O)[O-])cc1
REMARK SMILES IDX 7 1 6 2 11 3 5 4 12 5 4 6 8 7 9 8 10 9 2 10 1 11 3 12
REMARK H PARENT
REMARK Flexibility Score: inf
ROOT
ATOM      1  C   UNL     1      -0.602  -6.068  17.186  1.00  0.00    -0.003 A 
ATOM      2  C   UNL     1      -0.040  -7.249  17.703  1.00  0.00     0.010 A 
ATOM      3  C   UNL     1       0.191  -4.910  17.121  1.00  0.00     0.010 A 
ATOM      4  C   UNL     1       1.285  -7.269  18.145  1.00  0.00     0.004 A 
ATOM      5  C   UNL     1       1.516  -4.930  17.564  1.00  0.00     0.004 A 
ATOM      6  C   UNL     1       2.079  -6.110  18.080  1.00  0.00    -0.045 A 
ENDROOT
BRANCH   1   7
ATOM      7  C   UNL     1      -2.004  -6.041  16.717  1.00  0.00     0.071 C 
ATOM      8  O   UNL     1      -2.591  -7.107  16.391  1.00  0.00    -0.545 OA
ATOM      9  O   UNL     1      -2.694  -4.837  16.627  1.00  0.00    -0.545 OA
ENDBRANCH   1   7
BRANCH   6  10
ATOM     10  C   UNL     1       3.520  -6.119  18.557  1.00  0.00     0.013 C 
ATOM     11  C   UNL     1       3.601  -6.398  20.063  1.00  0.00     0.012 C 
ATOM     12  C   UNL     1       4.228  -4.807  18.200  1.00  0.00     0.012 C 
ENDBRANCH   6  10
TORSDOF 2
ENDMDL
MODEL 2
REMARK VINA RESULT:    -5.614      0.071      1.400
REMARK INTER + INTRA:          -6.485
REMARK INTER:                  -6.270
REMARK INTRA:                  -0.215
REMARK UNBOUND:                -0.215
REMARK SMILES CC(C)c1ccc(C(=O)[O-])cc1
REMARK SMILES IDX 7 1 6 2 11 3 5 4 12 5 4 6 8 7 9 8 10 9 2 10 1 11 3 12
REMARK H PARENT
REMARK Flexibility Score: inf
ROOT
ATOM      1  C   UNL     1      -0.618  -6.086  17.201  1.00  0.00    -0.003 A 
ATOM      2  C   UNL     1       0.189  -4.938  17.120  1.00  0.00     0.010 A 
ATOM      3  C   UNL     1      -0.072  -7.264  17.738  1.00  0.00     0.010 A 
ATOM      4  C   UNL     1       1.513  -4.969  17.566  1.00  0.00     0.004 A 
ATOM      5  C   UNL     1       1.251  -7.295  18.184  1.00  0.00     0.004 A 
ATOM      6  C   UNL     1       2.059  -6.148  18.104  1.00  0.00    -0.045 A 
ENDROOT
BRANCH   1   7
ATOM      7  C   UNL     1      -2.020  -6.059  16.730  1.00  0.00     0.071 C 
ATOM      8  O   UNL     1      -2.627  -7.129  16.463  1.00  0.00    -0.545 OA
ATOM      9  O   UNL     1      -2.687  -4.849  16.574  1.00  0.00    -0.545 OA
ENDBRANCH   1   7
BRANCH   6  10
ATOM     10  C   UNL     1       3.496  -6.196  18.592  1.00  0.00     0.013 C 
ATOM     11  C   UNL     1       3.560  -6.522  20.089  1.00  0.00     0.012 C 
ATOM     12  C   UNL     1       4.229  -4.886  18.281  1.00  0.00     0.012 C 
ENDBRANCH   6  10
TORSDOF 2
ENDMDL
MODEL 3
REMARK VINA RESULT:    -5.440      1.309      1.893
REMARK INTER + INTRA:          -6.292
REMARK INTER:                  -6.070
REMARK INTRA:                  -0.222
REMARK UNBOUND:                -0.215
REMARK SMILES CC(C)c1ccc(C(=O)[O-])cc1
REMARK SMILES IDX 7 1 6 2 11 3 5 4 12 5 4 6 8 7 9 8 10 9 2 10 1 11 3 12
REMARK H PARENT
REMARK Flexibility Score: inf
ROOT
ATOM      1  C   UNL     1       0.851  -6.541  17.688  1.00  0.00    -0.003 A 
ATOM      2  C   UNL     1       1.680  -7.540  18.227  1.00  0.00     0.010 A 
ATOM      3  C   UNL     1       1.399  -5.275  17.419  1.00  0.00     0.010 A 
ATOM      4  C   UNL     1       3.026  -7.278  18.492  1.00  0.00     0.004 A 
ATOM      5  C   UNL     1       2.746  -5.013  17.684  1.00  0.00     0.004 A 
ATOM      6  C   UNL     1       3.576  -6.011  18.223  1.00  0.00    -0.045 A 
ENDROOT
BRANCH   1   7
ATOM      7  C   UNL     1      -0.575  -6.813  17.405  1.00  0.00     0.071 C 
ATOM      8  O   UNL     1      -1.289  -5.953  16.825  1.00  0.00    -0.545 OA
ATOM      9  O   UNL     1      -1.148  -8.023  17.779  1.00  0.00    -0.545 OA
ENDBRANCH   1   7
BRANCH   6  10
ATOM     10  C   UNL     1       5.036  -5.713  18.507  1.00  0.00     0.013 C 
ATOM     11  C   UNL     1       5.563  -6.578  19.658  1.00  0.00     0.012 C 
ATOM     12  C   UNL     1       5.251  -4.223  18.795  1.00  0.00     0.012 C 
ENDBRANCH   6  10
TORSDOF 2
ENDMDL
MODEL 4
REMARK VINA RESULT:    -5.409      3.071      5.023
REMARK INTER + INTRA:          -6.256
REMARK INTER:                  -6.037
REMARK INTRA:                  -0.219
REMARK UNBOUND:                -0.215
REMARK SMILES CC(C)c1ccc(C(=O)[O-])cc1
REMARK SMILES IDX 7 1 6 2 11 3 5 4 12 5 4 6 8 7 9 8 10 9 2 10 1 11 3 12
REMARK H PARENT
REMARK Flexibility Score: inf
ROOT
ATOM      1  C   UNL     1       2.240  -6.281  17.856  1.00  0.00    -0.003 A 
ATOM      2  C   UNL     1       1.391  -7.393  18.003  1.00  0.00     0.010 A 
ATOM      3  C   UNL     1       1.689  -5.055  17.447  1.00  0.00     0.010 A 
ATOM      4  C   UNL     1       0.023  -7.279  17.747  1.00  0.00     0.004 A 
ATOM      5  C   UNL     1       0.320  -4.941  17.190  1.00  0.00     0.004 A 
ATOM      6  C   UNL     1      -0.529  -6.051  17.338  1.00  0.00    -0.045 A 
ENDROOT
BRANCH   1   7
ATOM      7  C   UNL     1       3.689  -6.397  18.126  1.00  0.00     0.071 C 
ATOM      8  O   UNL     1       4.509  -5.616  17.573  1.00  0.00    -0.545 OA
ATOM      9  O   UNL     1       4.169  -7.372  18.994  1.00  0.00    -0.545 OA
ENDBRANCH   1   7
BRANCH   6  10
ATOM     10  C   UNL     1      -2.014  -5.913  17.055  1.00  0.00     0.013 C 
ATOM     11  C   UNL     1      -2.623  -7.257  16.636  1.00  0.00     0.012 C 
ATOM     12  C   UNL     1      -2.278  -4.834  15.999  1.00  0.00     0.012 C 
ENDBRANCH   6  10
TORSDOF 2
ENDMDL
MODEL 5
REMARK VINA RESULT:    -5.218      3.756      5.578
REMARK INTER + INTRA:          -6.044
REMARK INTER:                  -5.824
REMARK INTRA:                  -0.220
REMARK UNBOUND:                -0.215
REMARK SMILES CC(C)c1ccc(C(=O)[O-])cc1
REMARK SMILES IDX 7 1 6 2 11 3 5 4 12 5 4 6 8 7 9 8 10 9 2 10 1 11 3 12
REMARK H PARENT
REMARK Flexibility Score: inf
ROOT
ATOM      1  C   UNL     1       3.743  -6.059  18.660  1.00  0.00    -0.003 A 
ATOM      2  C   UNL     1       3.046  -4.991  18.067  1.00  0.00     0.010 A 
ATOM      3  C   UNL     1       3.093  -7.296  18.808  1.00  0.00     0.010 A 
ATOM      4  C   UNL     1       1.729  -5.158  17.633  1.00  0.00     0.004 A 
ATOM      5  C   UNL     1       1.775  -7.463  18.375  1.00  0.00     0.004 A 
ATOM      6  C   UNL     1       1.078  -6.396  17.781  1.00  0.00    -0.045 A 
ENDROOT
BRANCH   1   7
ATOM      7  C   UNL     1       5.138  -5.887  19.121  1.00  0.00     0.071 C 
ATOM      8  O   UNL     1       5.855  -4.959  18.661  1.00  0.00    -0.545 OA
ATOM      9  O   UNL     1       5.678  -6.749  20.068  1.00  0.00    -0.545 OA
ENDBRANCH   1   7
BRANCH   6  10
ATOM     10  C   UNL     1      -0.353  -6.591  17.315  1.00  0.00     0.013 C 
ATOM     11  C   UNL     1      -1.143  -5.279  17.392  1.00  0.00     0.012 C 
ATOM     12  C   UNL     1      -1.048  -7.701  18.112  1.00  0.00     0.012 C 
ENDBRANCH   6  10
TORSDOF 2
ENDMDL
MODEL 6
REMARK VINA RESULT:    -5.197      7.747      8.401
REMARK INTER + INTRA:          -6.020
REMARK INTER:                  -5.818
REMARK INTRA:                  -0.203
REMARK UNBOUND:                -0.215
REMARK SMILES CC(C)c1ccc(C(=O)[O-])cc1
REMARK SMILES IDX 7 1 6 2 11 3 5 4 12 5 4 6 8 7 9 8 10 9 2 10 1 11 3 12
REMARK H PARENT
REMARK Flexibility Score: inf
ROOT
ATOM      1  C   UNL     1       5.395  -8.248  10.496  1.00  0.00    -0.003 A 
ATOM      2  C   UNL     1       5.892  -6.934  10.550  1.00  0.00     0.010 A 
ATOM      3  C   UNL     1       4.793  -8.795  11.642  1.00  0.00     0.010 A 
ATOM      4  C   UNL     1       5.790  -6.185  11.726  1.00  0.00     0.004 A 
ATOM      5  C   UNL     1       4.691  -8.046  12.817  1.00  0.00     0.004 A 
ATOM      6  C   UNL     1       5.188  -6.732  12.873  1.00  0.00    -0.045 A 
ENDROOT
BRANCH   1   7
ATOM      7  C   UNL     1       5.501  -9.044   9.254  1.00  0.00     0.071 C 
ATOM      8  O   UNL     1       6.264 -10.045   9.198  1.00  0.00    -0.545 OA
ATOM      9  O   UNL     1       4.760  -8.698   8.130  1.00  0.00    -0.545 OA
ENDBRANCH   1   7
BRANCH   6  10
ATOM     10  C   UNL     1       5.070  -5.931  14.156  1.00  0.00     0.013 C 
ATOM     11  C   UNL     1       5.816  -6.618  15.307  1.00  0.00     0.012 C 
ATOM     12  C   UNL     1       3.602  -5.682  14.521  1.00  0.00     0.012 C 
ENDBRANCH   6  10
TORSDOF 2
ENDMDL
MODEL 7
REMARK VINA RESULT:    -5.185      4.885      5.840
REMARK INTER + INTRA:          -6.007
REMARK INTER:                  -5.797
REMARK INTRA:                  -0.210
REMARK UNBOUND:                -0.215
REMARK SMILES CC(C)c1ccc(C(=O)[O-])cc1
REMARK SMILES IDX 7 1 6 2 11 3 5 4 12 5 4 6 8 7 9 8 10 9 2 10 1 11 3 12
REMARK H PARENT
REMARK Flexibility Score: inf
ROOT
ATOM      1  C   UNL     1       4.945  -6.538  13.947  1.00  0.00    -0.003 A 
ATOM      2  C   UNL     1       5.851  -6.699  15.010  1.00  0.00     0.010 A 
ATOM      3  C   UNL     1       3.663  -6.030  14.218  1.00  0.00     0.010 A 
ATOM      4  C   UNL     1       5.482  -6.361  16.314  1.00  0.00     0.004 A 
ATOM      5  C   UNL     1       3.294  -5.691  15.522  1.00  0.00     0.004 A 
ATOM      6  C   UNL     1       4.199  -5.852  16.586  1.00  0.00    -0.045 A 
ENDROOT
BRANCH   1   7
ATOM      7  C   UNL     1       5.331  -6.895  12.565  1.00  0.00     0.071 C 
ATOM      8  O   UNL     1       5.892  -6.050  11.818  1.00  0.00    -0.545 OA
ATOM      9  O   UNL     1       5.078  -8.169  12.070  1.00  0.00    -0.545 OA
ENDBRANCH   1   7
BRANCH   6  10
ATOM     10  C   UNL     1       3.785  -5.480  17.998  1.00  0.00     0.013 C 
ATOM     11  C   UNL     1       2.363  -4.909  18.023  1.00  0.00     0.012 C 
ATOM     12  C   UNL     1       4.784  -4.503  18.628  1.00  0.00     0.012 C 
ENDBRANCH   6  10
TORSDOF 2
ENDMDL
MODEL 8
REMARK VINA RESULT:    -5.172      4.864      5.851
REMARK INTER + INTRA:          -5.993
REMARK INTER:                  -5.784
REMARK INTRA:                  -0.209
REMARK UNBOUND:                -0.215
REMARK SMILES CC(C)c1ccc(C(=O)[O-])cc1
REMARK SMILES IDX 7 1 6 2 11 3 5 4 12 5 4 6 8 7 9 8 10 9 2 10 1 11 3 12
REMARK H PARENT
REMARK Flexibility Score: inf
ROOT
ATOM      1  C   UNL     1       4.902  -6.644  13.975  1.00  0.00    -0.003 A 
ATOM      2  C   UNL     1       3.641  -6.087  14.255  1.00  0.00     0.010 A 
ATOM      3  C   UNL     1       5.817  -6.817  15.028  1.00  0.00     0.010 A 
ATOM      4  C   UNL     1       3.305  -5.711  15.558  1.00  0.00     0.004 A 
ATOM      5  C   UNL     1       5.481  -6.441  16.331  1.00  0.00     0.004 A 
ATOM      6  C   UNL     1       4.221  -5.884  16.611  1.00  0.00    -0.045 A 
ENDROOT
BRANCH   1   7
ATOM      7  C   UNL     1       5.262  -7.044  12.598  1.00  0.00     0.071 C 
ATOM      8  O   UNL     1       5.660  -6.186  11.765  1.00  0.00    -0.545 OA
ATOM      9  O   UNL     1       5.165  -8.373  12.201  1.00  0.00    -0.545 OA
ENDBRANCH   1   7
BRANCH   6  10
ATOM     10  C   UNL     1       3.870  -5.480  18.031  1.00  0.00     0.013 C 
ATOM     11  C   UNL     1       2.452  -4.899  18.105  1.00  0.00     0.012 C 
ATOM     12  C   UNL     1       4.899  -4.495  18.597  1.00  0.00     0.012 C 
ENDBRANCH   6  10
TORSDOF 2
ENDMDL
MODEL 9
REMARK VINA RESULT:    -4.992      4.387      5.335
REMARK INTER + INTRA:          -5.790
REMARK INTER:                  -5.578
REMARK INTRA:                  -0.212
REMARK UNBOUND:                -0.215
REMARK SMILES CC(C)c1ccc(C(=O)[O-])cc1
REMARK SMILES IDX 7 1 6 2 11 3 5 4 12 5 4 6 8 7 9 8 10 9 2 10 1 11 3 12
REMARK H PARENT
REMARK Flexibility Score: inf
ROOT
ATOM      1  C   UNL     1       4.361  -6.332  14.273  1.00  0.00    -0.003 A 
ATOM      2  C   UNL     1       3.291  -5.873  15.061  1.00  0.00     0.010 A 
ATOM      3  C   UNL     1       5.606  -6.558  14.884  1.00  0.00     0.010 A 
ATOM      4  C   UNL     1       3.463  -5.646  16.429  1.00  0.00     0.004 A 
ATOM      5  C   UNL     1       5.779  -6.331  16.251  1.00  0.00     0.004 A 
ATOM      6  C   UNL     1       4.710  -5.872  17.040  1.00  0.00    -0.045 A 
ENDROOT
BRANCH   1   7
ATOM      7  C   UNL     1       4.183  -6.574  12.825  1.00  0.00     0.071 C 
ATOM      8  O   UNL     1       3.113  -6.246  12.248  1.00  0.00    -0.545 OA
ATOM      9  O   UNL     1       5.195  -7.170  12.081  1.00  0.00    -0.545 OA
ENDBRANCH   1   7
BRANCH   6  10
ATOM     10  C   UNL     1       4.912  -5.629  18.525  1.00  0.00     0.013 C 
ATOM     11  C   UNL     1       5.318  -4.175  18.795  1.00  0.00     0.012 C 
ATOM     12  C   UNL     1       5.936  -6.606  19.111  1.00  0.00     0.012 C 
ENDBRANCH   6  10
TORSDOF 2
ENDMDL
