MODEL 1
REMARK VINA RESULT:    -3.576      0.000      0.000
REMARK INTER + INTRA:          -4.717
REMARK INTER:                  -5.249
REMARK INTRA:                   0.532
REMARK UNBOUND:                 0.532
REMARK SMILES C=C1CC=CC(C)(C)CC=C(C)CCC1
REMARK SMILES IDX 2 1 1 2 15 3 14 4 13 5 11 6 12 7 10 8 3 10 4 11 5 12 6 13
REMARK SMILES IDX 7 14 8 15 9 16
REMARK H PARENT
REMARK Flexibility Score: 60.00
ROOT
ATOM      1  C   UNL     1     139.539 138.211 134.185  1.00  0.00    -0.074 C 
ATOM      2  C   UNL     1     140.248 137.505 133.282  1.00  0.00     0.008 C 
ENDROOT
BRANCH   1   3
ATOM      3  C   UNL     1     140.284 138.770 135.391  1.00  0.00     0.031 C 
BRANCH   3   4
ATOM      4  C   UNL     1     140.113 137.977 136.697  1.00  0.00     0.009 C 
BRANCH   4   5
ATOM      5  C   UNL     1     138.668 137.536 137.032  1.00  0.00     0.030 C 
BRANCH   5   6
ATOM      6  C   UNL     1     137.874 138.479 137.925  1.00  0.00    -0.077 C 
ATOM      7  C   UNL     1     138.486 138.935 139.227  1.00  0.00     0.039 C 
ATOM      8  C   UNL     1     136.664 138.980 137.588  1.00  0.00    -0.027 CG0
ATOM      9  G   UNL     1     135.940 138.671 136.297  1.00  0.00     0.000 G0
ENDBRANCH   5   6
ENDBRANCH   4   5
ENDBRANCH   3   4
ENDBRANCH   1   3
BRANCH   1  10
ATOM     10  C   UNL     1     138.128 138.689 133.851  1.00  0.00     0.057 C 
BRANCH  10  11
ATOM     11  C   UNL     1     137.872 140.127 134.254  1.00  0.00    -0.026 C 
ATOM     12  C   UNL     1     136.777 140.650 134.851  1.00  0.00    -0.024 C 
BRANCH  12  13
ATOM     13  C   UNL     1     135.557 139.930 135.444  1.00  0.00    -0.014 C 
ATOM     14  C   UNL     1     134.744 140.936 136.285  1.00  0.00     0.016 C 
ATOM     15  C   UNL     1     134.657 139.473 134.270  1.00  0.00     0.016 C 
BRANCH  13  16
ATOM     16  C   UNL     1     135.906 138.679 136.306  1.00  0.00     0.038 CG0
ATOM     17  G   UNL     1     136.642 139.007 137.585  1.00  0.00     0.000 G0
ENDBRANCH  13  16
ENDBRANCH  12  13
ENDBRANCH  10  11
ENDBRANCH   1  10
TORSDOF 0
ENDMDL
MODEL 2
REMARK VINA RESULT:    -3.342      5.062      6.502
REMARK INTER + INTRA:          -4.373
REMARK INTER:                  -4.777
REMARK INTRA:                   0.405
REMARK UNBOUND:                 0.532
REMARK SMILES C=C1CC=CC(C)(C)CC=C(C)CCC1
REMARK SMILES IDX 2 1 1 2 15 3 14 4 13 5 11 6 12 7 10 8 3 10 4 11 5 12 6 13
REMARK SMILES IDX 7 14 8 15 9 16
REMARK H PARENT
REMARK Flexibility Score: 60.00
ROOT
ATOM      1  C   UNL     1     137.674 133.766 137.914  1.00  0.00    -0.074 C 
ATOM      2  C   UNL     1     138.929 134.146 138.224  1.00  0.00     0.008 C 
ENDROOT
BRANCH   1   3
ATOM      3  C   UNL     1     137.492 132.416 137.231  1.00  0.00     0.031 C 
BRANCH   3   4
ATOM      4  C   UNL     1     137.778 132.398 135.720  1.00  0.00     0.009 C 
BRANCH   4   5
ATOM      5  C   UNL     1     136.907 133.343 134.859  1.00  0.00     0.030 C 
BRANCH   5   6
ATOM      6  C   UNL     1     135.486 132.870 134.580  1.00  0.00    -0.077 C 
ATOM      7  C   UNL     1     135.283 131.530 133.917  1.00  0.00     0.039 C 
ATOM      8  C   UNL     1     134.386 133.565 134.948  1.00  0.00    -0.027 CG0
ATOM      9  G   UNL     1     134.414 134.892 135.672  1.00  0.00     0.000 G0
ENDBRANCH   5   6
ENDBRANCH   4   5
ENDBRANCH   3   4
ENDBRANCH   1   3
BRANCH   1  10
ATOM     10  C   UNL     1     136.477 134.508 138.503  1.00  0.00     0.057 C 
BRANCH  10  11
ATOM     11  C   UNL     1     135.227 133.657 138.589  1.00  0.00    -0.026 C 
ATOM     12  C   UNL     1     134.021 133.876 138.019  1.00  0.00    -0.024 C 
BRANCH  12  13
ATOM     13  C   UNL     1     133.610 134.943 136.994  1.00  0.00    -0.014 C 
ATOM     14  C   UNL     1     132.103 134.795 136.697  1.00  0.00     0.016 C 
ATOM     15  C   UNL     1     133.821 136.332 137.643  1.00  0.00     0.016 C 
BRANCH  13  16
ATOM     16  C   UNL     1     134.418 134.899 135.663  1.00  0.00     0.038 CG0
ATOM     17  G   UNL     1     134.381 133.556 134.971  1.00  0.00     0.000 G0
ENDBRANCH  13  16
ENDBRANCH  12  13
ENDBRANCH  10  11
ENDBRANCH   1  10
TORSDOF 0
ENDMDL
MODEL 3
REMARK VINA RESULT:    -3.294      3.091      5.357
REMARK INTER + INTRA:          -4.302
REMARK INTER:                  -5.040
REMARK INTRA:                   0.738
REMARK UNBOUND:                 0.532
REMARK SMILES C=C1CC=CC(C)(C)CC=C(C)CCC1
REMARK SMILES IDX 2 1 1 2 15 3 14 4 13 5 11 6 12 7 10 8 3 10 4 11 5 12 6 13
REMARK SMILES IDX 7 14 8 15 9 16
REMARK H PARENT
REMARK Flexibility Score: 60.00
ROOT
ATOM      1  C   UNL     1     138.529 133.261 137.058  1.00  0.00    -0.074 C 
ATOM      2  C   UNL     1     137.575 132.343 136.802  1.00  0.00     0.008 C 
ENDROOT
BRANCH   1   3
ATOM      3  C   UNL     1     139.732 133.311 136.125  1.00  0.00     0.031 C 
BRANCH   3   4
ATOM      4  C   UNL     1     139.541 134.148 134.848  1.00  0.00     0.009 C 
BRANCH   4   5
ATOM      5  C   UNL     1     140.728 135.060 134.459  1.00  0.00     0.030 C 
BRANCH   5   6
ATOM      6  C   UNL     1     140.401 136.537 134.278  1.00  0.00    -0.077 C 
ATOM      7  C   UNL     1     140.218 137.074 132.880  1.00  0.00     0.039 C 
ATOM      8  C   UNL     1     140.210 137.387 135.311  1.00  0.00    -0.027 CG0
ATOM      9  G   UNL     1     140.298 136.997 136.769  1.00  0.00     0.000 G0
ENDBRANCH   5   6
ENDBRANCH   4   5
ENDBRANCH   3   4
ENDBRANCH   1   3
BRANCH   1  10
ATOM     10  C   UNL     1     138.260 134.395 138.044  1.00  0.00     0.057 C 
BRANCH  10  11
ATOM     11  C   UNL     1     137.443 135.524 137.451  1.00  0.00    -0.026 C 
ATOM     12  C   UNL     1     137.771 136.831 137.344  1.00  0.00    -0.024 C 
BRANCH  12  13
ATOM     13  C   UNL     1     139.111 137.524 137.633  1.00  0.00    -0.014 C 
ATOM     14  C   UNL     1     138.937 139.045 137.441  1.00  0.00     0.016 C 
ATOM     15  C   UNL     1     139.460 137.281 139.122  1.00  0.00     0.016 C 
BRANCH  13  16
ATOM     16  C   UNL     1     140.298 137.013 136.764  1.00  0.00     0.038 CG0
ATOM     17  G   UNL     1     140.195 137.396 135.305  1.00  0.00     0.000 G0
ENDBRANCH  13  16
ENDBRANCH  12  13
ENDBRANCH  10  11
ENDBRANCH   1  10
TORSDOF 0
ENDMDL
MODEL 4
REMARK VINA RESULT:    -3.260      1.577      3.461
REMARK INTER + INTRA:          -4.253
REMARK INTER:                  -4.993
REMARK INTRA:                   0.740
REMARK UNBOUND:                 0.532
REMARK SMILES C=C1CC=CC(C)(C)CC=C(C)CCC1
REMARK SMILES IDX 2 1 1 2 15 3 14 4 13 5 11 6 12 7 10 8 3 10 4 11 5 12 6 13
REMARK SMILES IDX 7 14 8 15 9 16
REMARK H PARENT
REMARK Flexibility Score: 60.00
ROOT
ATOM      1  C   UNL     1     135.694 140.346 134.783  1.00  0.00    -0.074 C 
ATOM      2  C   UNL     1     135.051 139.706 133.786  1.00  0.00     0.008 C 
ENDROOT
BRANCH   1   3
ATOM      3  C   UNL     1     137.113 140.832 134.512  1.00  0.00     0.031 C 
BRANCH   3   4
ATOM      4  C   UNL     1     138.187 139.734 134.460  1.00  0.00     0.009 C 
BRANCH   4   5
ATOM      5  C   UNL     1     137.856 138.431 135.226  1.00  0.00     0.030 C 
BRANCH   5   6
ATOM      6  C   UNL     1     138.119 138.456 136.726  1.00  0.00    -0.077 C 
ATOM      7  C   UNL     1     139.435 139.001 137.225  1.00  0.00     0.039 C 
ATOM      8  C   UNL     1     137.209 138.064 137.646  1.00  0.00    -0.027 CG0
ATOM      9  G   UNL     1     135.826 137.550 137.318  1.00  0.00     0.000 G0
ENDBRANCH   5   6
ENDBRANCH   4   5
ENDBRANCH   3   4
ENDBRANCH   1   3
BRANCH   1  10
ATOM     10  C   UNL     1     134.924 140.834 136.007  1.00  0.00     0.057 C 
BRANCH  10  11
ATOM     11  C   UNL     1     133.701 139.996 136.318  1.00  0.00    -0.026 C 
ATOM     12  C   UNL     1     133.609 138.907 137.115  1.00  0.00    -0.024 C 
BRANCH  12  13
ATOM     13  C   UNL     1     134.658 138.304 138.060  1.00  0.00    -0.014 C 
ATOM     14  C   UNL     1     135.245 139.430 138.938  1.00  0.00     0.016 C 
ATOM     15  C   UNL     1     133.935 137.311 139.002  1.00  0.00     0.016 C 
BRANCH  13  16
ATOM     16  C   UNL     1     135.809 137.541 137.339  1.00  0.00     0.038 CG0
ATOM     17  G   UNL     1     137.187 138.074 137.657  1.00  0.00     0.000 G0
ENDBRANCH  13  16
ENDBRANCH  12  13
ENDBRANCH  10  11
ENDBRANCH   1  10
TORSDOF 0
ENDMDL
MODEL 5
REMARK VINA RESULT:    -3.207      4.035      5.840
REMARK INTER + INTRA:          -4.174
REMARK INTER:                  -4.738
REMARK INTRA:                   0.564
REMARK UNBOUND:                 0.532
REMARK SMILES C=C1CC=CC(C)(C)CC=C(C)CCC1
REMARK SMILES IDX 2 1 1 2 15 3 14 4 13 5 11 6 12 7 10 8 3 10 4 11 5 12 6 13
REMARK SMILES IDX 7 14 8 15 9 16
REMARK H PARENT
REMARK Flexibility Score: 60.00
ROOT
ATOM      1  C   UNL     1     137.487 132.215 135.495  1.00  0.00    -0.074 C 
ATOM      2  C   UNL     1     137.673 132.031 136.817  1.00  0.00     0.008 C 
ENDROOT
BRANCH   1   3
ATOM      3  C   UNL     1     136.060 132.156 134.965  1.00  0.00     0.031 C 
BRANCH   3   4
ATOM      4  C   UNL     1     135.126 133.271 135.463  1.00  0.00     0.009 C 
BRANCH   4   5
ATOM      5  C   UNL     1     135.380 134.677 134.868  1.00  0.00     0.030 C 
BRANCH   5   6
ATOM      6  C   UNL     1     136.141 135.649 135.760  1.00  0.00    -0.077 C 
ATOM      7  C   UNL     1     135.583 135.974 137.124  1.00  0.00     0.039 C 
ATOM      8  C   UNL     1     137.328 136.198 135.417  1.00  0.00    -0.027 CG0
ATOM      9  G   UNL     1     138.051 135.932 134.116  1.00  0.00     0.000 G0
ENDBRANCH   5   6
ENDBRANCH   4   5
ENDBRANCH   3   4
ENDBRANCH   1   3
BRANCH   1  10
ATOM     10  C   UNL     1     138.617 132.765 134.628  1.00  0.00     0.057 C 
BRANCH  10  11
ATOM     11  C   UNL     1     139.665 133.521 135.419  1.00  0.00    -0.026 C 
ATOM     12  C   UNL     1     140.122 134.777 135.221  1.00  0.00    -0.024 C 
BRANCH  12  13
ATOM     13  C   UNL     1     139.608 135.858 134.259  1.00  0.00    -0.014 C 
ATOM     14  C   UNL     1     140.140 137.231 134.720  1.00  0.00     0.016 C 
ATOM     15  C   UNL     1     140.209 135.574 132.860  1.00  0.00     0.016 C 
BRANCH  13  16
ATOM     16  C   UNL     1     138.057 135.909 134.121  1.00  0.00     0.038 CG0
ATOM     17  G   UNL     1     137.339 136.190 135.421  1.00  0.00     0.000 G0
ENDBRANCH  13  16
ENDBRANCH  12  13
ENDBRANCH  10  11
ENDBRANCH   1  10
TORSDOF 0
ENDMDL
MODEL 6
REMARK VINA RESULT:    -3.206      5.150      7.392
REMARK INTER + INTRA:          -4.174
REMARK INTER:                  -4.885
REMARK INTRA:                   0.711
REMARK UNBOUND:                 0.532
REMARK SMILES C=C1CC=CC(C)(C)CC=C(C)CCC1
REMARK SMILES IDX 2 1 1 2 15 3 14 4 13 5 11 6 12 7 10 8 3 10 4 11 5 12 6 13
REMARK SMILES IDX 7 14 8 15 9 16
REMARK H PARENT
REMARK Flexibility Score: 60.00
ROOT
ATOM      1  C   UNL     1     134.015 135.568 137.518  1.00  0.00    -0.074 C 
ATOM      2  C   UNL     1     134.135 136.839 137.085  1.00  0.00     0.008 C 
ENDROOT
BRANCH   1   3
ATOM      3  C   UNL     1     132.608 135.005 137.677  1.00  0.00     0.031 C 
BRANCH   3   4
ATOM      4  C   UNL     1     131.913 134.588 136.371  1.00  0.00     0.009 C 
BRANCH   4   5
ATOM      5  C   UNL     1     132.609 133.465 135.566  1.00  0.00     0.030 C 
BRANCH   5   6
ATOM      6  C   UNL     1     133.453 133.919 134.382  1.00  0.00    -0.077 C 
ATOM      7  C   UNL     1     132.875 134.930 133.422  1.00  0.00     0.039 C 
ATOM      8  C   UNL     1     134.723 133.505 134.173  1.00  0.00    -0.027 CG0
ATOM      9  G   UNL     1     135.469 132.544 135.070  1.00  0.00     0.000 G0
ENDBRANCH   5   6
ENDBRANCH   4   5
ENDBRANCH   3   4
ENDBRANCH   1   3
BRANCH   1  10
ATOM     10  C   UNL     1     135.231 134.646 137.543  1.00  0.00     0.057 C 
BRANCH  10  11
ATOM     11  C   UNL     1     136.367 135.128 136.666  1.00  0.00    -0.026 C 
ATOM     12  C   UNL     1     137.125 134.414 135.804  1.00  0.00    -0.024 C 
BRANCH  12  13
ATOM     13  C   UNL     1     136.957 132.960 135.337  1.00  0.00    -0.014 C 
ATOM     14  C   UNL     1     137.808 132.742 134.069  1.00  0.00     0.016 C 
ATOM     15  C   UNL     1     137.525 132.037 136.442  1.00  0.00     0.016 C 
BRANCH  13  16
ATOM     16  C   UNL     1     135.481 132.541 135.063  1.00  0.00     0.038 CG0
ATOM     17  G   UNL     1     134.729 133.505 134.173  1.00  0.00     0.000 G0
ENDBRANCH  13  16
ENDBRANCH  12  13
ENDBRANCH  10  11
ENDBRANCH   1  10
TORSDOF 0
ENDMDL
MODEL 7
REMARK VINA RESULT:    -3.154      2.650      4.013
REMARK INTER + INTRA:          -4.098
REMARK INTER:                  -4.832
REMARK INTRA:                   0.734
REMARK UNBOUND:                 0.532
REMARK SMILES C=C1CC=CC(C)(C)CC=C(C)CCC1
REMARK SMILES IDX 2 1 1 2 15 3 14 4 13 5 11 6 12 7 10 8 3 10 4 11 5 12 6 13
REMARK SMILES IDX 7 14 8 15 9 16
REMARK H PARENT
REMARK Flexibility Score: 60.00
ROOT
ATOM      1  C   UNL     1     140.301 136.722 134.433  1.00  0.00    -0.074 C 
ATOM      2  C   UNL     1     140.065 137.478 133.342  1.00  0.00     0.008 C 
ENDROOT
BRANCH   1   3
ATOM      3  C   UNL     1     140.390 135.213 134.243  1.00  0.00     0.031 C 
BRANCH   3   4
ATOM      4  C   UNL     1     139.046 134.467 134.253  1.00  0.00     0.009 C 
BRANCH   4   5
ATOM      5  C   UNL     1     137.980 135.014 135.233  1.00  0.00     0.030 C 
BRANCH   5   6
ATOM      6  C   UNL     1     138.177 134.655 136.699  1.00  0.00    -0.077 C 
ATOM      7  C   UNL     1     138.707 133.285 137.047  1.00  0.00     0.039 C 
ATOM      8  C   UNL     1     137.955 135.522 137.713  1.00  0.00    -0.027 CG0
ATOM      9  G   UNL     1     137.481 136.946 137.533  1.00  0.00     0.000 G0
ENDBRANCH   5   6
ENDBRANCH   4   5
ENDBRANCH   3   4
ENDBRANCH   1   3
BRANCH   1  10
ATOM     10  C   UNL     1     140.769 137.372 135.733  1.00  0.00     0.057 C 
BRANCH  10  11
ATOM     11  C   UNL     1     140.064 138.678 136.036  1.00  0.00    -0.026 C 
ATOM     12  C   UNL     1     139.096 138.919 136.948  1.00  0.00    -0.024 C 
BRANCH  12  13
ATOM     13  C   UNL     1     138.547 137.998 138.048  1.00  0.00    -0.014 C 
ATOM     14  C   UNL     1     139.728 137.271 138.725  1.00  0.00     0.016 C 
ATOM     15  C   UNL     1     137.875 138.888 139.122  1.00  0.00     0.016 C 
BRANCH  13  16
ATOM     16  C   UNL     1     137.500 136.958 137.551  1.00  0.00     0.038 CG0
ATOM     17  G   UNL     1     137.946 135.522 137.705  1.00  0.00     0.000 G0
ENDBRANCH  13  16
ENDBRANCH  12  13
ENDBRANCH  10  11
ENDBRANCH   1  10
TORSDOF 0
ENDMDL
MODEL 8
REMARK VINA RESULT:    -3.145      3.725      5.021
REMARK INTER + INTRA:          -4.083
REMARK INTER:                  -4.614
REMARK INTRA:                   0.530
REMARK UNBOUND:                 0.532
REMARK SMILES C=C1CC=CC(C)(C)CC=C(C)CCC1
REMARK SMILES IDX 2 1 1 2 15 3 14 4 13 5 11 6 12 7 10 8 3 10 4 11 5 12 6 13
REMARK SMILES IDX 7 14 8 15 9 16
REMARK H PARENT
REMARK Flexibility Score: 60.00
ROOT
ATOM      1  C   UNL     1     138.640 133.334 134.314  1.00  0.00    -0.074 C 
ATOM      2  C   UNL     1     137.733 133.146 133.334  1.00  0.00     0.008 C 
ENDROOT
BRANCH   1   3
ATOM      3  C   UNL     1     138.920 132.166 135.252  1.00  0.00     0.031 C 
BRANCH   3   4
ATOM      4  C   UNL     1     137.833 131.891 136.304  1.00  0.00     0.009 C 
BRANCH   4   5
ATOM      5  C   UNL     1     137.818 132.844 137.522  1.00  0.00     0.030 C 
BRANCH   5   6
ATOM      6  C   UNL     1     136.860 134.025 137.432  1.00  0.00    -0.077 C 
ATOM      7  C   UNL     1     135.376 133.766 137.529  1.00  0.00     0.039 C 
ATOM      8  C   UNL     1     137.271 135.308 137.327  1.00  0.00    -0.027 CG0
ATOM      9  G   UNL     1     138.718 135.743 137.277  1.00  0.00     0.000 G0
ENDBRANCH   5   6
ENDBRANCH   4   5
ENDBRANCH   3   4
ENDBRANCH   1   3
BRANCH   1  10
ATOM     10  C   UNL     1     139.563 134.549 134.285  1.00  0.00     0.057 C 
BRANCH  10  11
ATOM     11  C   UNL     1     138.832 135.851 134.031  1.00  0.00    -0.026 C 
ATOM     12  C   UNL     1     138.534 136.833 134.911  1.00  0.00    -0.024 C 
BRANCH  12  13
ATOM     13  C   UNL     1     138.984 137.000 136.369  1.00  0.00    -0.014 C 
ATOM     14  C   UNL     1     140.487 137.352 136.390  1.00  0.00     0.016 C 
ATOM     15  C   UNL     1     138.218 138.204 136.969  1.00  0.00     0.016 C 
BRANCH  13  16
ATOM     16  C   UNL     1     138.720 135.756 137.270  1.00  0.00     0.038 CG0
ATOM     17  G   UNL     1     137.270 135.332 137.311  1.00  0.00     0.000 G0
ENDBRANCH  13  16
ENDBRANCH  12  13
ENDBRANCH  10  11
ENDBRANCH   1  10
TORSDOF 0
ENDMDL
MODEL 9
REMARK VINA RESULT:    -3.063      2.298      5.181
REMARK INTER + INTRA:          -3.963
REMARK INTER:                  -4.570
REMARK INTRA:                   0.607
REMARK UNBOUND:                 0.532
REMARK SMILES C=C1CC=CC(C)(C)CC=C(C)CCC1
REMARK SMILES IDX 2 1 1 2 15 3 14 4 13 5 11 6 12 7 10 8 3 10 4 11 5 12 6 13
REMARK SMILES IDX 7 14 8 15 9 16
REMARK H PARENT
REMARK Flexibility Score: 60.00
ROOT
ATOM      1  C   UNL     1     139.430 138.549 136.584  1.00  0.00    -0.074 C 
ATOM      2  C   UNL     1     139.059 138.343 137.864  1.00  0.00     0.008 C 
ENDROOT
BRANCH   1   3
ATOM      3  C   UNL     1     139.183 139.930 135.989  1.00  0.00     0.031 C 
BRANCH   3   4
ATOM      4  C   UNL     1     137.848 140.098 135.245  1.00  0.00     0.009 C 
BRANCH   4   5
ATOM      5  C   UNL     1     137.856 139.700 133.750  1.00  0.00     0.030 C 
BRANCH   5   6
ATOM      6  C   UNL     1     137.068 138.447 133.390  1.00  0.00    -0.077 C 
ATOM      7  C   UNL     1     135.561 138.489 133.464  1.00  0.00     0.039 C 
ATOM      8  C   UNL     1     137.647 137.306 132.952  1.00  0.00    -0.027 CG0
ATOM      9  G   UNL     1     139.135 137.118 132.765  1.00  0.00     0.000 G0
ENDBRANCH   5   6
ENDBRANCH   4   5
ENDBRANCH   3   4
ENDBRANCH   1   3
BRANCH   1  10
ATOM     10  C   UNL     1     140.336 137.546 135.875  1.00  0.00     0.057 C 
BRANCH  10  11
ATOM     11  C   UNL     1     139.751 136.150 135.815  1.00  0.00    -0.026 C 
ATOM     12  C   UNL     1     139.414 135.426 134.723  1.00  0.00    -0.024 C 
BRANCH  12  13
ATOM     13  C   UNL     1     139.674 135.728 133.240  1.00  0.00    -0.014 C 
ATOM     14  C   UNL     1     141.191 135.635 132.971  1.00  0.00     0.016 C 
ATOM     15  C   UNL     1     138.986 134.623 132.402  1.00  0.00     0.016 C 
BRANCH  13  16
ATOM     16  C   UNL     1     139.135 137.109 132.761  1.00  0.00     0.038 CG0
ATOM     17  G   UNL     1     137.648 137.286 132.964  1.00  0.00     0.000 G0
ENDBRANCH  13  16
ENDBRANCH  12  13
ENDBRANCH  10  11
ENDBRANCH   1  10
TORSDOF 0
ENDMDL
