MODEL 1
REMARK VINA RESULT:    -4.350      0.000      0.000
REMARK INTER + INTRA:         -11.421
REMARK INTER:                  -8.418
REMARK INTRA:                  -3.003
REMARK UNBOUND:                -3.003
REMARK SMILES CCCCCCCCCCCCCCCCCC(=O)[O-]
REMARK SMILES IDX 10 1 11 2 12 3 13 4 14 5 15 6 16 7 17 8 18 9 19 10 20 11
REMARK SMILES IDX 9 12 8 13 7 14 6 15 5 16 4 17 3 18 2 19 1 20
REMARK H PARENT
REMARK Flexibility Score: inf
ROOT
ATOM      1  C   UNL     1      25.911  16.359 -13.669  1.00  0.00     0.000 C 
ENDROOT
BRANCH   1   2
ATOM      2  C   UNL     1      26.657  16.813 -12.397  1.00  0.00     0.000 C 
BRANCH   2   3
ATOM      3  C   UNL     1      26.606  18.324 -12.105  1.00  0.00     0.000 C 
BRANCH   3   4
ATOM      4  C   UNL     1      25.305  18.755 -11.408  1.00  0.00     0.000 C 
BRANCH   4   5
ATOM      5  C   UNL     1      24.834  17.747 -10.343  1.00  0.00     0.000 C 
BRANCH   5   6
ATOM      6  C   UNL     1      23.366  17.299 -10.467  1.00  0.00     0.000 C 
BRANCH   6   7
ATOM      7  C   UNL     1      22.597  18.061 -11.556  1.00  0.00     0.006 C 
BRANCH   7   8
ATOM      8  C   UNL     1      22.197  17.125 -12.702  1.00  0.00     0.053 C 
BRANCH   8   9
ATOM      9  C   UNL     1      22.221  17.855 -14.007  1.00  0.00     0.041 C 
ATOM     10  O   UNL     1      23.215  18.562 -14.320  1.00  0.00    -0.550 OA
ATOM     11  O   UNL     1      21.166  17.717 -14.900  1.00  0.00    -0.550 OA
ENDBRANCH   8   9
ENDBRANCH   7   8
ENDBRANCH   6   7
ENDBRANCH   5   6
ENDBRANCH   4   5
ENDBRANCH   3   4
ENDBRANCH   2   3
ENDBRANCH   1   2
BRANCH   1  12
ATOM     12  C   UNL     1      25.095  15.062 -13.518  1.00  0.00     0.000 C 
BRANCH  12  13
ATOM     13  C   UNL     1      25.706  14.093 -12.492  1.00  0.00    -0.000 C 
BRANCH  13  14
ATOM     14  C   UNL     1      24.789  13.859 -11.282  1.00  0.00    -0.000 C 
BRANCH  14  15
ATOM     15  C   UNL     1      25.532  13.240 -10.088  1.00  0.00    -0.000 C 
BRANCH  15  16
ATOM     16  C   UNL     1      25.645  14.241  -8.932  1.00  0.00    -0.000 C 
BRANCH  16  17
ATOM     17  C   UNL     1      26.869  15.149  -9.106  1.00  0.00    -0.000 C 
BRANCH  17  18
ATOM     18  C   UNL     1      28.172  14.351  -8.948  1.00  0.00    -0.000 C 
BRANCH  18  19
ATOM     19  C   UNL     1      29.097  14.484 -10.168  1.00  0.00    -0.003 C 
ATOM     20  C   UNL     1      29.131  13.220 -11.026  1.00  0.00     0.004 C 
ENDBRANCH  18  19
ENDBRANCH  17  18
ENDBRANCH  16  17
ENDBRANCH  15  16
ENDBRANCH  14  15
ENDBRANCH  13  14
ENDBRANCH  12  13
ENDBRANCH   1  12
TORSDOF 16
ENDMDL
MODEL 2
REMARK VINA RESULT:    -4.312      2.382      5.201
REMARK INTER + INTRA:         -11.348
REMARK INTER:                  -8.691
REMARK INTRA:                  -2.658
REMARK UNBOUND:                -3.003
REMARK SMILES CCCCCCCCCCCCCCCCCC(=O)[O-]
REMARK SMILES IDX 10 1 11 2 12 3 13 4 14 5 15 6 16 7 17 8 18 9 19 10 20 11
REMARK SMILES IDX 9 12 8 13 7 14 6 15 5 16 4 17 3 18 2 19 1 20
REMARK H PARENT
REMARK Flexibility Score: inf
ROOT
ATOM      1  C   UNL     1      27.267  12.861 -13.436  1.00  0.00     0.000 C 
ENDROOT
BRANCH   1   2
ATOM      2  C   UNL     1      27.368  12.776 -11.899  1.00  0.00     0.000 C 
BRANCH   2   3
ATOM      3  C   UNL     1      28.783  12.957 -11.319  1.00  0.00     0.000 C 
BRANCH   3   4
ATOM      4  C   UNL     1      28.788  13.698  -9.971  1.00  0.00     0.000 C 
BRANCH   4   5
ATOM      5  C   UNL     1      27.973  15.005 -10.003  1.00  0.00     0.000 C 
BRANCH   5   6
ATOM      6  C   UNL     1      26.911  15.143  -8.897  1.00  0.00     0.000 C 
BRANCH   6   7
ATOM      7  C   UNL     1      25.483  15.266  -9.449  1.00  0.00     0.006 C 
BRANCH   7   8
ATOM      8  C   UNL     1      24.683  13.985  -9.194  1.00  0.00     0.053 C 
BRANCH   8   9
ATOM      9  C   UNL     1      23.219  14.238  -9.365  1.00  0.00     0.041 C 
ATOM     10  O   UNL     1      22.561  13.595 -10.225  1.00  0.00    -0.550 OA
ATOM     11  O   UNL     1      22.569  15.148  -8.541  1.00  0.00    -0.550 OA
ENDBRANCH   8   9
ENDBRANCH   7   8
ENDBRANCH   6   7
ENDBRANCH   5   6
ENDBRANCH   4   5
ENDBRANCH   3   4
ENDBRANCH   2   3
ENDBRANCH   1   2
BRANCH   1  12
ATOM     12  C   UNL     1      25.894  13.304 -13.975  1.00  0.00     0.000 C 
BRANCH  12  13
ATOM     13  C   UNL     1      24.950  13.793 -12.863  1.00  0.00    -0.000 C 
BRANCH  13  14
ATOM     14  C   UNL     1      24.551  15.266 -13.034  1.00  0.00    -0.000 C 
BRANCH  14  15
ATOM     15  C   UNL     1      25.673  16.114 -13.653  1.00  0.00    -0.000 C 
BRANCH  15  16
ATOM     16  C   UNL     1      26.559  16.732 -12.565  1.00  0.00    -0.000 C 
BRANCH  16  17
ATOM     17  C   UNL     1      26.336  18.247 -12.469  1.00  0.00    -0.000 C 
BRANCH  17  18
ATOM     18  C   UNL     1      25.230  18.576 -11.455  1.00  0.00    -0.000 C 
BRANCH  18  19
ATOM     19  C   UNL     1      23.941  19.071 -12.128  1.00  0.00    -0.003 C 
ATOM     20  C   UNL     1      22.718  18.236 -11.752  1.00  0.00     0.004 C 
ENDBRANCH  18  19
ENDBRANCH  17  18
ENDBRANCH  16  17
ENDBRANCH  15  16
ENDBRANCH  14  15
ENDBRANCH  13  14
ENDBRANCH  12  13
ENDBRANCH   1  12
TORSDOF 16
ENDMDL
MODEL 3
REMARK VINA RESULT:    -4.306      5.103      6.588
REMARK INTER + INTRA:         -11.337
REMARK INTER:                  -9.934
REMARK INTRA:                  -1.403
REMARK UNBOUND:                -3.003
REMARK SMILES CCCCCCCCCCCCCCCCCC(=O)[O-]
REMARK SMILES IDX 10 1 11 2 12 3 13 4 14 5 15 6 16 7 17 8 18 9 19 10 20 11
REMARK SMILES IDX 9 12 8 13 7 14 6 15 5 16 4 17 3 18 2 19 1 20
REMARK H PARENT
REMARK Flexibility Score: inf
ROOT
ATOM      1  C   UNL     1      20.093  17.558  -8.399  1.00  0.00     0.000 C 
ENDROOT
BRANCH   1   2
ATOM      2  C   UNL     1      18.840  16.759  -7.985  1.00  0.00     0.000 C 
BRANCH   2   3
ATOM      3  C   UNL     1      18.234  17.141  -6.622  1.00  0.00     0.000 C 
BRANCH   3   4
ATOM      4  C   UNL     1      19.207  16.919  -5.451  1.00  0.00     0.000 C 
BRANCH   4   5
ATOM      5  C   UNL     1      19.485  18.206  -4.651  1.00  0.00     0.000 C 
BRANCH   5   6
ATOM      6  C   UNL     1      20.782  18.945  -5.027  1.00  0.00     0.000 C 
BRANCH   6   7
ATOM      7  C   UNL     1      20.526  20.268  -5.764  1.00  0.00     0.006 C 
BRANCH   7   8
ATOM      8  C   UNL     1      19.047  20.660  -5.692  1.00  0.00     0.053 C 
BRANCH   8   9
ATOM      9  C   UNL     1      18.547  21.069  -7.040  1.00  0.00     0.041 C 
ATOM     10  O   UNL     1      17.644  20.402  -7.611  1.00  0.00    -0.550 OA
ATOM     11  O   UNL     1      19.042  22.217  -7.647  1.00  0.00    -0.550 OA
ENDBRANCH   8   9
ENDBRANCH   7   8
ENDBRANCH   6   7
ENDBRANCH   5   6
ENDBRANCH   4   5
ENDBRANCH   3   4
ENDBRANCH   2   3
ENDBRANCH   1   2
BRANCH   1  12
ATOM     12  C   UNL     1      21.333  16.704  -8.722  1.00  0.00     0.000 C 
BRANCH  12  13
ATOM     13  C   UNL     1      22.480  17.530  -9.327  1.00  0.00    -0.000 C 
BRANCH  13  14
ATOM     14  C   UNL     1      23.851  17.151  -8.744  1.00  0.00    -0.000 C 
BRANCH  14  15
ATOM     15  C   UNL     1      24.262  15.712  -9.092  1.00  0.00    -0.000 C 
BRANCH  15  16
ATOM     16  C   UNL     1      25.640  15.681  -9.764  1.00  0.00    -0.000 C 
BRANCH  16  17
ATOM     17  C   UNL     1      26.476  14.502  -9.253  1.00  0.00    -0.000 C 
BRANCH  17  18
ATOM     18  C   UNL     1      27.886  14.960  -8.852  1.00  0.00    -0.000 C 
BRANCH  18  19
ATOM     19  C   UNL     1      28.905  14.798  -9.991  1.00  0.00    -0.003 C 
ATOM     20  C   UNL     1      28.881  13.402 -10.612  1.00  0.00     0.004 C 
ENDBRANCH  18  19
ENDBRANCH  17  18
ENDBRANCH  16  17
ENDBRANCH  15  16
ENDBRANCH  14  15
ENDBRANCH  13  14
ENDBRANCH  12  13
ENDBRANCH   1  12
TORSDOF 16
ENDMDL
MODEL 4
REMARK VINA RESULT:    -4.285      2.273      4.526
REMARK INTER + INTRA:         -11.297
REMARK INTER:                  -8.655
REMARK INTRA:                  -2.642
REMARK UNBOUND:                -3.003
REMARK SMILES CCCCCCCCCCCCCCCCCC(=O)[O-]
REMARK SMILES IDX 10 1 11 2 12 3 13 4 14 5 15 6 16 7 17 8 18 9 19 10 20 11
REMARK SMILES IDX 9 12 8 13 7 14 6 15 5 16 4 17 3 18 2 19 1 20
REMARK H PARENT
REMARK Flexibility Score: inf
ROOT
ATOM      1  C   UNL     1      27.510  12.736 -13.283  1.00  0.00     0.000 C 
ENDROOT
BRANCH   1   2
ATOM      2  C   UNL     1      26.280  13.391 -13.945  1.00  0.00     0.000 C 
BRANCH   2   3
ATOM      3  C   UNL     1      25.302  14.087 -12.980  1.00  0.00     0.000 C 
BRANCH   3   4
ATOM      4  C   UNL     1      25.267  15.614 -13.163  1.00  0.00     0.000 C 
BRANCH   4   5
ATOM      5  C   UNL     1      26.430  16.330 -12.451  1.00  0.00     0.000 C 
BRANCH   5   6
ATOM      6  C   UNL     1      26.843  17.680 -13.064  1.00  0.00     0.000 C 
BRANCH   6   7
ATOM      7  C   UNL     1      25.928  18.121 -14.216  1.00  0.00     0.006 C 
BRANCH   7   8
ATOM      8  C   UNL     1      26.750  18.557 -15.433  1.00  0.00     0.053 C 
BRANCH   8   9
ATOM      9  C   UNL     1      27.603  17.430 -15.921  1.00  0.00     0.041 C 
ATOM     10  O   UNL     1      27.083  16.318 -16.202  1.00  0.00    -0.550 OA
ATOM     11  O   UNL     1      28.965  17.620 -16.112  1.00  0.00    -0.550 OA
ENDBRANCH   8   9
ENDBRANCH   7   8
ENDBRANCH   6   7
ENDBRANCH   5   6
ENDBRANCH   4   5
ENDBRANCH   3   4
ENDBRANCH   2   3
ENDBRANCH   1   2
BRANCH   1  12
ATOM     12  C   UNL     1      27.505  12.749 -11.744  1.00  0.00     0.000 C 
BRANCH  12  13
ATOM     13  C   UNL     1      28.866  13.151 -11.150  1.00  0.00    -0.000 C 
BRANCH  13  14
ATOM     14  C   UNL     1      28.800  14.468 -10.363  1.00  0.00    -0.000 C 
BRANCH  14  15
ATOM     15  C   UNL     1      27.988  14.339  -9.065  1.00  0.00    -0.000 C 
BRANCH  15  16
ATOM     16  C   UNL     1      26.791  15.297  -9.068  1.00  0.00    -0.000 C 
BRANCH  16  17
ATOM     17  C   UNL     1      25.482  14.543  -9.337  1.00  0.00    -0.000 C 
BRANCH  17  18
ATOM     18  C   UNL     1      24.265  15.412  -8.988  1.00  0.00    -0.000 C 
BRANCH  18  19
ATOM     19  C   UNL     1      24.468  16.889  -9.360  1.00  0.00    -0.003 C 
ATOM     20  C   UNL     1      23.483  17.371 -10.425  1.00  0.00     0.004 C 
ENDBRANCH  18  19
ENDBRANCH  17  18
ENDBRANCH  16  17
ENDBRANCH  15  16
ENDBRANCH  14  15
ENDBRANCH  13  14
ENDBRANCH  12  13
ENDBRANCH   1  12
TORSDOF 16
ENDMDL
MODEL 5
REMARK VINA RESULT:    -4.276      2.026      4.747
REMARK INTER + INTRA:         -11.279
REMARK INTER:                  -8.750
REMARK INTRA:                  -2.529
REMARK UNBOUND:                -3.003
REMARK SMILES CCCCCCCCCCCCCCCCCC(=O)[O-]
REMARK SMILES IDX 10 1 11 2 12 3 13 4 14 5 15 6 16 7 17 8 18 9 19 10 20 11
REMARK SMILES IDX 9 12 8 13 7 14 6 15 5 16 4 17 3 18 2 19 1 20
REMARK H PARENT
REMARK Flexibility Score: inf
ROOT
ATOM      1  C   UNL     1      29.090  14.368 -10.234  1.00  0.00     0.000 C 
ENDROOT
BRANCH   1   2
ATOM      2  C   UNL     1      28.634  12.949 -10.634  1.00  0.00     0.000 C 
BRANCH   2   3
ATOM      3  C   UNL     1      28.277  12.765 -12.121  1.00  0.00     0.000 C 
BRANCH   3   4
ATOM      4  C   UNL     1      26.787  13.011 -12.414  1.00  0.00     0.000 C 
BRANCH   4   5
ATOM      5  C   UNL     1      26.557  13.842 -13.690  1.00  0.00     0.000 C 
BRANCH   5   6
ATOM      6  C   UNL     1      25.182  14.527 -13.787  1.00  0.00     0.000 C 
BRANCH   6   7
ATOM      7  C   UNL     1      25.153  15.671 -14.812  1.00  0.00     0.006 C 
BRANCH   7   8
ATOM      8  C   UNL     1      26.487  15.774 -15.557  1.00  0.00     0.053 C 
BRANCH   8   9
ATOM      9  C   UNL     1      26.590  17.084 -16.270  1.00  0.00     0.041 C 
ATOM     10  O   UNL     1      25.549  17.734 -16.556  1.00  0.00    -0.550 OA
ATOM     11  O   UNL     1      27.837  17.614 -16.576  1.00  0.00    -0.550 OA
ENDBRANCH   8   9
ENDBRANCH   7   8
ENDBRANCH   6   7
ENDBRANCH   5   6
ENDBRANCH   4   5
ENDBRANCH   3   4
ENDBRANCH   2   3
ENDBRANCH   1   2
BRANCH   1  12
ATOM     12  C   UNL     1      27.953  15.387 -10.041  1.00  0.00     0.000 C 
BRANCH  12  13
ATOM     13  C   UNL     1      27.088  15.084  -8.806  1.00  0.00    -0.000 C 
BRANCH  13  14
ATOM     14  C   UNL     1      25.772  14.377  -9.167  1.00  0.00    -0.000 C 
BRANCH  14  15
ATOM     15  C   UNL     1      24.782  15.306  -9.886  1.00  0.00    -0.000 C 
BRANCH  15  16
ATOM     16  C   UNL     1      24.620  16.630  -9.129  1.00  0.00    -0.000 C 
BRANCH  16  17
ATOM     17  C   UNL     1      24.571  17.816 -10.100  1.00  0.00    -0.000 C 
BRANCH  17  18
ATOM     18  C   UNL     1      25.146  17.430 -11.471  1.00  0.00    -0.000 C 
BRANCH  18  19
ATOM     19  C   UNL     1      26.149  18.465 -12.003  1.00  0.00    -0.003 C 
ATOM     20  C   UNL     1      27.417  17.826 -12.566  1.00  0.00     0.004 C 
ENDBRANCH  18  19
ENDBRANCH  17  18
ENDBRANCH  16  17
ENDBRANCH  15  16
ENDBRANCH  14  15
ENDBRANCH  13  14
ENDBRANCH  12  13
ENDBRANCH   1  12
TORSDOF 16
ENDMDL
MODEL 6
REMARK VINA RESULT:    -4.253      1.628      2.962
REMARK INTER + INTRA:         -11.235
REMARK INTER:                  -8.467
REMARK INTRA:                  -2.768
REMARK UNBOUND:                -3.003
REMARK SMILES CCCCCCCCCCCCCCCCCC(=O)[O-]
REMARK SMILES IDX 10 1 11 2 12 3 13 4 14 5 15 6 16 7 17 8 18 9 19 10 20 11
REMARK SMILES IDX 9 12 8 13 7 14 6 15 5 16 4 17 3 18 2 19 1 20
REMARK H PARENT
REMARK Flexibility Score: inf
ROOT
ATOM      1  C   UNL     1      25.277  16.666 -10.193  1.00  0.00     0.000 C 
ENDROOT
BRANCH   1   2
ATOM      2  C   UNL     1      24.863  18.088 -10.626  1.00  0.00     0.000 C 
BRANCH   2   3
ATOM      3  C   UNL     1      25.747  18.732 -11.710  1.00  0.00     0.000 C 
BRANCH   3   4
ATOM      4  C   UNL     1      26.975  17.877 -12.067  1.00  0.00     0.000 C 
BRANCH   4   5
ATOM      5  C   UNL     1      26.889  17.267 -13.479  1.00  0.00     0.000 C 
BRANCH   5   6
ATOM      6  C   UNL     1      25.643  17.663 -14.291  1.00  0.00     0.000 C 
BRANCH   6   7
ATOM      7  C   UNL     1      24.607  16.534 -14.390  1.00  0.00     0.006 C 
BRANCH   7   8
ATOM      8  C   UNL     1      23.353  17.004 -15.133  1.00  0.00     0.053 C 
BRANCH   8   9
ATOM      9  C   UNL     1      23.692  17.404 -16.533  1.00  0.00     0.041 C 
ATOM     10  O   UNL     1      23.549  18.599 -16.904  1.00  0.00    -0.550 OA
ATOM     11  O   UNL     1      24.212  16.467 -17.418  1.00  0.00    -0.550 OA
ENDBRANCH   8   9
ENDBRANCH   7   8
ENDBRANCH   6   7
ENDBRANCH   5   6
ENDBRANCH   4   5
ENDBRANCH   3   4
ENDBRANCH   2   3
ENDBRANCH   1   2
BRANCH   1  12
ATOM     12  C   UNL     1      24.425  15.531 -10.789  1.00  0.00     0.000 C 
BRANCH  12  13
ATOM     13  C   UNL     1      24.558  14.215 -10.003  1.00  0.00    -0.000 C 
BRANCH  13  14
ATOM     14  C   UNL     1      25.266  13.116 -10.809  1.00  0.00    -0.000 C 
BRANCH  14  15
ATOM     15  C   UNL     1      25.664  13.581 -12.219  1.00  0.00    -0.000 C 
BRANCH  15  16
ATOM     16  C   UNL     1      27.173  13.433 -12.441  1.00  0.00    -0.000 C 
BRANCH  16  17
ATOM     17  C   UNL     1      27.857  12.839 -11.203  1.00  0.00    -0.000 C 
BRANCH  17  18
ATOM     18  C   UNL     1      29.105  13.649 -10.823  1.00  0.00    -0.000 C 
BRANCH  18  19
ATOM     19  C   UNL     1      28.759  14.989 -10.155  1.00  0.00    -0.003 C 
ATOM     20  C   UNL     1      28.140  14.816  -8.769  1.00  0.00     0.004 C 
ENDBRANCH  18  19
ENDBRANCH  17  18
ENDBRANCH  16  17
ENDBRANCH  15  16
ENDBRANCH  14  15
ENDBRANCH  13  14
ENDBRANCH  12  13
ENDBRANCH   1  12
TORSDOF 16
ENDMDL
MODEL 7
REMARK VINA RESULT:    -4.240      1.209      2.745
REMARK INTER + INTRA:         -11.209
REMARK INTER:                  -8.567
REMARK INTRA:                  -2.642
REMARK UNBOUND:                -3.003
REMARK SMILES CCCCCCCCCCCCCCCCCC(=O)[O-]
REMARK SMILES IDX 10 1 11 2 12 3 13 4 14 5 15 6 16 7 17 8 18 9 19 10 20 11
REMARK SMILES IDX 9 12 8 13 7 14 6 15 5 16 4 17 3 18 2 19 1 20
REMARK H PARENT
REMARK Flexibility Score: inf
ROOT
ATOM      1  C   UNL     1      25.804  13.686 -13.613  1.00  0.00     0.000 C 
ENDROOT
BRANCH   1   2
ATOM      2  C   UNL     1      25.923  15.173 -14.004  1.00  0.00     0.000 C 
BRANCH   2   3
ATOM      3  C   UNL     1      25.550  16.179 -12.899  1.00  0.00     0.000 C 
BRANCH   3   4
ATOM      4  C   UNL     1      26.580  17.311 -12.748  1.00  0.00     0.000 C 
BRANCH   4   5
ATOM      5  C   UNL     1      26.084  18.456 -11.845  1.00  0.00     0.000 C 
BRANCH   5   6
ATOM      6  C   UNL     1      24.584  18.417 -11.501  1.00  0.00     0.000 C 
BRANCH   6   7
ATOM      7  C   UNL     1      23.739  19.337 -12.395  1.00  0.00     0.006 C 
BRANCH   7   8
ATOM      8  C   UNL     1      22.634  18.548 -13.104  1.00  0.00     0.053 C 
BRANCH   8   9
ATOM      9  C   UNL     1      23.044  18.212 -14.502  1.00  0.00     0.041 C 
ATOM     10  O   UNL     1      22.766  17.085 -14.991  1.00  0.00    -0.550 OA
ATOM     11  O   UNL     1      23.691  19.161 -15.284  1.00  0.00    -0.550 OA
ENDBRANCH   8   9
ENDBRANCH   7   8
ENDBRANCH   6   7
ENDBRANCH   5   6
ENDBRANCH   4   5
ENDBRANCH   3   4
ENDBRANCH   2   3
ENDBRANCH   1   2
BRANCH   1  12
ATOM     12  C   UNL     1      27.137  12.988 -13.289  1.00  0.00     0.000 C 
BRANCH  12  13
ATOM     13  C   UNL     1      27.372  12.831 -11.777  1.00  0.00    -0.000 C 
BRANCH  13  14
ATOM     14  C   UNL     1      28.849  13.002 -11.389  1.00  0.00    -0.000 C 
BRANCH  14  15
ATOM     15  C   UNL     1      29.048  14.036 -10.270  1.00  0.00    -0.000 C 
BRANCH  15  16
ATOM     16  C   UNL     1      27.965  15.120 -10.323  1.00  0.00    -0.000 C 
BRANCH  16  17
ATOM     17  C   UNL     1      27.206  15.206  -8.993  1.00  0.00    -0.000 C 
BRANCH  17  18
ATOM     18  C   UNL     1      25.748  15.634  -9.218  1.00  0.00    -0.000 C 
BRANCH  18  19
ATOM     19  C   UNL     1      24.863  14.477  -9.706  1.00  0.00    -0.003 C 
ATOM     20  C   UNL     1      25.021  13.214  -8.861  1.00  0.00     0.004 C 
ENDBRANCH  18  19
ENDBRANCH  17  18
ENDBRANCH  16  17
ENDBRANCH  15  16
ENDBRANCH  14  15
ENDBRANCH  13  14
ENDBRANCH  12  13
ENDBRANCH   1  12
TORSDOF 16
ENDMDL
MODEL 8
REMARK VINA RESULT:    -4.234      1.559      3.729
REMARK INTER + INTRA:         -11.198
REMARK INTER:                  -8.390
REMARK INTRA:                  -2.808
REMARK UNBOUND:                -3.003
REMARK SMILES CCCCCCCCCCCCCCCCCC(=O)[O-]
REMARK SMILES IDX 10 1 11 2 12 3 13 4 14 5 15 6 16 7 17 8 18 9 19 10 20 11
REMARK SMILES IDX 9 12 8 13 7 14 6 15 5 16 4 17 3 18 2 19 1 20
REMARK H PARENT
REMARK Flexibility Score: inf
ROOT
ATOM      1  C   UNL     1      27.044  13.571 -12.661  1.00  0.00     0.000 C 
ENDROOT
BRANCH   1   2
ATOM      2  C   UNL     1      25.505  13.576 -12.769  1.00  0.00     0.000 C 
BRANCH   2   3
ATOM      3  C   UNL     1      24.866  14.951 -13.040  1.00  0.00     0.000 C 
BRANCH   3   4
ATOM      4  C   UNL     1      25.379  15.604 -14.335  1.00  0.00     0.000 C 
BRANCH   4   5
ATOM      5  C   UNL     1      26.092  16.946 -14.088  1.00  0.00     0.000 C 
BRANCH   5   6
ATOM      6  C   UNL     1      26.558  17.185 -12.641  1.00  0.00     0.000 C 
BRANCH   6   7
ATOM      7  C   UNL     1      26.290  18.616 -12.152  1.00  0.00     0.006 C 
BRANCH   7   8
ATOM      8  C   UNL     1      25.166  18.639 -11.112  1.00  0.00     0.053 C 
BRANCH   8   9
ATOM      9  C   UNL     1      23.829  18.634 -11.783  1.00  0.00     0.041 C 
ATOM     10  O   UNL     1      23.486  19.599 -12.517  1.00  0.00    -0.550 OA
ATOM     11  O   UNL     1      22.982  17.543 -11.639  1.00  0.00    -0.550 OA
ENDBRANCH   8   9
ENDBRANCH   7   8
ENDBRANCH   6   7
ENDBRANCH   5   6
ENDBRANCH   4   5
ENDBRANCH   3   4
ENDBRANCH   2   3
ENDBRANCH   1   2
BRANCH   1  12
ATOM     12  C   UNL     1      27.621  12.600 -11.616  1.00  0.00     0.000 C 
BRANCH  12  13
ATOM     13  C   UNL     1      28.921  13.119 -10.979  1.00  0.00    -0.000 C 
BRANCH  13  14
ATOM     14  C   UNL     1      28.856  14.617 -10.643  1.00  0.00    -0.000 C 
BRANCH  14  15
ATOM     15  C   UNL     1      28.716  14.878  -9.135  1.00  0.00    -0.000 C 
BRANCH  15  16
ATOM     16  C   UNL     1      27.268  14.673  -8.675  1.00  0.00    -0.000 C 
BRANCH  16  17
ATOM     17  C   UNL     1      26.307  15.574  -9.461  1.00  0.00    -0.000 C 
BRANCH  17  18
ATOM     18  C   UNL     1      24.851  15.121  -9.275  1.00  0.00    -0.000 C 
BRANCH  18  19
ATOM     19  C   UNL     1      24.727  13.604  -9.064  1.00  0.00    -0.003 C 
ATOM     20  C   UNL     1      23.342  13.187  -8.572  1.00  0.00     0.004 C 
ENDBRANCH  18  19
ENDBRANCH  17  18
ENDBRANCH  16  17
ENDBRANCH  15  16
ENDBRANCH  14  15
ENDBRANCH  13  14
ENDBRANCH  12  13
ENDBRANCH   1  12
TORSDOF 16
ENDMDL
MODEL 9
REMARK VINA RESULT:    -4.199      2.874      6.258
REMARK INTER + INTRA:         -11.131
REMARK INTER:                  -8.100
REMARK INTRA:                  -3.031
REMARK UNBOUND:                -3.003
REMARK SMILES CCCCCCCCCCCCCCCCCC(=O)[O-]
REMARK SMILES IDX 10 1 11 2 12 3 13 4 14 5 15 6 16 7 17 8 18 9 19 10 20 11
REMARK SMILES IDX 9 12 8 13 7 14 6 15 5 16 4 17 3 18 2 19 1 20
REMARK H PARENT
REMARK Flexibility Score: inf
ROOT
ATOM      1  C   UNL     1      24.743  17.881 -10.346  1.00  0.00     0.000 C 
ENDROOT
BRANCH   1   2
ATOM      2  C   UNL     1      23.253  17.515 -10.512  1.00  0.00     0.000 C 
BRANCH   2   3
ATOM      3  C   UNL     1      22.963  16.022 -10.753  1.00  0.00     0.000 C 
BRANCH   3   4
ATOM      4  C   UNL     1      23.518  15.117  -9.640  1.00  0.00     0.000 C 
BRANCH   4   5
ATOM      5  C   UNL     1      24.636  14.179 -10.132  1.00  0.00     0.000 C 
BRANCH   5   6
ATOM      6  C   UNL     1      25.794  13.963  -9.141  1.00  0.00     0.000 C 
BRANCH   6   7
ATOM      7  C   UNL     1      26.715  15.186  -9.018  1.00  0.00     0.006 C 
BRANCH   7   8
ATOM      8  C   UNL     1      28.166  14.758  -8.774  1.00  0.00     0.053 C 
BRANCH   8   9
ATOM      9  C   UNL     1      28.930  14.742 -10.059  1.00  0.00     0.041 C 
ATOM     10  O   UNL     1      29.287  15.823 -10.598  1.00  0.00    -0.550 OA
ATOM     11  O   UNL     1      29.292  13.532 -10.638  1.00  0.00    -0.550 OA
ENDBRANCH   8   9
ENDBRANCH   7   8
ENDBRANCH   6   7
ENDBRANCH   5   6
ENDBRANCH   4   5
ENDBRANCH   3   4
ENDBRANCH   2   3
ENDBRANCH   1   2
BRANCH   1  12
ATOM     12  C   UNL     1      25.281  18.899 -11.368  1.00  0.00     0.000 C 
BRANCH  12  13
ATOM     13  C   UNL     1      26.421  18.328 -12.228  1.00  0.00    -0.000 C 
BRANCH  13  14
ATOM     14  C   UNL     1      26.406  16.793 -12.285  1.00  0.00    -0.000 C 
BRANCH  14  15
ATOM     15  C   UNL     1      26.135  16.258 -13.700  1.00  0.00    -0.000 C 
BRANCH  15  16
ATOM     16  C   UNL     1      24.691  15.760 -13.832  1.00  0.00    -0.000 C 
BRANCH  16  17
ATOM     17  C   UNL     1      23.937  16.540 -14.917  1.00  0.00    -0.000 C 
BRANCH  17  18
ATOM     18  C   UNL     1      22.665  17.185 -14.346  1.00  0.00    -0.000 C 
BRANCH  18  19
ATOM     19  C   UNL     1      22.841  18.684 -14.060  1.00  0.00    -0.003 C 
ATOM     20  C   UNL     1      23.946  19.321 -14.901  1.00  0.00     0.004 C 
ENDBRANCH  18  19
ENDBRANCH  17  18
ENDBRANCH  16  17
ENDBRANCH  15  16
ENDBRANCH  14  15
ENDBRANCH  13  14
ENDBRANCH  12  13
ENDBRANCH   1  12
TORSDOF 16
ENDMDL
