MODEL 1
REMARK VINA RESULT:    -7.669      0.000      0.000
REMARK INTER + INTRA:         -11.225
REMARK INTER:                  -9.686
REMARK INTRA:                  -1.539
REMARK UNBOUND:                -1.539
REMARK SMILES O[C@H]1OC[C@@H](Cc2ccc3c(c2)OCO3)[C@H]1Cc1ccc2c(c1)OCO2
REMARK SMILES IDX 4 1 5 2 16 3 2 4 3 5 6 6 7 7 12 8 8 9 11 10 9 11 10 12 13 13
REMARK SMILES IDX 15 14 14 15 17 16 18 17 23 18 19 19 22 20 20 21 21 22 24 23
REMARK SMILES IDX 26 24 25 25 1 26
REMARK H PARENT 1 27
REMARK Flexibility Score: inf
ROOT
ATOM      1  C   UNL     1     -24.880 -23.216 -15.540  1.00  0.00     0.168 C 
ATOM      2  C   UNL     1     -24.529 -22.026 -14.654  1.00  0.00     0.028 C 
ATOM      3  C   UNL     1     -24.624 -22.615 -13.250  1.00  0.00     0.055 C 
ATOM      4  C   UNL     1     -24.162 -24.051 -13.549  1.00  0.00     0.250 C 
ATOM      5  O   UNL     1     -24.572 -24.409 -14.854  1.00  0.00    -0.352 OA
ENDROOT
BRANCH   2   6
ATOM      6  C   UNL     1     -25.367 -20.767 -14.948  1.00  0.00     0.042 C 
BRANCH   6   7
ATOM      7  C   UNL     1     -24.584 -19.512 -14.660  1.00  0.00    -0.044 A 
ATOM      8  C   UNL     1     -25.210 -18.249 -14.760  1.00  0.00     0.054 A 
ATOM      9  C   UNL     1     -23.229 -19.592 -14.244  1.00  0.00     0.008 A 
ATOM     10  C   UNL     1     -24.457 -17.120 -14.454  1.00  0.00     0.166 A 
ATOM     11  C   UNL     1     -22.504 -18.424 -13.944  1.00  0.00     0.051 A 
ATOM     12  C   UNL     1     -23.160 -17.204 -14.064  1.00  0.00     0.165 A 
ATOM     13  O   UNL     1     -24.845 -15.794 -14.480  1.00  0.00    -0.454 OA
ATOM     14  O   UNL     1     -22.668 -15.936 -13.826  1.00  0.00    -0.454 OA
ATOM     15  C   UNL     1     -23.722 -14.996 -14.083  1.00  0.00     0.468 C 
ENDBRANCH   6   7
ENDBRANCH   2   6
BRANCH   3  16
ATOM     16  C   UNL     1     -26.040 -22.568 -12.597  1.00  0.00     0.044 C 
BRANCH  16  17
ATOM     17  C   UNL     1     -26.290 -21.326 -11.772  1.00  0.00    -0.044 A 
ATOM     18  C   UNL     1     -27.603 -20.999 -11.360  1.00  0.00     0.054 A 
ATOM     19  C   UNL     1     -25.204 -20.514 -11.346  1.00  0.00     0.008 A 
ATOM     20  C   UNL     1     -27.783 -19.856 -10.587  1.00  0.00     0.166 A 
ATOM     21  C   UNL     1     -25.432 -19.368 -10.563  1.00  0.00     0.051 A 
ATOM     22  C   UNL     1     -26.743 -19.073 -10.208  1.00  0.00     0.165 A 
ATOM     23  O   UNL     1     -28.960 -19.333 -10.087  1.00  0.00    -0.454 OA
ATOM     24  O   UNL     1     -27.213 -18.017  -9.451  1.00  0.00    -0.454 OA
ATOM     25  C   UNL     1     -28.638 -18.145  -9.350  1.00  0.00     0.468 C 
ENDBRANCH  16  17
ENDBRANCH   3  16
BRANCH   4  26
ATOM     26  O   UNL     1     -24.612 -24.989 -12.605  1.00  0.00    -0.368 OA
ATOM     27  H   UNL     1     -25.513 -25.295 -12.892  1.00  0.00     0.213 HD
ENDBRANCH   4  26
TORSDOF 5
ENDMDL
MODEL 2
REMARK VINA RESULT:    -7.600      1.916      6.477
REMARK INTER + INTRA:         -11.138
REMARK INTER:                 -10.559
REMARK INTRA:                  -0.578
REMARK UNBOUND:                -1.539
REMARK SMILES O[C@H]1OC[C@@H](Cc2ccc3c(c2)OCO3)[C@H]1Cc1ccc2c(c1)OCO2
REMARK SMILES IDX 4 1 5 2 16 3 2 4 3 5 6 6 7 7 12 8 8 9 11 10 9 11 10 12 13 13
REMARK SMILES IDX 15 14 14 15 17 16 18 17 23 18 19 19 22 20 20 21 21 22 24 23
REMARK SMILES IDX 26 24 25 25 1 26
REMARK H PARENT 1 27
REMARK Flexibility Score: inf
ROOT
ATOM      1  C   UNL     1     -24.360 -20.962 -11.178  1.00  0.00     0.168 C 
ATOM      2  C   UNL     1     -23.447 -19.839 -11.658  1.00  0.00     0.028 C 
ATOM      3  C   UNL     1     -24.363 -18.620 -11.612  1.00  0.00     0.055 C 
ATOM      4  C   UNL     1     -25.235 -19.009 -10.406  1.00  0.00     0.250 C 
ATOM      5  O   UNL     1     -25.377 -20.416 -10.370  1.00  0.00    -0.352 OA
ENDROOT
BRANCH   2   6
ATOM      6  C   UNL     1     -22.746 -20.142 -12.997  1.00  0.00     0.042 C 
BRANCH   6   7
ATOM      7  C   UNL     1     -23.435 -21.263 -13.732  1.00  0.00    -0.044 A 
ATOM      8  C   UNL     1     -22.929 -22.579 -13.649  1.00  0.00     0.054 A 
ATOM      9  C   UNL     1     -24.620 -21.012 -14.471  1.00  0.00     0.008 A 
ATOM     10  C   UNL     1     -23.616 -23.587 -14.318  1.00  0.00     0.166 A 
ATOM     11  C   UNL     1     -25.284 -22.061 -15.134  1.00  0.00     0.051 A 
ATOM     12  C   UNL     1     -24.744 -23.338 -15.030  1.00  0.00     0.165 A 
ATOM     13  O   UNL     1     -23.317 -24.934 -14.386  1.00  0.00    -0.454 OA
ATOM     14  O   UNL     1     -25.210 -24.516 -15.581  1.00  0.00    -0.454 OA
ATOM     15  C   UNL     1     -24.318 -25.571 -15.191  1.00  0.00     0.468 C 
ENDBRANCH   6   7
ENDBRANCH   2   6
BRANCH   3  16
ATOM     16  C   UNL     1     -25.206 -18.364 -12.899  1.00  0.00     0.044 C 
BRANCH  16  17
ATOM     17  C   UNL     1     -24.724 -17.188 -13.717  1.00  0.00    -0.044 A 
ATOM     18  C   UNL     1     -25.436 -16.787 -14.872  1.00  0.00     0.054 A 
ATOM     19  C   UNL     1     -23.595 -16.433 -13.300  1.00  0.00     0.008 A 
ATOM     20  C   UNL     1     -24.967 -15.688 -15.585  1.00  0.00     0.166 A 
ATOM     21  C   UNL     1     -23.155 -15.327 -14.050  1.00  0.00     0.051 A 
ATOM     22  C   UNL     1     -23.872 -14.991 -15.193  1.00  0.00     0.165 A 
ATOM     23  O   UNL     1     -25.480 -15.129 -16.740  1.00  0.00    -0.454 OA
ATOM     24  O   UNL     1     -23.641 -13.958 -16.081  1.00  0.00    -0.454 OA
ATOM     25  C   UNL     1     -24.654 -14.012 -17.095  1.00  0.00     0.468 C 
ENDBRANCH  16  17
ENDBRANCH   3  16
BRANCH   4  26
ATOM     26  O   UNL     1     -26.490 -18.377 -10.398  1.00  0.00    -0.368 OA
ATOM     27  H   UNL     1     -26.334 -17.401 -10.494  1.00  0.00     0.213 HD
ENDBRANCH   4  26
TORSDOF 5
ENDMDL
MODEL 3
REMARK VINA RESULT:    -7.568      1.682      6.638
REMARK INTER + INTRA:         -11.098
REMARK INTER:                 -10.459
REMARK INTRA:                  -0.639
REMARK UNBOUND:                -1.539
REMARK SMILES O[C@H]1OC[C@@H](Cc2ccc3c(c2)OCO3)[C@H]1Cc1ccc2c(c1)OCO2
REMARK SMILES IDX 4 1 5 2 16 3 2 4 3 5 6 6 7 7 12 8 8 9 11 10 9 11 10 12 13 13
REMARK SMILES IDX 15 14 14 15 17 16 18 17 23 18 19 19 22 20 20 21 21 22 24 23
REMARK SMILES IDX 26 24 25 25 1 26
REMARK H PARENT 1 27
REMARK Flexibility Score: inf
ROOT
ATOM      1  C   UNL     1     -25.036 -21.091 -11.602  1.00  0.00     0.168 C 
ATOM      2  C   UNL     1     -23.992 -20.010 -11.865  1.00  0.00     0.028 C 
ATOM      3  C   UNL     1     -24.830 -18.737 -11.907  1.00  0.00     0.055 C 
ATOM      4  C   UNL     1     -25.915 -19.118 -10.886  1.00  0.00     0.250 C 
ATOM      5  O   UNL     1     -26.142 -20.513 -10.947  1.00  0.00    -0.352 OA
ENDROOT
BRANCH   2   6
ATOM      6  C   UNL     1     -23.092 -20.303 -13.081  1.00  0.00     0.042 C 
BRANCH   6   7
ATOM      7  C   UNL     1     -23.605 -21.482 -13.867  1.00  0.00    -0.044 A 
ATOM      8  C   UNL     1     -23.035 -22.761 -13.675  1.00  0.00     0.054 A 
ATOM      9  C   UNL     1     -24.691 -21.326 -14.767  1.00  0.00     0.008 A 
ATOM     10  C   UNL     1     -23.562 -23.826 -14.399  1.00  0.00     0.166 A 
ATOM     11  C   UNL     1     -25.193 -22.431 -15.480  1.00  0.00     0.051 A 
ATOM     12  C   UNL     1     -24.595 -23.668 -15.264  1.00  0.00     0.165 A 
ATOM     13  O   UNL     1     -23.174 -25.153 -14.383  1.00  0.00    -0.454 OA
ATOM     14  O   UNL     1     -24.908 -24.886 -15.835  1.00  0.00    -0.454 OA
ATOM     15  C   UNL     1     -24.015 -25.872 -15.295  1.00  0.00     0.468 C 
ENDBRANCH   6   7
ENDBRANCH   2   6
BRANCH   3  16
ATOM     16  C   UNL     1     -25.427 -18.373 -13.302  1.00  0.00     0.044 C 
BRANCH  16  17
ATOM     17  C   UNL     1     -24.777 -17.170 -13.946  1.00  0.00    -0.044 A 
ATOM     18  C   UNL     1     -23.528 -16.701 -13.476  1.00  0.00     0.054 A 
ATOM     19  C   UNL     1     -25.378 -16.541 -15.070  1.00  0.00     0.008 A 
ATOM     20  C   UNL     1     -22.958 -15.601 -14.111  1.00  0.00     0.166 A 
ATOM     21  C   UNL     1     -24.766 -15.432 -15.683  1.00  0.00     0.051 A 
ATOM     22  C   UNL     1     -23.553 -14.991 -15.166  1.00  0.00     0.165 A 
ATOM     23  O   UNL     1     -21.768 -14.962 -13.820  1.00  0.00    -0.454 OA
ATOM     24  O   UNL     1     -22.768 -13.938 -15.592  1.00  0.00    -0.454 OA
ATOM     25  C   UNL     1     -21.607 -13.882 -14.751  1.00  0.00     0.468 C 
ENDBRANCH  16  17
ENDBRANCH   3  16
BRANCH   4  26
ATOM     26  O   UNL     1     -27.114 -18.405 -11.054  1.00  0.00    -0.368 OA
ATOM     27  H   UNL     1     -27.029 -17.868 -11.884  1.00  0.00     0.213 HD
ENDBRANCH   4  26
TORSDOF 5
ENDMDL
MODEL 4
REMARK VINA RESULT:    -7.291      1.696      5.400
REMARK INTER + INTRA:         -10.748
REMARK INTER:                  -9.739
REMARK INTRA:                  -1.009
REMARK UNBOUND:                -1.539
REMARK SMILES O[C@H]1OC[C@@H](Cc2ccc3c(c2)OCO3)[C@H]1Cc1ccc2c(c1)OCO2
REMARK SMILES IDX 4 1 5 2 16 3 2 4 3 5 6 6 7 7 12 8 8 9 11 10 9 11 10 12 13 13
REMARK SMILES IDX 15 14 14 15 17 16 18 17 23 18 19 19 22 20 20 21 21 22 24 23
REMARK SMILES IDX 26 24 25 25 1 26
REMARK H PARENT 1 27
REMARK Flexibility Score: inf
ROOT
ATOM      1  C   UNL     1     -25.593 -18.398 -10.345  1.00  0.00     0.168 C 
ATOM      2  C   UNL     1     -25.300 -18.434 -11.842  1.00  0.00     0.028 C 
ATOM      3  C   UNL     1     -25.745 -19.838 -12.237  1.00  0.00     0.055 C 
ATOM      4  C   UNL     1     -26.911 -20.018 -11.250  1.00  0.00     0.250 C 
ATOM      5  O   UNL     1     -26.620 -19.319 -10.055  1.00  0.00    -0.352 OA
ENDROOT
BRANCH   2   6
ATOM      6  C   UNL     1     -23.857 -18.026 -12.199  1.00  0.00     0.042 C 
BRANCH   6   7
ATOM      7  C   UNL     1     -23.843 -16.895 -13.196  1.00  0.00    -0.044 A 
ATOM      8  C   UNL     1     -24.662 -16.956 -14.345  1.00  0.00     0.054 A 
ATOM      9  C   UNL     1     -23.043 -15.746 -12.964  1.00  0.00     0.008 A 
ATOM     10  C   UNL     1     -24.639 -15.876 -15.222  1.00  0.00     0.166 A 
ATOM     11  C   UNL     1     -23.050 -14.675 -13.877  1.00  0.00     0.051 A 
ATOM     12  C   UNL     1     -23.866 -14.784 -14.998  1.00  0.00     0.165 A 
ATOM     13  O   UNL     1     -25.343 -15.708 -16.399  1.00  0.00    -0.454 OA
ATOM     14  O   UNL     1     -24.045 -13.875 -16.023  1.00  0.00    -0.454 OA
ATOM     15  C   UNL     1     -24.990 -14.432 -16.949  1.00  0.00     0.468 C 
ENDBRANCH   6   7
ENDBRANCH   2   6
BRANCH   3  16
ATOM     16  C   UNL     1     -24.662 -20.952 -12.089  1.00  0.00     0.044 C 
BRANCH  16  17
ATOM     17  C   UNL     1     -24.657 -21.949 -13.225  1.00  0.00    -0.044 A 
ATOM     18  C   UNL     1     -24.011 -23.199 -13.070  1.00  0.00     0.054 A 
ATOM     19  C   UNL     1     -25.355 -21.672 -14.431  1.00  0.00     0.008 A 
ATOM     20  C   UNL     1     -24.047 -24.093 -14.136  1.00  0.00     0.166 A 
ATOM     21  C   UNL     1     -25.366 -22.606 -15.483  1.00  0.00     0.051 A 
ATOM     22  C   UNL     1     -24.693 -23.807 -15.293  1.00  0.00     0.165 A 
ATOM     23  O   UNL     1     -23.480 -25.350 -14.222  1.00  0.00    -0.454 OA
ATOM     24  O   UNL     1     -24.565 -24.870 -16.166  1.00  0.00    -0.454 OA
ATOM     25  C   UNL     1     -23.788 -25.886 -15.516  1.00  0.00     0.468 C 
ENDBRANCH  16  17
ENDBRANCH   3  16
BRANCH   4  26
ATOM     26  O   UNL     1     -27.214 -21.364 -10.984  1.00  0.00    -0.368 OA
ATOM     27  H   UNL     1     -28.105 -21.554 -11.377  1.00  0.00     0.213 HD
ENDBRANCH   4  26
TORSDOF 5
ENDMDL
MODEL 5
REMARK VINA RESULT:    -6.973      0.911      4.960
REMARK INTER + INTRA:         -10.347
REMARK INTER:                  -8.807
REMARK INTRA:                  -1.539
REMARK UNBOUND:                -1.539
REMARK SMILES O[C@H]1OC[C@@H](Cc2ccc3c(c2)OCO3)[C@H]1Cc1ccc2c(c1)OCO2
REMARK SMILES IDX 4 1 5 2 16 3 2 4 3 5 6 6 7 7 12 8 8 9 11 10 9 11 10 12 13 13
REMARK SMILES IDX 15 14 14 15 17 16 18 17 23 18 19 19 22 20 20 21 21 22 24 23
REMARK SMILES IDX 26 24 25 25 1 26
REMARK H PARENT 1 27
REMARK Flexibility Score: inf
ROOT
ATOM      1  C   UNL     1     -23.648 -23.834 -13.123  1.00  0.00     0.168 C 
ATOM      2  C   UNL     1     -24.573 -22.639 -12.920  1.00  0.00     0.028 C 
ATOM      3  C   UNL     1     -25.051 -22.340 -14.337  1.00  0.00     0.055 C 
ATOM      4  C   UNL     1     -25.064 -23.769 -14.903  1.00  0.00     0.250 C 
ATOM      5  O   UNL     1     -24.033 -24.521 -14.292  1.00  0.00    -0.352 OA
ENDROOT
BRANCH   2   6
ATOM      6  C   UNL     1     -23.925 -21.481 -12.135  1.00  0.00     0.042 C 
BRANCH   6   7
ATOM      7  C   UNL     1     -24.970 -20.594 -11.510  1.00  0.00    -0.044 A 
ATOM      8  C   UNL     1     -26.315 -21.023 -11.448  1.00  0.00     0.054 A 
ATOM      9  C   UNL     1     -24.604 -19.347 -10.939  1.00  0.00     0.008 A 
ATOM     10  C   UNL     1     -27.240 -20.184 -10.833  1.00  0.00     0.166 A 
ATOM     11  C   UNL     1     -25.572 -18.530 -10.327  1.00  0.00     0.051 A 
ATOM     12  C   UNL     1     -26.884 -18.990 -10.297  1.00  0.00     0.165 A 
ATOM     13  O   UNL     1     -28.596 -20.382 -10.656  1.00  0.00    -0.454 OA
ATOM     14  O   UNL     1     -27.998 -18.378  -9.757  1.00  0.00    -0.454 OA
ATOM     15  C   UNL     1     -29.125 -19.241  -9.967  1.00  0.00     0.468 C 
ENDBRANCH   6   7
ENDBRANCH   2   6
BRANCH   3  16
ATOM     16  C   UNL     1     -24.140 -21.380 -15.163  1.00  0.00     0.044 C 
BRANCH  16  17
ATOM     17  C   UNL     1     -24.331 -19.919 -14.825  1.00  0.00    -0.044 A 
ATOM     18  C   UNL     1     -23.207 -19.083 -14.628  1.00  0.00     0.054 A 
ATOM     19  C   UNL     1     -25.635 -19.356 -14.769  1.00  0.00     0.008 A 
ATOM     20  C   UNL     1     -23.430 -17.740 -14.336  1.00  0.00     0.166 A 
ATOM     21  C   UNL     1     -25.814 -17.992 -14.473  1.00  0.00     0.051 A 
ATOM     22  C   UNL     1     -24.679 -17.219 -14.258  1.00  0.00     0.165 A 
ATOM     23  O   UNL     1     -22.500 -16.749 -14.089  1.00  0.00    -0.454 OA
ATOM     24  O   UNL     1     -24.599 -15.873 -13.959  1.00  0.00    -0.454 OA
ATOM     25  C   UNL     1     -23.211 -15.528 -13.839  1.00  0.00     0.468 C 
ENDBRANCH  16  17
ENDBRANCH   3  16
BRANCH   4  26
ATOM     26  O   UNL     1     -24.958 -23.815 -16.304  1.00  0.00    -0.368 OA
ATOM     27  H   UNL     1     -25.013 -24.768 -16.578  1.00  0.00     0.213 HD
ENDBRANCH   4  26
TORSDOF 5
ENDMDL
MODEL 6
REMARK VINA RESULT:    -6.678      1.759      5.130
REMARK INTER + INTRA:          -9.973
REMARK INTER:                  -9.340
REMARK INTRA:                  -0.633
REMARK UNBOUND:                -1.539
REMARK SMILES O[C@H]1OC[C@@H](Cc2ccc3c(c2)OCO3)[C@H]1Cc1ccc2c(c1)OCO2
REMARK SMILES IDX 4 1 5 2 16 3 2 4 3 5 6 6 7 7 12 8 8 9 11 10 9 11 10 12 13 13
REMARK SMILES IDX 15 14 14 15 17 16 18 17 23 18 19 19 22 20 20 21 21 22 24 23
REMARK SMILES IDX 26 24 25 25 1 26
REMARK H PARENT 1 27
REMARK Flexibility Score: inf
ROOT
ATOM      1  C   UNL     1     -25.185 -17.972 -11.716  1.00  0.00     0.168 C 
ATOM      2  C   UNL     1     -25.717 -19.005 -12.705  1.00  0.00     0.028 C 
ATOM      3  C   UNL     1     -25.643 -20.302 -11.906  1.00  0.00     0.055 C 
ATOM      4  C   UNL     1     -25.928 -19.746 -10.501  1.00  0.00     0.250 C 
ATOM      5  O   UNL     1     -25.402 -18.437 -10.404  1.00  0.00    -0.352 OA
ENDROOT
BRANCH   2   6
ATOM      6  C   UNL     1     -25.004 -18.977 -14.071  1.00  0.00     0.042 C 
BRANCH   6   7
ATOM      7  C   UNL     1     -24.514 -17.590 -14.402  1.00  0.00    -0.044 A 
ATOM      8  C   UNL     1     -23.197 -17.207 -14.063  1.00  0.00     0.054 A 
ATOM      9  C   UNL     1     -25.354 -16.680 -15.095  1.00  0.00     0.008 A 
ATOM     10  C   UNL     1     -22.779 -15.927 -14.416  1.00  0.00     0.166 A 
ATOM     11  C   UNL     1     -24.891 -15.395 -15.432  1.00  0.00     0.051 A 
ATOM     12  C   UNL     1     -23.590 -15.060 -15.071  1.00  0.00     0.165 A 
ATOM     13  O   UNL     1     -21.552 -15.331 -14.192  1.00  0.00    -0.454 OA
ATOM     14  O   UNL     1     -22.915 -13.875 -15.292  1.00  0.00    -0.454 OA
ATOM     15  C   UNL     1     -21.596 -14.007 -14.740  1.00  0.00     0.468 C 
ENDBRANCH   6   7
ENDBRANCH   2   6
BRANCH   3  16
ATOM     16  C   UNL     1     -24.283 -21.061 -11.983  1.00  0.00     0.044 C 
BRANCH  16  17
ATOM     17  C   UNL     1     -24.311 -22.270 -12.890  1.00  0.00    -0.044 A 
ATOM     18  C   UNL     1     -25.483 -22.585 -13.617  1.00  0.00     0.054 A 
ATOM     19  C   UNL     1     -23.145 -23.061 -13.075  1.00  0.00     0.008 A 
ATOM     20  C   UNL     1     -25.458 -23.697 -14.454  1.00  0.00     0.166 A 
ATOM     21  C   UNL     1     -23.163 -24.176 -13.933  1.00  0.00     0.051 A 
ATOM     22  C   UNL     1     -24.347 -24.461 -14.603  1.00  0.00     0.165 A 
ATOM     23  O   UNL     1     -26.474 -24.204 -15.241  1.00  0.00    -0.454 OA
ATOM     24  O   UNL     1     -24.609 -25.487 -15.489  1.00  0.00    -0.454 OA
ATOM     25  C   UNL     1     -25.970 -25.360 -15.924  1.00  0.00     0.468 C 
ENDBRANCH  16  17
ENDBRANCH   3  16
BRANCH   4  26
ATOM     26  O   UNL     1     -25.436 -20.563  -9.468  1.00  0.00    -0.368 OA
ATOM     27  H   UNL     1     -25.620 -21.506  -9.719  1.00  0.00     0.213 HD
ENDBRANCH   4  26
TORSDOF 5
ENDMDL
MODEL 7
REMARK VINA RESULT:    -6.532      1.296      6.294
REMARK INTER + INTRA:          -9.789
REMARK INTER:                  -9.995
REMARK INTRA:                   0.206
REMARK UNBOUND:                -1.539
REMARK SMILES O[C@H]1OC[C@@H](Cc2ccc3c(c2)OCO3)[C@H]1Cc1ccc2c(c1)OCO2
REMARK SMILES IDX 4 1 5 2 16 3 2 4 3 5 6 6 7 7 12 8 8 9 11 10 9 11 10 12 13 13
REMARK SMILES IDX 15 14 14 15 17 16 18 17 23 18 19 19 22 20 20 21 21 22 24 23
REMARK SMILES IDX 26 24 25 25 1 26
REMARK H PARENT 1 27
REMARK Flexibility Score: inf
ROOT
ATOM      1  C   UNL     1     -23.894 -17.671 -11.818  1.00  0.00     0.168 C 
ATOM      2  C   UNL     1     -23.173 -18.998 -12.034  1.00  0.00     0.028 C 
ATOM      3  C   UNL     1     -23.210 -19.157 -13.550  1.00  0.00     0.055 C 
ATOM      4  C   UNL     1     -23.123 -17.677 -13.959  1.00  0.00     0.250 C 
ATOM      5  O   UNL     1     -23.771 -16.885 -12.982  1.00  0.00    -0.352 OA
ENDROOT
BRANCH   2   6
ATOM      6  C   UNL     1     -23.741 -20.155 -11.190  1.00  0.00     0.042 C 
BRANCH   6   7
ATOM      7  C   UNL     1     -25.194 -19.926 -10.860  1.00  0.00    -0.044 A 
ATOM      8  C   UNL     1     -25.574 -18.811 -10.079  1.00  0.00     0.054 A 
ATOM      9  C   UNL     1     -26.191 -20.799 -11.369  1.00  0.00     0.008 A 
ATOM     10  C   UNL     1     -26.929 -18.622  -9.827  1.00  0.00     0.166 A 
ATOM     11  C   UNL     1     -27.551 -20.571 -11.089  1.00  0.00     0.051 A 
ATOM     12  C   UNL     1     -27.876 -19.466 -10.310  1.00  0.00     0.165 A 
ATOM     13  O   UNL     1     -27.537 -17.618  -9.096  1.00  0.00    -0.454 OA
ATOM     14  O   UNL     1     -29.125 -19.035  -9.906  1.00  0.00    -0.454 OA
ATOM     15  C   UNL     1     -28.952 -17.846  -9.121  1.00  0.00     0.468 C 
ENDBRANCH   6   7
ENDBRANCH   2   6
BRANCH   3  16
ATOM     16  C   UNL     1     -24.482 -19.858 -14.120  1.00  0.00     0.044 C 
BRANCH  16  17
ATOM     17  C   UNL     1     -24.349 -21.359 -14.235  1.00  0.00    -0.044 A 
ATOM     18  C   UNL     1     -25.372 -22.118 -14.851  1.00  0.00     0.054 A 
ATOM     19  C   UNL     1     -23.170 -22.015 -13.788  1.00  0.00     0.008 A 
ATOM     20  C   UNL     1     -25.199 -23.495 -14.951  1.00  0.00     0.166 A 
ATOM     21  C   UNL     1     -23.037 -23.410 -13.910  1.00  0.00     0.051 A 
ATOM     22  C   UNL     1     -24.081 -24.114 -14.497  1.00  0.00     0.165 A 
ATOM     23  O   UNL     1     -26.058 -24.432 -15.491  1.00  0.00    -0.454 OA
ATOM     24  O   UNL     1     -24.181 -25.473 -14.727  1.00  0.00    -0.454 OA
ATOM     25  C   UNL     1     -25.442 -25.722 -15.365  1.00  0.00     0.468 C 
ENDBRANCH  16  17
ENDBRANCH   3  16
BRANCH   4  26
ATOM     26  O   UNL     1     -23.642 -17.420 -15.239  1.00  0.00    -0.368 OA
ATOM     27  H   UNL     1     -23.414 -18.195 -15.816  1.00  0.00     0.213 HD
ENDBRANCH   4  26
TORSDOF 5
ENDMDL
MODEL 8
REMARK VINA RESULT:    -6.353      1.543      5.471
REMARK INTER + INTRA:          -9.563
REMARK INTER:                  -8.683
REMARK INTRA:                  -0.880
REMARK UNBOUND:                -1.539
REMARK SMILES O[C@H]1OC[C@@H](Cc2ccc3c(c2)OCO3)[C@H]1Cc1ccc2c(c1)OCO2
REMARK SMILES IDX 4 1 5 2 16 3 2 4 3 5 6 6 7 7 12 8 8 9 11 10 9 11 10 12 13 13
REMARK SMILES IDX 15 14 14 15 17 16 18 17 23 18 19 19 22 20 20 21 21 22 24 23
REMARK SMILES IDX 26 24 25 25 1 26
REMARK H PARENT 1 27
REMARK Flexibility Score: inf
ROOT
ATOM      1  C   UNL     1     -22.003 -19.082 -14.003  1.00  0.00     0.168 C 
ATOM      2  C   UNL     1     -23.257 -19.942 -13.886  1.00  0.00     0.028 C 
ATOM      3  C   UNL     1     -24.332 -18.921 -13.530  1.00  0.00     0.055 C 
ATOM      4  C   UNL     1     -23.791 -17.708 -14.306  1.00  0.00     0.250 C 
ATOM      5  O   UNL     1     -22.378 -17.763 -14.328  1.00  0.00    -0.352 OA
ENDROOT
BRANCH   2   6
ATOM      6  C   UNL     1     -23.093 -21.150 -12.943  1.00  0.00     0.042 C 
BRANCH   6   7
ATOM      7  C   UNL     1     -23.704 -22.393 -13.538  1.00  0.00    -0.044 A 
ATOM      8  C   UNL     1     -24.941 -22.316 -14.217  1.00  0.00     0.054 A 
ATOM      9  C   UNL     1     -23.020 -23.634 -13.462  1.00  0.00     0.008 A 
ATOM     10  C   UNL     1     -25.451 -23.483 -14.777  1.00  0.00     0.166 A 
ATOM     11  C   UNL     1     -23.573 -24.790 -14.043  1.00  0.00     0.051 A 
ATOM     12  C   UNL     1     -24.796 -24.669 -14.693  1.00  0.00     0.165 A 
ATOM     13  O   UNL     1     -26.629 -23.657 -15.478  1.00  0.00    -0.454 OA
ATOM     14  O   UNL     1     -25.530 -25.646 -15.336  1.00  0.00    -0.454 OA
ATOM     15  C   UNL     1     -26.720 -25.037 -15.857  1.00  0.00     0.468 C 
ENDBRANCH   6   7
ENDBRANCH   2   6
BRANCH   3  16
ATOM     16  C   UNL     1     -24.501 -18.627 -12.007  1.00  0.00     0.044 C 
BRANCH  16  17
ATOM     17  C   UNL     1     -25.758 -19.216 -11.409  1.00  0.00    -0.044 A 
ATOM     18  C   UNL     1     -26.160 -20.528 -11.751  1.00  0.00     0.054 A 
ATOM     19  C   UNL     1     -26.511 -18.486 -10.450  1.00  0.00     0.008 A 
ATOM     20  C   UNL     1     -27.314 -21.036 -11.163  1.00  0.00     0.166 A 
ATOM     21  C   UNL     1     -27.671 -19.039  -9.879  1.00  0.00     0.051 A 
ATOM     22  C   UNL     1     -28.040 -20.321 -10.268  1.00  0.00     0.165 A 
ATOM     23  O   UNL     1     -27.904 -22.271 -11.353  1.00  0.00    -0.454 OA
ATOM     24  O   UNL     1     -29.124 -21.069  -9.851  1.00  0.00    -0.454 OA
ATOM     25  C   UNL     1     -29.075 -22.333 -10.527  1.00  0.00     0.468 C 
ENDBRANCH  16  17
ENDBRANCH   3  16
BRANCH   4  26
ATOM     26  O   UNL     1     -24.239 -16.476 -13.798  1.00  0.00    -0.368 OA
ATOM     27  H   UNL     1     -23.926 -16.408 -12.858  1.00  0.00     0.213 HD
ENDBRANCH   4  26
TORSDOF 5
ENDMDL
MODEL 9
REMARK VINA RESULT:    -5.380      1.673      4.761
REMARK INTER + INTRA:          -8.334
REMARK INTER:                  -9.675
REMARK INTRA:                   1.341
REMARK UNBOUND:                -1.539
REMARK SMILES O[C@H]1OC[C@@H](Cc2ccc3c(c2)OCO3)[C@H]1Cc1ccc2c(c1)OCO2
REMARK SMILES IDX 4 1 5 2 16 3 2 4 3 5 6 6 7 7 12 8 8 9 11 10 9 11 10 12 13 13
REMARK SMILES IDX 15 14 14 15 17 16 18 17 23 18 19 19 22 20 20 21 21 22 24 23
REMARK SMILES IDX 26 24 25 25 1 26
REMARK H PARENT 1 27
REMARK Flexibility Score: inf
ROOT
ATOM      1  C   UNL     1     -23.209 -20.196 -11.245  1.00  0.00     0.168 C 
ATOM      2  C   UNL     1     -23.712 -18.969 -11.999  1.00  0.00     0.028 C 
ATOM      3  C   UNL     1     -25.163 -18.866 -11.541  1.00  0.00     0.055 C 
ATOM      4  C   UNL     1     -25.011 -19.398 -10.107  1.00  0.00     0.250 C 
ATOM      5  O   UNL     1     -23.980 -20.366 -10.077  1.00  0.00    -0.352 OA
ENDROOT
BRANCH   2   6
ATOM      6  C   UNL     1     -23.454 -19.028 -13.517  1.00  0.00     0.042 C 
BRANCH   6   7
ATOM      7  C   UNL     1     -23.489 -17.652 -14.130  1.00  0.00    -0.044 A 
ATOM      8  C   UNL     1     -24.674 -17.179 -14.739  1.00  0.00     0.054 A 
ATOM      9  C   UNL     1     -22.351 -16.807 -14.058  1.00  0.00     0.008 A 
ATOM     10  C   UNL     1     -24.669 -15.890 -15.263  1.00  0.00     0.166 A 
ATOM     11  C   UNL     1     -22.390 -15.509 -14.602  1.00  0.00     0.051 A 
ATOM     12  C   UNL     1     -23.575 -15.091 -15.198  1.00  0.00     0.165 A 
ATOM     13  O   UNL     1     -25.694 -15.217 -15.901  1.00  0.00    -0.454 OA
ATOM     14  O   UNL     1     -23.857 -13.876 -15.792  1.00  0.00    -0.454 OA
ATOM     15  C   UNL     1     -25.213 -13.915 -16.259  1.00  0.00     0.468 C 
ENDBRANCH   6   7
ENDBRANCH   2   6
BRANCH   3  16
ATOM     16  C   UNL     1     -26.190 -19.689 -12.377  1.00  0.00     0.044 C 
BRANCH  16  17
ATOM     17  C   UNL     1     -25.568 -20.820 -13.165  1.00  0.00    -0.044 A 
ATOM     18  C   UNL     1     -25.229 -22.032 -12.519  1.00  0.00     0.054 A 
ATOM     19  C   UNL     1     -25.380 -20.703 -14.568  1.00  0.00     0.008 A 
ATOM     20  C   UNL     1     -24.674 -23.052 -13.287  1.00  0.00     0.166 A 
ATOM     21  C   UNL     1     -24.817 -21.760 -15.306  1.00  0.00     0.051 A 
ATOM     22  C   UNL     1     -24.474 -22.920 -14.622  1.00  0.00     0.165 A 
ATOM     23  O   UNL     1     -24.253 -24.303 -12.878  1.00  0.00    -0.454 OA
ATOM     24  O   UNL     1     -23.917 -24.082 -15.120  1.00  0.00    -0.454 OA
ATOM     25  C   UNL     1     -23.756 -25.000 -14.029  1.00  0.00     0.468 C 
ENDBRANCH  16  17
ENDBRANCH   3  16
BRANCH   4  26
ATOM     26  O   UNL     1     -26.204 -19.918  -9.576  1.00  0.00    -0.368 OA
ATOM     27  H   UNL     1     -26.756 -20.237 -10.336  1.00  0.00     0.213 HD
ENDBRANCH   4  26
TORSDOF 5
ENDMDL
