MODEL 1
REMARK VINA RESULT:    -5.366      0.000      0.000
REMARK INTER + INTRA:         -14.411
REMARK INTER:                 -11.640
REMARK INTRA:                  -2.771
REMARK UNBOUND:                -2.771
REMARK SMILES CCCCCCCCCCCCCCCCCCCCCC(=O)[O-]
REMARK SMILES IDX 12 1 11 2 10 3 9 4 8 5 7 6 6 7 5 8 4 9 3 10 2 11 1 12 13 13
REMARK SMILES IDX 14 14 15 15 16 16 17 17 18 18 19 19 20 20 21 21 22 22 23 23
REMARK SMILES IDX 24 24
REMARK H PARENT
REMARK Flexibility Score: inf
ROOT
ATOM      1  C   UNL     1      14.215 -15.157  26.582  1.00  0.00     0.000 C 
ENDROOT
BRANCH   1   2
ATOM      2  C   UNL     1      15.050 -14.314  27.564  1.00  0.00     0.000 C 
BRANCH   2   3
ATOM      3  C   UNL     1      14.230 -13.369  28.462  1.00  0.00     0.000 C 
BRANCH   3   4
ATOM      4  C   UNL     1      12.704 -13.564  28.336  1.00  0.00    -0.000 C 
BRANCH   4   5
ATOM      5  C   UNL     1      12.065 -14.049  29.648  1.00  0.00    -0.000 C 
BRANCH   5   6
ATOM      6  C   UNL     1      10.693 -13.407  29.911  1.00  0.00    -0.000 C 
BRANCH   6   7
ATOM      7  C   UNL     1      10.098 -12.747  28.658  1.00  0.00    -0.000 C 
BRANCH   7   8
ATOM      8  C   UNL     1       8.775 -13.412  28.261  1.00  0.00    -0.000 C 
BRANCH   8   9
ATOM      9  C   UNL     1       8.427 -13.114  26.794  1.00  0.00    -0.000 C 
BRANCH   9  10
ATOM     10  C   UNL     1       9.531 -12.331  26.069  1.00  0.00    -0.000 C 
BRANCH  10  11
ATOM     11  C   UNL     1       8.973 -11.258  25.122  1.00  0.00    -0.003 C 
ATOM     12  C   UNL     1       9.361 -11.548  23.675  1.00  0.00     0.004 C 
ENDBRANCH  10  11
ENDBRANCH   9  10
ENDBRANCH   8   9
ENDBRANCH   7   8
ENDBRANCH   6   7
ENDBRANCH   5   6
ENDBRANCH   4   5
ENDBRANCH   3   4
ENDBRANCH   2   3
ENDBRANCH   1   2
BRANCH   1  13
ATOM     13  C   UNL     1      14.210 -14.645  25.127  1.00  0.00     0.000 C 
BRANCH  13  14
ATOM     14  C   UNL     1      12.985 -13.797  24.730  1.00  0.00     0.000 C 
BRANCH  14  15
ATOM     15  C   UNL     1      13.223 -12.277  24.692  1.00  0.00     0.000 C 
BRANCH  15  16
ATOM     16  C   UNL     1      14.688 -11.896  24.962  1.00  0.00     0.000 C 
BRANCH  16  17
ATOM     17  C   UNL     1      15.496 -11.671  23.671  1.00  0.00     0.000 C 
BRANCH  17  18
ATOM     18  C   UNL     1      17.004 -11.981  23.774  1.00  0.00     0.000 C 
BRANCH  18  19
ATOM     19  C   UNL     1      17.472 -12.535  25.132  1.00  0.00     0.000 C 
BRANCH  19  20
ATOM     20  C   UNL     1      18.300 -13.833  25.062  1.00  0.00     0.006 C 
BRANCH  20  21
ATOM     21  C   UNL     1      17.619 -14.967  24.275  1.00  0.00     0.053 C 
BRANCH  21  22
ATOM     22  C   UNL     1      18.598 -15.986  23.775  1.00  0.00     0.041 C 
ATOM     23  O   UNL     1      18.888 -16.988  24.482  1.00  0.00    -0.550 OA
ATOM     24  O   UNL     1      19.219 -15.811  22.545  1.00  0.00    -0.550 OA
ENDBRANCH  21  22
ENDBRANCH  20  21
ENDBRANCH  19  20
ENDBRANCH  18  19
ENDBRANCH  17  18
ENDBRANCH  16  17
ENDBRANCH  15  16
ENDBRANCH  14  15
ENDBRANCH  13  14
ENDBRANCH   1  13
TORSDOF 20
ENDMDL
MODEL 2
REMARK VINA RESULT:    -5.320      2.410      4.739
REMARK INTER + INTRA:         -14.312
REMARK INTER:                 -11.608
REMARK INTRA:                  -2.704
REMARK UNBOUND:                -2.771
REMARK SMILES CCCCCCCCCCCCCCCCCCCCCC(=O)[O-]
REMARK SMILES IDX 12 1 11 2 10 3 9 4 8 5 7 6 6 7 5 8 4 9 3 10 2 11 1 12 13 13
REMARK SMILES IDX 14 14 15 15 16 16 17 17 18 18 19 19 20 20 21 21 22 22 23 23
REMARK SMILES IDX 24 24
REMARK H PARENT
REMARK Flexibility Score: inf
ROOT
ATOM      1  C   UNL     1      14.157 -11.881  24.310  1.00  0.00     0.000 C 
ENDROOT
BRANCH   1   2
ATOM      2  C   UNL     1      13.241 -12.271  23.135  1.00  0.00     0.000 C 
BRANCH   2   3
ATOM      3  C   UNL     1      12.299 -13.457  23.418  1.00  0.00     0.000 C 
BRANCH   3   4
ATOM      4  C   UNL     1      11.529 -13.332  24.750  1.00  0.00    -0.000 C 
BRANCH   4   5
ATOM      5  C   UNL     1      11.127 -11.880  25.060  1.00  0.00    -0.000 C 
BRANCH   5   6
ATOM      6  C   UNL     1       9.765 -11.501  24.458  1.00  0.00    -0.000 C 
BRANCH   6   7
ATOM      7  C   UNL     1       8.592 -12.209  25.155  1.00  0.00    -0.000 C 
BRANCH   7   8
ATOM      8  C   UNL     1       8.708 -12.094  26.679  1.00  0.00    -0.000 C 
BRANCH   8   9
ATOM      9  C   UNL     1       8.144 -13.345  27.370  1.00  0.00    -0.000 C 
BRANCH   9  10
ATOM     10  C   UNL     1       8.635 -13.497  28.818  1.00  0.00    -0.000 C 
BRANCH  10  11
ATOM     11  C   UNL     1       9.942 -12.735  29.082  1.00  0.00    -0.003 C 
ATOM     12  C   UNL     1      11.052 -13.686  29.523  1.00  0.00     0.004 C 
ENDBRANCH  10  11
ENDBRANCH   9  10
ENDBRANCH   8   9
ENDBRANCH   7   8
ENDBRANCH   6   7
ENDBRANCH   5   6
ENDBRANCH   4   5
ENDBRANCH   3   4
ENDBRANCH   2   3
ENDBRANCH   1   2
BRANCH   1  13
ATOM     13  C   UNL     1      15.659 -12.142  24.079  1.00  0.00     0.000 C 
BRANCH  13  14
ATOM     14  C   UNL     1      15.987 -13.205  23.010  1.00  0.00     0.000 C 
BRANCH  14  15
ATOM     15  C   UNL     1      16.114 -14.647  23.536  1.00  0.00     0.000 C 
BRANCH  15  16
ATOM     16  C   UNL     1      16.056 -14.729  25.070  1.00  0.00     0.000 C 
BRANCH  16  17
ATOM     17  C   UNL     1      14.811 -15.476  25.584  1.00  0.00     0.000 C 
BRANCH  17  18
ATOM     18  C   UNL     1      14.423 -15.181  27.048  1.00  0.00     0.000 C 
BRANCH  18  19
ATOM     19  C   UNL     1      14.149 -13.701  27.372  1.00  0.00     0.000 C 
BRANCH  19  20
ATOM     20  C   UNL     1      14.859 -13.162  28.630  1.00  0.00     0.006 C 
BRANCH  20  21
ATOM     21  C   UNL     1      16.394 -13.139  28.521  1.00  0.00     0.053 C 
BRANCH  21  22
ATOM     22  C   UNL     1      16.917 -11.810  28.067  1.00  0.00     0.041 C 
ATOM     23  O   UNL     1      16.162 -11.005  27.459  1.00  0.00    -0.550 OA
ATOM     24  O   UNL     1      18.247 -11.474  28.281  1.00  0.00    -0.550 OA
ENDBRANCH  21  22
ENDBRANCH  20  21
ENDBRANCH  19  20
ENDBRANCH  18  19
ENDBRANCH  17  18
ENDBRANCH  16  17
ENDBRANCH  15  16
ENDBRANCH  14  15
ENDBRANCH  13  14
ENDBRANCH   1  13
TORSDOF 20
ENDMDL
MODEL 3
REMARK VINA RESULT:    -5.243      3.846      7.380
REMARK INTER + INTRA:         -14.143
REMARK INTER:                 -11.464
REMARK INTRA:                  -2.679
REMARK UNBOUND:                -2.771
REMARK SMILES CCCCCCCCCCCCCCCCCCCCCC(=O)[O-]
REMARK SMILES IDX 12 1 11 2 10 3 9 4 8 5 7 6 6 7 5 8 4 9 3 10 2 11 1 12 13 13
REMARK SMILES IDX 14 14 15 15 16 16 17 17 18 18 19 19 20 20 21 21 22 22 23 23
REMARK SMILES IDX 24 24
REMARK H PARENT
REMARK Flexibility Score: inf
ROOT
ATOM      1  C   UNL     1      15.768 -13.644  23.396  1.00  0.00     0.000 C 
ENDROOT
BRANCH   1   2
ATOM      2  C   UNL     1      15.551 -14.846  24.334  1.00  0.00     0.000 C 
BRANCH   2   3
ATOM      3  C   UNL     1      16.558 -14.950  25.495  1.00  0.00     0.000 C 
BRANCH   3   4
ATOM      4  C   UNL     1      15.895 -15.007  26.887  1.00  0.00    -0.000 C 
BRANCH   4   5
ATOM      5  C   UNL     1      14.401 -14.643  26.840  1.00  0.00    -0.000 C 
BRANCH   5   6
ATOM      6  C   UNL     1      14.002 -13.639  27.933  1.00  0.00    -0.000 C 
BRANCH   6   7
ATOM      7  C   UNL     1      15.208 -12.879  28.508  1.00  0.00    -0.000 C 
BRANCH   7   8
ATOM      8  C   UNL     1      15.654 -11.759  27.562  1.00  0.00    -0.000 C 
BRANCH   8   9
ATOM      9  C   UNL     1      17.047 -11.236  27.945  1.00  0.00    -0.000 C 
BRANCH   9  10
ATOM     10  C   UNL     1      18.104 -11.519  26.867  1.00  0.00    -0.000 C 
BRANCH  10  11
ATOM     11  C   UNL     1      18.238 -10.373  25.854  1.00  0.00    -0.003 C 
ATOM     12  C   UNL     1      18.009  -9.020  26.522  1.00  0.00     0.004 C 
ENDBRANCH  10  11
ENDBRANCH   9  10
ENDBRANCH   8   9
ENDBRANCH   7   8
ENDBRANCH   6   7
ENDBRANCH   5   6
ENDBRANCH   4   5
ENDBRANCH   3   4
ENDBRANCH   2   3
ENDBRANCH   1   2
BRANCH   1  13
ATOM     13  C   UNL     1      15.467 -12.268  24.024  1.00  0.00     0.000 C 
BRANCH  13  14
ATOM     14  C   UNL     1      13.972 -11.910  24.145  1.00  0.00     0.000 C 
BRANCH  14  15
ATOM     15  C   UNL     1      13.039 -12.650  23.168  1.00  0.00     0.000 C 
BRANCH  15  16
ATOM     16  C   UNL     1      11.748 -13.149  23.838  1.00  0.00     0.000 C 
BRANCH  16  17
ATOM     17  C   UNL     1      11.298 -12.256  25.009  1.00  0.00     0.000 C 
BRANCH  17  18
ATOM     18  C   UNL     1       9.956 -11.522  24.800  1.00  0.00     0.000 C 
BRANCH  18  19
ATOM     19  C   UNL     1       8.920 -11.711  25.924  1.00  0.00     0.000 C 
BRANCH  19  20
ATOM     20  C   UNL     1       8.796 -13.148  26.467  1.00  0.00     0.006 C 
BRANCH  20  21
ATOM     21  C   UNL     1       8.048 -13.246  27.809  1.00  0.00     0.053 C 
BRANCH  21  22
ATOM     22  C   UNL     1       8.807 -12.613  28.936  1.00  0.00     0.041 C 
ATOM     23  O   UNL     1      10.030 -12.867  29.099  1.00  0.00    -0.550 OA
ATOM     24  O   UNL     1       8.156 -11.772  29.830  1.00  0.00    -0.550 OA
ENDBRANCH  21  22
ENDBRANCH  20  21
ENDBRANCH  19  20
ENDBRANCH  18  19
ENDBRANCH  17  18
ENDBRANCH  16  17
ENDBRANCH  15  16
ENDBRANCH  14  15
ENDBRANCH  13  14
ENDBRANCH   1  13
TORSDOF 20
ENDMDL
MODEL 4
REMARK VINA RESULT:    -5.230      3.509      8.476
REMARK INTER + INTRA:         -14.116
REMARK INTER:                 -12.147
REMARK INTRA:                  -1.969
REMARK UNBOUND:                -2.771
REMARK SMILES CCCCCCCCCCCCCCCCCCCCCC(=O)[O-]
REMARK SMILES IDX 12 1 11 2 10 3 9 4 8 5 7 6 6 7 5 8 4 9 3 10 2 11 1 12 13 13
REMARK SMILES IDX 14 14 15 15 16 16 17 17 18 18 19 19 20 20 21 21 22 22 23 23
REMARK SMILES IDX 24 24
REMARK H PARENT
REMARK Flexibility Score: inf
ROOT
ATOM      1  C   UNL     1      13.576 -12.824  26.837  1.00  0.00     0.000 C 
ENDROOT
BRANCH   1   2
ATOM      2  C   UNL     1      14.499 -13.759  27.641  1.00  0.00     0.000 C 
BRANCH   2   3
ATOM      3  C   UNL     1      16.005 -13.536  27.408  1.00  0.00     0.000 C 
BRANCH   3   4
ATOM      4  C   UNL     1      16.752 -14.799  26.932  1.00  0.00    -0.000 C 
BRANCH   4   5
ATOM      5  C   UNL     1      16.085 -15.447  25.706  1.00  0.00    -0.000 C 
BRANCH   5   6
ATOM      6  C   UNL     1      16.894 -15.241  24.415  1.00  0.00    -0.000 C 
BRANCH   6   7
ATOM      7  C   UNL     1      18.215 -14.495  24.656  1.00  0.00    -0.000 C 
BRANCH   7   8
ATOM      8  C   UNL     1      19.417 -15.365  24.270  1.00  0.00    -0.000 C 
BRANCH   8   9
ATOM      9  C   UNL     1      19.015 -16.844  24.163  1.00  0.00    -0.000 C 
BRANCH   9  10
ATOM     10  C   UNL     1      19.434 -17.478  22.828  1.00  0.00    -0.000 C 
BRANCH  10  11
ATOM     11  C   UNL     1      18.738 -16.833  21.621  1.00  0.00    -0.003 C 
ATOM     12  C   UNL     1      19.747 -16.481  20.531  1.00  0.00     0.004 C 
ENDBRANCH  10  11
ENDBRANCH   9  10
ENDBRANCH   8   9
ENDBRANCH   7   8
ENDBRANCH   6   7
ENDBRANCH   5   6
ENDBRANCH   4   5
ENDBRANCH   3   4
ENDBRANCH   2   3
ENDBRANCH   1   2
BRANCH   1  13
ATOM     13  C   UNL     1      14.046 -12.528  25.398  1.00  0.00     0.000 C 
BRANCH  13  14
ATOM     14  C   UNL     1      13.288 -13.284  24.288  1.00  0.00     0.000 C 
BRANCH  14  15
ATOM     15  C   UNL     1      12.016 -12.588  23.770  1.00  0.00     0.000 C 
BRANCH  15  16
ATOM     16  C   UNL     1      10.780 -12.881  24.637  1.00  0.00     0.000 C 
BRANCH  16  17
ATOM     17  C   UNL     1       9.803 -11.694  24.708  1.00  0.00     0.000 C 
BRANCH  17  18
ATOM     18  C   UNL     1       8.674 -11.830  25.752  1.00  0.00     0.000 C 
BRANCH  18  19
ATOM     19  C   UNL     1       8.441 -13.255  26.287  1.00  0.00     0.000 C 
BRANCH  19  20
ATOM     20  C   UNL     1       8.026 -13.340  27.769  1.00  0.00     0.006 C 
BRANCH  20  21
ATOM     21  C   UNL     1       8.616 -12.222  28.648  1.00  0.00     0.053 C 
BRANCH  21  22
ATOM     22  C   UNL     1       9.710 -12.716  29.546  1.00  0.00     0.041 C 
ATOM     23  O   UNL     1       9.628 -12.558  30.792  1.00  0.00    -0.550 OA
ATOM     24  O   UNL     1      10.839 -13.316  29.003  1.00  0.00    -0.550 OA
ENDBRANCH  21  22
ENDBRANCH  20  21
ENDBRANCH  19  20
ENDBRANCH  18  19
ENDBRANCH  17  18
ENDBRANCH  16  17
ENDBRANCH  15  16
ENDBRANCH  14  15
ENDBRANCH  13  14
ENDBRANCH   1  13
TORSDOF 20
ENDMDL
MODEL 5
REMARK VINA RESULT:    -5.157      3.300      6.013
REMARK INTER + INTRA:         -13.958
REMARK INTER:                 -10.246
REMARK INTRA:                  -3.713
REMARK UNBOUND:                -2.771
REMARK SMILES CCCCCCCCCCCCCCCCCCCCCC(=O)[O-]
REMARK SMILES IDX 12 1 11 2 10 3 9 4 8 5 7 6 6 7 5 8 4 9 3 10 2 11 1 12 13 13
REMARK SMILES IDX 14 14 15 15 16 16 17 17 18 18 19 19 20 20 21 21 22 22 23 23
REMARK SMILES IDX 24 24
REMARK H PARENT
REMARK Flexibility Score: inf
ROOT
ATOM      1  C   UNL     1      19.294 -16.273  23.929  1.00  0.00     0.000 C 
ENDROOT
BRANCH   1   2
ATOM      2  C   UNL     1      18.006 -15.919  24.696  1.00  0.00     0.000 C 
BRANCH   2   3
ATOM      3  C   UNL     1      17.824 -14.418  24.993  1.00  0.00     0.000 C 
BRANCH   3   4
ATOM      4  C   UNL     1      16.397 -13.901  24.717  1.00  0.00    -0.000 C 
BRANCH   4   5
ATOM      5  C   UNL     1      15.385 -15.045  24.528  1.00  0.00    -0.000 C 
BRANCH   5   6
ATOM      6  C   UNL     1      14.443 -15.206  25.732  1.00  0.00    -0.000 C 
BRANCH   6   7
ATOM      7  C   UNL     1      14.052 -13.860  26.362  1.00  0.00    -0.000 C 
BRANCH   7   8
ATOM      8  C   UNL     1      14.021 -13.957  27.892  1.00  0.00    -0.000 C 
BRANCH   8   9
ATOM      9  C   UNL     1      14.962 -12.923  28.529  1.00  0.00    -0.000 C 
BRANCH   9  10
ATOM     10  C   UNL     1      16.443 -13.307  28.398  1.00  0.00    -0.000 C 
BRANCH  10  11
ATOM     11  C   UNL     1      17.361 -12.085  28.254  1.00  0.00    -0.003 C 
ATOM     12  C   UNL     1      16.843 -11.132  27.180  1.00  0.00     0.004 C 
ENDBRANCH  10  11
ENDBRANCH   9  10
ENDBRANCH   8   9
ENDBRANCH   7   8
ENDBRANCH   6   7
ENDBRANCH   5   6
ENDBRANCH   4   5
ENDBRANCH   3   4
ENDBRANCH   2   3
ENDBRANCH   1   2
BRANCH   1  13
ATOM     13  C   UNL     1      19.182 -17.503  23.005  1.00  0.00     0.000 C 
BRANCH  13  14
ATOM     14  C   UNL     1      19.447 -17.231  21.510  1.00  0.00     0.000 C 
BRANCH  14  15
ATOM     15  C   UNL     1      18.438 -17.870  20.538  1.00  0.00     0.000 C 
BRANCH  15  16
ATOM     16  C   UNL     1      17.452 -16.849  19.946  1.00  0.00     0.000 C 
BRANCH  16  17
ATOM     17  C   UNL     1      16.577 -16.172  21.016  1.00  0.00     0.000 C 
BRANCH  17  18
ATOM     18  C   UNL     1      16.651 -14.631  21.049  1.00  0.00     0.000 C 
BRANCH  18  19
ATOM     19  C   UNL     1      17.967 -14.023  20.531  1.00  0.00     0.000 C 
BRANCH  19  20
ATOM     20  C   UNL     1      18.787 -13.243  21.578  1.00  0.00     0.006 C 
BRANCH  20  21
ATOM     21  C   UNL     1      20.275 -13.635  21.624  1.00  0.00     0.053 C 
BRANCH  21  22
ATOM     22  C   UNL     1      21.038 -12.866  22.661  1.00  0.00     0.041 C 
ATOM     23  O   UNL     1      20.898 -13.137  23.883  1.00  0.00    -0.550 OA
ATOM     24  O   UNL     1      21.874 -11.824  22.281  1.00  0.00    -0.550 OA
ENDBRANCH  21  22
ENDBRANCH  20  21
ENDBRANCH  19  20
ENDBRANCH  18  19
ENDBRANCH  17  18
ENDBRANCH  16  17
ENDBRANCH  15  16
ENDBRANCH  14  15
ENDBRANCH  13  14
ENDBRANCH   1  13
TORSDOF 20
ENDMDL
MODEL 6
REMARK VINA RESULT:    -5.123      1.374      4.455
REMARK INTER + INTRA:         -13.884
REMARK INTER:                 -11.764
REMARK INTRA:                  -2.120
REMARK UNBOUND:                -2.771
REMARK SMILES CCCCCCCCCCCCCCCCCCCCCC(=O)[O-]
REMARK SMILES IDX 12 1 11 2 10 3 9 4 8 5 7 6 6 7 5 8 4 9 3 10 2 11 1 12 13 13
REMARK SMILES IDX 14 14 15 15 16 16 17 17 18 18 19 19 20 20 21 21 22 22 23 23
REMARK SMILES IDX 24 24
REMARK H PARENT
REMARK Flexibility Score: inf
ROOT
ATOM      1  C   UNL     1       9.018 -11.807  25.750  1.00  0.00     0.000 C 
ENDROOT
BRANCH   1   2
ATOM      2  C   UNL     1       8.310 -13.018  26.384  1.00  0.00     0.000 C 
BRANCH   2   3
ATOM      3  C   UNL     1       8.531 -13.174  27.901  1.00  0.00     0.000 C 
BRANCH   3   4
ATOM      4  C   UNL     1       9.919 -12.695  28.377  1.00  0.00    -0.000 C 
BRANCH   4   5
ATOM      5  C   UNL     1      10.204 -13.085  29.837  1.00  0.00    -0.000 C 
BRANCH   5   6
ATOM      6  C   UNL     1      11.595 -13.711  30.021  1.00  0.00    -0.000 C 
BRANCH   6   7
ATOM      7  C   UNL     1      12.374 -13.825  28.701  1.00  0.00    -0.000 C 
BRANCH   7   8
ATOM      8  C   UNL     1      13.841 -13.423  28.891  1.00  0.00    -0.000 C 
BRANCH   8   9
ATOM      9  C   UNL     1      14.699 -13.890  27.705  1.00  0.00    -0.000 C 
BRANCH   9  10
ATOM     10  C   UNL     1      16.155 -13.411  27.800  1.00  0.00    -0.000 C 
BRANCH  10  11
ATOM     11  C   UNL     1      16.437 -12.624  29.088  1.00  0.00    -0.003 C 
ATOM     12  C   UNL     1      16.694 -11.150  28.785  1.00  0.00     0.004 C 
ENDBRANCH  10  11
ENDBRANCH   9  10
ENDBRANCH   8   9
ENDBRANCH   7   8
ENDBRANCH   6   7
ENDBRANCH   5   6
ENDBRANCH   4   5
ENDBRANCH   3   4
ENDBRANCH   2   3
ENDBRANCH   1   2
BRANCH   1  13
ATOM     13  C   UNL     1       9.627 -12.066  24.357  1.00  0.00     0.000 C 
BRANCH  13  14
ATOM     14  C   UNL     1      10.871 -12.977  24.339  1.00  0.00     0.000 C 
BRANCH  14  15
ATOM     15  C   UNL     1      12.014 -12.545  25.277  1.00  0.00     0.000 C 
BRANCH  15  16
ATOM     16  C   UNL     1      13.406 -12.852  24.701  1.00  0.00     0.000 C 
BRANCH  16  17
ATOM     17  C   UNL     1      13.808 -11.896  23.563  1.00  0.00     0.000 C 
BRANCH  17  18
ATOM     18  C   UNL     1      14.783 -12.485  22.521  1.00  0.00     0.000 C 
BRANCH  18  19
ATOM     19  C   UNL     1      16.178 -12.853  23.059  1.00  0.00     0.000 C 
BRANCH  19  20
ATOM     20  C   UNL     1      16.610 -14.313  22.816  1.00  0.00     0.006 C 
BRANCH  20  21
ATOM     21  C   UNL     1      16.721 -15.154  24.100  1.00  0.00     0.053 C 
BRANCH  21  22
ATOM     22  C   UNL     1      18.124 -15.609  24.368  1.00  0.00     0.041 C 
ATOM     23  O   UNL     1      18.341 -16.766  24.817  1.00  0.00    -0.550 OA
ATOM     24  O   UNL     1      19.190 -14.744  24.159  1.00  0.00    -0.550 OA
ENDBRANCH  21  22
ENDBRANCH  20  21
ENDBRANCH  19  20
ENDBRANCH  18  19
ENDBRANCH  17  18
ENDBRANCH  16  17
ENDBRANCH  15  16
ENDBRANCH  14  15
ENDBRANCH  13  14
ENDBRANCH   1  13
TORSDOF 20
ENDMDL
MODEL 7
REMARK VINA RESULT:    -5.121      3.585      5.240
REMARK INTER + INTRA:         -13.879
REMARK INTER:                 -12.052
REMARK INTRA:                  -1.827
REMARK UNBOUND:                -2.771
REMARK SMILES CCCCCCCCCCCCCCCCCCCCCC(=O)[O-]
REMARK SMILES IDX 12 1 11 2 10 3 9 4 8 5 7 6 6 7 5 8 4 9 3 10 2 11 1 12 13 13
REMARK SMILES IDX 14 14 15 15 16 16 17 17 18 18 19 19 20 20 21 21 22 22 23 23
REMARK SMILES IDX 24 24
REMARK H PARENT
REMARK Flexibility Score: inf
ROOT
ATOM      1  C   UNL     1      15.084 -13.479  25.235  1.00  0.00     0.000 C 
ENDROOT
BRANCH   1   2
ATOM      2  C   UNL     1      14.576 -12.030  25.118  1.00  0.00     0.000 C 
BRANCH   2   3
ATOM      3  C   UNL     1      13.241 -11.873  24.366  1.00  0.00     0.000 C 
BRANCH   3   4
ATOM      4  C   UNL     1      12.021 -12.393  25.155  1.00  0.00    -0.000 C 
BRANCH   4   5
ATOM      5  C   UNL     1      10.792 -12.612  24.256  1.00  0.00    -0.000 C 
BRANCH   5   6
ATOM      6  C   UNL     1       9.726 -11.519  24.435  1.00  0.00    -0.000 C 
BRANCH   6   7
ATOM      7  C   UNL     1       9.004 -11.610  25.788  1.00  0.00    -0.000 C 
BRANCH   7   8
ATOM      8  C   UNL     1       8.355 -12.987  25.974  1.00  0.00    -0.000 C 
BRANCH   8   9
ATOM      9  C   UNL     1       8.243 -13.348  27.463  1.00  0.00    -0.000 C 
BRANCH   9  10
ATOM     10  C   UNL     1       8.953 -12.335  28.374  1.00  0.00    -0.000 C 
BRANCH  10  11
ATOM     11  C   UNL     1       9.688 -13.005  29.545  1.00  0.00    -0.003 C 
ATOM     12  C   UNL     1      11.108 -13.399  29.148  1.00  0.00     0.004 C 
ENDBRANCH  10  11
ENDBRANCH   9  10
ENDBRANCH   8   9
ENDBRANCH   7   8
ENDBRANCH   6   7
ENDBRANCH   5   6
ENDBRANCH   4   5
ENDBRANCH   3   4
ENDBRANCH   2   3
ENDBRANCH   1   2
BRANCH   1  13
ATOM     13  C   UNL     1      15.990 -13.755  26.453  1.00  0.00     0.000 C 
BRANCH  13  14
ATOM     14  C   UNL     1      15.250 -14.117  27.757  1.00  0.00     0.000 C 
BRANCH  14  15
ATOM     15  C   UNL     1      15.169 -12.989  28.801  1.00  0.00     0.000 C 
BRANCH  15  16
ATOM     16  C   UNL     1      16.443 -12.128  28.849  1.00  0.00     0.000 C 
BRANCH  16  17
ATOM     17  C   UNL     1      16.166 -10.671  29.260  1.00  0.00     0.000 C 
BRANCH  17  18
ATOM     18  C   UNL     1      16.927 -10.182  30.510  1.00  0.00     0.000 C 
BRANCH  18  19
ATOM     19  C   UNL     1      18.349 -10.748  30.679  1.00  0.00     0.000 C 
BRANCH  19  20
ATOM     20  C   UNL     1      19.460  -9.955  29.964  1.00  0.00     0.006 C 
BRANCH  20  21
ATOM     21  C   UNL     1      20.404 -10.828  29.117  1.00  0.00     0.053 C 
BRANCH  21  22
ATOM     22  C   UNL     1      21.048 -10.060  28.002  1.00  0.00     0.041 C 
ATOM     23  O   UNL     1      20.356  -9.306  27.268  1.00  0.00    -0.550 OA
ATOM     24  O   UNL     1      22.406 -10.206  27.748  1.00  0.00    -0.550 OA
ENDBRANCH  21  22
ENDBRANCH  20  21
ENDBRANCH  19  20
ENDBRANCH  18  19
ENDBRANCH  17  18
ENDBRANCH  16  17
ENDBRANCH  15  16
ENDBRANCH  14  15
ENDBRANCH  13  14
ENDBRANCH   1  13
TORSDOF 20
ENDMDL
MODEL 8
REMARK VINA RESULT:    -5.121      2.541      4.570
REMARK INTER + INTRA:         -13.879
REMARK INTER:                 -10.781
REMARK INTRA:                  -3.098
REMARK UNBOUND:                -2.771
REMARK SMILES CCCCCCCCCCCCCCCCCCCCCC(=O)[O-]
REMARK SMILES IDX 12 1 11 2 10 3 9 4 8 5 7 6 6 7 5 8 4 9 3 10 2 11 1 12 13 13
REMARK SMILES IDX 14 14 15 15 16 16 17 17 18 18 19 19 20 20 21 21 22 22 23 23
REMARK SMILES IDX 24 24
REMARK H PARENT
REMARK Flexibility Score: inf
ROOT
ATOM      1  C   UNL     1      13.990 -11.901  25.472  1.00  0.00     0.000 C 
ENDROOT
BRANCH   1   2
ATOM      2  C   UNL     1      14.027 -12.541  24.072  1.00  0.00     0.000 C 
BRANCH   2   3
ATOM      3  C   UNL     1      13.469 -13.976  24.003  1.00  0.00     0.000 C 
BRANCH   3   4
ATOM      4  C   UNL     1      11.972 -14.041  23.636  1.00  0.00    -0.000 C 
BRANCH   4   5
ATOM      5  C   UNL     1      11.432 -12.691  23.136  1.00  0.00    -0.000 C 
BRANCH   5   6
ATOM      6  C   UNL     1      10.068 -12.335  23.748  1.00  0.00    -0.000 C 
BRANCH   6   7
ATOM      7  C   UNL     1       9.986 -12.667  25.246  1.00  0.00    -0.000 C 
BRANCH   7   8
ATOM      8  C   UNL     1       8.555 -12.501  25.769  1.00  0.00    -0.000 C 
BRANCH   8   9
ATOM      9  C   UNL     1       8.389 -13.170  27.142  1.00  0.00    -0.000 C 
BRANCH   9  10
ATOM     10  C   UNL     1       8.905 -12.296  28.295  1.00  0.00    -0.000 C 
BRANCH  10  11
ATOM     11  C   UNL     1       9.393 -13.124  29.493  1.00  0.00    -0.003 C 
ATOM     12  C   UNL     1      10.896 -13.380  29.407  1.00  0.00     0.004 C 
ENDBRANCH  10  11
ENDBRANCH   9  10
ENDBRANCH   8   9
ENDBRANCH   7   8
ENDBRANCH   6   7
ENDBRANCH   5   6
ENDBRANCH   4   5
ENDBRANCH   3   4
ENDBRANCH   2   3
ENDBRANCH   1   2
BRANCH   1  13
ATOM     13  C   UNL     1      13.341 -12.772  26.568  1.00  0.00     0.000 C 
BRANCH  13  14
ATOM     14  C   UNL     1      14.313 -13.343  27.619  1.00  0.00     0.000 C 
BRANCH  14  15
ATOM     15  C   UNL     1      14.907 -14.723  27.283  1.00  0.00     0.000 C 
BRANCH  15  16
ATOM     16  C   UNL     1      16.420 -14.672  27.012  1.00  0.00     0.000 C 
BRANCH  16  17
ATOM     17  C   UNL     1      16.775 -14.968  25.543  1.00  0.00     0.000 C 
BRANCH  17  18
ATOM     18  C   UNL     1      18.023 -14.235  25.006  1.00  0.00     0.000 C 
BRANCH  18  19
ATOM     19  C   UNL     1      17.815 -12.750  24.656  1.00  0.00     0.000 C 
BRANCH  19  20
ATOM     20  C   UNL     1      18.336 -11.749  25.706  1.00  0.00     0.006 C 
BRANCH  20  21
ATOM     21  C   UNL     1      17.247 -10.829  26.286  1.00  0.00     0.053 C 
BRANCH  21  22
ATOM     22  C   UNL     1      17.108 -10.971  27.772  1.00  0.00     0.041 C 
ATOM     23  O   UNL     1      17.863 -11.753  28.408  1.00  0.00    -0.550 OA
ATOM     24  O   UNL     1      16.119 -10.269  28.450  1.00  0.00    -0.550 OA
ENDBRANCH  21  22
ENDBRANCH  20  21
ENDBRANCH  19  20
ENDBRANCH  18  19
ENDBRANCH  17  18
ENDBRANCH  16  17
ENDBRANCH  15  16
ENDBRANCH  14  15
ENDBRANCH  13  14
ENDBRANCH   1  13
TORSDOF 20
ENDMDL
MODEL 9
REMARK VINA RESULT:    -5.116      3.790      8.395
REMARK INTER + INTRA:         -13.869
REMARK INTER:                 -12.039
REMARK INTRA:                  -1.830
REMARK UNBOUND:                -2.771
REMARK SMILES CCCCCCCCCCCCCCCCCCCCCC(=O)[O-]
REMARK SMILES IDX 12 1 11 2 10 3 9 4 8 5 7 6 6 7 5 8 4 9 3 10 2 11 1 12 13 13
REMARK SMILES IDX 14 14 15 15 16 16 17 17 18 18 19 19 20 20 21 21 22 22 23 23
REMARK SMILES IDX 24 24
REMARK H PARENT
REMARK Flexibility Score: inf
ROOT
ATOM      1  C   UNL     1      14.317 -14.748  25.988  1.00  0.00     0.000 C 
ENDROOT
BRANCH   1   2
ATOM      2  C   UNL     1      14.279 -14.029  27.349  1.00  0.00     0.000 C 
BRANCH   2   3
ATOM      3  C   UNL     1      15.660 -13.751  27.972  1.00  0.00     0.000 C 
BRANCH   3   4
ATOM      4  C   UNL     1      15.659 -12.592  28.990  1.00  0.00    -0.000 C 
BRANCH   4   5
ATOM      5  C   UNL     1      16.360 -11.334  28.446  1.00  0.00    -0.000 C 
BRANCH   5   6
ATOM      6  C   UNL     1      16.685 -11.440  26.948  1.00  0.00    -0.000 C 
BRANCH   6   7
ATOM      7  C   UNL     1      18.196 -11.435  26.668  1.00  0.00    -0.000 C 
BRANCH   7   8
ATOM      8  C   UNL     1      18.572 -12.527  25.659  1.00  0.00    -0.000 C 
BRANCH   8   9
ATOM      9  C   UNL     1      19.687 -12.048  24.717  1.00  0.00    -0.000 C 
BRANCH   9  10
ATOM     10  C   UNL     1      20.675 -13.164  24.350  1.00  0.00    -0.000 C 
BRANCH  10  11
ATOM     11  C   UNL     1      22.135 -12.777  24.623  1.00  0.00    -0.003 C 
ATOM     12  C   UNL     1      22.445 -12.823  26.117  1.00  0.00     0.004 C 
ENDBRANCH  10  11
ENDBRANCH   9  10
ENDBRANCH   8   9
ENDBRANCH   7   8
ENDBRANCH   6   7
ENDBRANCH   5   6
ENDBRANCH   4   5
ENDBRANCH   3   4
ENDBRANCH   2   3
ENDBRANCH   1   2
BRANCH   1  13
ATOM     13  C   UNL     1      14.853 -13.897  24.818  1.00  0.00     0.000 C 
BRANCH  13  14
ATOM     14  C   UNL     1      13.937 -12.738  24.373  1.00  0.00     0.000 C 
BRANCH  14  15
ATOM     15  C   UNL     1      12.432 -13.061  24.353  1.00  0.00     0.000 C 
BRANCH  15  16
ATOM     16  C   UNL     1      11.596 -12.056  25.161  1.00  0.00     0.000 C 
BRANCH  16  17
ATOM     17  C   UNL     1      10.217 -11.783  24.534  1.00  0.00     0.000 C 
BRANCH  17  18
ATOM     18  C   UNL     1       9.055 -11.627  25.538  1.00  0.00     0.000 C 
BRANCH  18  19
ATOM     19  C   UNL     1       8.311 -12.928  25.893  1.00  0.00     0.000 C 
BRANCH  19  20
ATOM     20  C   UNL     1       8.387 -13.344  27.375  1.00  0.00     0.006 C 
BRANCH  20  21
ATOM     21  C   UNL     1       8.777 -12.199  28.327  1.00  0.00     0.053 C 
BRANCH  21  22
ATOM     22  C   UNL     1       9.560 -12.680  29.511  1.00  0.00     0.041 C 
ATOM     23  O   UNL     1      10.537 -13.459  29.352  1.00  0.00    -0.550 OA
ATOM     24  O   UNL     1       9.188 -12.299  30.794  1.00  0.00    -0.550 OA
ENDBRANCH  21  22
ENDBRANCH  20  21
ENDBRANCH  19  20
ENDBRANCH  18  19
ENDBRANCH  17  18
ENDBRANCH  16  17
ENDBRANCH  15  16
ENDBRANCH  14  15
ENDBRANCH  13  14
ENDBRANCH   1  13
TORSDOF 20
ENDMDL
