MODEL 1
REMARK VINA RESULT:    -4.283      0.000      0.000
REMARK INTER + INTRA:          -5.706
REMARK INTER:                  -6.036
REMARK INTRA:                   0.330
REMARK UNBOUND:                 0.330
REMARK SMILES CC1=CCC(=C(C)C)C(=O)CC(C)=CCC1
REMARK SMILES IDX 12 1 14 2 13 3 15 4 16 5 2 6 1 7 3 8 11 10 9 11 10 12 5 13
REMARK SMILES IDX 6 14 7 15 8 16 4 17
REMARK H PARENT
REMARK Flexibility Score: 60.00
ROOT
ATOM      1  C   UNL     1     -18.082  12.136 -29.652  1.00  0.00    -0.070 C 
ATOM      2  C   UNL     1     -17.850  10.908 -29.131  1.00  0.00    -0.027 C 
ATOM      3  C   UNL     1     -19.453  12.422 -30.211  1.00  0.00     0.039 C 
ENDROOT
BRANCH   2   4
ATOM      4  C   UNL     1     -16.560  10.468 -28.477  1.00  0.00     0.032 C 
BRANCH   4   5
ATOM      5  C   UNL     1     -15.580   9.875 -29.499  1.00  0.00     0.034 C 
BRANCH   5   6
ATOM      6  C   UNL     1     -14.157  10.398 -29.352  1.00  0.00    -0.077 C 
ATOM      7  C   UNL     1     -13.334   9.950 -28.171  1.00  0.00     0.039 C 
ATOM      8  C   UNL     1     -13.579  11.236 -30.243  1.00  0.00    -0.023 CG0
ATOM      9  G   UNL     1     -14.261  11.845 -31.445  1.00  0.00     0.000 G0
ENDBRANCH   5   6
ENDBRANCH   4   5
ENDBRANCH   2   4
BRANCH   1  10
ATOM     10  C   UNL     1     -17.027  13.225 -29.700  1.00  0.00     0.111 C 
BRANCH  10  11
ATOM     11  C   UNL     1     -16.372  13.285 -31.051  1.00  0.00     0.163 C 
ATOM     12  O   UNL     1     -17.087  13.440 -32.078  1.00  0.00    -0.294 OA
BRANCH  11  13
ATOM     13  C   UNL     1     -14.897  13.191 -31.198  1.00  0.00    -0.002 C 
ATOM     14  C   UNL     1     -14.126  14.308 -31.104  1.00  0.00    -0.069 C 
ATOM     15  C   UNL     1     -12.629  14.243 -31.306  1.00  0.00     0.039 C 
ATOM     16  C   UNL     1     -14.731  15.651 -30.754  1.00  0.00     0.039 C 
BRANCH  13  17
ATOM     17  C   UNL     1     -14.261  11.830 -31.455  1.00  0.00     0.066 CG0
ATOM     18  G   UNL     1     -13.579  11.240 -30.242  1.00  0.00     0.000 G0
ENDBRANCH  13  17
ENDBRANCH  11  13
ENDBRANCH  10  11
ENDBRANCH   1  10
TORSDOF 0
ENDMDL
MODEL 2
REMARK VINA RESULT:    -3.734      2.204      5.003
REMARK INTER + INTRA:          -4.932
REMARK INTER:                  -5.230
REMARK INTRA:                   0.298
REMARK UNBOUND:                 0.330
REMARK SMILES CC1=CCC(=C(C)C)C(=O)CC(C)=CCC1
REMARK SMILES IDX 12 1 14 2 13 3 15 4 16 5 2 6 1 7 3 8 11 10 9 11 10 12 5 13
REMARK SMILES IDX 6 14 7 15 8 16 4 17
REMARK H PARENT
REMARK Flexibility Score: 60.00
ROOT
ATOM      1  C   UNL     1     -14.501  12.745 -31.352  1.00  0.00    -0.070 C 
ATOM      2  C   UNL     1     -15.526  13.056 -32.180  1.00  0.00    -0.027 C 
ATOM      3  C   UNL     1     -13.139  12.527 -31.960  1.00  0.00     0.039 C 
ENDROOT
BRANCH   2   4
ATOM      4  C   UNL     1     -16.939  13.366 -31.739  1.00  0.00     0.032 C 
BRANCH   4   5
ATOM      5  C   UNL     1     -17.826  12.113 -31.759  1.00  0.00     0.034 C 
BRANCH   5   6
ATOM      6  C   UNL     1     -18.612  11.903 -30.472  1.00  0.00    -0.077 C 
ATOM      7  C   UNL     1     -19.836  12.749 -30.220  1.00  0.00     0.039 C 
ATOM      8  C   UNL     1     -18.282  10.978 -29.542  1.00  0.00    -0.023 CG0
ATOM      9  G   UNL     1     -17.060  10.090 -29.584  1.00  0.00     0.000 G0
ENDBRANCH   5   6
ENDBRANCH   4   5
ENDBRANCH   2   4
BRANCH   1  10
ATOM     10  C   UNL     1     -14.666  12.602 -29.851  1.00  0.00     0.111 C 
BRANCH  10  11
ATOM     11  C   UNL     1     -14.708  11.156 -29.445  1.00  0.00     0.163 C 
ATOM     12  O   UNL     1     -13.714  10.418 -29.684  1.00  0.00    -0.294 OA
BRANCH  11  13
ATOM     13  C   UNL     1     -15.887  10.585 -28.745  1.00  0.00    -0.002 C 
ATOM     14  C   UNL     1     -15.910  10.513 -27.387  1.00  0.00    -0.069 C 
ATOM     15  C   UNL     1     -17.076   9.885 -26.658  1.00  0.00     0.039 C 
ATOM     16  C   UNL     1     -14.789  11.096 -26.553  1.00  0.00     0.039 C 
BRANCH  13  17
ATOM     17  C   UNL     1     -17.068  10.081 -29.567  1.00  0.00     0.066 CG0
ATOM     18  G   UNL     1     -18.269  10.997 -29.529  1.00  0.00     0.000 G0
ENDBRANCH  13  17
ENDBRANCH  11  13
ENDBRANCH  10  11
ENDBRANCH   1  10
TORSDOF 0
ENDMDL
MODEL 3
REMARK VINA RESULT:    -3.635      1.638      3.799
REMARK INTER + INTRA:          -4.792
REMARK INTER:                  -5.478
REMARK INTRA:                   0.686
REMARK UNBOUND:                 0.330
REMARK SMILES CC1=CCC(=C(C)C)C(=O)CC(C)=CCC1
REMARK SMILES IDX 12 1 14 2 13 3 15 4 16 5 2 6 1 7 3 8 11 10 9 11 10 12 5 13
REMARK SMILES IDX 6 14 7 15 8 16 4 17
REMARK H PARENT
REMARK Flexibility Score: 60.00
ROOT
ATOM      1  C   UNL     1     -17.277  13.050 -30.021  1.00  0.00    -0.070 C 
ATOM      2  C   UNL     1     -16.580  13.785 -30.919  1.00  0.00    -0.027 C 
ATOM      3  C   UNL     1     -17.418  13.588 -28.620  1.00  0.00     0.039 C 
ENDROOT
BRANCH   2   4
ATOM      4  C   UNL     1     -16.390  13.430 -32.377  1.00  0.00     0.032 C 
BRANCH   4   5
ATOM      5  C   UNL     1     -15.535  12.165 -32.545  1.00  0.00     0.034 C 
BRANCH   5   6
ATOM      6  C   UNL     1     -14.303  12.139 -31.651  1.00  0.00    -0.077 C 
ATOM      7  C   UNL     1     -13.217  13.161 -31.878  1.00  0.00     0.039 C 
ATOM      8  C   UNL     1     -14.136  11.255 -30.642  1.00  0.00    -0.023 CG0
ATOM      9  G   UNL     1     -15.076  10.120 -30.305  1.00  0.00     0.000 G0
ENDBRANCH   5   6
ENDBRANCH   4   5
ENDBRANCH   2   4
BRANCH   1  10
ATOM     10  C   UNL     1     -17.914  11.716 -30.363  1.00  0.00     0.111 C 
BRANCH  10  11
ATOM     11  C   UNL     1     -17.461  10.641 -29.414  1.00  0.00     0.163 C 
ATOM     12  O   UNL     1     -18.321   9.902 -28.863  1.00  0.00    -0.294 OA
BRANCH  11  13
ATOM     13  C   UNL     1     -16.021  10.416 -29.133  1.00  0.00    -0.002 C 
ATOM     14  C   UNL     1     -15.553  10.478 -27.857  1.00  0.00    -0.069 C 
ATOM     15  C   UNL     1     -14.081  10.307 -27.556  1.00  0.00     0.039 C 
ATOM     16  C   UNL     1     -16.492  10.680 -26.687  1.00  0.00     0.039 C 
BRANCH  13  17
ATOM     17  C   UNL     1     -15.076  10.114 -30.291  1.00  0.00     0.066 CG0
ATOM     18  G   UNL     1     -14.146  11.256 -30.629  1.00  0.00     0.000 G0
ENDBRANCH  13  17
ENDBRANCH  11  13
ENDBRANCH  10  11
ENDBRANCH   1  10
TORSDOF 0
ENDMDL
MODEL 4
REMARK VINA RESULT:    -3.406      1.563      4.065
REMARK INTER + INTRA:          -4.471
REMARK INTER:                  -6.024
REMARK INTRA:                   1.554
REMARK UNBOUND:                 0.330
REMARK SMILES CC1=CCC(=C(C)C)C(=O)CC(C)=CCC1
REMARK SMILES IDX 12 1 14 2 13 3 15 4 16 5 2 6 1 7 3 8 11 10 9 11 10 12 5 13
REMARK SMILES IDX 6 14 7 15 8 16 4 17
REMARK H PARENT
REMARK Flexibility Score: 60.00
ROOT
ATOM      1  C   UNL     1     -15.180  13.665 -30.606  1.00  0.00    -0.070 C 
ATOM      2  C   UNL     1     -14.343  12.668 -30.979  1.00  0.00    -0.027 C 
ATOM      3  C   UNL     1     -14.754  15.086 -30.870  1.00  0.00     0.039 C 
ENDROOT
BRANCH   2   4
ATOM      4  C   UNL     1     -14.634  11.190 -30.848  1.00  0.00     0.032 C 
BRANCH   4   5
ATOM      5  C   UNL     1     -13.944  10.585 -29.617  1.00  0.00     0.034 C 
BRANCH   5   6
ATOM      6  C   UNL     1     -14.855  10.472 -28.402  1.00  0.00    -0.077 C 
ATOM      7  C   UNL     1     -14.251  10.592 -27.025  1.00  0.00     0.039 C 
ATOM      8  C   UNL     1     -16.192  10.289 -28.490  1.00  0.00    -0.023 CG0
ATOM      9  G   UNL     1     -16.966  10.079 -29.771  1.00  0.00     0.000 G0
ENDBRANCH   5   6
ENDBRANCH   4   5
ENDBRANCH   2   4
BRANCH   1  10
ATOM     10  C   UNL     1     -16.517  13.412 -29.935  1.00  0.00     0.111 C 
BRANCH  10  11
ATOM     11  C   UNL     1     -17.353  12.453 -30.737  1.00  0.00     0.163 C 
ATOM     12  O   UNL     1     -17.560  12.687 -31.958  1.00  0.00    -0.294 OA
BRANCH  11  13
ATOM     13  C   UNL     1     -17.918  11.224 -30.125  1.00  0.00    -0.002 C 
ATOM     14  C   UNL     1     -19.254  11.131 -29.880  1.00  0.00    -0.069 C 
ATOM     15  C   UNL     1     -19.841   9.911 -29.208  1.00  0.00     0.039 C 
ATOM     16  C   UNL     1     -20.207  12.226 -30.309  1.00  0.00     0.039 C 
BRANCH  13  17
ATOM     17  C   UNL     1     -16.985  10.071 -29.776  1.00  0.00     0.066 CG0
ATOM     18  G   UNL     1     -16.207  10.285 -28.498  1.00  0.00     0.000 G0
ENDBRANCH  13  17
ENDBRANCH  11  13
ENDBRANCH  10  11
ENDBRANCH   1  10
TORSDOF 0
ENDMDL
MODEL 5
REMARK VINA RESULT:    -3.067      9.549     12.350
REMARK INTER + INTRA:          -3.993
REMARK INTER:                  -5.292
REMARK INTRA:                   1.299
REMARK UNBOUND:                 0.330
REMARK SMILES CC1=CCC(=C(C)C)C(=O)CC(C)=CCC1
REMARK SMILES IDX 12 1 14 2 13 3 15 4 16 5 2 6 1 7 3 8 11 10 9 11 10 12 5 13
REMARK SMILES IDX 6 14 7 15 8 16 4 17
REMARK H PARENT
REMARK Flexibility Score: 60.00
ROOT
ATOM      1  C   UNL     1     -29.485  11.776 -30.194  1.00  0.00    -0.070 C 
ATOM      2  C   UNL     1     -29.660  12.722 -31.146  1.00  0.00    -0.027 C 
ATOM      3  C   UNL     1     -29.971  10.379 -30.484  1.00  0.00     0.039 C 
ENDROOT
BRANCH   2   4
ATOM      4  C   UNL     1     -29.183  14.154 -31.052  1.00  0.00     0.032 C 
BRANCH   4   5
ATOM      5  C   UNL     1     -27.897  14.377 -31.859  1.00  0.00     0.034 C 
BRANCH   5   6
ATOM      6  C   UNL     1     -26.660  14.575 -30.993  1.00  0.00    -0.077 C 
ATOM      7  C   UNL     1     -26.155  15.976 -30.754  1.00  0.00     0.039 C 
ATOM      8  C   UNL     1     -25.995  13.556 -30.403  1.00  0.00    -0.023 CG0
ATOM      9  G   UNL     1     -26.306  12.087 -30.579  1.00  0.00     0.000 G0
ENDBRANCH   5   6
ENDBRANCH   4   5
ENDBRANCH   2   4
BRANCH   1  10
ATOM     10  C   UNL     1     -28.829  12.063 -28.857  1.00  0.00     0.111 C 
BRANCH  10  11
ATOM     11  C   UNL     1     -27.686  11.120 -28.600  1.00  0.00     0.163 C 
ATOM     12  O   UNL     1     -27.857  10.138 -27.829  1.00  0.00    -0.294 OA
BRANCH  11  13
ATOM     13  C   UNL     1     -26.368  11.308 -29.257  1.00  0.00    -0.002 C 
ATOM     14  C   UNL     1     -25.241  10.793 -28.695  1.00  0.00    -0.069 C 
ATOM     15  C   UNL     1     -23.883  11.021 -29.319  1.00  0.00     0.039 C 
ATOM     16  C   UNL     1     -25.309   9.938 -27.447  1.00  0.00     0.039 C 
BRANCH  13  17
ATOM     17  C   UNL     1     -26.295  12.085 -30.567  1.00  0.00     0.066 CG0
ATOM     18  G   UNL     1     -25.988  13.554 -30.386  1.00  0.00     0.000 G0
ENDBRANCH  13  17
ENDBRANCH  11  13
ENDBRANCH  10  11
ENDBRANCH   1  10
TORSDOF 0
ENDMDL
MODEL 6
REMARK VINA RESULT:    -3.036      1.980      3.480
REMARK INTER + INTRA:          -3.948
REMARK INTER:                  -4.698
REMARK INTRA:                   0.750
REMARK UNBOUND:                 0.330
REMARK SMILES CC1=CCC(=C(C)C)C(=O)CC(C)=CCC1
REMARK SMILES IDX 12 1 14 2 13 3 15 4 16 5 2 6 1 7 3 8 11 10 9 11 10 12 5 13
REMARK SMILES IDX 6 14 7 15 8 16 4 17
REMARK H PARENT
REMARK Flexibility Score: 60.00
ROOT
ATOM      1  C   UNL     1     -16.388  11.591 -27.922  1.00  0.00    -0.070 C 
ATOM      2  C   UNL     1     -17.206  10.611 -28.372  1.00  0.00    -0.027 C 
ATOM      3  C   UNL     1     -16.598  12.103 -26.520  1.00  0.00     0.039 C 
ENDROOT
BRANCH   2   4
ATOM      4  C   UNL     1     -17.102   9.939 -29.722  1.00  0.00     0.032 C 
BRANCH   4   5
ATOM      5  C   UNL     1     -18.426  10.014 -30.495  1.00  0.00     0.034 C 
BRANCH   5   6
ATOM      6  C   UNL     1     -18.938  11.434 -30.692  1.00  0.00    -0.077 C 
ATOM      7  C   UNL     1     -20.293  11.803 -30.143  1.00  0.00     0.039 C 
ATOM      8  C   UNL     1     -18.228  12.399 -31.322  1.00  0.00    -0.023 CG0
ATOM      9  G   UNL     1     -16.889  12.204 -31.994  1.00  0.00     0.000 G0
ENDBRANCH   5   6
ENDBRANCH   4   5
ENDBRANCH   2   4
BRANCH   1  10
ATOM     10  C   UNL     1     -15.280  12.193 -28.766  1.00  0.00     0.111 C 
BRANCH  10  11
ATOM     11  C   UNL     1     -15.837  13.126 -29.805  1.00  0.00     0.163 C 
ATOM     12  O   UNL     1     -16.412  14.186 -29.438  1.00  0.00    -0.294 OA
BRANCH  11  13
ATOM     13  C   UNL     1     -15.699  12.837 -31.254  1.00  0.00    -0.002 C 
ATOM     14  C   UNL     1     -14.533  13.109 -31.900  1.00  0.00    -0.069 C 
ATOM     15  C   UNL     1     -14.390  12.874 -33.387  1.00  0.00     0.039 C 
ATOM     16  C   UNL     1     -13.321  13.618 -31.149  1.00  0.00     0.039 C 
BRANCH  13  17
ATOM     17  C   UNL     1     -16.879  12.233 -32.008  1.00  0.00     0.066 CG0
ATOM     18  G   UNL     1     -18.205  12.416 -31.306  1.00  0.00     0.000 G0
ENDBRANCH  13  17
ENDBRANCH  11  13
ENDBRANCH  10  11
ENDBRANCH   1  10
TORSDOF 0
ENDMDL
MODEL 7
REMARK VINA RESULT:    -2.950      1.779      4.080
REMARK INTER + INTRA:          -3.828
REMARK INTER:                  -5.232
REMARK INTRA:                   1.404
REMARK UNBOUND:                 0.330
REMARK SMILES CC1=CCC(=C(C)C)C(=O)CC(C)=CCC1
REMARK SMILES IDX 12 1 14 2 13 3 15 4 16 5 2 6 1 7 3 8 11 10 9 11 10 12 5 13
REMARK SMILES IDX 6 14 7 15 8 16 4 17
REMARK H PARENT
REMARK Flexibility Score: 60.00
ROOT
ATOM      1  C   UNL     1     -14.594  12.955 -30.699  1.00  0.00    -0.070 C 
ATOM      2  C   UNL     1     -13.982  11.750 -30.645  1.00  0.00    -0.027 C 
ATOM      3  C   UNL     1     -13.750  14.190 -30.512  1.00  0.00     0.039 C 
ENDROOT
BRANCH   2   4
ATOM      4  C   UNL     1     -14.659  10.416 -30.869  1.00  0.00     0.032 C 
BRANCH   4   5
ATOM      5  C   UNL     1     -15.451   9.969 -29.633  1.00  0.00     0.034 C 
BRANCH   5   6
ATOM      6  C   UNL     1     -14.865  10.469 -28.319  1.00  0.00    -0.077 C 
ATOM      7  C   UNL     1     -13.439  10.116 -27.978  1.00  0.00     0.039 C 
ATOM      8  C   UNL     1     -15.552  11.235 -27.443  1.00  0.00    -0.023 CG0
ATOM      9  G   UNL     1     -17.004  11.632 -27.576  1.00  0.00     0.000 G0
ENDBRANCH   5   6
ENDBRANCH   4   5
ENDBRANCH   2   4
BRANCH   1  10
ATOM     10  C   UNL     1     -16.085  13.114 -30.933  1.00  0.00     0.111 C 
BRANCH  10  11
ATOM     11  C   UNL     1     -16.830  13.217 -29.631  1.00  0.00     0.163 C 
ATOM     12  O   UNL     1     -16.961  14.345 -29.083  1.00  0.00    -0.294 OA
BRANCH  11  13
ATOM     13  C   UNL     1     -17.436  12.022 -28.992  1.00  0.00    -0.002 C 
ATOM     14  C   UNL     1     -18.347  11.270 -29.668  1.00  0.00    -0.069 C 
ATOM     15  C   UNL     1     -19.017  10.083 -29.015  1.00  0.00     0.039 C 
ATOM     16  C   UNL     1     -18.694  11.570 -31.110  1.00  0.00     0.039 C 
BRANCH  13  17
ATOM     17  C   UNL     1     -17.025  11.649 -27.572  1.00  0.00     0.066 CG0
ATOM     18  G   UNL     1     -15.570  11.258 -27.444  1.00  0.00     0.000 G0
ENDBRANCH  13  17
ENDBRANCH  11  13
ENDBRANCH  10  11
ENDBRANCH   1  10
TORSDOF 0
ENDMDL
MODEL 8
REMARK VINA RESULT:    -2.699      2.263      3.669
REMARK INTER + INTRA:          -3.474
REMARK INTER:                  -3.915
REMARK INTRA:                   0.441
REMARK UNBOUND:                 0.330
REMARK SMILES CC1=CCC(=C(C)C)C(=O)CC(C)=CCC1
REMARK SMILES IDX 12 1 14 2 13 3 15 4 16 5 2 6 1 7 3 8 11 10 9 11 10 12 5 13
REMARK SMILES IDX 6 14 7 15 8 16 4 17
REMARK H PARENT
REMARK Flexibility Score: 60.00
ROOT
ATOM      1  C   UNL     1     -14.897  14.434 -31.460  1.00  0.00    -0.070 C 
ATOM      2  C   UNL     1     -15.796  13.428 -31.349  1.00  0.00    -0.027 C 
ATOM      3  C   UNL     1     -15.050  15.626 -30.551  1.00  0.00     0.039 C 
ENDROOT
BRANCH   2   4
ATOM      4  C   UNL     1     -15.760  12.137 -32.134  1.00  0.00     0.032 C 
BRANCH   4   5
ATOM      5  C   UNL     1     -15.534  10.924 -31.220  1.00  0.00     0.034 C 
BRANCH   5   6
ATOM      6  C   UNL     1     -14.424  11.130 -30.199  1.00  0.00    -0.077 C 
ATOM      7  C   UNL     1     -14.784  11.204 -28.736  1.00  0.00     0.039 C 
ATOM      8  C   UNL     1     -13.117  11.231 -30.532  1.00  0.00    -0.023 CG0
ATOM      9  G   UNL     1     -12.570  11.249 -31.941  1.00  0.00     0.000 G0
ENDBRANCH   5   6
ENDBRANCH   4   5
ENDBRANCH   2   4
BRANCH   1  10
ATOM     10  C   UNL     1     -13.753  14.413 -32.456  1.00  0.00     0.111 C 
BRANCH  10  11
ATOM     11  C   UNL     1     -12.507  13.840 -31.840  1.00  0.00     0.163 C 
ATOM     12  O   UNL     1     -11.969  14.437 -30.868  1.00  0.00    -0.294 OA
BRANCH  11  13
ATOM     13  C   UNL     1     -11.913  12.573 -32.335  1.00  0.00    -0.002 C 
ATOM     14  C   UNL     1     -10.817  12.598 -33.141  1.00  0.00    -0.069 C 
ATOM     15  C   UNL     1     -10.231  11.322 -33.701  1.00  0.00     0.039 C 
ATOM     16  C   UNL     1     -10.120  13.899 -33.475  1.00  0.00     0.039 C 
BRANCH  13  17
ATOM     17  C   UNL     1     -12.546  11.247 -31.929  1.00  0.00     0.066 CG0
ATOM     18  G   UNL     1     -13.114  11.249 -30.528  1.00  0.00     0.000 G0
ENDBRANCH  13  17
ENDBRANCH  11  13
ENDBRANCH  10  11
ENDBRANCH   1  10
TORSDOF 0
ENDMDL
MODEL 9
REMARK VINA RESULT:    -2.688      1.522      2.062
REMARK INTER + INTRA:          -3.458
REMARK INTER:                  -4.021
REMARK INTRA:                   0.562
REMARK UNBOUND:                 0.330
REMARK SMILES CC1=CCC(=C(C)C)C(=O)CC(C)=CCC1
REMARK SMILES IDX 12 1 14 2 13 3 15 4 16 5 2 6 1 7 3 8 11 10 9 11 10 12 5 13
REMARK SMILES IDX 6 14 7 15 8 16 4 17
REMARK H PARENT
REMARK Flexibility Score: 60.00
ROOT
ATOM      1  C   UNL     1     -16.764  13.310 -30.075  1.00  0.00    -0.070 C 
ATOM      2  C   UNL     1     -17.169  12.057 -29.761  1.00  0.00    -0.027 C 
ATOM      3  C   UNL     1     -17.199  14.442 -29.180  1.00  0.00     0.039 C 
ENDROOT
BRANCH   2   4
ATOM      4  C   UNL     1     -16.780  10.802 -30.509  1.00  0.00     0.032 C 
BRANCH   4   5
ATOM      5  C   UNL     1     -15.897   9.883 -29.652  1.00  0.00     0.034 C 
BRANCH   5   6
ATOM      6  C   UNL     1     -14.842  10.629 -28.847  1.00  0.00    -0.077 C 
ATOM      7  C   UNL     1     -14.977  10.687 -27.346  1.00  0.00     0.039 C 
ATOM      8  C   UNL     1     -13.769  11.232 -29.408  1.00  0.00    -0.023 CG0
ATOM      9  G   UNL     1     -13.498  11.340 -30.891  1.00  0.00     0.000 G0
ENDBRANCH   5   6
ENDBRANCH   4   5
ENDBRANCH   2   4
BRANCH   1  10
ATOM     10  C   UNL     1     -15.902  13.620 -31.284  1.00  0.00     0.111 C 
BRANCH  10  11
ATOM     11  C   UNL     1     -14.455  13.753 -30.899  1.00  0.00     0.163 C 
ATOM     12  O   UNL     1     -14.105  14.686 -30.126  1.00  0.00    -0.294 OA
BRANCH  11  13
ATOM     13  C   UNL     1     -13.434  12.792 -31.387  1.00  0.00    -0.002 C 
ATOM     14  C   UNL     1     -12.484  13.193 -32.275  1.00  0.00    -0.069 C 
ATOM     15  C   UNL     1     -11.470  12.217 -32.828  1.00  0.00     0.039 C 
ATOM     16  C   UNL     1     -12.381  14.638 -32.712  1.00  0.00     0.039 C 
BRANCH  13  17
ATOM     17  C   UNL     1     -13.465  11.354 -30.882  1.00  0.00     0.066 CG0
ATOM     18  G   UNL     1     -13.783  11.234 -29.410  1.00  0.00     0.000 G0
ENDBRANCH  13  17
ENDBRANCH  11  13
ENDBRANCH  10  11
ENDBRANCH   1  10
TORSDOF 0
ENDMDL
