MODEL 1
REMARK VINA RESULT:    -4.083      0.000      0.000
REMARK INTER + INTRA:          -5.317
REMARK INTER:                  -5.037
REMARK INTRA:                  -0.280
REMARK UNBOUND:                -0.280
REMARK SMILES C=CC[C@@H](C)C(=O)CC
REMARK SMILES IDX 4 1 5 2 6 3 7 4 8 5 9 6 3 7 2 8 1 9
REMARK H PARENT
REMARK Flexibility Score: inf
ROOT
ATOM      1  C   UNL     1      22.011  28.912 -18.047  1.00  0.00     0.057 C 
ATOM      2  C   UNL     1      20.701  28.817 -17.253  1.00  0.00     0.016 C 
ENDROOT
BRANCH   1   3
ATOM      3  C   UNL     1      21.708  29.046 -19.524  1.00  0.00     0.135 C 
ATOM      4  O   UNL     1      21.411  28.053 -20.175  1.00  0.00    -0.299 OA
BRANCH   3   5
ATOM      5  C   UNL     1      21.755  30.385 -20.212  1.00  0.00     0.072 C 
ATOM      6  C   UNL     1      21.332  30.258 -21.672  1.00  0.00     0.012 C 
ENDBRANCH   3   5
ENDBRANCH   1   3
BRANCH   1   7
ATOM      7  C   UNL     1      22.880  30.098 -17.577  1.00  0.00     0.038 C 
BRANCH   7   8
ATOM      8  C   UNL     1      24.336  29.731 -17.458  1.00  0.00    -0.034 C 
ATOM      9  C   UNL     1      25.159  29.763 -18.510  1.00  0.00     0.004 C 
ENDBRANCH   7   8
ENDBRANCH   1   7
TORSDOF 4
ENDMDL
MODEL 2
REMARK VINA RESULT:    -4.039      2.549      3.724
REMARK INTER + INTRA:          -5.263
REMARK INTER:                  -4.731
REMARK INTRA:                  -0.532
REMARK UNBOUND:                -0.280
REMARK SMILES C=CC[C@@H](C)C(=O)CC
REMARK SMILES IDX 4 1 5 2 6 3 7 4 8 5 9 6 3 7 2 8 1 9
REMARK H PARENT
REMARK Flexibility Score: inf
ROOT
ATOM      1  C   UNL     1      21.946  29.681 -17.246  1.00  0.00     0.057 C 
ATOM      2  C   UNL     1      21.368  28.615 -18.187  1.00  0.00     0.016 C 
ENDROOT
BRANCH   1   3
ATOM      3  C   UNL     1      22.557  29.016 -16.031  1.00  0.00     0.135 C 
ATOM      4  O   UNL     1      22.992  29.704 -15.118  1.00  0.00    -0.299 OA
BRANCH   3   5
ATOM      5  C   UNL     1      22.632  27.517 -15.917  1.00  0.00     0.072 C 
ATOM      6  C   UNL     1      24.066  27.031 -16.106  1.00  0.00     0.012 C 
ENDBRANCH   3   5
ENDBRANCH   1   3
BRANCH   1   7
ATOM      7  C   UNL     1      23.001  30.557 -17.954  1.00  0.00     0.038 C 
BRANCH   7   8
ATOM      8  C   UNL     1      23.980  29.742 -18.757  1.00  0.00    -0.034 C 
ATOM      9  C   UNL     1      25.282  29.716 -18.463  1.00  0.00     0.004 C 
ENDBRANCH   7   8
ENDBRANCH   1   7
TORSDOF 4
ENDMDL
MODEL 3
REMARK VINA RESULT:    -4.019      1.397      2.532
REMARK INTER + INTRA:          -5.239
REMARK INTER:                  -4.869
REMARK INTRA:                  -0.370
REMARK UNBOUND:                -0.280
REMARK SMILES C=CC[C@@H](C)C(=O)CC
REMARK SMILES IDX 4 1 5 2 6 3 7 4 8 5 9 6 3 7 2 8 1 9
REMARK H PARENT
REMARK Flexibility Score: inf
ROOT
ATOM      1  C   UNL     1      23.801  30.078 -18.712  1.00  0.00     0.057 C 
ATOM      2  C   UNL     1      25.219  29.698 -18.264  1.00  0.00     0.016 C 
ENDROOT
BRANCH   1   3
ATOM      3  C   UNL     1      23.161  28.913 -19.435  1.00  0.00     0.135 C 
ATOM      4  O   UNL     1      23.789  27.874 -19.585  1.00  0.00    -0.299 OA
BRANCH   3   5
ATOM      5  C   UNL     1      21.755  29.002 -19.968  1.00  0.00     0.072 C 
ATOM      6  C   UNL     1      21.615  30.177 -20.930  1.00  0.00     0.012 C 
ENDBRANCH   3   5
ENDBRANCH   1   3
BRANCH   1   7
ATOM      7  C   UNL     1      22.920  30.507 -17.519  1.00  0.00     0.038 C 
BRANCH   7   8
ATOM      8  C   UNL     1      23.165  29.668 -16.293  1.00  0.00    -0.034 C 
ATOM      9  C   UNL     1      22.225  28.863 -15.790  1.00  0.00     0.004 C 
ENDBRANCH   7   8
ENDBRANCH   1   7
TORSDOF 4
ENDMDL
MODEL 4
REMARK VINA RESULT:    -3.972      2.027      3.858
REMARK INTER + INTRA:          -5.181
REMARK INTER:                  -4.740
REMARK INTRA:                  -0.441
REMARK UNBOUND:                -0.280
REMARK SMILES C=CC[C@@H](C)C(=O)CC
REMARK SMILES IDX 4 1 5 2 6 3 7 4 8 5 9 6 3 7 2 8 1 9
REMARK H PARENT
REMARK Flexibility Score: inf
ROOT
ATOM      1  C   UNL     1      23.533  29.572 -18.076  1.00  0.00     0.057 C 
ATOM      2  C   UNL     1      25.065  29.656 -18.035  1.00  0.00     0.016 C 
ENDROOT
BRANCH   1   3
ATOM      3  C   UNL     1      22.985  29.487 -16.668  1.00  0.00     0.135 C 
ATOM      4  O   UNL     1      23.313  30.325 -15.839  1.00  0.00    -0.299 OA
BRANCH   3   5
ATOM      5  C   UNL     1      22.031  28.394 -16.266  1.00  0.00     0.072 C 
ATOM      6  C   UNL     1      20.664  28.605 -16.910  1.00  0.00     0.012 C 
ENDBRANCH   3   5
ENDBRANCH   1   3
BRANCH   1   7
ATOM      7  C   UNL     1      22.913  30.779 -18.812  1.00  0.00     0.038 C 
BRANCH   7   8
ATOM      8  C   UNL     1      22.024  30.362 -19.953  1.00  0.00    -0.034 C 
ATOM      9  C   UNL     1      22.038  29.118 -20.438  1.00  0.00     0.004 C 
ENDBRANCH   7   8
ENDBRANCH   1   7
TORSDOF 4
ENDMDL
MODEL 5
REMARK VINA RESULT:    -3.957      5.488      7.381
REMARK INTER + INTRA:          -5.162
REMARK INTER:                  -4.810
REMARK INTRA:                  -0.352
REMARK UNBOUND:                -0.280
REMARK SMILES C=CC[C@@H](C)C(=O)CC
REMARK SMILES IDX 4 1 5 2 6 3 7 4 8 5 9 6 3 7 2 8 1 9
REMARK H PARENT
REMARK Flexibility Score: inf
ROOT
ATOM      1  C   UNL     1      19.451  28.255 -13.225  1.00  0.00     0.057 C 
ATOM      2  C   UNL     1      20.084  29.368 -12.379  1.00  0.00     0.016 C 
ENDROOT
BRANCH   1   3
ATOM      3  C   UNL     1      18.479  27.459 -12.383  1.00  0.00     0.135 C 
ATOM      4  O   UNL     1      18.834  27.023 -11.296  1.00  0.00    -0.299 OA
BRANCH   3   5
ATOM      5  C   UNL     1      17.072  27.197 -12.851  1.00  0.00     0.072 C 
ATOM      6  C   UNL     1      16.980  25.852 -13.566  1.00  0.00     0.012 C 
ENDBRANCH   3   5
ENDBRANCH   1   3
BRANCH   1   7
ATOM      7  C   UNL     1      18.731  28.822 -14.468  1.00  0.00     0.038 C 
BRANCH   7   8
ATOM      8  C   UNL     1      19.486  28.552 -15.742  1.00  0.00    -0.034 C 
ATOM      9  C   UNL     1      20.019  27.356 -16.005  1.00  0.00     0.004 C 
ENDBRANCH   7   8
ENDBRANCH   1   7
TORSDOF 4
ENDMDL
MODEL 6
REMARK VINA RESULT:    -3.907      2.096      3.494
REMARK INTER + INTRA:          -5.100
REMARK INTER:                  -4.829
REMARK INTRA:                  -0.271
REMARK UNBOUND:                -0.280
REMARK SMILES C=CC[C@@H](C)C(=O)CC
REMARK SMILES IDX 4 1 5 2 6 3 7 4 8 5 9 6 3 7 2 8 1 9
REMARK H PARENT
REMARK Flexibility Score: inf
ROOT
ATOM      1  C   UNL     1      21.823  29.288 -17.095  1.00  0.00     0.057 C 
ATOM      2  C   UNL     1      21.503  29.069 -18.580  1.00  0.00     0.016 C 
ENDROOT
BRANCH   1   3
ATOM      3  C   UNL     1      21.725  27.975 -16.349  1.00  0.00     0.135 C 
ATOM      4  O   UNL     1      22.746  27.392 -16.011  1.00  0.00    -0.299 OA
BRANCH   3   5
ATOM      5  C   UNL     1      20.389  27.372 -16.003  1.00  0.00     0.072 C 
ATOM      6  C   UNL     1      19.436  28.438 -15.471  1.00  0.00     0.012 C 
ENDBRANCH   3   5
ENDBRANCH   1   3
BRANCH   1   7
ATOM      7  C   UNL     1      23.225  29.903 -16.897  1.00  0.00     0.038 C 
BRANCH   7   8
ATOM      8  C   UNL     1      23.942  30.130 -18.201  1.00  0.00    -0.034 C 
ATOM      9  C   UNL     1      25.197  29.716 -18.396  1.00  0.00     0.004 C 
ENDBRANCH   7   8
ENDBRANCH   1   7
TORSDOF 4
ENDMDL
MODEL 7
REMARK VINA RESULT:    -3.896     11.269     13.444
REMARK INTER + INTRA:          -5.087
REMARK INTER:                  -4.806
REMARK INTRA:                  -0.281
REMARK UNBOUND:                -0.280
REMARK SMILES C=CC[C@@H](C)C(=O)CC
REMARK SMILES IDX 4 1 5 2 6 3 7 4 8 5 9 6 3 7 2 8 1 9
REMARK H PARENT
REMARK Flexibility Score: inf
ROOT
ATOM      1  C   UNL     1      34.863  31.395 -14.554  1.00  0.00     0.057 C 
ATOM      2  C   UNL     1      36.385  31.589 -14.602  1.00  0.00     0.016 C 
ENDROOT
BRANCH   1   3
ATOM      3  C   UNL     1      34.416  31.186 -13.124  1.00  0.00     0.135 C 
ATOM      4  O   UNL     1      35.028  31.726 -12.213  1.00  0.00    -0.299 OA
BRANCH   3   5
ATOM      5  C   UNL     1      33.222  30.329 -12.797  1.00  0.00     0.072 C 
ATOM      6  C   UNL     1      33.658  28.925 -12.391  1.00  0.00     0.012 C 
ENDBRANCH   3   5
ENDBRANCH   1   3
BRANCH   1   7
ATOM      7  C   UNL     1      34.114  32.596 -15.170  1.00  0.00     0.038 C 
BRANCH   7   8
ATOM      8  C   UNL     1      33.436  32.246 -16.469  1.00  0.00    -0.034 C 
ATOM      9  C   UNL     1      32.325  31.506 -16.506  1.00  0.00     0.004 C 
ENDBRANCH   7   8
ENDBRANCH   1   7
TORSDOF 4
ENDMDL
MODEL 8
REMARK VINA RESULT:    -3.893      3.870      6.171
REMARK INTER + INTRA:          -5.083
REMARK INTER:                  -4.797
REMARK INTRA:                  -0.286
REMARK UNBOUND:                -0.280
REMARK SMILES C=CC[C@@H](C)C(=O)CC
REMARK SMILES IDX 4 1 5 2 6 3 7 4 8 5 9 6 3 7 2 8 1 9
REMARK H PARENT
REMARK Flexibility Score: inf
ROOT
ATOM      1  C   UNL     1      19.312  28.509 -14.704  1.00  0.00     0.057 C 
ATOM      2  C   UNL     1      19.888  28.532 -13.281  1.00  0.00     0.016 C 
ENDROOT
BRANCH   1   3
ATOM      3  C   UNL     1      20.161  27.621 -15.588  1.00  0.00     0.135 C 
ATOM      4  O   UNL     1      19.642  26.693 -16.192  1.00  0.00    -0.299 OA
BRANCH   3   5
ATOM      5  C   UNL     1      21.639  27.864 -15.749  1.00  0.00     0.072 C 
ATOM      6  C   UNL     1      21.894  29.092 -16.618  1.00  0.00     0.012 C 
ENDBRANCH   3   5
ENDBRANCH   1   3
BRANCH   1   7
ATOM      7  C   UNL     1      17.847  28.024 -14.721  1.00  0.00     0.038 C 
BRANCH   7   8
ATOM      8  C   UNL     1      17.455  27.338 -13.439  1.00  0.00    -0.034 C 
ATOM      9  C   UNL     1      16.973  26.092 -13.426  1.00  0.00     0.004 C 
ENDBRANCH   7   8
ENDBRANCH   1   7
TORSDOF 4
ENDMDL
MODEL 9
REMARK VINA RESULT:    -3.846      4.978      7.456
REMARK INTER + INTRA:          -5.025
REMARK INTER:                  -4.585
REMARK INTRA:                  -0.441
REMARK UNBOUND:                -0.280
REMARK SMILES C=CC[C@@H](C)C(=O)CC
REMARK SMILES IDX 4 1 5 2 6 3 7 4 8 5 9 6 3 7 2 8 1 9
REMARK H PARENT
REMARK Flexibility Score: inf
ROOT
ATOM      1  C   UNL     1      20.033  28.185 -14.071  1.00  0.00     0.057 C 
ATOM      2  C   UNL     1      20.838  28.048 -15.371  1.00  0.00     0.016 C 
ENDROOT
BRANCH   1   3
ATOM      3  C   UNL     1      20.875  28.867 -13.015  1.00  0.00     0.135 C 
ATOM      4  O   UNL     1      22.092  28.745 -13.037  1.00  0.00    -0.299 OA
BRANCH   3   5
ATOM      5  C   UNL     1      20.244  29.708 -11.937  1.00  0.00     0.072 C 
ATOM      6  C   UNL     1      19.865  28.849 -10.733  1.00  0.00     0.012 C 
ENDBRANCH   3   5
ENDBRANCH   1   3
BRANCH   1   7
ATOM      7  C   UNL     1      18.722  28.969 -14.289  1.00  0.00     0.038 C 
BRANCH   7   8
ATOM      8  C   UNL     1      17.503  28.095 -14.169  1.00  0.00    -0.034 C 
ATOM      9  C   UNL     1      17.333  27.261 -13.140  1.00  0.00     0.004 C 
ENDBRANCH   7   8
ENDBRANCH   1   7
TORSDOF 4
ENDMDL
