MODEL 1
REMARK VINA RESULT:    -4.083      0.000      0.000
REMARK INTER + INTRA:          -8.392
REMARK INTER:                  -7.185
REMARK INTRA:                  -1.207
REMARK UNBOUND:                -1.207
REMARK SMILES CCCCCCC=CCCCCCCCC(=O)[O-]
REMARK SMILES IDX 10 1 11 2 12 3 13 4 14 5 15 6 16 7 17 8 18 9 9 10 8 11 7 12
REMARK SMILES IDX 6 13 5 14 4 15 3 16 2 17 1 18
REMARK H PARENT
REMARK Flexibility Score: inf
ROOT
ATOM      1  C   UNL     1      -2.953  -8.307   3.787  1.00  0.00     0.004 C 
ENDROOT
BRANCH   1   2
ATOM      2  C   UNL     1      -3.554  -9.266   4.826  1.00  0.00     0.000 C 
BRANCH   2   3
ATOM      3  C   UNL     1      -2.902  -9.122   6.209  1.00  0.00     0.000 C 
BRANCH   3   4
ATOM      4  C   UNL     1      -1.609  -8.297   6.122  1.00  0.00     0.000 C 
BRANCH   4   5
ATOM      5  C   UNL     1      -0.743  -8.409   7.391  1.00  0.00     0.006 C 
BRANCH   5   6
ATOM      6  C   UNL     1      -1.250  -7.577   8.580  1.00  0.00     0.053 C 
BRANCH   6   7
ATOM      7  C   UNL     1      -0.532  -6.268   8.697  1.00  0.00     0.041 C 
ATOM      8  O   UNL     1      -1.134  -5.190   8.443  1.00  0.00    -0.550 OA
ATOM      9  O   UNL     1       0.810  -6.240   9.053  1.00  0.00    -0.550 OA
ENDBRANCH   6   7
ENDBRANCH   5   6
ENDBRANCH   4   5
ENDBRANCH   3   4
ENDBRANCH   2   3
ENDBRANCH   1   2
BRANCH   1  10
ATOM     10  C   UNL     1      -3.924  -7.190   3.379  1.00  0.00     0.027 C 
BRANCH  10  11
ATOM     11  C   UNL     1      -5.218  -7.761   2.866  1.00  0.00    -0.031 C 
ATOM     12  C   UNL     1      -5.602  -7.593   1.591  1.00  0.00    -0.031 C 
BRANCH  12  13
ATOM     13  C   UNL     1      -6.902  -8.148   1.080  1.00  0.00     0.027 C 
BRANCH  13  14
ATOM     14  C   UNL     1      -7.349  -9.359   1.907  1.00  0.00     0.004 C 
BRANCH  14  15
ATOM     15  C   UNL     1      -8.801  -9.196   2.379  1.00  0.00     0.000 C 
BRANCH  15  16
ATOM     16  C   UNL     1      -9.329  -7.760   2.213  1.00  0.00    -0.000 C 
BRANCH  16  17
ATOM     17  C   UNL     1      -9.712  -7.055   3.527  1.00  0.00    -0.003 C 
ATOM     18  C   UNL     1      -8.585  -7.061   4.560  1.00  0.00     0.004 C 
ENDBRANCH  16  17
ENDBRANCH  15  16
ENDBRANCH  14  15
ENDBRANCH  13  14
ENDBRANCH  12  13
ENDBRANCH  10  11
ENDBRANCH   1  10
TORSDOF 13
ENDMDL
MODEL 2
REMARK VINA RESULT:    -4.045      0.946      1.921
REMARK INTER + INTRA:          -8.326
REMARK INTER:                  -7.099
REMARK INTRA:                  -1.227
REMARK UNBOUND:                -1.207
REMARK SMILES CCCCCCC=CCCCCCCCC(=O)[O-]
REMARK SMILES IDX 10 1 11 2 12 3 13 4 14 5 15 6 16 7 17 8 18 9 9 10 8 11 7 12
REMARK SMILES IDX 6 13 5 14 4 15 3 16 2 17 1 18
REMARK H PARENT
REMARK Flexibility Score: inf
ROOT
ATOM      1  C   UNL     1      -3.172  -7.675   3.853  1.00  0.00     0.004 C 
ENDROOT
BRANCH   1   2
ATOM      2  C   UNL     1      -3.140  -8.998   4.635  1.00  0.00     0.000 C 
BRANCH   2   3
ATOM      3  C   UNL     1      -2.738  -8.805   6.105  1.00  0.00     0.000 C 
BRANCH   3   4
ATOM      4  C   UNL     1      -1.307  -8.255   6.213  1.00  0.00     0.000 C 
BRANCH   4   5
ATOM      5  C   UNL     1      -0.839  -8.095   7.672  1.00  0.00     0.006 C 
BRANCH   5   6
ATOM      6  C   UNL     1      -1.558  -6.982   8.451  1.00  0.00     0.053 C 
BRANCH   6   7
ATOM      7  C   UNL     1      -0.604  -5.942   8.954  1.00  0.00     0.041 C 
ATOM      8  O   UNL     1      -1.028  -4.806   9.295  1.00  0.00    -0.550 OA
ATOM      9  O   UNL     1       0.756  -6.217   9.014  1.00  0.00    -0.550 OA
ENDBRANCH   6   7
ENDBRANCH   5   6
ENDBRANCH   4   5
ENDBRANCH   3   4
ENDBRANCH   2   3
ENDBRANCH   1   2
BRANCH   1  10
ATOM     10  C   UNL     1      -4.316  -7.620   2.830  1.00  0.00     0.027 C 
BRANCH  10  11
ATOM     11  C   UNL     1      -5.625  -8.007   3.462  1.00  0.00    -0.031 C 
ATOM     12  C   UNL     1      -6.516  -7.082   3.853  1.00  0.00    -0.031 C 
BRANCH  12  13
ATOM     13  C   UNL     1      -7.817  -7.467   4.500  1.00  0.00     0.027 C 
BRANCH  13  14
ATOM     14  C   UNL     1      -8.981  -7.356   3.509  1.00  0.00     0.004 C 
BRANCH  14  15
ATOM     15  C   UNL     1      -9.549  -8.742   3.171  1.00  0.00     0.000 C 
BRANCH  15  16
ATOM     16  C   UNL     1      -9.368  -9.119   1.689  1.00  0.00    -0.000 C 
BRANCH  16  17
ATOM     17  C   UNL     1      -8.823  -7.990   0.796  1.00  0.00    -0.003 C 
ATOM     18  C   UNL     1      -7.426  -8.281   0.250  1.00  0.00     0.004 C 
ENDBRANCH  16  17
ENDBRANCH  15  16
ENDBRANCH  14  15
ENDBRANCH  13  14
ENDBRANCH  12  13
ENDBRANCH  10  11
ENDBRANCH   1  10
TORSDOF 13
ENDMDL
MODEL 3
REMARK VINA RESULT:    -4.041      2.284      4.444
REMARK INTER + INTRA:          -8.320
REMARK INTER:                  -6.443
REMARK INTRA:                  -1.877
REMARK UNBOUND:                -1.207
REMARK SMILES CCCCCCC=CCCCCCCCC(=O)[O-]
REMARK SMILES IDX 10 1 11 2 12 3 13 4 14 5 15 6 16 7 17 8 18 9 9 10 8 11 7 12
REMARK SMILES IDX 6 13 5 14 4 15 3 16 2 17 1 18
REMARK H PARENT
REMARK Flexibility Score: inf
ROOT
ATOM      1  C   UNL     1      -5.911  -8.466   4.035  1.00  0.00     0.004 C 
ENDROOT
BRANCH   1   2
ATOM      2  C   UNL     1      -5.943  -8.445   5.571  1.00  0.00     0.000 C 
BRANCH   2   3
ATOM      3  C   UNL     1      -5.377  -9.731   6.192  1.00  0.00     0.000 C 
BRANCH   3   4
ATOM      4  C   UNL     1      -3.851  -9.795   6.024  1.00  0.00     0.000 C 
BRANCH   4   5
ATOM      5  C   UNL     1      -3.100  -8.961   7.078  1.00  0.00     0.006 C 
BRANCH   5   6
ATOM      6  C   UNL     1      -1.774  -8.359   6.583  1.00  0.00     0.053 C 
BRANCH   6   7
ATOM      7  C   UNL     1      -0.681  -8.498   7.598  1.00  0.00     0.041 C 
ATOM      8  O   UNL     1      -0.266  -9.641   7.929  1.00  0.00    -0.550 OA
ATOM      9  O   UNL     1      -0.144  -7.369   8.202  1.00  0.00    -0.550 OA
ENDBRANCH   6   7
ENDBRANCH   5   6
ENDBRANCH   4   5
ENDBRANCH   3   4
ENDBRANCH   2   3
ENDBRANCH   1   2
BRANCH   1  10
ATOM     10  C   UNL     1      -5.393  -7.151   3.435  1.00  0.00     0.027 C 
BRANCH  10  11
ATOM     11  C   UNL     1      -3.900  -7.194   3.250  1.00  0.00    -0.031 C 
ATOM     12  C   UNL     1      -3.260  -8.340   2.975  1.00  0.00    -0.031 C 
BRANCH  12  13
ATOM     13  C   UNL     1      -1.766  -8.387   2.806  1.00  0.00     0.027 C 
BRANCH  13  14
ATOM     14  C   UNL     1      -1.383  -8.651   1.345  1.00  0.00     0.004 C 
BRANCH  14  15
ATOM     15  C   UNL     1      -2.071  -9.919   0.817  1.00  0.00     0.000 C 
BRANCH  15  16
ATOM     16  C   UNL     1      -2.620  -9.752  -0.611  1.00  0.00    -0.000 C 
BRANCH  16  17
ATOM     17  C   UNL     1      -3.350  -8.423  -0.873  1.00  0.00    -0.003 C 
ATOM     18  C   UNL     1      -4.773  -8.403  -0.315  1.00  0.00     0.004 C 
ENDBRANCH  16  17
ENDBRANCH  15  16
ENDBRANCH  14  15
ENDBRANCH  13  14
ENDBRANCH  12  13
ENDBRANCH  10  11
ENDBRANCH   1  10
TORSDOF 13
ENDMDL
MODEL 4
REMARK VINA RESULT:    -4.001     14.502     16.928
REMARK INTER + INTRA:          -8.249
REMARK INTER:                  -6.461
REMARK INTRA:                  -1.788
REMARK UNBOUND:                -1.207
REMARK SMILES CCCCCCC=CCCCCCCCC(=O)[O-]
REMARK SMILES IDX 10 1 11 2 12 3 13 4 14 5 15 6 16 7 17 8 18 9 9 10 8 11 7 12
REMARK SMILES IDX 6 13 5 14 4 15 3 16 2 17 1 18
REMARK H PARENT
REMARK Flexibility Score: inf
ROOT
ATOM      1  C   UNL     1       4.763  -4.801 -10.121  1.00  0.00     0.004 C 
ENDROOT
BRANCH   1   2
ATOM      2  C   UNL     1       3.653  -4.325  -9.170  1.00  0.00     0.000 C 
BRANCH   2   3
ATOM      3  C   UNL     1       2.247  -4.546  -9.746  1.00  0.00     0.000 C 
BRANCH   3   4
ATOM      4  C   UNL     1       1.407  -5.434  -8.814  1.00  0.00     0.000 C 
BRANCH   4   5
ATOM      5  C   UNL     1       1.276  -4.853  -7.394  1.00  0.00     0.006 C 
BRANCH   5   6
ATOM      6  C   UNL     1      -0.122  -4.310  -7.057  1.00  0.00     0.053 C 
BRANCH   6   7
ATOM      7  C   UNL     1      -1.204  -5.284  -7.412  1.00  0.00     0.041 C 
ATOM      8  O   UNL     1      -1.359  -6.334  -6.734  1.00  0.00    -0.550 OA
ATOM      9  O   UNL     1      -2.018  -5.048  -8.513  1.00  0.00    -0.550 OA
ENDBRANCH   6   7
ENDBRANCH   5   6
ENDBRANCH   4   5
ENDBRANCH   3   4
ENDBRANCH   2   3
ENDBRANCH   1   2
BRANCH   1  10
ATOM     10  C   UNL     1       6.137  -4.215  -9.767  1.00  0.00     0.027 C 
BRANCH  10  11
ATOM     11  C   UNL     1       7.123  -5.306  -9.447  1.00  0.00    -0.031 C 
ATOM     12  C   UNL     1       7.631  -5.453  -8.214  1.00  0.00    -0.031 C 
BRANCH  12  13
ATOM     13  C   UNL     1       8.628  -6.532  -7.896  1.00  0.00     0.027 C 
BRANCH  13  14
ATOM     14  C   UNL     1       7.970  -7.686  -7.131  1.00  0.00     0.004 C 
BRANCH  14  15
ATOM     15  C   UNL     1       6.877  -7.166  -6.186  1.00  0.00     0.000 C 
BRANCH  15  16
ATOM     16  C   UNL     1       5.568  -7.971  -6.282  1.00  0.00    -0.000 C 
BRANCH  16  17
ATOM     17  C   UNL     1       4.455  -7.300  -7.107  1.00  0.00    -0.003 C 
ATOM     18  C   UNL     1       4.180  -8.012  -8.431  1.00  0.00     0.004 C 
ENDBRANCH  16  17
ENDBRANCH  15  16
ENDBRANCH  14  15
ENDBRANCH  13  14
ENDBRANCH  12  13
ENDBRANCH  10  11
ENDBRANCH   1  10
TORSDOF 13
ENDMDL
MODEL 5
REMARK VINA RESULT:    -3.964      1.508      2.278
REMARK INTER + INTRA:          -8.183
REMARK INTER:                  -6.800
REMARK INTRA:                  -1.383
REMARK UNBOUND:                -1.207
REMARK SMILES CCCCCCC=CCCCCCCCC(=O)[O-]
REMARK SMILES IDX 10 1 11 2 12 3 13 4 14 5 15 6 16 7 17 8 18 9 9 10 8 11 7 12
REMARK SMILES IDX 6 13 5 14 4 15 3 16 2 17 1 18
REMARK H PARENT
REMARK Flexibility Score: inf
ROOT
ATOM      1  C   UNL     1      -2.899  -8.187   3.971  1.00  0.00     0.004 C 
ENDROOT
BRANCH   1   2
ATOM      2  C   UNL     1      -3.619  -9.012   5.048  1.00  0.00     0.000 C 
BRANCH   2   3
ATOM      3  C   UNL     1      -2.747  -9.253   6.289  1.00  0.00     0.000 C 
BRANCH   3   4
ATOM      4  C   UNL     1      -1.586  -8.247   6.346  1.00  0.00     0.000 C 
BRANCH   4   5
ATOM      5  C   UNL     1      -0.987  -8.106   7.758  1.00  0.00     0.006 C 
BRANCH   5   6
ATOM      6  C   UNL     1      -1.666  -7.038   8.630  1.00  0.00     0.053 C 
BRANCH   6   7
ATOM      7  C   UNL     1      -0.716  -5.949   9.026  1.00  0.00     0.041 C 
ATOM      8  O   UNL     1      -1.153  -4.811   9.342  1.00  0.00    -0.550 OA
ATOM      9  O   UNL     1       0.653  -6.182   9.013  1.00  0.00    -0.550 OA
ENDBRANCH   6   7
ENDBRANCH   5   6
ENDBRANCH   4   5
ENDBRANCH   3   4
ENDBRANCH   2   3
ENDBRANCH   1   2
BRANCH   1  10
ATOM     10  C   UNL     1      -3.785  -7.078   3.384  1.00  0.00     0.027 C 
BRANCH  10  11
ATOM     11  C   UNL     1      -5.236  -7.328   3.690  1.00  0.00    -0.031 C 
ATOM     12  C   UNL     1      -6.096  -7.725   2.738  1.00  0.00    -0.031 C 
BRANCH  12  13
ATOM     13  C   UNL     1      -7.550  -7.959   3.038  1.00  0.00     0.027 C 
BRANCH  13  14
ATOM     14  C   UNL     1      -7.951  -7.310   4.368  1.00  0.00     0.004 C 
BRANCH  14  15
ATOM     15  C   UNL     1      -8.773  -8.281   5.228  1.00  0.00     0.000 C 
BRANCH  15  16
ATOM     16  C   UNL     1      -8.257  -8.386   6.674  1.00  0.00    -0.000 C 
BRANCH  16  17
ATOM     17  C   UNL     1      -6.724  -8.352   6.818  1.00  0.00    -0.003 C 
ATOM     18  C   UNL     1      -6.231  -8.998   8.112  1.00  0.00     0.004 C 
ENDBRANCH  16  17
ENDBRANCH  15  16
ENDBRANCH  14  15
ENDBRANCH  13  14
ENDBRANCH  12  13
ENDBRANCH  10  11
ENDBRANCH   1  10
TORSDOF 13
ENDMDL
MODEL 6
REMARK VINA RESULT:    -3.940      2.020      2.792
REMARK INTER + INTRA:          -8.141
REMARK INTER:                  -7.270
REMARK INTRA:                  -0.871
REMARK UNBOUND:                -1.207
REMARK SMILES CCCCCCC=CCCCCCCCC(=O)[O-]
REMARK SMILES IDX 10 1 11 2 12 3 13 4 14 5 15 6 16 7 17 8 18 9 9 10 8 11 7 12
REMARK SMILES IDX 6 13 5 14 4 15 3 16 2 17 1 18
REMARK H PARENT
REMARK Flexibility Score: inf
ROOT
ATOM      1  C   UNL     1      -4.070  -8.005   3.701  1.00  0.00     0.004 C 
ENDROOT
BRANCH   1   2
ATOM      2  C   UNL     1      -2.694  -7.371   3.959  1.00  0.00     0.000 C 
BRANCH   2   3
ATOM      3  C   UNL     1      -1.843  -8.188   4.942  1.00  0.00     0.000 C 
BRANCH   3   4
ATOM      4  C   UNL     1      -2.708  -8.750   6.081  1.00  0.00     0.000 C 
BRANCH   4   5
ATOM      5  C   UNL     1      -1.951  -8.836   7.419  1.00  0.00     0.006 C 
BRANCH   5   6
ATOM      6  C   UNL     1      -0.664  -7.997   7.475  1.00  0.00     0.053 C 
BRANCH   6   7
ATOM      7  C   UNL     1      -0.741  -6.918   8.512  1.00  0.00     0.041 C 
ATOM      8  O   UNL     1      -1.853  -6.588   9.001  1.00  0.00    -0.550 OA
ATOM      9  O   UNL     1       0.412  -6.255   8.912  1.00  0.00    -0.550 OA
ENDBRANCH   6   7
ENDBRANCH   5   6
ENDBRANCH   4   5
ENDBRANCH   3   4
ENDBRANCH   2   3
ENDBRANCH   1   2
BRANCH   1  10
ATOM     10  C   UNL     1      -5.105  -6.990   3.194  1.00  0.00     0.027 C 
BRANCH  10  11
ATOM     11  C   UNL     1      -5.595  -7.359   1.821  1.00  0.00    -0.031 C 
ATOM     12  C   UNL     1      -4.815  -8.020   0.951  1.00  0.00    -0.031 C 
BRANCH  12  13
ATOM     13  C   UNL     1      -5.298  -8.375  -0.428  1.00  0.00     0.027 C 
BRANCH  13  14
ATOM     14  C   UNL     1      -6.318  -7.350  -0.937  1.00  0.00     0.004 C 
BRANCH  14  15
ATOM     15  C   UNL     1      -7.590  -8.045  -1.444  1.00  0.00     0.000 C 
BRANCH  15  16
ATOM     16  C   UNL     1      -8.846  -7.658  -0.642  1.00  0.00    -0.000 C 
BRANCH  16  17
ATOM     17  C   UNL     1      -9.498  -6.328  -1.063  1.00  0.00    -0.003 C 
ATOM     18  C   UNL     1     -10.008  -6.342  -2.503  1.00  0.00     0.004 C 
ENDBRANCH  16  17
ENDBRANCH  15  16
ENDBRANCH  14  15
ENDBRANCH  13  14
ENDBRANCH  12  13
ENDBRANCH  10  11
ENDBRANCH   1  10
TORSDOF 13
ENDMDL
MODEL 7
REMARK VINA RESULT:    -3.893      2.517      4.499
REMARK INTER + INTRA:          -8.058
REMARK INTER:                  -6.771
REMARK INTRA:                  -1.286
REMARK UNBOUND:                -1.207
REMARK SMILES CCCCCCC=CCCCCCCCC(=O)[O-]
REMARK SMILES IDX 10 1 11 2 12 3 13 4 14 5 15 6 16 7 17 8 18 9 9 10 8 11 7 12
REMARK SMILES IDX 6 13 5 14 4 15 3 16 2 17 1 18
REMARK H PARENT
REMARK Flexibility Score: inf
ROOT
ATOM      1  C   UNL     1      -4.966  -6.979   3.351  1.00  0.00     0.004 C 
ENDROOT
BRANCH   1   2
ATOM      2  C   UNL     1      -3.560  -7.598   3.312  1.00  0.00     0.000 C 
BRANCH   2   3
ATOM      3  C   UNL     1      -3.289  -8.523   4.509  1.00  0.00     0.000 C 
BRANCH   3   4
ATOM      4  C   UNL     1      -1.946  -8.181   5.173  1.00  0.00     0.000 C 
BRANCH   4   5
ATOM      5  C   UNL     1      -1.919  -8.523   6.674  1.00  0.00     0.006 C 
BRANCH   5   6
ATOM      6  C   UNL     1      -0.606  -8.155   7.384  1.00  0.00     0.053 C 
BRANCH   6   7
ATOM      7  C   UNL     1      -0.805  -7.082   8.411  1.00  0.00     0.041 C 
ATOM      8  O   UNL     1      -1.960  -6.825   8.843  1.00  0.00    -0.550 OA
ATOM      9  O   UNL     1       0.280  -6.344   8.865  1.00  0.00    -0.550 OA
ENDBRANCH   6   7
ENDBRANCH   5   6
ENDBRANCH   4   5
ENDBRANCH   3   4
ENDBRANCH   2   3
ENDBRANCH   1   2
BRANCH   1  10
ATOM     10  C   UNL     1      -5.868  -7.487   2.217  1.00  0.00     0.027 C 
BRANCH  10  11
ATOM     11  C   UNL     1      -5.050  -8.071   1.097  1.00  0.00    -0.031 C 
ATOM     12  C   UNL     1      -5.285  -7.749  -0.184  1.00  0.00    -0.031 C 
BRANCH  12  13
ATOM     13  C   UNL     1      -4.480  -8.345  -1.306  1.00  0.00     0.027 C 
BRANCH  13  14
ATOM     14  C   UNL     1      -3.661  -7.270  -2.030  1.00  0.00     0.004 C 
BRANCH  14  15
ATOM     15  C   UNL     1      -2.157  -7.569  -1.937  1.00  0.00     0.000 C 
BRANCH  15  16
ATOM     16  C   UNL     1      -1.854  -8.909  -1.243  1.00  0.00    -0.000 C 
BRANCH  16  17
ATOM     17  C   UNL     1      -1.375  -8.789   0.215  1.00  0.00    -0.003 C 
ATOM     18  C   UNL     1      -1.874  -9.928   1.104  1.00  0.00     0.004 C 
ENDBRANCH  16  17
ENDBRANCH  15  16
ENDBRANCH  14  15
ENDBRANCH  13  14
ENDBRANCH  12  13
ENDBRANCH  10  11
ENDBRANCH   1  10
TORSDOF 13
ENDMDL
MODEL 8
REMARK VINA RESULT:    -3.890      3.779      7.451
REMARK INTER + INTRA:          -8.052
REMARK INTER:                  -6.168
REMARK INTRA:                  -1.884
REMARK UNBOUND:                -1.207
REMARK SMILES CCCCCCC=CCCCCCCCC(=O)[O-]
REMARK SMILES IDX 10 1 11 2 12 3 13 4 14 5 15 6 16 7 17 8 18 9 9 10 8 11 7 12
REMARK SMILES IDX 6 13 5 14 4 15 3 16 2 17 1 18
REMARK H PARENT
REMARK Flexibility Score: inf
ROOT
ATOM      1  C   UNL     1      -8.616  -7.033   4.661  1.00  0.00     0.004 C 
ENDROOT
BRANCH   1   2
ATOM      2  C   UNL     1      -9.781  -7.543   3.798  1.00  0.00     0.000 C 
BRANCH   2   3
ATOM      3  C   UNL     1      -9.590  -7.232   2.306  1.00  0.00     0.000 C 
BRANCH   3   4
ATOM      4  C   UNL     1      -8.897  -8.400   1.588  1.00  0.00     0.000 C 
BRANCH   4   5
ATOM      5  C   UNL     1      -8.108  -7.952   0.344  1.00  0.00     0.006 C 
BRANCH   5   6
ATOM      6  C   UNL     1      -6.823  -8.756   0.083  1.00  0.00     0.053 C 
BRANCH   6   7
ATOM      7  C   UNL     1      -5.661  -7.867  -0.240  1.00  0.00     0.041 C 
ATOM      8  O   UNL     1      -5.856  -6.709  -0.694  1.00  0.00    -0.550 OA
ATOM      9  O   UNL     1      -4.363  -8.332  -0.071  1.00  0.00    -0.550 OA
ENDBRANCH   6   7
ENDBRANCH   5   6
ENDBRANCH   4   5
ENDBRANCH   3   4
ENDBRANCH   2   3
ENDBRANCH   1   2
BRANCH   1  10
ATOM     10  C   UNL     1      -7.686  -8.162   5.129  1.00  0.00     0.027 C 
BRANCH  10  11
ATOM     11  C   UNL     1      -6.286  -7.954   4.620  1.00  0.00    -0.031 C 
ATOM     12  C   UNL     1      -6.009  -7.033   3.684  1.00  0.00    -0.031 C 
BRANCH  12  13
ATOM     13  C   UNL     1      -4.613  -6.835   3.162  1.00  0.00     0.027 C 
BRANCH  13  14
ATOM     14  C   UNL     1      -3.769  -8.102   3.349  1.00  0.00     0.004 C 
BRANCH  14  15
ATOM     15  C   UNL     1      -2.395  -7.763   3.948  1.00  0.00     0.000 C 
BRANCH  15  16
ATOM     16  C   UNL     1      -2.238  -8.249   5.400  1.00  0.00    -0.000 C 
BRANCH  16  17
ATOM     17  C   UNL     1      -3.288  -9.279   5.855  1.00  0.00    -0.003 C 
ATOM     18  C   UNL     1      -3.933  -8.923   7.194  1.00  0.00     0.004 C 
ENDBRANCH  16  17
ENDBRANCH  15  16
ENDBRANCH  14  15
ENDBRANCH  13  14
ENDBRANCH  12  13
ENDBRANCH  10  11
ENDBRANCH   1  10
TORSDOF 13
ENDMDL
MODEL 9
REMARK VINA RESULT:    -3.863      3.767      7.477
REMARK INTER + INTRA:          -8.005
REMARK INTER:                  -6.049
REMARK INTRA:                  -1.956
REMARK UNBOUND:                -1.207
REMARK SMILES CCCCCCC=CCCCCCCCC(=O)[O-]
REMARK SMILES IDX 10 1 11 2 12 3 13 4 14 5 15 6 16 7 17 8 18 9 9 10 8 11 7 12
REMARK SMILES IDX 6 13 5 14 4 15 3 16 2 17 1 18
REMARK H PARENT
REMARK Flexibility Score: inf
ROOT
ATOM      1  C   UNL     1      -6.537  -8.197  -0.641  1.00  0.00     0.004 C 
ENDROOT
BRANCH   1   2
ATOM      2  C   UNL     1      -7.777  -7.359  -0.988  1.00  0.00     0.000 C 
BRANCH   2   3
ATOM      3  C   UNL     1      -8.994  -7.717  -0.123  1.00  0.00     0.000 C 
BRANCH   3   4
ATOM      4  C   UNL     1      -8.736  -9.003   0.679  1.00  0.00     0.000 C 
BRANCH   4   5
ATOM      5  C   UNL     1      -9.444  -9.006   2.046  1.00  0.00     0.006 C 
BRANCH   5   6
ATOM      6  C   UNL     1      -8.498  -8.878   3.251  1.00  0.00     0.053 C 
BRANCH   6   7
ATOM      7  C   UNL     1      -8.796  -7.660   4.072  1.00  0.00     0.041 C 
ATOM      8  O   UNL     1      -8.429  -7.602   5.275  1.00  0.00    -0.550 OA
ATOM      9  O   UNL     1      -9.508  -6.605   3.517  1.00  0.00    -0.550 OA
ENDBRANCH   6   7
ENDBRANCH   5   6
ENDBRANCH   4   5
ENDBRANCH   3   4
ENDBRANCH   2   3
ENDBRANCH   1   2
BRANCH   1  10
ATOM     10  C   UNL     1      -5.482  -7.399   0.139  1.00  0.00     0.027 C 
BRANCH  10  11
ATOM     11  C   UNL     1      -5.357  -7.903   1.550  1.00  0.00    -0.031 C 
ATOM     12  C   UNL     1      -5.227  -7.061   2.588  1.00  0.00    -0.031 C 
BRANCH  12  13
ATOM     13  C   UNL     1      -5.086  -7.565   3.997  1.00  0.00     0.027 C 
BRANCH  13  14
ATOM     14  C   UNL     1      -4.108  -8.743   4.068  1.00  0.00     0.004 C 
BRANCH  14  15
ATOM     15  C   UNL     1      -2.673  -8.253   4.313  1.00  0.00     0.000 C 
BRANCH  15  16
ATOM     16  C   UNL     1      -1.846  -8.149   3.019  1.00  0.00    -0.000 C 
BRANCH  16  17
ATOM     17  C   UNL     1      -2.121  -9.255   1.984  1.00  0.00    -0.003 C 
ATOM     18  C   UNL     1      -1.772  -8.838   0.556  1.00  0.00     0.004 C 
ENDBRANCH  16  17
ENDBRANCH  15  16
ENDBRANCH  14  15
ENDBRANCH  13  14
ENDBRANCH  12  13
ENDBRANCH  10  11
ENDBRANCH   1  10
TORSDOF 13
ENDMDL
