MODEL 1
REMARK VINA RESULT:    -6.419      0.000      0.000
REMARK INTER + INTRA:          -8.060
REMARK INTER:                  -7.733
REMARK INTRA:                  -0.327
REMARK UNBOUND:                -0.327
REMARK SMILES Oc1cc(O)c2cc(O)c(-c3ccc(O)c(O)c3)[o+]c2c1.[Cl-]
REMARK SMILES IDX 10 1 19 2 20 3 21 4 2 5 3 6 4 7 6 8 7 9 8 10 11 11 12 12
REMARK SMILES IDX 13 13 14 14 18 15 16 16 15 17 17 19 9 21 1 23 5 25
REMARK H PARENT 15 18 17 20 9 22 1 24 5 26
REMARK Flexibility Score: inf
ROOT
ATOM      1  C   UNL     1      54.412  44.526  22.087  1.00  0.00     0.402 A 
ATOM      2  O   UNL     1      53.962  45.580  22.763  1.00  0.00    -0.202 OA
ATOM      3  C   UNL     1      54.699  46.658  23.009  1.00  0.00     0.368 A 
ATOM      4  C   UNL     1      54.139  47.714  23.732  1.00  0.00     0.162 A 
ATOM      5  C   UNL     1      54.894  48.858  24.009  1.00  0.00     0.128 A 
ATOM      6  C   UNL     1      56.214  48.945  23.562  1.00  0.00     0.093 A 
ATOM      7  C   UNL     1      56.798  47.900  22.835  1.00  0.00     0.136 A 
ATOM      8  C   UNL     1      56.036  46.737  22.550  1.00  0.00     0.125 A 
ATOM      9  C   UNL     1      56.535  45.648  21.818  1.00  0.00     0.078 A 
ATOM     10  C   UNL     1      55.721  44.537  21.572  1.00  0.00     0.223 A 
ENDROOT
BRANCH   1  11
ATOM     11  C   UNL     1      53.495  43.380  21.885  1.00  0.00     0.087 A 
ATOM     12  C   UNL     1      53.622  42.243  22.699  1.00  0.00     0.022 A 
ATOM     13  C   UNL     1      52.783  41.143  22.513  1.00  0.00     0.051 A 
ATOM     14  C   UNL     1      51.814  41.154  21.504  1.00  0.00     0.157 A 
ATOM     15  C   UNL     1      52.535  43.381  20.857  1.00  0.00     0.068 A 
ATOM     16  C   UNL     1      51.692  42.276  20.668  1.00  0.00     0.158 A 
BRANCH  14  17
ATOM     17  O   UNL     1      50.989  40.042  21.345  1.00  0.00    -0.504 OA
ATOM     18  H   UNL     1      51.019  39.254  21.982  1.00  0.00     0.293 HD
ENDBRANCH  14  17
BRANCH  16  19
ATOM     19  O   UNL     1      50.740  42.289  19.650  1.00  0.00    -0.504 OA
ATOM     20  H   UNL     1      50.800  42.937  18.874  1.00  0.00     0.293 HD
ENDBRANCH  16  19
ENDBRANCH   1  11
BRANCH  10  21
ATOM     21  O   UNL     1      56.200  43.476  20.803  1.00  0.00    -0.500 OA
ATOM     22  H   UNL     1      55.857  42.531  20.928  1.00  0.00     0.294 HD
ENDBRANCH  10  21
BRANCH   5  23
ATOM     23  O   UNL     1      54.341  49.915  24.729  1.00  0.00    -0.507 OA
ATOM     24  H   UNL     1      53.721  50.587  24.292  1.00  0.00     0.293 HD
ENDBRANCH   5  23
BRANCH   7  25
ATOM     25  O   UNL     1      58.125  48.064  22.428  1.00  0.00    -0.507 OA
ATOM     26  H   UNL     1      58.469  48.865  21.917  1.00  0.00     0.293 HD
ENDBRANCH   7  25
TORSDOF 6
ENDMDL
MODEL 2
REMARK VINA RESULT:    -6.391      1.539      7.219
REMARK INTER + INTRA:          -8.026
REMARK INTER:                  -7.680
REMARK INTRA:                  -0.345
REMARK UNBOUND:                -0.327
REMARK SMILES Oc1cc(O)c2cc(O)c(-c3ccc(O)c(O)c3)[o+]c2c1.[Cl-]
REMARK SMILES IDX 10 1 19 2 20 3 21 4 2 5 3 6 4 7 6 8 7 9 8 10 11 11 12 12
REMARK SMILES IDX 13 13 14 14 18 15 16 16 15 17 17 19 9 21 1 23 5 25
REMARK H PARENT 15 18 17 20 9 22 1 24 5 26
REMARK Flexibility Score: inf
ROOT
ATOM      1  C   UNL     1      53.628  44.105  21.973  1.00  0.00     0.402 A 
ATOM      2  O   UNL     1      53.749  42.987  22.684  1.00  0.00    -0.202 OA
ATOM      3  C   UNL     1      53.086  41.870  22.407  1.00  0.00     0.368 A 
ATOM      4  C   UNL     1      53.277  40.747  23.215  1.00  0.00     0.162 A 
ATOM      5  C   UNL     1      52.589  39.560  22.947  1.00  0.00     0.128 A 
ATOM      6  C   UNL     1      51.706  39.496  21.868  1.00  0.00     0.093 A 
ATOM      7  C   UNL     1      51.496  40.608  21.043  1.00  0.00     0.136 A 
ATOM      8  C   UNL     1      52.194  41.815  21.309  1.00  0.00     0.125 A 
ATOM      9  C   UNL     1      52.057  42.974  20.528  1.00  0.00     0.078 A 
ATOM     10  C   UNL     1      52.782  44.126  20.849  1.00  0.00     0.223 A 
ENDROOT
BRANCH   1  11
ATOM     11  C   UNL     1      54.415  45.289  22.390  1.00  0.00     0.087 A 
ATOM     12  C   UNL     1      53.819  46.259  23.211  1.00  0.00     0.022 A 
ATOM     13  C   UNL     1      54.536  47.394  23.599  1.00  0.00     0.051 A 
ATOM     14  C   UNL     1      55.850  47.585  23.162  1.00  0.00     0.157 A 
ATOM     15  C   UNL     1      55.730  45.492  21.934  1.00  0.00     0.068 A 
ATOM     16  C   UNL     1      56.450  46.632  22.321  1.00  0.00     0.158 A 
BRANCH  14  17
ATOM     17  O   UNL     1      56.541  48.726  23.568  1.00  0.00    -0.504 OA
ATOM     18  H   UNL     1      57.075  48.753  24.429  1.00  0.00     0.293 HD
ENDBRANCH  14  17
BRANCH  16  19
ATOM     19  O   UNL     1      57.755  46.823  21.869  1.00  0.00    -0.504 OA
ATOM     20  H   UNL     1      58.549  46.753  22.495  1.00  0.00     0.293 HD
ENDBRANCH  16  19
ENDBRANCH   1  11
BRANCH  10  21
ATOM     21  O   UNL     1      52.684  45.261  20.045  1.00  0.00    -0.500 OA
ATOM     22  H   UNL     1      51.844  45.827  20.023  1.00  0.00     0.294 HD
ENDBRANCH  10  21
BRANCH   5  23
ATOM     23  O   UNL     1      52.775  38.435  23.749  1.00  0.00    -0.507 OA
ATOM     24  H   UNL     1      53.467  37.731  23.521  1.00  0.00     0.293 HD
ENDBRANCH   5  23
BRANCH   7  25
ATOM     25  O   UNL     1      50.593  40.463  19.986  1.00  0.00    -0.507 OA
ATOM     26  H   UNL     1      49.631  40.767  20.013  1.00  0.00     0.293 HD
ENDBRANCH   7  25
TORSDOF 6
ENDMDL
MODEL 3
REMARK VINA RESULT:    -6.239      9.174     12.323
REMARK INTER + INTRA:          -7.842
REMARK INTER:                  -7.632
REMARK INTRA:                  -0.210
REMARK UNBOUND:                -0.327
REMARK SMILES Oc1cc(O)c2cc(O)c(-c3ccc(O)c(O)c3)[o+]c2c1.[Cl-]
REMARK SMILES IDX 10 1 19 2 20 3 21 4 2 5 3 6 4 7 6 8 7 9 8 10 11 11 12 12
REMARK SMILES IDX 13 13 14 14 18 15 16 16 15 17 17 19 9 21 1 23 5 25
REMARK H PARENT 15 18 17 20 9 22 1 24 5 26
REMARK Flexibility Score: inf
ROOT
ATOM      1  C   UNL     1      45.272  50.720  22.532  1.00  0.00     0.402 A 
ATOM      2  O   UNL     1      46.386  50.181  22.046  1.00  0.00    -0.202 OA
ATOM      3  C   UNL     1      46.455  48.937  21.585  1.00  0.00     0.368 A 
ATOM      4  C   UNL     1      47.673  48.458  21.097  1.00  0.00     0.162 A 
ATOM      5  C   UNL     1      47.774  47.151  20.610  1.00  0.00     0.128 A 
ATOM      6  C   UNL     1      46.652  46.320  20.612  1.00  0.00     0.093 A 
ATOM      7  C   UNL     1      45.419  46.776  21.096  1.00  0.00     0.136 A 
ATOM      8  C   UNL     1      45.311  48.103  21.590  1.00  0.00     0.125 A 
ATOM      9  C   UNL     1      44.114  48.648  22.081  1.00  0.00     0.078 A 
ATOM     10  C   UNL     1      44.084  49.966  22.547  1.00  0.00     0.223 A 
ENDROOT
BRANCH   1  11
ATOM     11  C   UNL     1      45.325  52.116  23.025  1.00  0.00     0.087 A 
ATOM     12  C   UNL     1      44.649  53.123  22.320  1.00  0.00     0.022 A 
ATOM     13  C   UNL     1      44.702  54.449  22.755  1.00  0.00     0.051 A 
ATOM     14  C   UNL     1      45.443  54.793  23.890  1.00  0.00     0.157 A 
ATOM     15  C   UNL     1      46.087  52.465  24.155  1.00  0.00     0.068 A 
ATOM     16  C   UNL     1      46.143  53.797  24.592  1.00  0.00     0.158 A 
BRANCH  14  17
ATOM     17  O   UNL     1      45.475  56.124  24.302  1.00  0.00    -0.504 OA
ATOM     18  H   UNL     1      44.974  56.446  25.121  1.00  0.00     0.293 HD
ENDBRANCH  14  17
BRANCH  16  19
ATOM     19  O   UNL     1      46.896  54.134  25.716  1.00  0.00    -0.504 OA
ATOM     20  H   UNL     1      47.274  53.425  26.334  1.00  0.00     0.293 HD
ENDBRANCH  16  19
ENDBRANCH   1  11
BRANCH  10  21
ATOM     21  O   UNL     1      42.884  50.524  22.989  1.00  0.00    -0.500 OA
ATOM     22  H   UNL     1      42.038  49.973  23.069  1.00  0.00     0.294 HD
ENDBRANCH  10  21
BRANCH   5  23
ATOM     23  O   UNL     1      48.986  46.668  20.121  1.00  0.00    -0.507 OA
ATOM     24  H   UNL     1      49.272  45.707  20.272  1.00  0.00     0.293 HD
ENDBRANCH   5  23
BRANCH   7  25
ATOM     25  O   UNL     1      44.346  45.881  21.066  1.00  0.00    -0.507 OA
ATOM     26  H   UNL     1      43.457  46.072  20.628  1.00  0.00     0.293 HD
ENDBRANCH   7  25
TORSDOF 6
ENDMDL
MODEL 4
REMARK VINA RESULT:    -6.211      3.235      4.561
REMARK INTER + INTRA:          -7.808
REMARK INTER:                  -7.456
REMARK INTRA:                  -0.352
REMARK UNBOUND:                -0.327
REMARK SMILES Oc1cc(O)c2cc(O)c(-c3ccc(O)c(O)c3)[o+]c2c1.[Cl-]
REMARK SMILES IDX 10 1 19 2 20 3 21 4 2 5 3 6 4 7 6 8 7 9 8 10 11 11 12 12
REMARK SMILES IDX 13 13 14 14 18 15 16 16 15 17 17 19 9 21 1 23 5 25
REMARK H PARENT 15 18 17 20 9 22 1 24 5 26
REMARK Flexibility Score: inf
ROOT
ATOM      1  C   UNL     1      51.790  47.307  22.348  1.00  0.00     0.402 A 
ATOM      2  O   UNL     1      52.916  46.650  22.084  1.00  0.00    -0.202 OA
ATOM      3  C   UNL     1      54.123  47.131  22.359  1.00  0.00     0.368 A 
ATOM      4  C   UNL     1      55.249  46.367  22.040  1.00  0.00     0.162 A 
ATOM      5  C   UNL     1      56.531  46.851  22.315  1.00  0.00     0.128 A 
ATOM      6  C   UNL     1      56.688  48.105  22.909  1.00  0.00     0.093 A 
ATOM      7  C   UNL     1      55.576  48.890  23.238  1.00  0.00     0.136 A 
ATOM      8  C   UNL     1      54.272  48.402  22.963  1.00  0.00     0.125 A 
ATOM      9  C   UNL     1      53.102  49.114  23.270  1.00  0.00     0.078 A 
ATOM     10  C   UNL     1      51.850  48.565  22.974  1.00  0.00     0.223 A 
ENDROOT
BRANCH   1  11
ATOM     11  C   UNL     1      50.504  46.667  21.986  1.00  0.00     0.087 A 
ATOM     12  C   UNL     1      49.920  45.743  22.867  1.00  0.00     0.022 A 
ATOM     13  C   UNL     1      48.718  45.113  22.536  1.00  0.00     0.051 A 
ATOM     14  C   UNL     1      48.089  45.383  21.317  1.00  0.00     0.157 A 
ATOM     15  C   UNL     1      49.881  46.922  20.751  1.00  0.00     0.068 A 
ATOM     16  C   UNL     1      48.675  46.288  20.417  1.00  0.00     0.158 A 
BRANCH  14  17
ATOM     17  O   UNL     1      46.889  44.740  21.016  1.00  0.00    -0.504 OA
ATOM     18  H   UNL     1      46.244  44.441  21.738  1.00  0.00     0.293 HD
ENDBRANCH  14  17
BRANCH  16  19
ATOM     19  O   UNL     1      48.061  46.552  19.193  1.00  0.00    -0.504 OA
ATOM     20  H   UNL     1      48.464  47.198  18.525  1.00  0.00     0.293 HD
ENDBRANCH  16  19
ENDBRANCH   1  11
BRANCH  10  21
ATOM     21  O   UNL     1      50.685  49.250  23.323  1.00  0.00    -0.500 OA
ATOM     22  H   UNL     1      49.961  48.817  23.885  1.00  0.00     0.294 HD
ENDBRANCH  10  21
BRANCH   5  23
ATOM     23  O   UNL     1      57.658  46.094  22.000  1.00  0.00    -0.507 OA
ATOM     24  H   UNL     1      58.136  45.539  22.701  1.00  0.00     0.293 HD
ENDBRANCH   5  23
BRANCH   7  25
ATOM     25  O   UNL     1      55.820  50.134  23.827  1.00  0.00    -0.507 OA
ATOM     26  H   UNL     1      55.432  50.432  24.710  1.00  0.00     0.293 HD
ENDBRANCH   7  25
TORSDOF 6
ENDMDL
MODEL 5
REMARK VINA RESULT:    -6.162      2.871      3.347
REMARK INTER + INTRA:          -7.749
REMARK INTER:                  -7.512
REMARK INTRA:                  -0.238
REMARK UNBOUND:                -0.327
REMARK SMILES Oc1cc(O)c2cc(O)c(-c3ccc(O)c(O)c3)[o+]c2c1.[Cl-]
REMARK SMILES IDX 10 1 19 2 20 3 21 4 2 5 3 6 4 7 6 8 7 9 8 10 11 11 12 12
REMARK SMILES IDX 13 13 14 14 18 15 16 16 15 17 17 19 9 21 1 23 5 25
REMARK H PARENT 15 18 17 20 9 22 1 24 5 26
REMARK Flexibility Score: inf
ROOT
ATOM      1  C   UNL     1      52.253  45.815  21.772  1.00  0.00     0.402 A 
ATOM      2  O   UNL     1      52.624  46.973  22.312  1.00  0.00    -0.202 OA
ATOM      3  C   UNL     1      53.892  47.309  22.519  1.00  0.00     0.368 A 
ATOM      4  C   UNL     1      54.182  48.548  23.096  1.00  0.00     0.162 A 
ATOM      5  C   UNL     1      55.508  48.924  23.329  1.00  0.00     0.128 A 
ATOM      6  C   UNL     1      56.548  48.059  22.984  1.00  0.00     0.093 A 
ATOM      7  C   UNL     1      56.283  46.811  22.405  1.00  0.00     0.136 A 
ATOM      8  C   UNL     1      54.939  46.425  22.164  1.00  0.00     0.125 A 
ATOM      9  C   UNL     1      54.582  45.200  21.577  1.00  0.00     0.078 A 
ATOM     10  C   UNL     1      53.234  44.892  21.366  1.00  0.00     0.223 A 
ENDROOT
BRANCH   1  11
ATOM     11  C   UNL     1      50.805  45.553  21.601  1.00  0.00     0.087 A 
ATOM     12  C   UNL     1      50.194  44.538  22.353  1.00  0.00     0.022 A 
ATOM     13  C   UNL     1      48.834  44.260  22.193  1.00  0.00     0.051 A 
ATOM     14  C   UNL     1      48.068  44.979  21.271  1.00  0.00     0.157 A 
ATOM     15  C   UNL     1      50.039  46.261  20.659  1.00  0.00     0.068 A 
ATOM     16  C   UNL     1      48.674  45.982  20.496  1.00  0.00     0.158 A 
BRANCH  14  17
ATOM     17  O   UNL     1      46.714  44.681  21.136  1.00  0.00    -0.504 OA
ATOM     18  H   UNL     1      46.065  44.759  21.911  1.00  0.00     0.293 HD
ENDBRANCH  14  17
BRANCH  16  19
ATOM     19  O   UNL     1      47.920  46.694  19.563  1.00  0.00    -0.504 OA
ATOM     20  H   UNL     1      47.049  46.330  19.195  1.00  0.00     0.293 HD
ENDBRANCH  16  19
ENDBRANCH   1  11
BRANCH  10  21
ATOM     21  O   UNL     1      52.880  43.698  20.737  1.00  0.00    -0.500 OA
ATOM     22  H   UNL     1      52.502  43.682  19.798  1.00  0.00     0.294 HD
ENDBRANCH  10  21
BRANCH   5  23
ATOM     23  O   UNL     1      55.805  50.159  23.904  1.00  0.00    -0.507 OA
ATOM     24  H   UNL     1      55.937  50.989  23.337  1.00  0.00     0.293 HD
ENDBRANCH   5  23
BRANCH   7  25
ATOM     25  O   UNL     1      57.380  46.002  22.092  1.00  0.00    -0.507 OA
ATOM     26  H   UNL     1      58.151  46.289  21.506  1.00  0.00     0.293 HD
ENDBRANCH   7  25
TORSDOF 6
ENDMDL
MODEL 6
REMARK VINA RESULT:    -6.151      2.601      7.061
REMARK INTER + INTRA:          -7.736
REMARK INTER:                  -7.608
REMARK INTRA:                  -0.128
REMARK UNBOUND:                -0.327
REMARK SMILES Oc1cc(O)c2cc(O)c(-c3ccc(O)c(O)c3)[o+]c2c1.[Cl-]
REMARK SMILES IDX 10 1 19 2 20 3 21 4 2 5 3 6 4 7 6 8 7 9 8 10 11 11 12 12
REMARK SMILES IDX 13 13 14 14 18 15 16 16 15 17 17 19 9 21 1 23 5 25
REMARK H PARENT 15 18 17 20 9 22 1 24 5 26
REMARK Flexibility Score: inf
ROOT
ATOM      1  C   UNL     1      53.845  48.527  23.855  1.00  0.00     0.402 A 
ATOM      2  O   UNL     1      53.466  47.298  23.516  1.00  0.00    -0.202 OA
ATOM      3  C   UNL     1      54.251  46.446  22.865  1.00  0.00     0.368 A 
ATOM      4  C   UNL     1      53.761  45.176  22.549  1.00  0.00     0.162 A 
ATOM      5  C   UNL     1      54.565  44.262  21.861  1.00  0.00     0.128 A 
ATOM      6  C   UNL     1      55.862  44.619  21.487  1.00  0.00     0.093 A 
ATOM      7  C   UNL     1      56.375  45.886  21.791  1.00  0.00     0.136 A 
ATOM      8  C   UNL     1      55.565  46.817  22.491  1.00  0.00     0.125 A 
ATOM      9  C   UNL     1      56.001  48.103  22.850  1.00  0.00     0.078 A 
ATOM     10  C   UNL     1      55.146  48.964  23.545  1.00  0.00     0.223 A 
ENDROOT
BRANCH   1  11
ATOM     11  C   UNL     1      52.874  49.387  24.572  1.00  0.00     0.087 A 
ATOM     12  C   UNL     1      51.669  49.738  23.945  1.00  0.00     0.022 A 
ATOM     13  C   UNL     1      50.748  50.564  24.594  1.00  0.00     0.051 A 
ATOM     14  C   UNL     1      51.022  51.063  25.871  1.00  0.00     0.157 A 
ATOM     15  C   UNL     1      53.158  49.906  25.847  1.00  0.00     0.068 A 
ATOM     16  C   UNL     1      52.236  50.737  26.500  1.00  0.00     0.158 A 
BRANCH  14  17
ATOM     17  O   UNL     1      50.083  51.883  26.494  1.00  0.00    -0.504 OA
ATOM     18  H   UNL     1      49.828  51.765  27.468  1.00  0.00     0.293 HD
ENDBRANCH  14  17
BRANCH  16  19
ATOM     19  O   UNL     1      52.523  51.243  27.767  1.00  0.00    -0.504 OA
ATOM     20  H   UNL     1      51.810  51.678  28.340  1.00  0.00     0.293 HD
ENDBRANCH  16  19
ENDBRANCH   1  11
BRANCH  10  21
ATOM     21  O   UNL     1      55.595  50.223  23.945  1.00  0.00    -0.500 OA
ATOM     22  H   UNL     1      56.493  50.587  23.650  1.00  0.00     0.294 HD
ENDBRANCH  10  21
BRANCH   5  23
ATOM     23  O   UNL     1      54.083  42.993  21.543  1.00  0.00    -0.507 OA
ATOM     24  H   UNL     1      54.679  42.174  21.588  1.00  0.00     0.293 HD
ENDBRANCH   5  23
BRANCH   7  25
ATOM     25  O   UNL     1      57.681  46.166  21.378  1.00  0.00    -0.507 OA
ATOM     26  H   UNL     1      58.483  45.595  21.599  1.00  0.00     0.293 HD
ENDBRANCH   7  25
TORSDOF 6
ENDMDL
MODEL 7
REMARK VINA RESULT:    -6.140      2.614      4.754
REMARK INTER + INTRA:          -7.722
REMARK INTER:                  -7.440
REMARK INTRA:                  -0.282
REMARK UNBOUND:                -0.327
REMARK SMILES Oc1cc(O)c2cc(O)c(-c3ccc(O)c(O)c3)[o+]c2c1.[Cl-]
REMARK SMILES IDX 10 1 19 2 20 3 21 4 2 5 3 6 4 7 6 8 7 9 8 10 11 11 12 12
REMARK SMILES IDX 13 13 14 14 18 15 16 16 15 17 17 19 9 21 1 23 5 25
REMARK H PARENT 15 18 17 20 9 22 1 24 5 26
REMARK Flexibility Score: inf
ROOT
ATOM      1  C   UNL     1      52.651  41.223  22.222  1.00  0.00     0.402 A 
ATOM      2  O   UNL     1      53.732  41.831  22.703  1.00  0.00    -0.202 OA
ATOM      3  C   UNL     1      54.101  43.055  22.345  1.00  0.00     0.368 A 
ATOM      4  C   UNL     1      55.256  43.608  22.903  1.00  0.00     0.162 A 
ATOM      5  C   UNL     1      55.670  44.893  22.540  1.00  0.00     0.128 A 
ATOM      6  C   UNL     1      54.926  45.628  21.615  1.00  0.00     0.093 A 
ATOM      7  C   UNL     1      53.765  45.095  21.040  1.00  0.00     0.136 A 
ATOM      8  C   UNL     1      53.340  43.792  21.406  1.00  0.00     0.125 A 
ATOM      9  C   UNL     1      52.183  43.185  20.892  1.00  0.00     0.078 A 
ATOM     10  C   UNL     1      51.824  41.898  21.305  1.00  0.00     0.223 A 
ENDROOT
BRANCH   1  11
ATOM     11  C   UNL     1      52.349  39.852  22.693  1.00  0.00     0.087 A 
ATOM     12  C   UNL     1      52.540  38.765  21.825  1.00  0.00     0.022 A 
ATOM     13  C   UNL     1      52.242  37.466  22.241  1.00  0.00     0.051 A 
ATOM     14  C   UNL     1      51.737  37.231  23.524  1.00  0.00     0.157 A 
ATOM     15  C   UNL     1      51.821  39.617  23.975  1.00  0.00     0.068 A 
ATOM     16  C   UNL     1      51.520  38.312  24.394  1.00  0.00     0.158 A 
BRANCH  14  17
ATOM     17  O   UNL     1      51.452  35.923  23.912  1.00  0.00    -0.504 OA
ATOM     18  H   UNL     1      50.521  35.636  24.191  1.00  0.00     0.293 HD
ENDBRANCH  14  17
BRANCH  16  19
ATOM     19  O   UNL     1      51.002  38.089  25.669  1.00  0.00    -0.504 OA
ATOM     20  H   UNL     1      51.415  37.412  26.299  1.00  0.00     0.293 HD
ENDBRANCH  16  19
ENDBRANCH   1  11
BRANCH  10  21
ATOM     21  O   UNL     1      50.649  41.314  20.832  1.00  0.00    -0.500 OA
ATOM     22  H   UNL     1      49.896  41.870  20.444  1.00  0.00     0.294 HD
ENDBRANCH  10  21
BRANCH   5  23
ATOM     23  O   UNL     1      56.821  45.451  23.094  1.00  0.00    -0.507 OA
ATOM     24  H   UNL     1      57.475  44.892  23.629  1.00  0.00     0.293 HD
ENDBRANCH   5  23
BRANCH   7  25
ATOM     25  O   UNL     1      53.081  45.894  20.119  1.00  0.00    -0.507 OA
ATOM     26  H   UNL     1      53.476  46.233  19.254  1.00  0.00     0.293 HD
ENDBRANCH   7  25
TORSDOF 6
ENDMDL
MODEL 8
REMARK VINA RESULT:    -6.128      1.326      7.053
REMARK INTER + INTRA:          -7.709
REMARK INTER:                  -7.402
REMARK INTRA:                  -0.307
REMARK UNBOUND:                -0.327
REMARK SMILES Oc1cc(O)c2cc(O)c(-c3ccc(O)c(O)c3)[o+]c2c1.[Cl-]
REMARK SMILES IDX 10 1 19 2 20 3 21 4 2 5 3 6 4 7 6 8 7 9 8 10 11 11 12 12
REMARK SMILES IDX 13 13 14 14 18 15 16 16 15 17 17 19 9 21 1 23 5 25
REMARK H PARENT 15 18 17 20 9 22 1 24 5 26
REMARK Flexibility Score: inf
ROOT
ATOM      1  C   UNL     1      54.280  44.670  23.140  1.00  0.00     0.402 A 
ATOM      2  O   UNL     1      53.444  44.383  22.146  1.00  0.00    -0.202 OA
ATOM      3  C   UNL     1      53.005  43.154  21.893  1.00  0.00     0.368 A 
ATOM      4  C   UNL     1      52.131  42.952  20.823  1.00  0.00     0.162 A 
ATOM      5  C   UNL     1      51.658  41.668  20.533  1.00  0.00     0.128 A 
ATOM      6  C   UNL     1      52.061  40.585  21.315  1.00  0.00     0.093 A 
ATOM      7  C   UNL     1      52.937  40.762  22.394  1.00  0.00     0.136 A 
ATOM      8  C   UNL     1      53.419  42.063  22.694  1.00  0.00     0.125 A 
ATOM      9  C   UNL     1      54.288  42.335  23.762  1.00  0.00     0.078 A 
ATOM     10  C   UNL     1      54.717  43.645  23.999  1.00  0.00     0.223 A 
ENDROOT
BRANCH   1  11
ATOM     11  C   UNL     1      54.704  46.079  23.314  1.00  0.00     0.087 A 
ATOM     12  C   UNL     1      53.785  47.021  23.801  1.00  0.00     0.022 A 
ATOM     13  C   UNL     1      54.157  48.359  23.954  1.00  0.00     0.051 A 
ATOM     14  C   UNL     1      55.446  48.779  23.610  1.00  0.00     0.157 A 
ATOM     15  C   UNL     1      55.993  46.507  22.948  1.00  0.00     0.068 A 
ATOM     16  C   UNL     1      56.368  47.850  23.099  1.00  0.00     0.158 A 
BRANCH  14  17
ATOM     17  O   UNL     1      55.788  50.120  23.775  1.00  0.00    -0.504 OA
ATOM     18  H   UNL     1      56.752  50.435  23.762  1.00  0.00     0.293 HD
ENDBRANCH  14  17
BRANCH  16  19
ATOM     19  O   UNL     1      57.649  48.264  22.739  1.00  0.00    -0.504 OA
ATOM     20  H   UNL     1      57.894  49.245  22.680  1.00  0.00     0.293 HD
ENDBRANCH  16  19
ENDBRANCH   1  11
BRANCH  10  21
ATOM     21  O   UNL     1      55.541  43.925  25.090  1.00  0.00    -0.500 OA
ATOM     22  H   UNL     1      55.276  43.676  26.036  1.00  0.00     0.294 HD
ENDBRANCH  10  21
BRANCH   5  23
ATOM     23  O   UNL     1      50.785  41.459  19.466  1.00  0.00    -0.507 OA
ATOM     24  H   UNL     1      49.842  41.830  19.473  1.00  0.00     0.293 HD
ENDBRANCH   5  23
BRANCH   7  25
ATOM     25  O   UNL     1      53.294  39.626  23.124  1.00  0.00    -0.507 OA
ATOM     26  H   UNL     1      53.562  38.744  22.712  1.00  0.00     0.293 HD
ENDBRANCH   7  25
TORSDOF 6
ENDMDL
MODEL 9
REMARK VINA RESULT:    -6.128      8.593     10.117
REMARK INTER + INTRA:          -7.708
REMARK INTER:                  -7.360
REMARK INTRA:                  -0.348
REMARK UNBOUND:                -0.327
REMARK SMILES Oc1cc(O)c2cc(O)c(-c3ccc(O)c(O)c3)[o+]c2c1.[Cl-]
REMARK SMILES IDX 10 1 19 2 20 3 21 4 2 5 3 6 4 7 6 8 7 9 8 10 11 11 12 12
REMARK SMILES IDX 13 13 14 14 18 15 16 16 15 17 17 19 9 21 1 23 5 25
REMARK H PARENT 15 18 17 20 9 22 1 24 5 26
REMARK Flexibility Score: inf
ROOT
ATOM      1  C   UNL     1      45.898  49.908  22.675  1.00  0.00     0.402 A 
ATOM      2  O   UNL     1      46.647  50.464  23.624  1.00  0.00    -0.202 OA
ATOM      3  C   UNL     1      46.460  51.701  24.071  1.00  0.00     0.368 A 
ATOM      4  C   UNL     1      47.301  52.198  25.069  1.00  0.00     0.162 A 
ATOM      5  C   UNL     1      47.129  53.498  25.554  1.00  0.00     0.128 A 
ATOM      6  C   UNL     1      46.111  54.304  25.038  1.00  0.00     0.093 A 
ATOM      7  C   UNL     1      45.255  53.828  24.037  1.00  0.00     0.136 A 
ATOM      8  C   UNL     1      45.424  52.509  23.542  1.00  0.00     0.125 A 
ATOM      9  C   UNL     1      44.605  51.946  22.551  1.00  0.00     0.078 A 
ATOM     10  C   UNL     1      44.831  50.635  22.117  1.00  0.00     0.223 A 
ENDROOT
BRANCH   1  11
ATOM     11  C   UNL     1      46.213  48.523  22.256  1.00  0.00     0.087 A 
ATOM     12  C   UNL     1      45.767  47.447  23.039  1.00  0.00     0.022 A 
ATOM     13  C   UNL     1      46.069  46.133  22.674  1.00  0.00     0.051 A 
ATOM     14  C   UNL     1      46.832  45.873  21.531  1.00  0.00     0.157 A 
ATOM     15  C   UNL     1      46.997  48.262  21.119  1.00  0.00     0.068 A 
ATOM     16  C   UNL     1      47.304  46.943  20.751  1.00  0.00     0.158 A 
BRANCH  14  17
ATOM     17  O   UNL     1      47.115  44.552  21.191  1.00  0.00    -0.504 OA
ATOM     18  H   UNL     1      46.434  43.810  21.302  1.00  0.00     0.293 HD
ENDBRANCH  14  17
BRANCH  16  19
ATOM     19  O   UNL     1      48.078  46.693  19.619  1.00  0.00    -0.504 OA
ATOM     20  H   UNL     1      48.683  47.402  19.222  1.00  0.00     0.293 HD
ENDBRANCH  16  19
ENDBRANCH   1  11
BRANCH  10  21
ATOM     21  O   UNL     1      43.987  50.058  21.168  1.00  0.00    -0.500 OA
ATOM     22  H   UNL     1      43.063  49.721  21.412  1.00  0.00     0.294 HD
ENDBRANCH  10  21
BRANCH   5  23
ATOM     23  O   UNL     1      47.964  54.001  26.550  1.00  0.00    -0.507 OA
ATOM     24  H   UNL     1      47.591  54.470  27.367  1.00  0.00     0.293 HD
ENDBRANCH   5  23
BRANCH   7  25
ATOM     25  O   UNL     1      44.265  54.699  23.572  1.00  0.00    -0.507 OA
ATOM     26  H   UNL     1      43.558  55.121  24.156  1.00  0.00     0.293 HD
ENDBRANCH   7  25
TORSDOF 6
ENDMDL
