MODEL 1
REMARK VINA RESULT:    -2.940      0.000      0.000
REMARK INTER + INTRA:          -3.329
REMARK INTER:                  -3.284
REMARK INTRA:                  -0.045
REMARK UNBOUND:                -0.045
REMARK SMILES CCCC(=O)[O-]
REMARK SMILES IDX 3 1 4 2 5 3 6 4 2 5 1 6
REMARK H PARENT
REMARK Flexibility Score: inf
ROOT
ATOM      1  C   UNL     1      29.790  -1.228  45.911  1.00  0.00     0.052 C 
ENDROOT
BRANCH   1   2
ATOM      2  C   UNL     1      30.524  -1.947  44.821  1.00  0.00     0.041 C 
ATOM      3  O   UNL     1      30.448  -1.540  43.632  1.00  0.00    -0.550 OA
ATOM      4  O   UNL     1      31.264  -3.085  45.113  1.00  0.00    -0.550 OA
ENDBRANCH   1   2
BRANCH   1   5
ATOM      5  C   UNL     1      28.281  -1.166  45.636  1.00  0.00     0.003 C 
ATOM      6  C   UNL     1      27.538  -2.380  46.192  1.00  0.00     0.004 C 
ENDBRANCH   1   5
TORSDOF 2
ENDMDL
MODEL 2
REMARK VINA RESULT:    -2.924      2.096      3.066
REMARK INTER + INTRA:          -3.310
REMARK INTER:                  -3.314
REMARK INTRA:                   0.004
REMARK UNBOUND:                -0.045
REMARK SMILES CCCC(=O)[O-]
REMARK SMILES IDX 3 1 4 2 5 3 6 4 2 5 1 6
REMARK H PARENT
REMARK Flexibility Score: inf
ROOT
ATOM      1  C   UNL     1      28.439  -1.747  45.628  1.00  0.00     0.052 C 
ENDROOT
BRANCH   1   2
ATOM      2  C   UNL     1      28.279  -3.174  46.054  1.00  0.00     0.041 C 
ATOM      3  O   UNL     1      27.572  -3.460  47.056  1.00  0.00    -0.550 OA
ATOM      4  O   UNL     1      28.939  -4.183  45.366  1.00  0.00    -0.550 OA
ENDBRANCH   1   2
BRANCH   1   5
ATOM      5  C   UNL     1      29.765  -1.151  46.118  1.00  0.00     0.003 C 
ATOM      6  C   UNL     1      30.923  -1.449  45.167  1.00  0.00     0.004 C 
ENDBRANCH   1   5
TORSDOF 2
ENDMDL
MODEL 3
REMARK VINA RESULT:    -2.922      2.127      2.795
REMARK INTER + INTRA:          -3.309
REMARK INTER:                  -3.271
REMARK INTRA:                  -0.037
REMARK UNBOUND:                -0.045
REMARK SMILES CCCC(=O)[O-]
REMARK SMILES IDX 3 1 4 2 5 3 6 4 2 5 1 6
REMARK H PARENT
REMARK Flexibility Score: inf
ROOT
ATOM      1  C   UNL     1      29.736  -1.672  45.960  1.00  0.00     0.052 C 
ENDROOT
BRANCH   1   2
ATOM      2  C   UNL     1      28.490  -1.151  45.312  1.00  0.00     0.041 C 
ATOM      3  O   UNL     1      27.488  -0.855  46.013  1.00  0.00    -0.550 OA
ATOM      4  O   UNL     1      28.425  -1.026  43.930  1.00  0.00    -0.550 OA
ENDBRANCH   1   2
BRANCH   1   5
ATOM      5  C   UNL     1      30.196  -2.994  45.331  1.00  0.00     0.003 C 
ATOM      6  C   UNL     1      29.098  -4.057  45.342  1.00  0.00     0.004 C 
ENDBRANCH   1   5
TORSDOF 2
ENDMDL
MODEL 4
REMARK VINA RESULT:    -2.883      1.642      2.046
REMARK INTER + INTRA:          -3.265
REMARK INTER:                  -3.249
REMARK INTRA:                  -0.016
REMARK UNBOUND:                -0.045
REMARK SMILES CCCC(=O)[O-]
REMARK SMILES IDX 3 1 4 2 5 3 6 4 2 5 1 6
REMARK H PARENT
REMARK Flexibility Score: inf
ROOT
ATOM      1  C   UNL     1      28.540  -3.059  46.018  1.00  0.00     0.052 C 
ENDROOT
BRANCH   1   2
ATOM      2  C   UNL     1      29.552  -1.955  45.994  1.00  0.00     0.041 C 
ATOM      3  O   UNL     1      29.180  -0.753  46.048  1.00  0.00    -0.550 OA
ATOM      4  O   UNL     1      30.904  -2.252  45.879  1.00  0.00    -0.550 OA
ENDBRANCH   1   2
BRANCH   1   5
ATOM      5  C   UNL     1      27.198  -2.590  46.597  1.00  0.00     0.003 C 
ATOM      6  C   UNL     1      26.646  -3.557  47.643  1.00  0.00     0.004 C 
ENDBRANCH   1   5
TORSDOF 2
ENDMDL
MODEL 5
REMARK VINA RESULT:    -2.754      1.353      1.893
REMARK INTER + INTRA:          -3.120
REMARK INTER:                  -3.076
REMARK INTRA:                  -0.045
REMARK UNBOUND:                -0.045
REMARK SMILES CCCC(=O)[O-]
REMARK SMILES IDX 3 1 4 2 5 3 6 4 2 5 1 6
REMARK H PARENT
REMARK Flexibility Score: inf
ROOT
ATOM      1  C   UNL     1      29.760  -1.716  45.852  1.00  0.00     0.052 C 
ENDROOT
BRANCH   1   2
ATOM      2  C   UNL     1      29.970  -1.499  44.385  1.00  0.00     0.041 C 
ATOM      3  O   UNL     1      31.130  -1.552  43.897  1.00  0.00    -0.550 OA
ATOM      4  O   UNL     1      28.890  -1.206  43.563  1.00  0.00    -0.550 OA
ENDBRANCH   1   2
BRANCH   1   5
ATOM      5  C   UNL     1      28.671  -2.763  46.122  1.00  0.00     0.003 C 
ATOM      6  C   UNL     1      28.954  -4.091  45.422  1.00  0.00     0.004 C 
ENDBRANCH   1   5
TORSDOF 2
ENDMDL
MODEL 6
REMARK VINA RESULT:    -2.656      2.445      3.062
REMARK INTER + INTRA:          -3.011
REMARK INTER:                  -2.943
REMARK INTRA:                  -0.068
REMARK UNBOUND:                -0.045
REMARK SMILES CCCC(=O)[O-]
REMARK SMILES IDX 3 1 4 2 5 3 6 4 2 5 1 6
REMARK H PARENT
REMARK Flexibility Score: inf
ROOT
ATOM      1  C   UNL     1      29.360  -1.542  45.596  1.00  0.00     0.052 C 
ENDROOT
BRANCH   1   2
ATOM      2  C   UNL     1      28.345  -2.596  45.915  1.00  0.00     0.041 C 
ATOM      3  O   UNL     1      28.609  -3.810  45.713  1.00  0.00    -0.550 OA
ATOM      4  O   UNL     1      27.096  -2.235  46.403  1.00  0.00    -0.550 OA
ENDBRANCH   1   2
BRANCH   1   5
ATOM      5  C   UNL     1      29.849  -1.642  44.145  1.00  0.00     0.003 C 
ATOM      6  C   UNL     1      28.754  -1.298  43.137  1.00  0.00     0.004 C 
ENDBRANCH   1   5
TORSDOF 2
ENDMDL
MODEL 7
REMARK VINA RESULT:    -2.640     12.280     13.264
REMARK INTER + INTRA:          -2.994
REMARK INTER:                  -2.956
REMARK INTRA:                  -0.037
REMARK UNBOUND:                -0.045
REMARK SMILES CCCC(=O)[O-]
REMARK SMILES IDX 3 1 4 2 5 3 6 4 2 5 1 6
REMARK H PARENT
REMARK Flexibility Score: inf
ROOT
ATOM      1  C   UNL     1      22.796 -12.717  44.137  1.00  0.00     0.052 C 
ENDROOT
BRANCH   1   2
ATOM      2  C   UNL     1      22.200 -11.524  44.820  1.00  0.00     0.041 C 
ATOM      3  O   UNL     1      21.814 -11.607  46.016  1.00  0.00    -0.550 OA
ATOM      4  O   UNL     1      22.040 -10.332  44.126  1.00  0.00    -0.550 OA
ENDBRANCH   1   2
BRANCH   1   5
ATOM      5  C   UNL     1      21.778 -13.423  43.233  1.00  0.00     0.003 C 
ATOM      6  C   UNL     1      20.808 -14.300  44.022  1.00  0.00     0.004 C 
ENDBRANCH   1   5
TORSDOF 2
ENDMDL
MODEL 8
REMARK VINA RESULT:    -2.632      6.590      8.012
REMARK INTER + INTRA:          -2.984
REMARK INTER:                  -2.948
REMARK INTRA:                  -0.036
REMARK UNBOUND:                -0.045
REMARK SMILES CCCC(=O)[O-]
REMARK SMILES IDX 3 1 4 2 5 3 6 4 2 5 1 6
REMARK H PARENT
REMARK Flexibility Score: inf
ROOT
ATOM      1  C   UNL     1      37.068  -4.117  43.816  1.00  0.00     0.052 C 
ENDROOT
BRANCH   1   2
ATOM      2  C   UNL     1      35.651  -3.811  43.443  1.00  0.00     0.041 C 
ATOM      3  O   UNL     1      35.399  -2.935  42.574  1.00  0.00    -0.550 OA
ATOM      4  O   UNL     1      34.606  -4.470  44.078  1.00  0.00    -0.550 OA
ENDBRANCH   1   2
BRANCH   1   5
ATOM      5  C   UNL     1      38.066  -3.450  42.860  1.00  0.00     0.003 C 
ATOM      6  C   UNL     1      38.959  -2.432  43.567  1.00  0.00     0.004 C 
ENDBRANCH   1   5
TORSDOF 2
ENDMDL
MODEL 9
REMARK VINA RESULT:    -2.524      2.056      2.799
REMARK INTER + INTRA:          -2.864
REMARK INTER:                  -2.829
REMARK INTRA:                  -0.035
REMARK UNBOUND:                -0.045
REMARK SMILES CCCC(=O)[O-]
REMARK SMILES IDX 3 1 4 2 5 3 6 4 2 5 1 6
REMARK H PARENT
REMARK Flexibility Score: inf
ROOT
ATOM      1  C   UNL     1      28.591  -1.996  43.961  1.00  0.00     0.052 C 
ENDROOT
BRANCH   1   2
ATOM      2  C   UNL     1      28.874  -1.115  42.784  1.00  0.00     0.041 C 
ATOM      3  O   UNL     1      27.965  -0.389  42.302  1.00  0.00    -0.550 OA
ATOM      4  O   UNL     1      30.133  -1.120  42.197  1.00  0.00    -0.550 OA
ENDBRANCH   1   2
BRANCH   1   5
ATOM      5  C   UNL     1      29.832  -2.183  44.844  1.00  0.00     0.003 C 
ATOM      6  C   UNL     1      29.842  -1.234  46.042  1.00  0.00     0.004 C 
ENDBRANCH   1   5
TORSDOF 2
ENDMDL
