MODEL 1
REMARK VINA RESULT:    -4.524      0.000      0.000
REMARK INTER + INTRA:          -4.524
REMARK INTER:                  -4.524
REMARK INTRA:                   0.000
REMARK UNBOUND:                 0.000
REMARK SMILES CC1=CC(=O)[C@H]2C[C@@H]1C2(C)C
REMARK SMILES IDX 1 1 2 2 3 3 4 4 5 5 6 6 7 7 8 8 9 9 10 10 11 11
REMARK H PARENT
REMARK Flexibility Score: inf
ROOT
ATOM      1  C   UNL     1       9.340  18.780  16.243  1.00  0.00     0.040 C 
ATOM      2  C   UNL     1      10.685  19.384  16.498  1.00  0.00    -0.066 C 
ATOM      3  C   UNL     1      11.031  20.592  15.971  1.00  0.00     0.047 C 
ATOM      4  C   UNL     1      12.417  21.074  16.273  1.00  0.00     0.159 C 
ATOM      5  O   UNL     1      12.867  22.155  15.813  1.00  0.00    -0.295 OA
ATOM      6  C   UNL     1      13.245  20.161  17.178  1.00  0.00     0.067 C 
ATOM      7  C   UNL     1      12.278  19.782  18.320  1.00  0.00     0.021 C 
ATOM      8  C   UNL     1      11.738  18.680  17.380  1.00  0.00     0.022 C 
ATOM      9  C   UNL     1      13.117  18.701  16.657  1.00  0.00    -0.019 C 
ATOM     10  C   UNL     1      14.143  17.747  17.319  1.00  0.00     0.012 C 
ATOM     11  C   UNL     1      13.145  18.457  15.122  1.00  0.00     0.012 C 
ENDROOT
TORSDOF 0
ENDMDL
MODEL 2
REMARK VINA RESULT:    -4.480      1.917      3.656
REMARK INTER + INTRA:          -4.480
REMARK INTER:                  -4.480
REMARK INTRA:                   0.000
REMARK UNBOUND:                 0.000
REMARK SMILES CC1=CC(=O)[C@H]2C[C@@H]1C2(C)C
REMARK SMILES IDX 1 1 2 2 3 3 4 4 5 5 6 6 7 7 8 8 9 9 10 10 11 11
REMARK H PARENT
REMARK Flexibility Score: inf
ROOT
ATOM      1  C   UNL     1      15.490  18.751  18.400  1.00  0.00     0.040 C 
ATOM      2  C   UNL     1      14.259  18.798  17.551  1.00  0.00    -0.066 C 
ATOM      3  C   UNL     1      14.041  17.881  16.567  1.00  0.00     0.047 C 
ATOM      4  C   UNL     1      12.787  18.055  15.766  1.00  0.00     0.159 C 
ATOM      5  O   UNL     1      12.493  17.295  14.806  1.00  0.00    -0.295 OA
ATOM      6  C   UNL     1      11.891  19.216  16.196  1.00  0.00     0.067 C 
ATOM      7  C   UNL     1      11.832  19.100  17.734  1.00  0.00     0.021 C 
ATOM      8  C   UNL     1      13.170  19.872  17.757  1.00  0.00     0.022 C 
ATOM      9  C   UNL     1      12.776  20.482  16.380  1.00  0.00    -0.019 C 
ATOM     10  C   UNL     1      11.934  21.775  16.526  1.00  0.00     0.012 C 
ATOM     11  C   UNL     1      13.906  20.751  15.345  1.00  0.00     0.012 C 
ENDROOT
TORSDOF 0
ENDMDL
MODEL 3
REMARK VINA RESULT:    -4.421      1.750      3.192
REMARK INTER + INTRA:          -4.421
REMARK INTER:                  -4.421
REMARK INTRA:                   0.000
REMARK UNBOUND:                 0.000
REMARK SMILES CC1=CC(=O)[C@H]2C[C@@H]1C2(C)C
REMARK SMILES IDX 1 1 2 2 3 3 4 4 5 5 6 6 7 7 8 8 9 9 10 10 11 11
REMARK H PARENT
REMARK Flexibility Score: inf
ROOT
ATOM      1  C   UNL     1      13.472  22.172  15.447  1.00  0.00     0.040 C 
ATOM      2  C   UNL     1      13.166  20.936  16.233  1.00  0.00    -0.066 C 
ATOM      3  C   UNL     1      14.147  20.059  16.585  1.00  0.00     0.047 C 
ATOM      4  C   UNL     1      13.708  18.844  17.344  1.00  0.00     0.159 C 
ATOM      5  O   UNL     1      14.514  17.942  17.693  1.00  0.00    -0.295 OA
ATOM      6  C   UNL     1      12.215  18.776  17.663  1.00  0.00     0.067 C 
ATOM      7  C   UNL     1      11.873  20.191  18.179  1.00  0.00     0.021 C 
ATOM      8  C   UNL     1      11.732  20.602  16.696  1.00  0.00     0.022 C 
ATOM      9  C   UNL     1      11.416  19.113  16.371  1.00  0.00    -0.019 C 
ATOM     10  C   UNL     1       9.908  18.786  16.508  1.00  0.00     0.012 C 
ATOM     11  C   UNL     1      11.919  18.532  15.019  1.00  0.00     0.012 C 
ENDROOT
TORSDOF 0
ENDMDL
MODEL 4
REMARK VINA RESULT:    -4.182      1.738      2.942
REMARK INTER + INTRA:          -4.182
REMARK INTER:                  -4.182
REMARK INTRA:                   0.000
REMARK UNBOUND:                 0.000
REMARK SMILES CC1=CC(=O)[C@H]2C[C@@H]1C2(C)C
REMARK SMILES IDX 1 1 2 2 3 3 4 4 5 5 6 6 7 7 8 8 9 9 10 10 11 11
REMARK H PARENT
REMARK Flexibility Score: inf
ROOT
ATOM      1  C   UNL     1      12.100  22.828  16.229  1.00  0.00     0.040 C 
ATOM      2  C   UNL     1      12.257  21.356  16.016  1.00  0.00    -0.066 C 
ATOM      3  C   UNL     1      11.249  20.604  15.492  1.00  0.00     0.047 C 
ATOM      4  C   UNL     1      11.518  19.137  15.357  1.00  0.00     0.159 C 
ATOM      5  O   UNL     1      10.653  18.332  14.922  1.00  0.00    -0.295 OA
ATOM      6  C   UNL     1      12.915  18.685  15.783  1.00  0.00     0.067 C 
ATOM      7  C   UNL     1      13.861  19.721  15.138  1.00  0.00     0.021 C 
ATOM      8  C   UNL     1      13.569  20.620  16.361  1.00  0.00     0.022 C 
ATOM      9  C   UNL     1      13.242  19.326  17.162  1.00  0.00    -0.019 C 
ATOM     10  C   UNL     1      14.501  18.704  17.818  1.00  0.00     0.012 C 
ATOM     11  C   UNL     1      12.117  19.390  18.234  1.00  0.00     0.012 C 
ENDROOT
TORSDOF 0
ENDMDL
MODEL 5
REMARK VINA RESULT:    -4.044      2.048      3.597
REMARK INTER + INTRA:          -4.044
REMARK INTER:                  -4.044
REMARK INTRA:                   0.000
REMARK UNBOUND:                 0.000
REMARK SMILES CC1=CC(=O)[C@H]2C[C@@H]1C2(C)C
REMARK SMILES IDX 1 1 2 2 3 3 4 4 5 5 6 6 7 7 8 8 9 9 10 10 11 11
REMARK H PARENT
REMARK Flexibility Score: inf
ROOT
ATOM      1  C   UNL     1      13.248  16.530  14.916  1.00  0.00     0.040 C 
ATOM      2  C   UNL     1      13.647  17.675  15.791  1.00  0.00    -0.066 C 
ATOM      3  C   UNL     1      14.491  17.501  16.846  1.00  0.00     0.047 C 
ATOM      4  C   UNL     1      14.788  18.720  17.665  1.00  0.00     0.159 C 
ATOM      5  O   UNL     1      15.523  18.680  18.686  1.00  0.00    -0.295 OA
ATOM      6  C   UNL     1      14.138  20.013  17.174  1.00  0.00     0.067 C 
ATOM      7  C   UNL     1      14.390  20.008  15.650  1.00  0.00     0.021 C 
ATOM      8  C   UNL     1      13.138  19.110  15.534  1.00  0.00     0.022 C 
ATOM      9  C   UNL     1      12.638  19.729  16.872  1.00  0.00    -0.019 C 
ATOM     10  C   UNL     1      11.824  21.029  16.652  1.00  0.00     0.012 C 
ATOM     11  C   UNL     1      11.846  18.819  17.853  1.00  0.00     0.012 C 
ENDROOT
TORSDOF 0
ENDMDL
MODEL 6
REMARK VINA RESULT:    -3.971      1.815      3.353
REMARK INTER + INTRA:          -3.971
REMARK INTER:                  -3.971
REMARK INTRA:                   0.000
REMARK UNBOUND:                 0.000
REMARK SMILES CC1=CC(=O)[C@H]2C[C@@H]1C2(C)C
REMARK SMILES IDX 1 1 2 2 3 3 4 4 5 5 6 6 7 7 8 8 9 9 10 10 11 11
REMARK H PARENT
REMARK Flexibility Score: inf
ROOT
ATOM      1  C   UNL     1      14.748  19.203  18.108  1.00  0.00     0.040 C 
ATOM      2  C   UNL     1      13.505  19.545  17.350  1.00  0.00    -0.066 C 
ATOM      3  C   UNL     1      12.325  18.909  17.598  1.00  0.00     0.047 C 
ATOM      4  C   UNL     1      11.160  19.319  16.750  1.00  0.00     0.159 C 
ATOM      5  O   UNL     1      10.028  18.779  16.858  1.00  0.00    -0.295 OA
ATOM      6  C   UNL     1      11.442  20.437  15.746  1.00  0.00     0.067 C 
ATOM      7  C   UNL     1      12.230  21.486  16.560  1.00  0.00     0.021 C 
ATOM      8  C   UNL     1      13.490  20.641  16.263  1.00  0.00     0.022 C 
ATOM      9  C   UNL     1      12.764  20.106  14.995  1.00  0.00    -0.019 C 
ATOM     10  C   UNL     1      12.985  21.015  13.760  1.00  0.00     0.012 C 
ATOM     11  C   UNL     1      13.022  18.633  14.567  1.00  0.00     0.012 C 
ENDROOT
TORSDOF 0
ENDMDL
MODEL 7
REMARK VINA RESULT:    -3.917      2.401      3.860
REMARK INTER + INTRA:          -3.917
REMARK INTER:                  -3.917
REMARK INTRA:                   0.000
REMARK UNBOUND:                 0.000
REMARK SMILES CC1=CC(=O)[C@H]2C[C@@H]1C2(C)C
REMARK SMILES IDX 1 1 2 2 3 3 4 4 5 5 6 6 7 7 8 8 9 9 10 10 11 11
REMARK H PARENT
REMARK Flexibility Score: inf
ROOT
ATOM      1  C   UNL     1      14.419  20.018  13.631  1.00  0.00     0.040 C 
ATOM      2  C   UNL     1      14.276  19.195  14.871  1.00  0.00    -0.066 C 
ATOM      3  C   UNL     1      14.487  17.849  14.857  1.00  0.00     0.047 C 
ATOM      4  C   UNL     1      14.281  17.132  16.157  1.00  0.00     0.159 C 
ATOM      5  O   UNL     1      14.408  15.884  16.263  1.00  0.00    -0.295 OA
ATOM      6  C   UNL     1      13.907  18.021  17.342  1.00  0.00     0.067 C 
ATOM      7  C   UNL     1      14.886  19.211  17.247  1.00  0.00     0.021 C 
ATOM      8  C   UNL     1      13.900  19.827  16.228  1.00  0.00     0.022 C 
ATOM      9  C   UNL     1      12.773  18.988  16.897  1.00  0.00    -0.019 C 
ATOM     10  C   UNL     1      12.121  19.724  18.094  1.00  0.00     0.012 C 
ATOM     11  C   UNL     1      11.637  18.430  15.993  1.00  0.00     0.012 C 
ENDROOT
TORSDOF 0
ENDMDL
MODEL 8
REMARK VINA RESULT:    -3.916      9.831     11.307
REMARK INTER + INTRA:          -3.916
REMARK INTER:                  -3.916
REMARK INTRA:                   0.000
REMARK UNBOUND:                 0.000
REMARK SMILES CC1=CC(=O)[C@H]2C[C@@H]1C2(C)C
REMARK SMILES IDX 1 1 2 2 3 3 4 4 5 5 6 6 7 7 8 8 9 9 10 10 11 11
REMARK H PARENT
REMARK Flexibility Score: inf
ROOT
ATOM      1  C   UNL     1       7.250  31.124  17.414  1.00  0.00     0.040 C 
ATOM      2  C   UNL     1       6.993  29.848  16.678  1.00  0.00    -0.066 C 
ATOM      3  C   UNL     1       7.717  29.507  15.575  1.00  0.00     0.047 C 
ATOM      4  C   UNL     1       7.342  28.219  14.909  1.00  0.00     0.159 C 
ATOM      5  O   UNL     1       7.911  27.814  13.861  1.00  0.00    -0.295 OA
ATOM      6  C   UNL     1       6.221  27.432  15.588  1.00  0.00     0.067 C 
ATOM      7  C   UNL     1       6.592  27.463  17.087  1.00  0.00     0.021 C 
ATOM      8  C   UNL     1       5.910  28.849  17.137  1.00  0.00     0.022 C 
ATOM      9  C   UNL     1       5.056  28.410  15.912  1.00  0.00    -0.019 C 
ATOM     10  C   UNL     1       3.761  27.668  16.330  1.00  0.00     0.012 C 
ATOM     11  C   UNL     1       4.679  29.487  14.855  1.00  0.00     0.012 C 
ENDROOT
TORSDOF 0
ENDMDL
MODEL 9
REMARK VINA RESULT:    -3.898      9.859     11.488
REMARK INTER + INTRA:          -3.898
REMARK INTER:                  -3.898
REMARK INTRA:                   0.000
REMARK UNBOUND:                 0.000
REMARK SMILES CC1=CC(=O)[C@H]2C[C@@H]1C2(C)C
REMARK SMILES IDX 1 1 2 2 3 3 4 4 5 5 6 6 7 7 8 8 9 9 10 10 11 11
REMARK H PARENT
REMARK Flexibility Score: inf
ROOT
ATOM      1  C   UNL     1       7.542  31.125  17.375  1.00  0.00     0.040 C 
ATOM      2  C   UNL     1       6.650  30.120  16.719  1.00  0.00    -0.066 C 
ATOM      3  C   UNL     1       5.339  30.000  17.070  1.00  0.00     0.047 C 
ATOM      4  C   UNL     1       4.558  28.935  16.362  1.00  0.00     0.159 C 
ATOM      5  O   UNL     1       3.350  28.701  16.625  1.00  0.00    -0.295 OA
ATOM      6  C   UNL     1       5.331  28.155  15.299  1.00  0.00     0.067 C 
ATOM      7  C   UNL     1       6.081  29.243  14.500  1.00  0.00     0.021 C 
ATOM      8  C   UNL     1       7.162  29.184  15.603  1.00  0.00     0.022 C 
ATOM      9  C   UNL     1       6.701  27.727  15.898  1.00  0.00    -0.019 C 
ATOM     10  C   UNL     1       7.433  26.687  15.013  1.00  0.00     0.012 C 
ATOM     11  C   UNL     1       6.741  27.227  17.370  1.00  0.00     0.012 C 
ENDROOT
TORSDOF 0
ENDMDL
