MODEL 1
REMARK VINA RESULT:    -3.411      0.000      0.000
REMARK INTER + INTRA:          -4.573
REMARK INTER:                  -4.109
REMARK INTRA:                  -0.465
REMARK UNBOUND:                -0.465
REMARK SMILES NC(=O)C[C@@H]([NH3+])C(=O)[O-]
REMARK SMILES IDX 4 1 5 2 6 3 7 7 8 8 9 9 2 10 3 11 1 12
REMARK H PARENT 6 4 6 5 6 6 1 13 1 14
REMARK Flexibility Score: inf
ROOT
ATOM      1  C   UNL     1      22.443  17.713  44.251  1.00  0.00     0.171 C 
ENDROOT
BRANCH   1   2
ATOM      2  C   UNL     1      22.590  17.203  42.802  1.00  0.00     0.237 C 
BRANCH   2   3
ATOM      3  N   UNL     1      23.669  17.920  42.114  1.00  0.00    -0.350 N 
ATOM      4  H   UNL     1      24.169  18.544  42.790  1.00  0.00     0.345 HD
ATOM      5  H   UNL     1      24.362  17.235  41.732  1.00  0.00     0.345 HD
ATOM      6  H   UNL     1      23.289  18.498  41.330  1.00  0.00     0.345 HD
ENDBRANCH   2   3
BRANCH   2   7
ATOM      7  C   UNL     1      22.860  15.719  42.781  1.00  0.00     0.100 C 
ATOM      8  O   UNL     1      23.025  15.091  43.860  1.00  0.00    -0.544 OA
ATOM      9  O   UNL     1      22.935  15.037  41.573  1.00  0.00    -0.544 OA
ENDBRANCH   2   7
ENDBRANCH   1   2
BRANCH   1  10
ATOM     10  C   UNL     1      23.750  18.209  44.798  1.00  0.00     0.223 C 
ATOM     11  O   UNL     1      24.115  19.394  44.572  1.00  0.00    -0.275 OA
ATOM     12  N   UNL     1      24.599  17.335  45.542  1.00  0.00    -0.369 N 
ATOM     13  H   UNL     1      24.318  16.347  45.723  1.00  0.00     0.159 HD
ATOM     14  H   UNL     1      25.514  17.678  45.911  1.00  0.00     0.159 HD
ENDBRANCH   1  10
TORSDOF 4
ENDMDL
MODEL 2
REMARK VINA RESULT:    -3.376      1.109      3.706
REMARK INTER + INTRA:          -4.532
REMARK INTER:                  -4.086
REMARK INTRA:                  -0.446
REMARK UNBOUND:                -0.465
REMARK SMILES NC(=O)C[C@@H]([NH3+])C(=O)[O-]
REMARK SMILES IDX 4 1 5 2 6 3 7 7 8 8 9 9 2 10 3 11 1 12
REMARK H PARENT 6 4 6 5 6 6 1 13 1 14
REMARK Flexibility Score: inf
ROOT
ATOM      1  C   UNL     1      22.278  17.723  43.864  1.00  0.00     0.171 C 
ENDROOT
BRANCH   1   2
ATOM      2  C   UNL     1      23.458  18.223  44.722  1.00  0.00     0.237 C 
BRANCH   2   3
ATOM      3  N   UNL     1      24.194  17.089  45.291  1.00  0.00    -0.350 N 
ATOM      4  H   UNL     1      25.030  16.874  44.699  1.00  0.00     0.345 HD
ATOM      5  H   UNL     1      24.530  17.331  46.252  1.00  0.00     0.345 HD
ATOM      6  H   UNL     1      23.584  16.241  45.346  1.00  0.00     0.345 HD
ENDBRANCH   2   3
BRANCH   2   7
ATOM      7  C   UNL     1      24.387  19.085  43.906  1.00  0.00     0.100 C 
ATOM      8  O   UNL     1      25.545  19.344  44.330  1.00  0.00    -0.544 OA
ATOM      9  O   UNL     1      23.973  19.605  42.686  1.00  0.00    -0.544 OA
ENDBRANCH   2   7
ENDBRANCH   1   2
BRANCH   1  10
ATOM     10  C   UNL     1      22.669  16.544  43.019  1.00  0.00     0.223 C 
ATOM     11  O   UNL     1      22.691  15.390  43.525  1.00  0.00    -0.275 OA
ATOM     12  N   UNL     1      23.050  16.729  41.656  1.00  0.00    -0.369 N 
ATOM     13  H   UNL     1      23.051  17.680  41.228  1.00  0.00     0.159 HD
ATOM     14  H   UNL     1      23.334  15.910  41.073  1.00  0.00     0.159 HD
ENDBRANCH   1  10
TORSDOF 4
ENDMDL
MODEL 3
REMARK VINA RESULT:    -3.137     18.225     19.132
REMARK INTER + INTRA:          -4.244
REMARK INTER:                  -3.850
REMARK INTRA:                  -0.393
REMARK UNBOUND:                -0.465
REMARK SMILES NC(=O)C[C@@H]([NH3+])C(=O)[O-]
REMARK SMILES IDX 4 1 5 2 6 3 7 7 8 8 9 9 2 10 3 11 1 12
REMARK H PARENT 6 4 6 5 6 6 1 13 1 14
REMARK Flexibility Score: inf
ROOT
ATOM      1  C   UNL     1      26.157  32.933  53.338  1.00  0.00     0.171 C 
ENDROOT
BRANCH   1   2
ATOM      2  C   UNL     1      25.849  32.952  51.827  1.00  0.00     0.237 C 
BRANCH   2   3
ATOM      3  N   UNL     1      24.992  34.094  51.493  1.00  0.00    -0.350 N 
ATOM      4  H   UNL     1      25.367  34.585  50.648  1.00  0.00     0.345 HD
ATOM      5  H   UNL     1      24.026  33.760  51.273  1.00  0.00     0.345 HD
ATOM      6  H   UNL     1      24.947  34.770  52.291  1.00  0.00     0.345 HD
ENDBRANCH   2   3
BRANCH   2   7
ATOM      7  C   UNL     1      27.122  33.007  51.021  1.00  0.00     0.100 C 
ATOM      8  O   UNL     1      28.230  32.775  51.573  1.00  0.00    -0.544 OA
ATOM      9  O   UNL     1      27.083  33.323  49.668  1.00  0.00    -0.544 OA
ENDBRANCH   2   7
ENDBRANCH   1   2
BRANCH   1  10
ATOM     10  C   UNL     1      26.449  34.311  53.860  1.00  0.00     0.223 C 
ATOM     11  O   UNL     1      25.505  35.125  54.044  1.00  0.00    -0.275 OA
ATOM     12  N   UNL     1      27.794  34.715  54.115  1.00  0.00    -0.369 N 
ATOM     13  H   UNL     1      28.587  34.057  53.953  1.00  0.00     0.159 HD
ATOM     14  H   UNL     1      27.998  35.678  54.466  1.00  0.00     0.159 HD
ENDBRANCH   1  10
TORSDOF 4
ENDMDL
MODEL 4
REMARK VINA RESULT:    -3.076      2.497      3.307
REMARK INTER + INTRA:          -4.170
REMARK INTER:                  -3.892
REMARK INTRA:                  -0.278
REMARK UNBOUND:                -0.465
REMARK SMILES NC(=O)C[C@@H]([NH3+])C(=O)[O-]
REMARK SMILES IDX 4 1 5 2 6 3 7 7 8 8 9 9 2 10 3 11 1 12
REMARK H PARENT 6 4 6 5 6 6 1 13 1 14
REMARK Flexibility Score: inf
ROOT
ATOM      1  C   UNL     1      23.657  18.926  42.207  1.00  0.00     0.171 C 
ENDROOT
BRANCH   1   2
ATOM      2  C   UNL     1      22.700  17.723  42.079  1.00  0.00     0.237 C 
BRANCH   2   3
ATOM      3  N   UNL     1      23.072  16.893  40.928  1.00  0.00    -0.350 N 
ATOM      4  H   UNL     1      24.112  16.778  40.895  1.00  0.00     0.345 HD
ATOM      5  H   UNL     1      22.643  15.944  41.022  1.00  0.00     0.345 HD
ATOM      6  H   UNL     1      22.746  17.329  40.035  1.00  0.00     0.345 HD
ENDBRANCH   2   3
BRANCH   2   7
ATOM      7  C   UNL     1      22.708  16.895  43.338  1.00  0.00     0.100 C 
ATOM      8  O   UNL     1      22.468  15.659  43.283  1.00  0.00    -0.544 OA
ATOM      9  O   UNL     1      22.972  17.487  44.567  1.00  0.00    -0.544 OA
ENDBRANCH   2   7
ENDBRANCH   1   2
BRANCH   1  10
ATOM     10  C   UNL     1      24.080  19.442  40.861  1.00  0.00     0.223 C 
ATOM     11  O   UNL     1      23.215  19.644  39.967  1.00  0.00    -0.275 OA
ATOM     12  N   UNL     1      25.460  19.671  40.578  1.00  0.00    -0.369 N 
ATOM     13  H   UNL     1      26.189  19.493  41.303  1.00  0.00     0.159 HD
ATOM     14  H   UNL     1      25.754  20.017  39.637  1.00  0.00     0.159 HD
ENDBRANCH   1  10
TORSDOF 4
ENDMDL
MODEL 5
REMARK VINA RESULT:    -3.021     20.227     21.439
REMARK INTER + INTRA:          -4.104
REMARK INTER:                  -3.607
REMARK INTRA:                  -0.497
REMARK UNBOUND:                -0.465
REMARK SMILES NC(=O)C[C@@H]([NH3+])C(=O)[O-]
REMARK SMILES IDX 4 1 5 2 6 3 7 7 8 8 9 9 2 10 3 11 1 12
REMARK H PARENT 6 4 6 5 6 6 1 13 1 14
REMARK Flexibility Score: inf
ROOT
ATOM      1  C   UNL     1      29.170  32.755  54.771  1.00  0.00     0.171 C 
ENDROOT
BRANCH   1   2
ATOM      2  C   UNL     1      30.702  32.874  54.897  1.00  0.00     0.237 C 
BRANCH   2   3
ATOM      3  N   UNL     1      31.253  33.622  53.762  1.00  0.00    -0.350 N 
ATOM      4  H   UNL     1      30.546  33.670  52.991  1.00  0.00     0.345 HD
ATOM      5  H   UNL     1      31.477  34.600  54.057  1.00  0.00     0.345 HD
ATOM      6  H   UNL     1      32.122  33.165  53.402  1.00  0.00     0.345 HD
ENDBRANCH   2   3
BRANCH   2   7
ATOM      7  C   UNL     1      31.084  33.545  56.192  1.00  0.00     0.100 C 
ATOM      8  O   UNL     1      31.590  32.870  57.128  1.00  0.00    -0.544 OA
ATOM      9  O   UNL     1      30.876  34.907  56.365  1.00  0.00    -0.544 OA
ENDBRANCH   2   7
ENDBRANCH   1   2
BRANCH   1  10
ATOM     10  C   UNL     1      28.598  33.854  53.922  1.00  0.00     0.223 C 
ATOM     11  O   UNL     1      28.414  33.663  52.690  1.00  0.00    -0.275 OA
ATOM     12  N   UNL     1      28.295  35.125  54.496  1.00  0.00    -0.369 N 
ATOM     13  H   UNL     1      28.456  35.303  55.511  1.00  0.00     0.159 HD
ATOM     14  H   UNL     1      27.909  35.893  53.902  1.00  0.00     0.159 HD
ENDBRANCH   1  10
TORSDOF 4
ENDMDL
MODEL 6
REMARK VINA RESULT:    -3.018     19.497     20.416
REMARK INTER + INTRA:          -4.100
REMARK INTER:                  -3.607
REMARK INTRA:                  -0.493
REMARK UNBOUND:                -0.465
REMARK SMILES NC(=O)C[C@@H]([NH3+])C(=O)[O-]
REMARK SMILES IDX 4 1 5 2 6 3 7 7 8 8 9 9 2 10 3 11 1 12
REMARK H PARENT 6 4 6 5 6 6 1 13 1 14
REMARK Flexibility Score: inf
ROOT
ATOM      1  C   UNL     1      29.261  32.725  54.688  1.00  0.00     0.171 C 
ENDROOT
BRANCH   1   2
ATOM      2  C   UNL     1      28.162  33.623  54.084  1.00  0.00     0.237 C 
BRANCH   2   3
ATOM      3  N   UNL     1      28.436  35.034  54.375  1.00  0.00    -0.350 N 
ATOM      4  H   UNL     1      28.316  35.606  53.506  1.00  0.00     0.345 HD
ATOM      5  H   UNL     1      27.759  35.386  55.090  1.00  0.00     0.345 HD
ATOM      6  H   UNL     1      29.410  35.156  54.735  1.00  0.00     0.345 HD
ENDBRANCH   2   3
BRANCH   2   7
ATOM      7  C   UNL     1      28.056  33.413  52.594  1.00  0.00     0.100 C 
ATOM      8  O   UNL     1      26.935  33.193  52.065  1.00  0.00    -0.544 OA
ATOM      9  O   UNL     1      29.194  33.452  51.798  1.00  0.00    -0.544 OA
ENDBRANCH   2   7
ENDBRANCH   1   2
BRANCH   1  10
ATOM     10  C   UNL     1      30.553  33.471  54.856  1.00  0.00     0.223 C 
ATOM     11  O   UNL     1      30.777  34.107  55.920  1.00  0.00    -0.275 OA
ATOM     12  N   UNL     1      31.515  33.492  53.801  1.00  0.00    -0.369 N 
ATOM     13  H   UNL     1      31.338  32.983  52.908  1.00  0.00     0.159 HD
ATOM     14  H   UNL     1      32.409  34.022  53.913  1.00  0.00     0.159 HD
ENDBRANCH   1  10
TORSDOF 4
ENDMDL
MODEL 7
REMARK VINA RESULT:    -2.998     19.161     20.119
REMARK INTER + INTRA:          -4.077
REMARK INTER:                  -3.610
REMARK INTRA:                  -0.467
REMARK UNBOUND:                -0.465
REMARK SMILES NC(=O)C[C@@H]([NH3+])C(=O)[O-]
REMARK SMILES IDX 4 1 5 2 6 3 7 7 8 8 9 9 2 10 3 11 1 12
REMARK H PARENT 6 4 6 5 6 6 1 13 1 14
REMARK Flexibility Score: inf
ROOT
ATOM      1  C   UNL     1      28.634  33.137  54.190  1.00  0.00     0.171 C 
ENDROOT
BRANCH   1   2
ATOM      2  C   UNL     1      27.204  33.665  53.950  1.00  0.00     0.237 C 
BRANCH   2   3
ATOM      3  N   UNL     1      27.165  35.123  54.105  1.00  0.00    -0.350 N 
ATOM      4  H   UNL     1      26.903  35.570  53.195  1.00  0.00     0.345 HD
ATOM      5  H   UNL     1      26.442  35.384  54.815  1.00  0.00     0.345 HD
ATOM      6  H   UNL     1      28.095  35.489  54.413  1.00  0.00     0.345 HD
ENDBRANCH   2   3
BRANCH   2   7
ATOM      7  C   UNL     1      26.712  33.277  52.579  1.00  0.00     0.100 C 
ATOM      8  O   UNL     1      27.526  33.158  51.625  1.00  0.00    -0.544 OA
ATOM      9  O   UNL     1      25.358  33.056  52.356  1.00  0.00    -0.544 OA
ENDBRANCH   2   7
ENDBRANCH   1   2
BRANCH   1  10
ATOM     10  C   UNL     1      29.666  34.191  53.912  1.00  0.00     0.223 C 
ATOM     11  O   UNL     1      30.011  34.987  54.825  1.00  0.00    -0.275 OA
ATOM     12  N   UNL     1      30.233  34.318  52.608  1.00  0.00    -0.369 N 
ATOM     13  H   UNL     1      29.946  33.676  51.837  1.00  0.00     0.159 HD
ATOM     14  H   UNL     1      30.943  35.061  52.412  1.00  0.00     0.159 HD
ENDBRANCH   1  10
TORSDOF 4
ENDMDL
MODEL 8
REMARK VINA RESULT:    -2.960      2.687      3.776
REMARK INTER + INTRA:          -4.030
REMARK INTER:                  -3.551
REMARK INTRA:                  -0.479
REMARK UNBOUND:                -0.465
REMARK SMILES NC(=O)C[C@@H]([NH3+])C(=O)[O-]
REMARK SMILES IDX 4 1 5 2 6 3 7 7 8 8 9 9 2 10 3 11 1 12
REMARK H PARENT 6 4 6 5 6 6 1 13 1 14
REMARK Flexibility Score: inf
ROOT
ATOM      1  C   UNL     1      22.520  18.702  42.322  1.00  0.00     0.171 C 
ENDROOT
BRANCH   1   2
ATOM      2  C   UNL     1      23.831  19.498  42.494  1.00  0.00     0.237 C 
BRANCH   2   3
ATOM      3  N   UNL     1      24.638  18.928  43.578  1.00  0.00    -0.350 N 
ATOM      4  H   UNL     1      25.311  18.227  43.188  1.00  0.00     0.345 HD
ATOM      5  H   UNL     1      25.189  19.684  44.044  1.00  0.00     0.345 HD
ATOM      6  H   UNL     1      24.028  18.460  44.288  1.00  0.00     0.345 HD
ENDBRANCH   2   3
BRANCH   2   7
ATOM      7  C   UNL     1      24.623  19.510  41.211  1.00  0.00     0.100 C 
ATOM      8  O   UNL     1      25.711  20.141  41.147  1.00  0.00    -0.544 OA
ATOM      9  O   UNL     1      24.155  18.835  40.091  1.00  0.00    -0.544 OA
ENDBRANCH   2   7
ENDBRANCH   1   2
BRANCH   1  10
ATOM     10  C   UNL     1      22.707  17.250  42.658  1.00  0.00     0.223 C 
ATOM     11  O   UNL     1      22.599  16.864  43.853  1.00  0.00    -0.275 OA
ATOM     12  N   UNL     1      23.042  16.311  41.637  1.00  0.00    -0.369 N 
ATOM     13  H   UNL     1      23.151  16.618  40.646  1.00  0.00     0.159 HD
ATOM     14  H   UNL     1      23.185  15.303  41.874  1.00  0.00     0.159 HD
ENDBRANCH   1  10
TORSDOF 4
ENDMDL
MODEL 9
REMARK VINA RESULT:    -2.920      2.518      3.424
REMARK INTER + INTRA:          -3.982
REMARK INTER:                  -3.728
REMARK INTRA:                  -0.253
REMARK UNBOUND:                -0.465
REMARK SMILES NC(=O)C[C@@H]([NH3+])C(=O)[O-]
REMARK SMILES IDX 4 1 5 2 6 3 7 7 8 8 9 9 2 10 3 11 1 12
REMARK H PARENT 6 4 6 5 6 6 1 13 1 14
REMARK Flexibility Score: inf
ROOT
ATOM      1  C   UNL     1      22.273  17.957  43.275  1.00  0.00     0.171 C 
ENDROOT
BRANCH   1   2
ATOM      2  C   UNL     1      22.918  18.254  41.906  1.00  0.00     0.237 C 
BRANCH   2   3
ATOM      3  N   UNL     1      23.031  17.024  41.116  1.00  0.00    -0.350 N 
ATOM      4  H   UNL     1      23.202  17.261  40.110  1.00  0.00     0.345 HD
ATOM      5  H   UNL     1      23.841  16.457  41.457  1.00  0.00     0.345 HD
ATOM      6  H   UNL     1      22.158  16.453  41.190  1.00  0.00     0.345 HD
ENDBRANCH   2   3
BRANCH   2   7
ATOM      7  C   UNL     1      22.118  19.283  41.148  1.00  0.00     0.100 C 
ATOM      8  O   UNL     1      22.591  19.808  40.105  1.00  0.00    -0.544 OA
ATOM      9  O   UNL     1      20.861  19.666  41.598  1.00  0.00    -0.544 OA
ENDBRANCH   2   7
ENDBRANCH   1   2
BRANCH   1  10
ATOM     10  C   UNL     1      22.916  16.776  43.944  1.00  0.00     0.223 C 
ATOM     11  O   UNL     1      22.621  15.608  43.572  1.00  0.00    -0.275 OA
ATOM     12  N   UNL     1      23.832  16.967  45.022  1.00  0.00    -0.369 N 
ATOM     13  H   UNL     1      24.073  17.927  45.351  1.00  0.00     0.159 HD
ATOM     14  H   UNL     1      24.268  16.144  45.495  1.00  0.00     0.159 HD
ENDBRANCH   1  10
TORSDOF 4
ENDMDL
