MODEL 1
REMARK VINA RESULT:    -7.992      0.000      0.000
REMARK INTER + INTRA:          -9.066
REMARK INTER:                  -9.394
REMARK INTRA:                   0.328
REMARK UNBOUND:                 0.328
REMARK SMILES O=c1c(O)c(-c2ccc(O)cc2)oc2cc(O)cc(O)c12
REMARK SMILES IDX 5 1 3 2 2 3 1 4 21 5 19 6 18 7 16 8 15 9 14 10 13 11 6 12
REMARK SMILES IDX 7 13 8 14 9 15 12 16 11 17 10 18 4 20 20 22 17 24
REMARK H PARENT 10 19 4 21 20 23 17 25
REMARK Flexibility Score: inf
ROOT
ATOM      1  C   UNL     1      24.827  12.057  35.126  1.00  0.00     0.180 A 
ATOM      2  C   UNL     1      25.364  13.068  34.311  1.00  0.00     0.208 A 
ATOM      3  C   UNL     1      26.537  13.722  34.721  1.00  0.00     0.238 A 
ATOM      4  O   UNL     1      26.971  14.676  34.025  1.00  0.00    -0.285 OA
ATOM      5  C   UNL     1      27.189  13.319  35.913  1.00  0.00     0.111 A 
ATOM      6  C   UNL     1      28.408  13.881  36.401  1.00  0.00     0.134 A 
ATOM      7  C   UNL     1      28.904  13.476  37.646  1.00  0.00     0.093 A 
ATOM      8  C   UNL     1      28.264  12.486  38.391  1.00  0.00     0.123 A 
ATOM      9  C   UNL     1      27.103  11.891  37.896  1.00  0.00     0.094 A 
ATOM     10  C   UNL     1      26.561  12.301  36.676  1.00  0.00     0.146 A 
ATOM     11  O   UNL     1      25.443  11.723  36.254  1.00  0.00    -0.452 OA
ENDROOT
BRANCH   1  12
ATOM     12  C   UNL     1      23.586  11.332  34.769  1.00  0.00     0.021 A 
ATOM     13  C   UNL     1      23.285  11.103  33.416  1.00  0.00     0.016 A 
ATOM     14  C   UNL     1      22.130  10.401  33.056  1.00  0.00     0.047 A 
ATOM     15  C   UNL     1      21.271   9.906  34.045  1.00  0.00     0.115 A 
ATOM     16  C   UNL     1      22.728  10.814  35.757  1.00  0.00     0.016 A 
ATOM     17  C   UNL     1      21.575  10.112  35.394  1.00  0.00     0.047 A 
BRANCH  15  18
ATOM     18  O   UNL     1      20.117   9.206  33.698  1.00  0.00    -0.508 OA
ATOM     19  H   UNL     1      19.501   9.533  32.964  1.00  0.00     0.293 HD
ENDBRANCH  15  18
ENDBRANCH   1  12
BRANCH   2  20
ATOM     20  O   UNL     1      24.748  13.398  33.101  1.00  0.00    -0.502 OA
ATOM     21  H   UNL     1      24.688  14.351  32.764  1.00  0.00     0.293 HD
ENDBRANCH   2  20
BRANCH   6  22
ATOM     22  O   UNL     1      29.178  14.814  35.699  1.00  0.00    -0.507 OA
ATOM     23  H   UNL     1      30.074  14.622  35.277  1.00  0.00     0.293 HD
ENDBRANCH   6  22
BRANCH   8  24
ATOM     24  O   UNL     1      28.797  12.096  39.618  1.00  0.00    -0.508 OA
ATOM     25  H   UNL     1      29.782  12.206  39.826  1.00  0.00     0.293 HD
ENDBRANCH   8  24
TORSDOF 5
ENDMDL
MODEL 2
REMARK VINA RESULT:    -7.957     14.419     14.903
REMARK INTER + INTRA:          -9.025
REMARK INTER:                  -9.483
REMARK INTRA:                   0.459
REMARK UNBOUND:                 0.328
REMARK SMILES O=c1c(O)c(-c2ccc(O)cc2)oc2cc(O)cc(O)c12
REMARK SMILES IDX 5 1 3 2 2 3 1 4 21 5 19 6 18 7 16 8 15 9 14 10 13 11 6 12
REMARK SMILES IDX 7 13 8 14 9 15 12 16 11 17 10 18 4 20 20 22 17 24
REMARK H PARENT 10 19 4 21 20 23 17 25
REMARK Flexibility Score: inf
ROOT
ATOM      1  C   UNL     1      16.283  23.117  40.528  1.00  0.00     0.180 A 
ATOM      2  C   UNL     1      16.773  23.935  39.496  1.00  0.00     0.208 A 
ATOM      3  C   UNL     1      17.931  23.541  38.807  1.00  0.00     0.238 A 
ATOM      4  O   UNL     1      18.407  24.314  37.935  1.00  0.00    -0.285 OA
ATOM      5  C   UNL     1      18.552  22.306  39.120  1.00  0.00     0.111 A 
ATOM      6  C   UNL     1      19.704  21.786  38.455  1.00  0.00     0.134 A 
ATOM      7  C   UNL     1      20.294  20.605  38.921  1.00  0.00     0.093 A 
ATOM      8  C   UNL     1      19.740  19.892  39.984  1.00  0.00     0.123 A 
ATOM      9  C   UNL     1      18.582  20.363  40.605  1.00  0.00     0.094 A 
ATOM     10  C   UNL     1      17.993  21.559  40.188  1.00  0.00     0.146 A 
ATOM     11  O   UNL     1      16.905  21.981  40.821  1.00  0.00    -0.452 OA
ENDROOT
BRANCH   1  12
ATOM     12  C   UNL     1      15.076  23.472  41.310  1.00  0.00     0.021 A 
ATOM     13  C   UNL     1      14.825  22.819  42.527  1.00  0.00     0.016 A 
ATOM     14  C   UNL     1      13.704  23.154  43.294  1.00  0.00     0.047 A 
ATOM     15  C   UNL     1      12.829  24.157  42.859  1.00  0.00     0.115 A 
ATOM     16  C   UNL     1      14.203  24.493  40.889  1.00  0.00     0.016 A 
ATOM     17  C   UNL     1      13.084  24.827  41.658  1.00  0.00     0.047 A 
BRANCH  15  18
ATOM     18  O   UNL     1      11.709  24.500  43.613  1.00  0.00    -0.508 OA
ATOM     19  H   UNL     1      11.694  25.333  44.189  1.00  0.00     0.293 HD
ENDBRANCH  15  18
ENDBRANCH   1  12
BRANCH   2  20
ATOM     20  O   UNL     1      16.102  25.111  39.151  1.00  0.00    -0.502 OA
ATOM     21  H   UNL     1      15.129  25.121  38.873  1.00  0.00     0.293 HD
ENDBRANCH   2  20
BRANCH   6  22
ATOM     22  O   UNL     1      20.289  22.369  37.327  1.00  0.00    -0.507 OA
ATOM     23  H   UNL     1      21.143  22.906  37.331  1.00  0.00     0.293 HD
ENDBRANCH   6  22
BRANCH   8  24
ATOM     24  O   UNL     1      20.345  18.711  40.409  1.00  0.00    -0.508 OA
ATOM     25  H   UNL     1      21.333  18.538  40.260  1.00  0.00     0.293 HD
ENDBRANCH   8  24
TORSDOF 5
ENDMDL
MODEL 3
REMARK VINA RESULT:    -7.877     14.360     15.293
REMARK INTER + INTRA:          -8.930
REMARK INTER:                  -9.213
REMARK INTRA:                   0.283
REMARK UNBOUND:                 0.328
REMARK SMILES O=c1c(O)c(-c2ccc(O)cc2)oc2cc(O)cc(O)c12
REMARK SMILES IDX 5 1 3 2 2 3 1 4 21 5 19 6 18 7 16 8 15 9 14 10 13 11 6 12
REMARK SMILES IDX 7 13 8 14 9 15 12 16 11 17 10 18 4 20 20 22 17 24
REMARK H PARENT 10 19 4 21 20 23 17 25
REMARK Flexibility Score: inf
ROOT
ATOM      1  C   UNL     1      17.571  22.493  40.044  1.00  0.00     0.180 A 
ATOM      2  C   UNL     1      17.289  23.555  39.167  1.00  0.00     0.208 A 
ATOM      3  C   UNL     1      16.157  24.350  39.404  1.00  0.00     0.238 A 
ATOM      4  O   UNL     1      15.869  25.253  38.575  1.00  0.00    -0.285 OA
ATOM      5  C   UNL     1      15.352  24.110  40.545  1.00  0.00     0.111 A 
ATOM      6  C   UNL     1      14.206  24.882  40.907  1.00  0.00     0.134 A 
ATOM      7  C   UNL     1      13.424  24.485  41.999  1.00  0.00     0.093 A 
ATOM      8  C   UNL     1      13.780  23.385  42.779  1.00  0.00     0.123 A 
ATOM      9  C   UNL     1      14.929  22.657  42.466  1.00  0.00     0.094 A 
ATOM     10  C   UNL     1      15.707  23.004  41.360  1.00  0.00     0.146 A 
ATOM     11  O   UNL     1      16.779  22.271  41.086  1.00  0.00    -0.452 OA
ENDROOT
BRANCH   1  12
ATOM     12  C   UNL     1      18.737  21.601  39.852  1.00  0.00     0.021 A 
ATOM     13  C   UNL     1      19.939  22.132  39.357  1.00  0.00     0.016 A 
ATOM     14  C   UNL     1      21.061  21.314  39.190  1.00  0.00     0.047 A 
ATOM     15  C   UNL     1      20.998  19.957  39.529  1.00  0.00     0.115 A 
ATOM     16  C   UNL     1      18.688  20.240  40.209  1.00  0.00     0.016 A 
ATOM     17  C   UNL     1      19.811  19.424  40.042  1.00  0.00     0.047 A 
BRANCH  15  18
ATOM     18  O   UNL     1      22.108  19.131  39.366  1.00  0.00    -0.508 OA
ATOM     19  H   UNL     1      22.993  19.342  39.810  1.00  0.00     0.293 HD
ENDBRANCH  15  18
ENDBRANCH   1  12
BRANCH   2  20
ATOM     20  O   UNL     1      18.139  23.824  38.091  1.00  0.00    -0.502 OA
ATOM     21  H   UNL     1      17.809  24.237  37.227  1.00  0.00     0.293 HD
ENDBRANCH   2  20
BRANCH   6  22
ATOM     22  O   UNL     1      13.809  26.052  40.251  1.00  0.00    -0.507 OA
ATOM     23  H   UNL     1      13.605  26.121  39.266  1.00  0.00     0.293 HD
ENDBRANCH   6  22
BRANCH   8  24
ATOM     24  O   UNL     1      12.987  23.030  43.869  1.00  0.00    -0.508 OA
ATOM     25  H   UNL     1      11.987  23.192  43.871  1.00  0.00     0.293 HD
ENDBRANCH   8  24
TORSDOF 5
ENDMDL
MODEL 4
REMARK VINA RESULT:    -7.801      0.055      1.058
REMARK INTER + INTRA:          -8.841
REMARK INTER:                  -9.144
REMARK INTRA:                   0.303
REMARK UNBOUND:                 0.328
REMARK SMILES O=c1c(O)c(-c2ccc(O)cc2)oc2cc(O)cc(O)c12
REMARK SMILES IDX 5 1 3 2 2 3 1 4 21 5 19 6 18 7 16 8 15 9 14 10 13 11 6 12
REMARK SMILES IDX 7 13 8 14 9 15 12 16 11 17 10 18 4 20 20 22 17 24
REMARK H PARENT 10 19 4 21 20 23 17 25
REMARK Flexibility Score: inf
ROOT
ATOM      1  C   UNL     1      24.853  12.049  35.088  1.00  0.00     0.180 A 
ATOM      2  C   UNL     1      25.378  13.066  34.272  1.00  0.00     0.208 A 
ATOM      3  C   UNL     1      26.540  13.737  34.684  1.00  0.00     0.238 A 
ATOM      4  O   UNL     1      26.963  14.696  33.987  1.00  0.00    -0.285 OA
ATOM      5  C   UNL     1      27.194  13.346  35.879  1.00  0.00     0.111 A 
ATOM      6  C   UNL     1      28.403  13.927  36.371  1.00  0.00     0.134 A 
ATOM      7  C   UNL     1      28.901  13.532  37.618  1.00  0.00     0.093 A 
ATOM      8  C   UNL     1      28.272  12.535  38.363  1.00  0.00     0.123 A 
ATOM      9  C   UNL     1      27.121  11.921  37.866  1.00  0.00     0.094 A 
ATOM     10  C   UNL     1      26.578  12.321  36.642  1.00  0.00     0.146 A 
ATOM     11  O   UNL     1      25.470  11.727  36.218  1.00  0.00    -0.452 OA
ENDROOT
BRANCH   1  12
ATOM     12  C   UNL     1      23.624  11.306  34.728  1.00  0.00     0.021 A 
ATOM     13  C   UNL     1      22.767  10.854  35.745  1.00  0.00     0.016 A 
ATOM     14  C   UNL     1      21.589  10.170  35.428  1.00  0.00     0.047 A 
ATOM     15  C   UNL     1      21.246   9.943  34.089  1.00  0.00     0.115 A 
ATOM     16  C   UNL     1      23.263  11.091  33.384  1.00  0.00     0.016 A 
ATOM     17  C   UNL     1      22.084  10.408  33.070  1.00  0.00     0.047 A 
BRANCH  15  18
ATOM     18  O   UNL     1      20.076   9.262  33.760  1.00  0.00    -0.508 OA
ATOM     19  H   UNL     1      19.724   8.508  34.337  1.00  0.00     0.293 HD
ENDBRANCH  15  18
ENDBRANCH   1  12
BRANCH   2  20
ATOM     20  O   UNL     1      24.762  13.385  33.059  1.00  0.00    -0.502 OA
ATOM     21  H   UNL     1      24.847  14.298  32.629  1.00  0.00     0.293 HD
ENDBRANCH   2  20
BRANCH   6  22
ATOM     22  O   UNL     1      29.162  14.869  35.669  1.00  0.00    -0.507 OA
ATOM     23  H   UNL     1      29.256  14.903  34.665  1.00  0.00     0.293 HD
ENDBRANCH   6  22
BRANCH   8  24
ATOM     24  O   UNL     1      28.806  12.155  39.593  1.00  0.00    -0.508 OA
ATOM     25  H   UNL     1      28.969  11.181  39.821  1.00  0.00     0.293 HD
ENDBRANCH   8  24
TORSDOF 5
ENDMDL
MODEL 5
REMARK VINA RESULT:    -7.201     15.726     16.289
REMARK INTER + INTRA:          -8.136
REMARK INTER:                  -8.585
REMARK INTRA:                   0.449
REMARK UNBOUND:                 0.328
REMARK SMILES O=c1c(O)c(-c2ccc(O)cc2)oc2cc(O)cc(O)c12
REMARK SMILES IDX 5 1 3 2 2 3 1 4 21 5 19 6 18 7 16 8 15 9 14 10 13 11 6 12
REMARK SMILES IDX 7 13 8 14 9 15 12 16 11 17 10 18 4 20 20 22 17 24
REMARK H PARENT 10 19 4 21 20 23 17 25
REMARK Flexibility Score: inf
ROOT
ATOM      1  C   UNL     1      14.995  23.498  41.448  1.00  0.00     0.180 A 
ATOM      2  C   UNL     1      15.090  24.510  40.476  1.00  0.00     0.208 A 
ATOM      3  C   UNL     1      16.143  24.465  39.548  1.00  0.00     0.238 A 
ATOM      4  O   UNL     1      16.265  25.412  38.728  1.00  0.00    -0.285 OA
ATOM      5  C   UNL     1      17.055  23.380  39.567  1.00  0.00     0.111 A 
ATOM      6  C   UNL     1      18.133  23.209  38.646  1.00  0.00     0.134 A 
ATOM      7  C   UNL     1      19.034  22.154  38.828  1.00  0.00     0.093 A 
ATOM      8  C   UNL     1      18.863  21.227  39.856  1.00  0.00     0.123 A 
ATOM      9  C   UNL     1      17.781  21.354  40.728  1.00  0.00     0.094 A 
ATOM     10  C   UNL     1      16.886  22.419  40.597  1.00  0.00     0.146 A 
ATOM     11  O   UNL     1      15.884  22.512  41.462  1.00  0.00    -0.452 OA
ENDROOT
BRANCH   1  12
ATOM     12  C   UNL     1      13.923  23.485  42.469  1.00  0.00     0.021 A 
ATOM     13  C   UNL     1      14.070  22.687  43.615  1.00  0.00     0.016 A 
ATOM     14  C   UNL     1      13.081  22.676  44.604  1.00  0.00     0.047 A 
ATOM     15  C   UNL     1      11.939  23.474  44.464  1.00  0.00     0.115 A 
ATOM     16  C   UNL     1      12.781  24.299  42.345  1.00  0.00     0.016 A 
ATOM     17  C   UNL     1      11.794  24.287  43.335  1.00  0.00     0.047 A 
BRANCH  15  18
ATOM     18  O   UNL     1      10.945  23.471  45.441  1.00  0.00    -0.508 OA
ATOM     19  H   UNL     1      10.086  23.993  45.322  1.00  0.00     0.293 HD
ENDBRANCH  15  18
ENDBRANCH   1  12
BRANCH   2  20
ATOM     20  O   UNL     1      14.136  25.529  40.425  1.00  0.00    -0.502 OA
ATOM     21  H   UNL     1      14.241  26.398  40.935  1.00  0.00     0.293 HD
ENDBRANCH   2  20
BRANCH   6  22
ATOM     22  O   UNL     1      18.347  24.025  37.530  1.00  0.00    -0.507 OA
ATOM     23  H   UNL     1      19.095  24.695  37.440  1.00  0.00     0.293 HD
ENDBRANCH   6  22
BRANCH   8  24
ATOM     24  O   UNL     1      19.771  20.180  39.995  1.00  0.00    -0.508 OA
ATOM     25  H   UNL     1      19.468  19.212  39.988  1.00  0.00     0.293 HD
ENDBRANCH   8  24
TORSDOF 5
ENDMDL
MODEL 6
REMARK VINA RESULT:    -7.135     13.652     14.250
REMARK INTER + INTRA:          -8.058
REMARK INTER:                  -7.920
REMARK INTRA:                  -0.138
REMARK UNBOUND:                 0.328
REMARK SMILES O=c1c(O)c(-c2ccc(O)cc2)oc2cc(O)cc(O)c12
REMARK SMILES IDX 5 1 3 2 2 3 1 4 21 5 19 6 18 7 16 8 15 9 14 10 13 11 6 12
REMARK SMILES IDX 7 13 8 14 9 15 12 16 11 17 10 18 4 20 20 22 17 24
REMARK H PARENT 10 19 4 21 20 23 17 25
REMARK Flexibility Score: inf
ROOT
ATOM      1  C   UNL     1      16.968  22.108  40.835  1.00  0.00     0.180 A 
ATOM      2  C   UNL     1      17.095  20.722  40.640  1.00  0.00     0.208 A 
ATOM      3  C   UNL     1      18.298  20.215  40.122  1.00  0.00     0.238 A 
ATOM      4  O   UNL     1      18.379  18.983  39.880  1.00  0.00    -0.285 OA
ATOM      5  C   UNL     1      19.377  21.094  39.857  1.00  0.00     0.111 A 
ATOM      6  C   UNL     1      20.657  20.685  39.372  1.00  0.00     0.134 A 
ATOM      7  C   UNL     1      21.613  21.654  39.046  1.00  0.00     0.093 A 
ATOM      8  C   UNL     1      21.363  23.011  39.246  1.00  0.00     0.123 A 
ATOM      9  C   UNL     1      20.135  23.418  39.772  1.00  0.00     0.094 A 
ATOM     10  C   UNL     1      19.146  22.477  40.070  1.00  0.00     0.146 A 
ATOM     11  O   UNL     1      17.986  22.910  40.547  1.00  0.00    -0.452 OA
ENDROOT
BRANCH   1  12
ATOM     12  C   UNL     1      15.727  22.719  41.364  1.00  0.00     0.021 A 
ATOM     13  C   UNL     1      15.343  22.464  42.691  1.00  0.00     0.016 A 
ATOM     14  C   UNL     1      14.187  23.048  43.219  1.00  0.00     0.047 A 
ATOM     15  C   UNL     1      13.410  23.906  42.431  1.00  0.00     0.115 A 
ATOM     16  C   UNL     1      14.952  23.598  40.585  1.00  0.00     0.016 A 
ATOM     17  C   UNL     1      13.797  24.181  41.115  1.00  0.00     0.047 A 
BRANCH  15  18
ATOM     18  O   UNL     1      12.255  24.494  42.945  1.00  0.00    -0.508 OA
ATOM     19  H   UNL     1      12.285  25.085  43.767  1.00  0.00     0.293 HD
ENDBRANCH  15  18
ENDBRANCH   1  12
BRANCH   2  20
ATOM     20  O   UNL     1      16.046  19.864  40.980  1.00  0.00    -0.502 OA
ATOM     21  H   UNL     1      15.384  19.518  40.297  1.00  0.00     0.293 HD
ENDBRANCH   2  20
BRANCH   6  22
ATOM     22  O   UNL     1      21.047  19.350  39.218  1.00  0.00    -0.507 OA
ATOM     23  H   UNL     1      20.797  18.762  38.439  1.00  0.00     0.293 HD
ENDBRANCH   6  22
BRANCH   8  24
ATOM     24  O   UNL     1      22.345  23.946  38.926  1.00  0.00    -0.508 OA
ATOM     25  H   UNL     1      23.065  23.745  38.242  1.00  0.00     0.293 HD
ENDBRANCH   8  24
TORSDOF 5
ENDMDL
MODEL 7
REMARK VINA RESULT:    -6.220     15.224     16.113
REMARK INTER + INTRA:          -6.983
REMARK INTER:                  -7.026
REMARK INTRA:                   0.043
REMARK UNBOUND:                 0.328
REMARK SMILES O=c1c(O)c(-c2ccc(O)cc2)oc2cc(O)cc(O)c12
REMARK SMILES IDX 5 1 3 2 2 3 1 4 21 5 19 6 18 7 16 8 15 9 14 10 13 11 6 12
REMARK SMILES IDX 7 13 8 14 9 15 12 16 11 17 10 18 4 20 20 22 17 24
REMARK H PARENT 10 19 4 21 20 23 17 25
REMARK Flexibility Score: inf
ROOT
ATOM      1  C   UNL     1      16.466  22.488  40.782  1.00  0.00     0.180 A 
ATOM      2  C   UNL     1      16.089  23.530  39.917  1.00  0.00     0.208 A 
ATOM      3  C   UNL     1      15.011  24.354  40.275  1.00  0.00     0.238 A 
ATOM      4  O   UNL     1      14.631  25.238  39.464  1.00  0.00    -0.285 OA
ATOM      5  C   UNL     1      14.358  24.162  41.518  1.00  0.00     0.111 A 
ATOM      6  C   UNL     1      13.283  24.967  42.004  1.00  0.00     0.134 A 
ATOM      7  C   UNL     1      12.645  24.617  43.200  1.00  0.00     0.093 A 
ATOM      8  C   UNL     1      13.082  23.533  43.961  1.00  0.00     0.123 A 
ATOM      9  C   UNL     1      14.168  22.774  43.523  1.00  0.00     0.094 A 
ATOM     10  C   UNL     1      14.800  23.074  42.314  1.00  0.00     0.146 A 
ATOM     11  O   UNL     1      15.815  22.312  41.925  1.00  0.00    -0.452 OA
ENDROOT
BRANCH   1  12
ATOM     12  C   UNL     1      17.583  21.568  40.467  1.00  0.00     0.021 A 
ATOM     13  C   UNL     1      18.842  22.097  40.136  1.00  0.00     0.016 A 
ATOM     14  C   UNL     1      19.917  21.248  39.857  1.00  0.00     0.047 A 
ATOM     15  C   UNL     1      19.751  19.859  39.921  1.00  0.00     0.115 A 
ATOM     16  C   UNL     1      17.429  20.171  40.548  1.00  0.00     0.016 A 
ATOM     17  C   UNL     1      18.506  19.325  40.270  1.00  0.00     0.047 A 
BRANCH  15  18
ATOM     18  O   UNL     1      20.814  19.002  39.644  1.00  0.00    -0.508 OA
ATOM     19  H   UNL     1      21.375  19.109  38.807  1.00  0.00     0.293 HD
ENDBRANCH  15  18
ENDBRANCH   1  12
BRANCH   2  20
ATOM     20  O   UNL     1      16.794  23.752  38.731  1.00  0.00    -0.502 OA
ATOM     21  H   UNL     1      16.617  23.222  37.886  1.00  0.00     0.293 HD
ENDBRANCH   2  20
BRANCH   6  22
ATOM     22  O   UNL     1      12.821  26.125  41.370  1.00  0.00    -0.507 OA
ATOM     23  H   UNL     1      12.158  26.774  41.764  1.00  0.00     0.293 HD
ENDBRANCH   6  22
BRANCH   8  24
ATOM     24  O   UNL     1      12.434  23.225  45.155  1.00  0.00    -0.508 OA
ATOM     25  H   UNL     1      11.574  23.688  45.425  1.00  0.00     0.293 HD
ENDBRANCH   8  24
TORSDOF 5
ENDMDL
MODEL 8
REMARK VINA RESULT:    -5.789      4.700      6.892
REMARK INTER + INTRA:          -6.477
REMARK INTER:                  -6.184
REMARK INTRA:                  -0.293
REMARK UNBOUND:                 0.328
REMARK SMILES O=c1c(O)c(-c2ccc(O)cc2)oc2cc(O)cc(O)c12
REMARK SMILES IDX 5 1 3 2 2 3 1 4 21 5 19 6 18 7 16 8 15 9 14 10 13 11 6 12
REMARK SMILES IDX 7 13 8 14 9 15 12 16 11 17 10 18 4 20 20 22 17 24
REMARK H PARENT 10 19 4 21 20 23 17 25
REMARK Flexibility Score: inf
ROOT
ATOM      1  C   UNL     1      29.603  11.800  37.120  1.00  0.00     0.180 A 
ATOM      2  C   UNL     1      30.204  12.127  38.348  1.00  0.00     0.208 A 
ATOM      3  C   UNL     1      30.463  11.103  39.273  1.00  0.00     0.238 A 
ATOM      4  O   UNL     1      30.933  11.411  40.399  1.00  0.00    -0.285 OA
ATOM      5  C   UNL     1      30.168   9.758  38.938  1.00  0.00     0.111 A 
ATOM      6  C   UNL     1      30.429   8.635  39.781  1.00  0.00     0.134 A 
ATOM      7  C   UNL     1      29.997   7.362  39.388  1.00  0.00     0.093 A 
ATOM      8  C   UNL     1      29.373   7.160  38.157  1.00  0.00     0.123 A 
ATOM      9  C   UNL     1      29.163   8.243  37.302  1.00  0.00     0.094 A 
ATOM     10  C   UNL     1      29.547   9.531  37.683  1.00  0.00     0.146 A 
ATOM     11  O   UNL     1      29.308  10.535  36.847  1.00  0.00    -0.452 OA
ENDROOT
BRANCH   1  12
ATOM     12  C   UNL     1      29.287  12.825  36.100  1.00  0.00     0.021 A 
ATOM     13  C   UNL     1      30.171  13.030  35.029  1.00  0.00     0.016 A 
ATOM     14  C   UNL     1      29.882  13.977  34.041  1.00  0.00     0.047 A 
ATOM     15  C   UNL     1      28.696  14.720  34.105  1.00  0.00     0.115 A 
ATOM     16  C   UNL     1      28.088  13.562  36.147  1.00  0.00     0.016 A 
ATOM     17  C   UNL     1      27.800  14.507  35.158  1.00  0.00     0.047 A 
BRANCH  15  18
ATOM     18  O   UNL     1      28.397  15.667  33.128  1.00  0.00    -0.508 OA
ATOM     19  H   UNL     1      27.594  16.279  33.213  1.00  0.00     0.293 HD
ENDBRANCH  15  18
ENDBRANCH   1  12
BRANCH   2  20
ATOM     20  O   UNL     1      30.558  13.449  38.629  1.00  0.00    -0.502 OA
ATOM     21  H   UNL     1      30.886  14.088  37.915  1.00  0.00     0.293 HD
ENDBRANCH   2  20
BRANCH   6  22
ATOM     22  O   UNL     1      31.125   8.709  40.992  1.00  0.00    -0.507 OA
ATOM     23  H   UNL     1      31.848   9.379  41.203  1.00  0.00     0.293 HD
ENDBRANCH   6  22
BRANCH   8  24
ATOM     24  O   UNL     1      28.973   5.877  37.792  1.00  0.00    -0.508 OA
ATOM     25  H   UNL     1      27.997   5.650  37.639  1.00  0.00     0.293 HD
ENDBRANCH   8  24
TORSDOF 5
ENDMDL
