MODEL 1
REMARK VINA RESULT:    -6.436      0.000      0.000
REMARK INTER + INTRA:          -7.972
REMARK INTER:                  -7.752
REMARK INTRA:                  -0.220
REMARK UNBOUND:                -0.220
REMARK SMILES O=c1c(O)c(-c2ccc(O)c(O)c2)oc2cc(O)cc(O)c12
REMARK SMILES IDX 5 1 3 2 2 3 1 4 22 5 20 6 19 7 17 8 16 9 15 10 14 11 6 12
REMARK SMILES IDX 7 13 8 14 9 15 13 16 11 17 10 18 12 20 4 22 21 24 18 26
REMARK H PARENT 10 19 12 21 4 23 21 25 18 27
REMARK Flexibility Score: inf
ROOT
ATOM      1  C   UNL     1      -0.029  -6.587   5.665  1.00  0.00     0.180 A 
ATOM      2  C   UNL     1      -0.254  -6.088   6.959  1.00  0.00     0.208 A 
ATOM      3  C   UNL     1      -1.573  -5.998   7.435  1.00  0.00     0.238 A 
ATOM      4  O   UNL     1      -1.764  -5.602   8.613  1.00  0.00    -0.285 OA
ATOM      5  C   UNL     1      -2.649  -6.394   6.605  1.00  0.00     0.111 A 
ATOM      6  C   UNL     1      -4.027  -6.309   6.970  1.00  0.00     0.134 A 
ATOM      7  C   UNL     1      -5.001  -6.850   6.121  1.00  0.00     0.093 A 
ATOM      8  C   UNL     1      -4.650  -7.416   4.892  1.00  0.00     0.123 A 
ATOM      9  C   UNL     1      -3.314  -7.450   4.501  1.00  0.00     0.094 A 
ATOM     10  C   UNL     1      -2.317  -6.950   5.342  1.00  0.00     0.146 A 
ATOM     11  O   UNL     1      -1.055  -7.012   4.936  1.00  0.00    -0.452 OA
ENDROOT
BRANCH   1  12
ATOM     12  C   UNL     1       1.330  -6.688   5.084  1.00  0.00     0.025 A 
ATOM     13  C   UNL     1       1.861  -7.952   4.784  1.00  0.00     0.016 A 
ATOM     14  C   UNL     1       3.132  -8.069   4.216  1.00  0.00     0.051 A 
ATOM     15  C   UNL     1       3.885  -6.924   3.926  1.00  0.00     0.157 A 
ATOM     16  C   UNL     1       2.080  -5.540   4.773  1.00  0.00     0.062 A 
ATOM     17  C   UNL     1       3.353  -5.654   4.202  1.00  0.00     0.158 A 
BRANCH  15  18
ATOM     18  O   UNL     1       5.153  -7.044   3.362  1.00  0.00    -0.504 OA
ATOM     19  H   UNL     1       5.962  -7.284   3.921  1.00  0.00     0.293 HD
ENDBRANCH  15  18
BRANCH  17  20
ATOM     20  O   UNL     1       4.071  -4.494   3.912  1.00  0.00    -0.504 OA
ATOM     21  H   UNL     1       4.070  -3.691   4.531  1.00  0.00     0.293 HD
ENDBRANCH  17  20
ENDBRANCH   1  12
BRANCH   2  22
ATOM     22  O   UNL     1       0.825  -5.723   7.769  1.00  0.00    -0.502 OA
ATOM     23  H   UNL     1       1.489  -6.399   8.126  1.00  0.00     0.293 HD
ENDBRANCH   2  22
BRANCH   6  24
ATOM     24  O   UNL     1      -4.489  -5.683   8.130  1.00  0.00    -0.507 OA
ATOM     25  H   UNL     1      -4.334  -4.713   8.361  1.00  0.00     0.293 HD
ENDBRANCH   6  24
BRANCH   8  26
ATOM     26  O   UNL     1      -5.627  -7.939   4.047  1.00  0.00    -0.508 OA
ATOM     27  H   UNL     1      -6.050  -7.380   3.316  1.00  0.00     0.293 HD
ENDBRANCH   8  26
TORSDOF 6
ENDMDL
MODEL 2
REMARK VINA RESULT:    -6.258      1.880      3.095
REMARK INTER + INTRA:          -7.758
REMARK INTER:                  -8.233
REMARK INTRA:                   0.475
REMARK UNBOUND:                -0.220
REMARK SMILES O=c1c(O)c(-c2ccc(O)c(O)c2)oc2cc(O)cc(O)c12
REMARK SMILES IDX 5 1 3 2 2 3 1 4 22 5 20 6 19 7 17 8 16 9 15 10 14 11 6 12
REMARK SMILES IDX 7 13 8 14 9 15 13 16 11 17 10 18 12 20 4 22 21 24 18 26
REMARK H PARENT 10 19 12 21 4 23 21 25 18 27
REMARK Flexibility Score: inf
ROOT
ATOM      1  C   UNL     1       1.166  -6.642   4.739  1.00  0.00     0.180 A 
ATOM      2  C   UNL     1       0.926  -8.026   4.698  1.00  0.00     0.208 A 
ATOM      3  C   UNL     1      -0.379  -8.498   4.916  1.00  0.00     0.238 A 
ATOM      4  O   UNL     1      -0.598  -9.733   4.824  1.00  0.00    -0.285 OA
ATOM      5  C   UNL     1      -1.422  -7.581   5.187  1.00  0.00     0.111 A 
ATOM      6  C   UNL     1      -2.774  -7.951   5.462  1.00  0.00     0.134 A 
ATOM      7  C   UNL     1      -3.750  -6.954   5.588  1.00  0.00     0.093 A 
ATOM      8  C   UNL     1      -3.411  -5.601   5.512  1.00  0.00     0.123 A 
ATOM      9  C   UNL     1      -2.085  -5.230   5.304  1.00  0.00     0.094 A 
ATOM     10  C   UNL     1      -1.095  -6.201   5.139  1.00  0.00     0.146 A 
ATOM     11  O   UNL     1       0.154  -5.804   4.931  1.00  0.00    -0.452 OA
ENDROOT
BRANCH   1  12
ATOM     12  C   UNL     1       2.519  -6.071   4.544  1.00  0.00     0.025 A 
ATOM     13  C   UNL     1       2.732  -4.703   4.774  1.00  0.00     0.016 A 
ATOM     14  C   UNL     1       4.004  -4.148   4.617  1.00  0.00     0.051 A 
ATOM     15  C   UNL     1       5.086  -4.954   4.242  1.00  0.00     0.157 A 
ATOM     16  C   UNL     1       3.612  -6.882   4.188  1.00  0.00     0.062 A 
ATOM     17  C   UNL     1       4.888  -6.329   4.031  1.00  0.00     0.158 A 
BRANCH  15  18
ATOM     18  O   UNL     1       6.353  -4.398   4.083  1.00  0.00    -0.504 OA
ATOM     19  H   UNL     1       7.031  -4.399   4.836  1.00  0.00     0.293 HD
ENDBRANCH  15  18
BRANCH  17  20
ATOM     20  O   UNL     1       5.947  -7.163   3.670  1.00  0.00    -0.504 OA
ATOM     21  H   UNL     1       6.569  -7.570   4.358  1.00  0.00     0.293 HD
ENDBRANCH  17  20
ENDBRANCH   1  12
BRANCH   2  22
ATOM     22  O   UNL     1       1.968  -8.912   4.407  1.00  0.00    -0.502 OA
ATOM     23  H   UNL     1       1.864  -9.917   4.482  1.00  0.00     0.293 HD
ENDBRANCH   2  22
BRANCH   6  24
ATOM     24  O   UNL     1      -3.200  -9.268   5.648  1.00  0.00    -0.507 OA
ATOM     25  H   UNL     1      -3.981  -9.693   5.170  1.00  0.00     0.293 HD
ENDBRANCH   6  24
BRANCH   8  26
ATOM     26  O   UNL     1      -4.387  -4.616   5.654  1.00  0.00    -0.508 OA
ATOM     27  H   UNL     1      -4.258  -3.684   5.277  1.00  0.00     0.293 HD
ENDBRANCH   8  26
TORSDOF 6
ENDMDL
MODEL 3
REMARK VINA RESULT:    -6.072      2.186      2.996
REMARK INTER + INTRA:          -7.534
REMARK INTER:                  -7.202
REMARK INTRA:                  -0.333
REMARK UNBOUND:                -0.220
REMARK SMILES O=c1c(O)c(-c2ccc(O)c(O)c2)oc2cc(O)cc(O)c12
REMARK SMILES IDX 5 1 3 2 2 3 1 4 22 5 20 6 19 7 17 8 16 9 15 10 14 11 6 12
REMARK SMILES IDX 7 13 8 14 9 15 13 16 11 17 10 18 12 20 4 22 21 24 18 26
REMARK H PARENT 10 19 12 21 4 23 21 25 18 27
REMARK Flexibility Score: inf
ROOT
ATOM      1  C   UNL     1       1.499  -6.191   5.467  1.00  0.00     0.180 A 
ATOM      2  C   UNL     1       0.624  -5.212   4.966  1.00  0.00     0.208 A 
ATOM      3  C   UNL     1      -0.761  -5.428   5.053  1.00  0.00     0.238 A 
ATOM      4  O   UNL     1      -1.539  -4.525   4.651  1.00  0.00    -0.285 OA
ATOM      5  C   UNL     1      -1.252  -6.625   5.626  1.00  0.00     0.111 A 
ATOM      6  C   UNL     1      -2.635  -6.966   5.729  1.00  0.00     0.134 A 
ATOM      7  C   UNL     1      -3.012  -8.117   6.432  1.00  0.00     0.093 A 
ATOM      8  C   UNL     1      -2.052  -8.973   6.979  1.00  0.00     0.123 A 
ATOM      9  C   UNL     1      -0.699  -8.680   6.832  1.00  0.00     0.094 A 
ATOM     10  C   UNL     1      -0.293  -7.520   6.167  1.00  0.00     0.146 A 
ATOM     11  O   UNL     1       1.007  -7.273   6.059  1.00  0.00    -0.452 OA
ENDROOT
BRANCH   1  12
ATOM     12  C   UNL     1       2.971  -6.046   5.390  1.00  0.00     0.025 A 
ATOM     13  C   UNL     1       3.675  -5.536   6.492  1.00  0.00     0.016 A 
ATOM     14  C   UNL     1       5.066  -5.412   6.447  1.00  0.00     0.051 A 
ATOM     15  C   UNL     1       5.775  -5.810   5.307  1.00  0.00     0.157 A 
ATOM     16  C   UNL     1       3.689  -6.465   4.254  1.00  0.00     0.062 A 
ATOM     17  C   UNL     1       5.083  -6.343   4.207  1.00  0.00     0.158 A 
BRANCH  15  18
ATOM     18  O   UNL     1       7.162  -5.683   5.265  1.00  0.00    -0.504 OA
ATOM     19  H   UNL     1       7.710  -6.095   4.519  1.00  0.00     0.293 HD
ENDBRANCH  15  18
BRANCH  17  20
ATOM     20  O   UNL     1       5.761  -6.762   3.063  1.00  0.00    -0.504 OA
ATOM     21  H   UNL     1       5.401  -6.590   2.132  1.00  0.00     0.293 HD
ENDBRANCH  17  20
ENDBRANCH   1  12
BRANCH   2  22
ATOM     22  O   UNL     1       1.131  -4.027   4.424  1.00  0.00    -0.502 OA
ATOM     23  H   UNL     1       1.316  -3.918   3.434  1.00  0.00     0.293 HD
ENDBRANCH   2  22
BRANCH   6  24
ATOM     24  O   UNL     1      -3.666  -6.229   5.140  1.00  0.00    -0.507 OA
ATOM     25  H   UNL     1      -3.532  -5.489   4.467  1.00  0.00     0.293 HD
ENDBRANCH   6  24
BRANCH   8  26
ATOM     26  O   UNL     1      -2.436 -10.125   7.664  1.00  0.00    -0.508 OA
ATOM     27  H   UNL     1      -3.117 -10.094   8.413  1.00  0.00     0.293 HD
ENDBRANCH   8  26
TORSDOF 6
ENDMDL
MODEL 4
REMARK VINA RESULT:    -5.933      1.670      6.598
REMARK INTER + INTRA:          -7.366
REMARK INTER:                  -7.182
REMARK INTRA:                  -0.184
REMARK UNBOUND:                -0.220
REMARK SMILES O=c1c(O)c(-c2ccc(O)c(O)c2)oc2cc(O)cc(O)c12
REMARK SMILES IDX 5 1 3 2 2 3 1 4 22 5 20 6 19 7 17 8 16 9 15 10 14 11 6 12
REMARK SMILES IDX 7 13 8 14 9 15 13 16 11 17 10 18 12 20 4 22 21 24 18 26
REMARK H PARENT 10 19 12 21 4 23 21 25 18 27
REMARK Flexibility Score: inf
ROOT
ATOM      1  C   UNL     1      -0.384  -6.015   6.125  1.00  0.00     0.180 A 
ATOM      2  C   UNL     1      -0.139  -5.804   7.493  1.00  0.00     0.208 A 
ATOM      3  C   UNL     1       1.144  -5.409   7.902  1.00  0.00     0.238 A 
ATOM      4  O   UNL     1       1.343  -5.170   9.122  1.00  0.00    -0.285 OA
ATOM      5  C   UNL     1       2.170  -5.244   6.942  1.00  0.00     0.111 A 
ATOM      6  C   UNL     1       3.517  -4.885   7.248  1.00  0.00     0.134 A 
ATOM      7  C   UNL     1       4.417  -4.623   6.207  1.00  0.00     0.093 A 
ATOM      8  C   UNL     1       4.034  -4.769   4.871  1.00  0.00     0.123 A 
ATOM      9  C   UNL     1       2.738  -5.177   4.563  1.00  0.00     0.094 A 
ATOM     10  C   UNL     1       1.809  -5.412   5.579  1.00  0.00     0.146 A 
ATOM     11  O   UNL     1       0.581  -5.788   5.241  1.00  0.00    -0.452 OA
ENDROOT
BRANCH   1  12
ATOM     12  C   UNL     1      -1.704  -6.456   5.619  1.00  0.00     0.025 A 
ATOM     13  C   UNL     1      -1.846  -7.750   5.093  1.00  0.00     0.016 A 
ATOM     14  C   UNL     1      -3.087  -8.194   4.631  1.00  0.00     0.051 A 
ATOM     15  C   UNL     1      -4.208  -7.357   4.700  1.00  0.00     0.157 A 
ATOM     16  C   UNL     1      -2.836  -5.626   5.706  1.00  0.00     0.062 A 
ATOM     17  C   UNL     1      -4.082  -6.068   5.245  1.00  0.00     0.158 A 
BRANCH  15  18
ATOM     18  O   UNL     1      -5.444  -7.802   4.236  1.00  0.00    -0.504 OA
ATOM     19  H   UNL     1      -5.561  -8.159   3.295  1.00  0.00     0.293 HD
ENDBRANCH  15  18
BRANCH  17  20
ATOM     20  O   UNL     1      -5.181  -5.216   5.341  1.00  0.00    -0.504 OA
ATOM     21  H   UNL     1      -6.030  -5.371   4.811  1.00  0.00     0.293 HD
ENDBRANCH  17  20
ENDBRANCH   1  12
BRANCH   2  22
ATOM     22  O   UNL     1      -1.173  -5.952   8.422  1.00  0.00    -0.502 OA
ATOM     23  H   UNL     1      -1.326  -5.292   9.175  1.00  0.00     0.293 HD
ENDBRANCH   2  22
BRANCH   6  24
ATOM     24  O   UNL     1       4.026  -4.801   8.547  1.00  0.00    -0.507 OA
ATOM     25  H   UNL     1       5.007  -4.763   8.779  1.00  0.00     0.293 HD
ENDBRANCH   6  24
BRANCH   8  26
ATOM     26  O   UNL     1       4.939  -4.520   3.841  1.00  0.00    -0.508 OA
ATOM     27  H   UNL     1       5.764  -3.951   3.987  1.00  0.00     0.293 HD
ENDBRANCH   8  26
TORSDOF 6
ENDMDL
MODEL 5
REMARK VINA RESULT:    -5.904      1.909      2.197
REMARK INTER + INTRA:          -7.332
REMARK INTER:                  -7.122
REMARK INTRA:                  -0.210
REMARK UNBOUND:                -0.220
REMARK SMILES O=c1c(O)c(-c2ccc(O)c(O)c2)oc2cc(O)cc(O)c12
REMARK SMILES IDX 5 1 3 2 2 3 1 4 22 5 20 6 19 7 17 8 16 9 15 10 14 11 6 12
REMARK SMILES IDX 7 13 8 14 9 15 13 16 11 17 10 18 12 20 4 22 21 24 18 26
REMARK H PARENT 10 19 12 21 4 23 21 25 18 27
REMARK Flexibility Score: inf
ROOT
ATOM      1  C   UNL     1      -0.213  -7.115   5.474  1.00  0.00     0.180 A 
ATOM      2  C   UNL     1      -0.710  -5.821   5.241  1.00  0.00     0.208 A 
ATOM      3  C   UNL     1      -2.099  -5.613   5.250  1.00  0.00     0.238 A 
ATOM      4  O   UNL     1      -2.535  -4.443   5.094  1.00  0.00    -0.285 OA
ATOM      5  C   UNL     1      -2.972  -6.702   5.478  1.00  0.00     0.111 A 
ATOM      6  C   UNL     1      -4.397  -6.614   5.471  1.00  0.00     0.134 A 
ATOM      7  C   UNL     1      -5.161  -7.730   5.837  1.00  0.00     0.093 A 
ATOM      8  C   UNL     1      -4.551  -8.948   6.149  1.00  0.00     0.123 A 
ATOM      9  C   UNL     1      -3.164  -9.060   6.101  1.00  0.00     0.094 A 
ATOM     10  C   UNL     1      -2.374  -7.955   5.774  1.00  0.00     0.146 A 
ATOM     11  O   UNL     1      -1.055  -8.103   5.751  1.00  0.00    -0.452 OA
ENDROOT
BRANCH   1  12
ATOM     12  C   UNL     1       1.237  -7.417   5.456  1.00  0.00     0.025 A 
ATOM     13  C   UNL     1       1.866  -7.862   6.629  1.00  0.00     0.016 A 
ATOM     14  C   UNL     1       3.227  -8.174   6.628  1.00  0.00     0.051 A 
ATOM     15  C   UNL     1       3.978  -8.060   5.451  1.00  0.00     0.157 A 
ATOM     16  C   UNL     1       1.989  -7.324   4.271  1.00  0.00     0.062 A 
ATOM     17  C   UNL     1       3.353  -7.637   4.266  1.00  0.00     0.158 A 
BRANCH  15  18
ATOM     18  O   UNL     1       5.336  -8.370   5.453  1.00  0.00    -0.504 OA
ATOM     19  H   UNL     1       6.005  -7.827   4.921  1.00  0.00     0.293 HD
ENDBRANCH  15  18
BRANCH  17  20
ATOM     20  O   UNL     1       4.069  -7.527   3.074  1.00  0.00    -0.504 OA
ATOM     21  H   UNL     1       4.889  -6.938   2.991  1.00  0.00     0.293 HD
ENDBRANCH  17  20
ENDBRANCH   1  12
BRANCH   2  22
ATOM     22  O   UNL     1       0.172  -4.755   5.039  1.00  0.00    -0.502 OA
ATOM     23  H   UNL     1      -0.117  -3.884   4.609  1.00  0.00     0.293 HD
ENDBRANCH   2  22
BRANCH   6  24
ATOM     24  O   UNL     1      -5.106  -5.473   5.086  1.00  0.00    -0.507 OA
ATOM     25  H   UNL     1      -5.440  -5.291   4.152  1.00  0.00     0.293 HD
ENDBRANCH   6  24
BRANCH   8  26
ATOM     26  O   UNL     1      -5.320 -10.057   6.498  1.00  0.00    -0.508 OA
ATOM     27  H   UNL     1      -6.047  -9.998   7.200  1.00  0.00     0.293 HD
ENDBRANCH   8  26
TORSDOF 6
ENDMDL
MODEL 6
REMARK VINA RESULT:    -5.841      1.881      7.369
REMARK INTER + INTRA:          -7.256
REMARK INTER:                  -7.076
REMARK INTRA:                  -0.181
REMARK UNBOUND:                -0.220
REMARK SMILES O=c1c(O)c(-c2ccc(O)c(O)c2)oc2cc(O)cc(O)c12
REMARK SMILES IDX 5 1 3 2 2 3 1 4 22 5 20 6 19 7 17 8 16 9 15 10 14 11 6 12
REMARK SMILES IDX 7 13 8 14 9 15 13 16 11 17 10 18 12 20 4 22 21 24 18 26
REMARK H PARENT 10 19 12 21 4 23 21 25 18 27
REMARK Flexibility Score: inf
ROOT
ATOM      1  C   UNL     1       1.380  -5.907   5.842  1.00  0.00     0.180 A 
ATOM      2  C   UNL     1       1.902  -4.868   5.053  1.00  0.00     0.208 A 
ATOM      3  C   UNL     1       3.245  -4.930   4.647  1.00  0.00     0.238 A 
ATOM      4  O   UNL     1       3.691  -4.023   3.897  1.00  0.00    -0.285 OA
ATOM      5  C   UNL     1       4.052  -6.021   5.047  1.00  0.00     0.111 A 
ATOM      6  C   UNL     1       5.435  -6.166   4.727  1.00  0.00     0.134 A 
ATOM      7  C   UNL     1       6.103  -7.350   5.065  1.00  0.00     0.093 A 
ATOM      8  C   UNL     1       5.452  -8.368   5.768  1.00  0.00     0.123 A 
ATOM      9  C   UNL     1       4.118  -8.210   6.137  1.00  0.00     0.094 A 
ATOM     10  C   UNL     1       3.416  -7.055   5.783  1.00  0.00     0.146 A 
ATOM     11  O   UNL     1       2.144  -6.950   6.145  1.00  0.00    -0.452 OA
ENDROOT
BRANCH   1  12
ATOM     12  C   UNL     1      -0.019  -5.901   6.329  1.00  0.00     0.025 A 
ATOM     13  C   UNL     1      -0.274  -5.725   7.698  1.00  0.00     0.016 A 
ATOM     14  C   UNL     1      -1.586  -5.694   8.175  1.00  0.00     0.051 A 
ATOM     15  C   UNL     1      -2.664  -5.824   7.290  1.00  0.00     0.157 A 
ATOM     16  C   UNL     1      -1.104  -6.010   5.440  1.00  0.00     0.062 A 
ATOM     17  C   UNL     1      -2.420  -5.977   5.915  1.00  0.00     0.158 A 
BRANCH  15  18
ATOM     18  O   UNL     1      -3.972  -5.795   7.770  1.00  0.00    -0.504 OA
ATOM     19  H   UNL     1      -4.258  -6.351   8.566  1.00  0.00     0.293 HD
ENDBRANCH  15  18
BRANCH  17  20
ATOM     20  O   UNL     1      -3.471  -6.095   5.006  1.00  0.00    -0.504 OA
ATOM     21  H   UNL     1      -3.505  -5.555   4.149  1.00  0.00     0.293 HD
ENDBRANCH  17  20
ENDBRANCH   1  12
BRANCH   2  22
ATOM     22  O   UNL     1       1.081  -3.810   4.651  1.00  0.00    -0.502 OA
ATOM     23  H   UNL     1       1.315  -2.841   4.833  1.00  0.00     0.293 HD
ENDBRANCH   2  22
BRANCH   6  24
ATOM     24  O   UNL     1       6.201  -5.174   4.108  1.00  0.00    -0.507 OA
ATOM     25  H   UNL     1       6.889  -5.343   3.390  1.00  0.00     0.293 HD
ENDBRANCH   6  24
BRANCH   8  26
ATOM     26  O   UNL     1       6.127  -9.536   6.113  1.00  0.00    -0.508 OA
ATOM     27  H   UNL     1       5.635 -10.410   6.260  1.00  0.00     0.293 HD
ENDBRANCH   8  26
TORSDOF 6
ENDMDL
MODEL 7
REMARK VINA RESULT:    -5.799      1.964      2.970
REMARK INTER + INTRA:          -7.206
REMARK INTER:                  -6.882
REMARK INTRA:                  -0.324
REMARK UNBOUND:                -0.220
REMARK SMILES O=c1c(O)c(-c2ccc(O)c(O)c2)oc2cc(O)cc(O)c12
REMARK SMILES IDX 5 1 3 2 2 3 1 4 22 5 20 6 19 7 17 8 16 9 15 10 14 11 6 12
REMARK SMILES IDX 7 13 8 14 9 15 13 16 11 17 10 18 12 20 4 22 21 24 18 26
REMARK H PARENT 10 19 12 21 4 23 21 25 18 27
REMARK Flexibility Score: inf
ROOT
ATOM      1  C   UNL     1      -0.128  -6.794   5.357  1.00  0.00     0.180 A 
ATOM      2  C   UNL     1      -0.190  -8.129   4.919  1.00  0.00     0.208 A 
ATOM      3  C   UNL     1      -1.447  -8.713   4.692  1.00  0.00     0.238 A 
ATOM      4  O   UNL     1      -1.495  -9.890   4.250  1.00  0.00    -0.285 OA
ATOM      5  C   UNL     1      -2.624  -7.961   4.919  1.00  0.00     0.111 A 
ATOM      6  C   UNL     1      -3.951  -8.465   4.760  1.00  0.00     0.134 A 
ATOM      7  C   UNL     1      -5.040  -7.594   4.887  1.00  0.00     0.093 A 
ATOM      8  C   UNL     1      -4.854  -6.252   5.230  1.00  0.00     0.123 A 
ATOM      9  C   UNL     1      -3.566  -5.766   5.446  1.00  0.00     0.094 A 
ATOM     10  C   UNL     1      -2.458  -6.602   5.292  1.00  0.00     0.146 A 
ATOM     11  O   UNL     1      -1.248  -6.095   5.497  1.00  0.00    -0.452 OA
ENDROOT
BRANCH   1  12
ATOM     12  C   UNL     1       1.158  -6.117   5.641  1.00  0.00     0.025 A 
ATOM     13  C   UNL     1       1.726  -6.221   6.920  1.00  0.00     0.016 A 
ATOM     14  C   UNL     1       2.949  -5.608   7.203  1.00  0.00     0.051 A 
ATOM     15  C   UNL     1       3.630  -4.896   6.208  1.00  0.00     0.157 A 
ATOM     16  C   UNL     1       1.855  -5.418   4.638  1.00  0.00     0.062 A 
ATOM     17  C   UNL     1       3.081  -4.805   4.918  1.00  0.00     0.158 A 
BRANCH  15  18
ATOM     18  O   UNL     1       4.849  -4.284   6.494  1.00  0.00    -0.504 OA
ATOM     19  H   UNL     1       5.226  -4.266   7.434  1.00  0.00     0.293 HD
ENDBRANCH  15  18
BRANCH  17  20
ATOM     20  O   UNL     1       3.741  -4.115   3.901  1.00  0.00    -0.504 OA
ATOM     21  H   UNL     1       3.490  -3.168   3.642  1.00  0.00     0.293 HD
ENDBRANCH  17  20
ENDBRANCH   1  12
BRANCH   2  22
ATOM     22  O   UNL     1       0.986  -8.846   4.681  1.00  0.00    -0.502 OA
ATOM     23  H   UNL     1       1.014  -9.858   4.679  1.00  0.00     0.293 HD
ENDBRANCH   2  22
BRANCH   6  24
ATOM     24  O   UNL     1      -4.251  -9.806   4.507  1.00  0.00    -0.507 OA
ATOM     25  H   UNL     1      -5.000 -10.320   4.946  1.00  0.00     0.293 HD
ENDBRANCH   6  24
BRANCH   8  26
ATOM     26  O   UNL     1      -5.944  -5.396   5.369  1.00  0.00    -0.508 OA
ATOM     27  H   UNL     1      -5.875  -4.529   5.887  1.00  0.00     0.293 HD
ENDBRANCH   8  26
TORSDOF 6
ENDMDL
MODEL 8
REMARK VINA RESULT:    -5.752      2.434      7.655
REMARK INTER + INTRA:          -7.149
REMARK INTER:                  -6.853
REMARK INTRA:                  -0.296
REMARK UNBOUND:                -0.220
REMARK SMILES O=c1c(O)c(-c2ccc(O)c(O)c2)oc2cc(O)cc(O)c12
REMARK SMILES IDX 5 1 3 2 2 3 1 4 22 5 20 6 19 7 17 8 16 9 15 10 14 11 6 12
REMARK SMILES IDX 7 13 8 14 9 15 13 16 11 17 10 18 12 20 4 22 21 24 18 26
REMARK H PARENT 10 19 12 21 4 23 21 25 18 27
REMARK Flexibility Score: inf
ROOT
ATOM      1  C   UNL     1      -3.826  -7.421   4.880  1.00  0.00     0.180 A 
ATOM      2  C   UNL     1      -3.264  -8.705   4.781  1.00  0.00     0.208 A 
ATOM      3  C   UNL     1      -1.867  -8.837   4.742  1.00  0.00     0.238 A 
ATOM      4  O   UNL     1      -1.369  -9.992   4.707  1.00  0.00    -0.285 OA
ATOM      5  C   UNL     1      -1.049  -7.683   4.787  1.00  0.00     0.111 A 
ATOM      6  C   UNL     1       0.376  -7.696   4.714  1.00  0.00     0.134 A 
ATOM      7  C   UNL     1       1.089  -6.504   4.899  1.00  0.00     0.093 A 
ATOM      8  C   UNL     1       0.424  -5.290   5.090  1.00  0.00     0.123 A 
ATOM      9  C   UNL     1      -0.969  -5.258   5.104  1.00  0.00     0.094 A 
ATOM     10  C   UNL     1      -1.706  -6.436   4.957  1.00  0.00     0.146 A 
ATOM     11  O   UNL     1      -3.031  -6.362   4.987  1.00  0.00    -0.452 OA
ENDROOT
BRANCH   1  12
ATOM     12  C   UNL     1      -5.290  -7.200   4.902  1.00  0.00     0.025 A 
ATOM     13  C   UNL     1      -5.996  -7.363   6.104  1.00  0.00     0.016 A 
ATOM     14  C   UNL     1      -7.374  -7.138   6.152  1.00  0.00     0.051 A 
ATOM     15  C   UNL     1      -8.064  -6.733   5.003  1.00  0.00     0.157 A 
ATOM     16  C   UNL     1      -5.983  -6.773   3.755  1.00  0.00     0.062 A 
ATOM     17  C   UNL     1      -7.364  -6.545   3.799  1.00  0.00     0.158 A 
BRANCH  15  18
ATOM     18  O   UNL     1      -9.439  -6.512   5.053  1.00  0.00    -0.504 OA
ATOM     19  H   UNL     1     -10.083  -7.041   4.477  1.00  0.00     0.293 HD
ENDBRANCH  15  18
BRANCH  17  20
ATOM     20  O   UNL     1      -8.019  -6.129   2.641  1.00  0.00    -0.504 OA
ATOM     21  H   UNL     1      -8.832  -6.613   2.279  1.00  0.00     0.293 HD
ENDBRANCH  17  20
ENDBRANCH   1  12
BRANCH   2  22
ATOM     22  O   UNL     1      -4.090  -9.833   4.760  1.00  0.00    -0.502 OA
ATOM     23  H   UNL     1      -3.846 -10.676   4.253  1.00  0.00     0.293 HD
ENDBRANCH   2  22
BRANCH   6  24
ATOM     24  O   UNL     1       1.132  -8.837   4.435  1.00  0.00    -0.507 OA
ATOM     25  H   UNL     1       2.125  -8.840   4.256  1.00  0.00     0.293 HD
ENDBRANCH   6  24
BRANCH   8  26
ATOM     26  O   UNL     1       1.140  -4.107   5.259  1.00  0.00    -0.508 OA
ATOM     27  H   UNL     1       1.413  -3.779   6.177  1.00  0.00     0.293 HD
ENDBRANCH   8  26
TORSDOF 6
ENDMDL
MODEL 9
REMARK VINA RESULT:    -5.729      1.817      7.220
REMARK INTER + INTRA:          -7.121
REMARK INTER:                  -6.821
REMARK INTRA:                  -0.299
REMARK UNBOUND:                -0.220
REMARK SMILES O=c1c(O)c(-c2ccc(O)c(O)c2)oc2cc(O)cc(O)c12
REMARK SMILES IDX 5 1 3 2 2 3 1 4 22 5 20 6 19 7 17 8 16 9 15 10 14 11 6 12
REMARK SMILES IDX 7 13 8 14 9 15 13 16 11 17 10 18 12 20 4 22 21 24 18 26
REMARK H PARENT 10 19 12 21 4 23 21 25 18 27
REMARK Flexibility Score: inf
ROOT
ATOM      1  C   UNL     1      -0.087  -6.671   5.818  1.00  0.00     0.180 A 
ATOM      2  C   UNL     1       0.397  -7.595   4.876  1.00  0.00     0.208 A 
ATOM      3  C   UNL     1       1.765  -7.590   4.558  1.00  0.00     0.238 A 
ATOM      4  O   UNL     1       2.201  -8.454   3.754  1.00  0.00    -0.285 OA
ATOM      5  C   UNL     1       2.628  -6.653   5.174  1.00  0.00     0.111 A 
ATOM      6  C   UNL     1       4.023  -6.532   4.897  1.00  0.00     0.134 A 
ATOM      7  C   UNL     1       4.806  -5.656   5.660  1.00  0.00     0.093 A 
ATOM      8  C   UNL     1       4.231  -4.852   6.647  1.00  0.00     0.123 A 
ATOM      9  C   UNL     1       2.860  -4.919   6.884  1.00  0.00     0.094 A 
ATOM     10  C   UNL     1       2.059  -5.808   6.163  1.00  0.00     0.146 A 
ATOM     11  O   UNL     1       0.759  -5.849   6.428  1.00  0.00    -0.452 OA
ENDROOT
BRANCH   1  12
ATOM     12  C   UNL     1      -1.519  -6.599   6.188  1.00  0.00     0.025 A 
ATOM     13  C   UNL     1      -2.031  -7.484   7.149  1.00  0.00     0.016 A 
ATOM     14  C   UNL     1      -3.374  -7.418   7.528  1.00  0.00     0.051 A 
ATOM     15  C   UNL     1      -4.222  -6.457   6.962  1.00  0.00     0.157 A 
ATOM     16  C   UNL     1      -2.368  -5.621   5.637  1.00  0.00     0.062 A 
ATOM     17  C   UNL     1      -3.714  -5.552   6.016  1.00  0.00     0.158 A 
BRANCH  15  18
ATOM     18  O   UNL     1      -5.562  -6.395   7.340  1.00  0.00    -0.504 OA
ATOM     19  H   UNL     1      -6.249  -7.038   6.965  1.00  0.00     0.293 HD
ENDBRANCH  15  18
BRANCH  17  20
ATOM     20  O   UNL     1      -4.529  -4.574   5.444  1.00  0.00    -0.504 OA
ATOM     21  H   UNL     1      -5.316  -4.173   5.939  1.00  0.00     0.293 HD
ENDBRANCH  17  20
ENDBRANCH   1  12
BRANCH   2  22
ATOM     22  O   UNL     1      -0.469  -8.526   4.296  1.00  0.00    -0.502 OA
ATOM     23  H   UNL     1      -0.462  -9.507   4.549  1.00  0.00     0.293 HD
ENDBRANCH   2  22
BRANCH   6  24
ATOM     24  O   UNL     1       4.678  -7.221   3.873  1.00  0.00    -0.507 OA
ATOM     25  H   UNL     1       5.678  -7.333   3.803  1.00  0.00     0.293 HD
ENDBRANCH   6  24
BRANCH   8  26
ATOM     26  O   UNL     1       5.015  -3.972   7.392  1.00  0.00    -0.508 OA
ATOM     27  H   UNL     1       4.603  -3.326   8.054  1.00  0.00     0.293 HD
ENDBRANCH   8  26
TORSDOF 6
ENDMDL
