MODEL 1
REMARK VINA RESULT:    -4.196      0.000      0.000
REMARK INTER + INTRA:          -6.754
REMARK INTER:                  -6.403
REMARK INTRA:                  -0.351
REMARK UNBOUND:                -0.351
REMARK SMILES O=C([O-])CCCCCCCCC(=O)[O-]
REMARK SMILES IDX 7 1 6 2 5 3 4 4 2 5 1 6 3 7 8 8 9 9 10 10 11 11 12 12 13 13
REMARK SMILES IDX 14 14
REMARK H PARENT
REMARK Flexibility Score: inf
ROOT
ATOM      1  C   UNL     1      19.929  -6.337  47.797  1.00  0.00     0.000 C 
ENDROOT
BRANCH   1   2
ATOM      2  C   UNL     1      20.387  -7.471  48.730  1.00  0.00     0.000 C 
BRANCH   2   3
ATOM      3  C   UNL     1      20.249  -7.104  50.216  1.00  0.00     0.006 C 
BRANCH   3   4
ATOM      4  C   UNL     1      21.267  -7.832  51.105  1.00  0.00     0.053 C 
BRANCH   4   5
ATOM      5  C   UNL     1      22.585  -7.127  51.073  1.00  0.00     0.041 C 
ATOM      6  O   UNL     1      23.657  -7.787  51.093  1.00  0.00    -0.550 OA
ATOM      7  O   UNL     1      22.631  -5.742  50.970  1.00  0.00    -0.550 OA
ENDBRANCH   4   5
ENDBRANCH   3   4
ENDBRANCH   2   3
ENDBRANCH   1   2
BRANCH   1   8
ATOM      8  C   UNL     1      20.008  -6.726  46.312  1.00  0.00     0.000 C 
BRANCH   8   9
ATOM      9  C   UNL     1      18.651  -7.163  45.740  1.00  0.00     0.000 C 
BRANCH   9  10
ATOM     10  C   UNL     1      18.730  -7.345  44.219  1.00  0.00     0.006 C 
BRANCH  10  11
ATOM     11  C   UNL     1      17.948  -6.247  43.492  1.00  0.00     0.053 C 
BRANCH  11  12
ATOM     12  C   UNL     1      18.874  -5.176  43.010  1.00  0.00     0.041 C 
ATOM     13  O   UNL     1      20.067  -5.453  42.719  1.00  0.00    -0.550 OA
ATOM     14  O   UNL     1      18.434  -3.861  42.930  1.00  0.00    -0.550 OA
ENDBRANCH  11  12
ENDBRANCH  10  11
ENDBRANCH   9  10
ENDBRANCH   8   9
ENDBRANCH   1   8
TORSDOF 9
ENDMDL
MODEL 2
REMARK VINA RESULT:    -4.194      3.664      4.929
REMARK INTER + INTRA:          -6.752
REMARK INTER:                  -5.869
REMARK INTRA:                  -0.882
REMARK UNBOUND:                -0.351
REMARK SMILES O=C([O-])CCCCCCCCC(=O)[O-]
REMARK SMILES IDX 7 1 6 2 5 3 4 4 2 5 1 6 3 7 8 8 9 9 10 10 11 11 12 12 13 13
REMARK SMILES IDX 14 14
REMARK H PARENT
REMARK Flexibility Score: inf
ROOT
ATOM      1  C   UNL     1      20.225  -5.578  46.729  1.00  0.00     0.000 C 
ENDROOT
BRANCH   1   2
ATOM      2  C   UNL     1      21.253  -4.881  45.822  1.00  0.00     0.000 C 
BRANCH   2   3
ATOM      3  C   UNL     1      20.785  -3.491  45.360  1.00  0.00     0.006 C 
BRANCH   3   4
ATOM      4  C   UNL     1      21.786  -2.812  44.416  1.00  0.00     0.053 C 
BRANCH   4   5
ATOM      5  C   UNL     1      22.206  -1.487  44.968  1.00  0.00     0.041 C 
ATOM      6  O   UNL     1      22.340  -1.332  46.210  1.00  0.00    -0.550 OA
ATOM      7  O   UNL     1      22.499  -0.436  44.108  1.00  0.00    -0.550 OA
ENDBRANCH   4   5
ENDBRANCH   3   4
ENDBRANCH   2   3
ENDBRANCH   1   2
BRANCH   1   8
ATOM      8  C   UNL     1      19.906  -7.009  46.267  1.00  0.00     0.000 C 
BRANCH   8   9
ATOM      9  C   UNL     1      18.529  -7.123  45.593  1.00  0.00     0.000 C 
BRANCH   9  10
ATOM     10  C   UNL     1      18.668  -7.173  44.066  1.00  0.00     0.006 C 
BRANCH  10  11
ATOM     11  C   UNL     1      18.310  -5.823  43.437  1.00  0.00     0.053 C 
BRANCH  11  12
ATOM     12  C   UNL     1      19.429  -5.334  42.573  1.00  0.00     0.041 C 
ATOM     13  O   UNL     1      20.537  -5.931  42.573  1.00  0.00    -0.550 OA
ATOM     14  O   UNL     1      19.265  -4.187  41.807  1.00  0.00    -0.550 OA
ENDBRANCH  11  12
ENDBRANCH  10  11
ENDBRANCH   9  10
ENDBRANCH   8   9
ENDBRANCH   1   8
TORSDOF 9
ENDMDL
MODEL 3
REMARK VINA RESULT:    -4.189      3.865      5.910
REMARK INTER + INTRA:          -6.744
REMARK INTER:                  -6.096
REMARK INTRA:                  -0.649
REMARK UNBOUND:                -0.351
REMARK SMILES O=C([O-])CCCCCCCCC(=O)[O-]
REMARK SMILES IDX 7 1 6 2 5 3 4 4 2 5 1 6 3 7 8 8 9 9 10 10 11 11 12 12 13 13
REMARK SMILES IDX 14 14
REMARK H PARENT
REMARK Flexibility Score: inf
ROOT
ATOM      1  C   UNL     1      19.581  -5.144  42.673  1.00  0.00     0.000 C 
ENDROOT
BRANCH   1   2
ATOM      2  C   UNL     1      20.640  -6.214  42.992  1.00  0.00     0.000 C 
BRANCH   2   3
ATOM      3  C   UNL     1      20.022  -7.508  43.545  1.00  0.00     0.006 C 
BRANCH   3   4
ATOM      4  C   UNL     1      20.286  -7.698  45.044  1.00  0.00     0.053 C 
BRANCH   4   5
ATOM      5  C   UNL     1      19.164  -7.124  45.849  1.00  0.00     0.041 C 
ATOM      6  O   UNL     1      17.981  -7.190  45.423  1.00  0.00    -0.550 OA
ATOM      7  O   UNL     1      19.418  -6.558  47.092  1.00  0.00    -0.550 OA
ENDBRANCH   4   5
ENDBRANCH   3   4
ENDBRANCH   2   3
ENDBRANCH   1   2
BRANCH   1   8
ATOM      8  C   UNL     1      19.971  -3.753  43.198  1.00  0.00     0.000 C 
BRANCH   8   9
ATOM      9  C   UNL     1      20.375  -3.769  44.681  1.00  0.00     0.000 C 
BRANCH   9  10
ATOM     10  C   UNL     1      21.791  -3.210  44.869  1.00  0.00     0.006 C 
BRANCH  10  11
ATOM     11  C   UNL     1      21.749  -1.771  45.393  1.00  0.00     0.053 C 
BRANCH  11  12
ATOM     12  C   UNL     1      22.746  -0.921  44.672  1.00  0.00     0.041 C 
ATOM     13  O   UNL     1      22.364   0.073  44.002  1.00  0.00    -0.550 OA
ATOM     14  O   UNL     1      24.094  -1.257  44.698  1.00  0.00    -0.550 OA
ENDBRANCH  11  12
ENDBRANCH  10  11
ENDBRANCH   9  10
ENDBRANCH   8   9
ENDBRANCH   1   8
TORSDOF 9
ENDMDL
MODEL 4
REMARK VINA RESULT:    -4.174      0.638      7.369
REMARK INTER + INTRA:          -6.722
REMARK INTER:                  -6.371
REMARK INTRA:                  -0.350
REMARK UNBOUND:                -0.351
REMARK SMILES O=C([O-])CCCCCCCCC(=O)[O-]
REMARK SMILES IDX 7 1 6 2 5 3 4 4 2 5 1 6 3 7 8 8 9 9 10 10 11 11 12 12 13 13
REMARK SMILES IDX 14 14
REMARK H PARENT
REMARK Flexibility Score: inf
ROOT
ATOM      1  C   UNL     1      20.068  -6.751  46.265  1.00  0.00     0.000 C 
ENDROOT
BRANCH   1   2
ATOM      2  C   UNL     1      18.760  -7.065  45.518  1.00  0.00     0.000 C 
BRANCH   2   3
ATOM      3  C   UNL     1      18.919  -6.983  43.992  1.00  0.00     0.006 C 
BRANCH   3   4
ATOM      4  C   UNL     1      18.058  -5.878  43.365  1.00  0.00     0.053 C 
BRANCH   4   5
ATOM      5  C   UNL     1      18.882  -4.657  43.109  1.00  0.00     0.041 C 
ATOM      6  O   UNL     1      19.136  -3.856  44.047  1.00  0.00    -0.550 OA
ATOM      7  O   UNL     1      19.413  -4.427  41.846  1.00  0.00    -0.550 OA
ENDBRANCH   4   5
ENDBRANCH   3   4
ENDBRANCH   2   3
ENDBRANCH   1   2
BRANCH   1   8
ATOM      8  C   UNL     1      19.843  -6.482  47.762  1.00  0.00     0.000 C 
BRANCH   8   9
ATOM      9  C   UNL     1      20.581  -7.483  48.664  1.00  0.00     0.000 C 
BRANCH   9  10
ATOM     10  C   UNL     1      20.266  -7.225  50.143  1.00  0.00     0.006 C 
BRANCH  10  11
ATOM     11  C   UNL     1      21.414  -7.697  51.040  1.00  0.00     0.053 C 
BRANCH  11  12
ATOM     12  C   UNL     1      22.610  -6.815  50.869  1.00  0.00     0.041 C 
ATOM     13  O   UNL     1      23.713  -7.305  50.510  1.00  0.00    -0.550 OA
ATOM     14  O   UNL     1      22.520  -5.458  51.154  1.00  0.00    -0.550 OA
ENDBRANCH  11  12
ENDBRANCH  10  11
ENDBRANCH   9  10
ENDBRANCH   8   9
ENDBRANCH   1   8
TORSDOF 9
ENDMDL
MODEL 5
REMARK VINA RESULT:    -4.148      3.457      6.073
REMARK INTER + INTRA:          -6.682
REMARK INTER:                  -5.913
REMARK INTRA:                  -0.769
REMARK UNBOUND:                -0.351
REMARK SMILES O=C([O-])CCCCCCCCC(=O)[O-]
REMARK SMILES IDX 7 1 6 2 5 3 4 4 2 5 1 6 3 7 8 8 9 9 10 10 11 11 12 12 13 13
REMARK SMILES IDX 14 14
REMARK H PARENT
REMARK Flexibility Score: inf
ROOT
ATOM      1  C   UNL     1      19.894  -6.349  47.213  1.00  0.00     0.000 C 
ENDROOT
BRANCH   1   2
ATOM      2  C   UNL     1      19.782  -7.095  45.872  1.00  0.00     0.000 C 
BRANCH   2   3
ATOM      3  C   UNL     1      18.347  -7.101  45.320  1.00  0.00     0.006 C 
BRANCH   3   4
ATOM      4  C   UNL     1      18.302  -7.188  43.788  1.00  0.00     0.053 C 
BRANCH   4   5
ATOM      5  C   UNL     1      18.729  -5.890  43.180  1.00  0.00     0.041 C 
ATOM      6  O   UNL     1      17.989  -4.875  43.270  1.00  0.00    -0.550 OA
ATOM      7  O   UNL     1      19.966  -5.787  42.556  1.00  0.00    -0.550 OA
ENDBRANCH   4   5
ENDBRANCH   3   4
ENDBRANCH   2   3
ENDBRANCH   1   2
BRANCH   1   8
ATOM      8  C   UNL     1      20.736  -5.067  47.105  1.00  0.00     0.000 C 
BRANCH   8   9
ATOM      9  C   UNL     1      21.213  -4.788  45.671  1.00  0.00     0.000 C 
BRANCH   9  10
ATOM     10  C   UNL     1      20.700  -3.430  45.176  1.00  0.00     0.006 C 
BRANCH  10  11
ATOM     11  C   UNL     1      21.774  -2.697  44.368  1.00  0.00     0.053 C 
BRANCH  11  12
ATOM     12  C   UNL     1      22.174  -1.430  45.054  1.00  0.00     0.041 C 
ATOM     13  O   UNL     1      22.168  -1.361  46.311  1.00  0.00    -0.550 OA
ATOM     14  O   UNL     1      22.505  -0.307  44.305  1.00  0.00    -0.550 OA
ENDBRANCH  11  12
ENDBRANCH  10  11
ENDBRANCH   9  10
ENDBRANCH   8   9
ENDBRANCH   1   8
TORSDOF 9
ENDMDL
MODEL 6
REMARK VINA RESULT:    -4.140      1.165      7.217
REMARK INTER + INTRA:          -6.670
REMARK INTER:                  -6.282
REMARK INTRA:                  -0.388
REMARK UNBOUND:                -0.351
REMARK SMILES O=C([O-])CCCCCCCCC(=O)[O-]
REMARK SMILES IDX 7 1 6 2 5 3 4 4 2 5 1 6 3 7 8 8 9 9 10 10 11 11 12 12 13 13
REMARK SMILES IDX 14 14
REMARK H PARENT
REMARK Flexibility Score: inf
ROOT
ATOM      1  C   UNL     1      19.848  -6.388  47.793  1.00  0.00     0.000 C 
ENDROOT
BRANCH   1   2
ATOM      2  C   UNL     1      20.071  -6.633  46.291  1.00  0.00     0.000 C 
BRANCH   2   3
ATOM      3  C   UNL     1      18.793  -7.092  45.572  1.00  0.00     0.006 C 
BRANCH   3   4
ATOM      4  C   UNL     1      19.054  -7.555  44.132  1.00  0.00     0.053 C 
BRANCH   4   5
ATOM      5  C   UNL     1      19.556  -6.417  43.303  1.00  0.00     0.041 C 
ATOM      6  O   UNL     1      20.730  -6.435  42.846  1.00  0.00    -0.550 OA
ATOM      7  O   UNL     1      18.713  -5.358  42.990  1.00  0.00    -0.550 OA
ENDBRANCH   4   5
ENDBRANCH   3   4
ENDBRANCH   2   3
ENDBRANCH   1   2
BRANCH   1   8
ATOM      8  C   UNL     1      20.532  -7.448  48.672  1.00  0.00     0.000 C 
BRANCH   8   9
ATOM      9  C   UNL     1      20.250  -7.249  50.169  1.00  0.00     0.000 C 
BRANCH   9  10
ATOM     10  C   UNL     1      21.551  -7.278  50.981  1.00  0.00     0.006 C 
BRANCH  10  11
ATOM     11  C   UNL     1      22.723  -6.731  50.162  1.00  0.00     0.053 C 
BRANCH  11  12
ATOM     12  C   UNL     1      23.341  -5.555  50.850  1.00  0.00     0.041 C 
ATOM     13  O   UNL     1      22.633  -4.792  51.558  1.00  0.00    -0.550 OA
ATOM     14  O   UNL     1      24.689  -5.273  50.669  1.00  0.00    -0.550 OA
ENDBRANCH  11  12
ENDBRANCH  10  11
ENDBRANCH   9  10
ENDBRANCH   8   9
ENDBRANCH   1   8
TORSDOF 9
ENDMDL
MODEL 7
REMARK VINA RESULT:    -4.124      4.439      5.893
REMARK INTER + INTRA:          -6.645
REMARK INTER:                  -5.670
REMARK INTRA:                  -0.975
REMARK UNBOUND:                -0.351
REMARK SMILES O=C([O-])CCCCCCCCC(=O)[O-]
REMARK SMILES IDX 7 1 6 2 5 3 4 4 2 5 1 6 3 7 8 8 9 9 10 10 11 11 12 12 13 13
REMARK SMILES IDX 14 14
REMARK H PARENT
REMARK Flexibility Score: inf
ROOT
ATOM      1  C   UNL     1      22.731  -4.873  44.789  1.00  0.00     0.000 C 
ENDROOT
BRANCH   1   2
ATOM      2  C   UNL     1      24.044  -4.144  45.124  1.00  0.00     0.000 C 
BRANCH   2   3
ATOM      3  C   UNL     1      24.214  -2.840  44.328  1.00  0.00     0.006 C 
BRANCH   3   4
ATOM      4  C   UNL     1      24.173  -1.591  45.219  1.00  0.00     0.053 C 
BRANCH   4   5
ATOM      5  C   UNL     1      22.851  -0.903  45.093  1.00  0.00     0.041 C 
ATOM      6  O   UNL     1      22.564  -0.270  44.043  1.00  0.00    -0.550 OA
ATOM      7  O   UNL     1      21.915  -1.002  46.115  1.00  0.00    -0.550 OA
ENDBRANCH   4   5
ENDBRANCH   3   4
ENDBRANCH   2   3
ENDBRANCH   1   2
BRANCH   1   8
ATOM      8  C   UNL     1      21.655  -4.676  45.868  1.00  0.00     0.000 C 
BRANCH   8   9
ATOM      9  C   UNL     1      20.391  -3.987  45.327  1.00  0.00     0.000 C 
BRANCH   9  10
ATOM     10  C   UNL     1      20.527  -3.690  43.828  1.00  0.00     0.006 C 
BRANCH  10  11
ATOM     11  C   UNL     1      19.277  -4.135  43.064  1.00  0.00     0.053 C 
BRANCH  11  12
ATOM     12  C   UNL     1      19.136  -5.623  43.109  1.00  0.00     0.041 C 
ATOM     13  O   UNL     1      20.119  -6.361  42.837  1.00  0.00    -0.550 OA
ATOM     14  O   UNL     1      17.905  -6.196  43.403  1.00  0.00    -0.550 OA
ENDBRANCH  11  12
ENDBRANCH  10  11
ENDBRANCH   9  10
ENDBRANCH   8   9
ENDBRANCH   1   8
TORSDOF 9
ENDMDL
MODEL 8
REMARK VINA RESULT:    -4.119      3.436      6.498
REMARK INTER + INTRA:          -6.638
REMARK INTER:                  -6.100
REMARK INTRA:                  -0.538
REMARK UNBOUND:                -0.351
REMARK SMILES O=C([O-])CCCCCCCCC(=O)[O-]
REMARK SMILES IDX 7 1 6 2 5 3 4 4 2 5 1 6 3 7 8 8 9 9 10 10 11 11 12 12 13 13
REMARK SMILES IDX 14 14
REMARK H PARENT
REMARK Flexibility Score: inf
ROOT
ATOM      1  C   UNL     1      22.599  -7.366  50.633  1.00  0.00     0.000 C 
ENDROOT
BRANCH   1   2
ATOM      2  C   UNL     1      21.099  -7.536  50.928  1.00  0.00     0.000 C 
BRANCH   2   3
ATOM      3  C   UNL     1      20.218  -7.229  49.706  1.00  0.00     0.006 C 
BRANCH   3   4
ATOM      4  C   UNL     1      21.039  -6.890  48.454  1.00  0.00     0.053 C 
BRANCH   4   5
ATOM      5  C   UNL     1      20.181  -6.207  47.438  1.00  0.00     0.041 C 
ATOM      6  O   UNL     1      19.180  -6.799  46.954  1.00  0.00    -0.550 OA
ATOM      7  O   UNL     1      20.456  -4.899  47.060  1.00  0.00    -0.550 OA
ENDBRANCH   4   5
ENDBRANCH   3   4
ENDBRANCH   2   3
ENDBRANCH   1   2
BRANCH   1   8
ATOM      8  C   UNL     1      23.238  -6.235  51.454  1.00  0.00     0.000 C 
BRANCH   8   9
ATOM      9  C   UNL     1      23.662  -5.039  50.588  1.00  0.00     0.000 C 
BRANCH   9  10
ATOM     10  C   UNL     1      22.887  -3.774  50.981  1.00  0.00     0.006 C 
BRANCH  10  11
ATOM     11  C   UNL     1      23.528  -2.524  50.372  1.00  0.00     0.053 C 
BRANCH  11  12
ATOM     12  C   UNL     1      22.484  -1.499  50.061  1.00  0.00     0.041 C 
ATOM     13  O   UNL     1      22.153  -1.273  48.868  1.00  0.00    -0.550 OA
ATOM     14  O   UNL     1      21.913  -0.755  51.087  1.00  0.00    -0.550 OA
ENDBRANCH  11  12
ENDBRANCH  10  11
ENDBRANCH   9  10
ENDBRANCH   8   9
ENDBRANCH   1   8
TORSDOF 9
ENDMDL
MODEL 9
REMARK VINA RESULT:    -4.115      3.640      5.903
REMARK INTER + INTRA:          -6.632
REMARK INTER:                  -5.893
REMARK INTRA:                  -0.738
REMARK UNBOUND:                -0.351
REMARK SMILES O=C([O-])CCCCCCCCC(=O)[O-]
REMARK SMILES IDX 7 1 6 2 5 3 4 4 2 5 1 6 3 7 8 8 9 9 10 10 11 11 12 12 13 13
REMARK SMILES IDX 14 14
REMARK H PARENT
REMARK Flexibility Score: inf
ROOT
ATOM      1  C   UNL     1      20.236  -3.819  43.317  1.00  0.00     0.000 C 
ENDROOT
BRANCH   1   2
ATOM      2  C   UNL     1      20.117  -3.695  44.846  1.00  0.00     0.000 C 
BRANCH   2   3
ATOM      3  C   UNL     1      21.350  -3.033  45.482  1.00  0.00     0.006 C 
BRANCH   3   4
ATOM      4  C   UNL     1      22.580  -3.064  44.564  1.00  0.00     0.053 C 
BRANCH   4   5
ATOM      5  C   UNL     1      23.130  -1.686  44.383  1.00  0.00     0.041 C 
ATOM      6  O   UNL     1      22.430  -0.790  43.842  1.00  0.00    -0.550 OA
ATOM      7  O   UNL     1      24.399  -1.376  44.857  1.00  0.00    -0.550 OA
ENDBRANCH   4   5
ENDBRANCH   3   4
ENDBRANCH   2   3
ENDBRANCH   1   2
BRANCH   1   8
ATOM      8  C   UNL     1      19.810  -5.203  42.802  1.00  0.00     0.000 C 
BRANCH   8   9
ATOM      9  C   UNL     1      18.459  -5.660  43.374  1.00  0.00     0.000 C 
BRANCH   9  10
ATOM     10  C   UNL     1      18.531  -7.112  43.861  1.00  0.00     0.006 C 
BRANCH  10  11
ATOM     11  C   UNL     1      18.278  -7.200  45.369  1.00  0.00     0.053 C 
BRANCH  11  12
ATOM     12  C   UNL     1      19.551  -6.994  46.127  1.00  0.00     0.041 C 
ATOM     13  O   UNL     1      19.528  -6.492  47.280  1.00  0.00    -0.550 OA
ATOM     14  O   UNL     1      20.770  -7.311  45.538  1.00  0.00    -0.550 OA
ENDBRANCH  11  12
ENDBRANCH  10  11
ENDBRANCH   9  10
ENDBRANCH   8   9
ENDBRANCH   1   8
TORSDOF 9
ENDMDL
