MODEL 1
REMARK VINA RESULT:    -4.641      0.000      0.000
REMARK INTER + INTRA:          -6.952
REMARK INTER:                  -6.540
REMARK INTRA:                  -0.412
REMARK UNBOUND:                -0.412
REMARK SMILES CCCCCCCCC(=O)[O-]
REMARK SMILES IDX 6 1 7 2 8 3 9 4 10 5 11 6 5 7 4 8 3 9 2 10 1 11
REMARK H PARENT
REMARK Flexibility Score: inf
ROOT
ATOM      1  C   UNL     1      25.727  71.706  27.380  1.00  0.00     0.000 C 
ENDROOT
BRANCH   1   2
ATOM      2  C   UNL     1      25.180  73.126  27.590  1.00  0.00     0.006 C 
BRANCH   2   3
ATOM      3  C   UNL     1      23.882  73.097  28.400  1.00  0.00     0.053 C 
BRANCH   3   4
ATOM      4  C   UNL     1      23.956  74.061  29.543  1.00  0.00     0.041 C 
ATOM      5  O   UNL     1      23.199  73.922  30.539  1.00  0.00    -0.550 OA
ATOM      6  O   UNL     1      24.897  75.083  29.530  1.00  0.00    -0.550 OA
ENDBRANCH   3   4
ENDBRANCH   2   3
ENDBRANCH   1   2
BRANCH   1   7
ATOM      7  C   UNL     1      24.775  70.623  27.912  1.00  0.00     0.000 C 
BRANCH   7   8
ATOM      8  C   UNL     1      24.858  69.314  27.106  1.00  0.00    -0.000 C 
BRANCH   8   9
ATOM      9  C   UNL     1      23.549  68.499  27.184  1.00  0.00    -0.000 C 
BRANCH   9  10
ATOM     10  C   UNL     1      22.340  69.321  27.661  1.00  0.00    -0.003 C 
ATOM     11  C   UNL     1      21.202  68.456  28.200  1.00  0.00     0.004 C 
ENDBRANCH   9  10
ENDBRANCH   8   9
ENDBRANCH   7   8
ENDBRANCH   1   7
TORSDOF 7
ENDMDL
MODEL 2
REMARK VINA RESULT:    -4.528      1.516      2.540
REMARK INTER + INTRA:          -6.793
REMARK INTER:                  -6.431
REMARK INTRA:                  -0.362
REMARK UNBOUND:                -0.412
REMARK SMILES CCCCCCCCC(=O)[O-]
REMARK SMILES IDX 6 1 7 2 8 3 9 4 10 5 11 6 5 7 4 8 3 9 2 10 1 11
REMARK H PARENT
REMARK Flexibility Score: inf
ROOT
ATOM      1  C   UNL     1      23.437  72.518  28.024  1.00  0.00     0.000 C 
ENDROOT
BRANCH   1   2
ATOM      2  C   UNL     1      23.051  73.782  28.807  1.00  0.00     0.006 C 
BRANCH   2   3
ATOM      3  C   UNL     1      24.291  74.611  29.152  1.00  0.00     0.053 C 
BRANCH   3   4
ATOM      4  C   UNL     1      24.305  74.951  30.610  1.00  0.00     0.041 C 
ATOM      5  O   UNL     1      24.951  75.951  31.021  1.00  0.00    -0.550 OA
ATOM      6  O   UNL     1      23.564  74.192  31.507  1.00  0.00    -0.550 OA
ENDBRANCH   3   4
ENDBRANCH   2   3
ENDBRANCH   1   2
BRANCH   1   7
ATOM      7  C   UNL     1      24.957  72.303  27.964  1.00  0.00     0.000 C 
BRANCH   7   8
ATOM      8  C   UNL     1      25.339  70.934  27.374  1.00  0.00    -0.000 C 
BRANCH   8   9
ATOM      9  C   UNL     1      24.287  69.850  27.690  1.00  0.00    -0.000 C 
BRANCH   9  10
ATOM     10  C   UNL     1      24.550  68.511  26.979  1.00  0.00    -0.003 C 
ATOM     11  C   UNL     1      25.604  68.615  25.877  1.00  0.00     0.004 C 
ENDBRANCH   9  10
ENDBRANCH   8   9
ENDBRANCH   7   8
ENDBRANCH   1   7
TORSDOF 7
ENDMDL
MODEL 3
REMARK VINA RESULT:    -4.310      2.715      5.099
REMARK INTER + INTRA:          -6.486
REMARK INTER:                  -6.198
REMARK INTRA:                  -0.287
REMARK UNBOUND:                -0.412
REMARK SMILES CCCCCCCCC(=O)[O-]
REMARK SMILES IDX 6 1 7 2 8 3 9 4 10 5 11 6 5 7 4 8 3 9 2 10 1 11
REMARK H PARENT
REMARK Flexibility Score: inf
ROOT
ATOM      1  C   UNL     1      24.352  70.465  28.018  1.00  0.00     0.000 C 
ENDROOT
BRANCH   1   2
ATOM      2  C   UNL     1      24.520  69.021  27.520  1.00  0.00     0.006 C 
BRANCH   2   3
ATOM      3  C   UNL     1      23.261  68.547  26.788  1.00  0.00     0.053 C 
BRANCH   3   4
ATOM      4  C   UNL     1      22.039  68.859  27.592  1.00  0.00     0.041 C 
ATOM      5  O   UNL     1      21.274  69.798  27.245  1.00  0.00    -0.550 OA
ATOM      6  O   UNL     1      21.716  68.082  28.698  1.00  0.00    -0.550 OA
ENDBRANCH   3   4
ENDBRANCH   2   3
ENDBRANCH   1   2
BRANCH   1   7
ATOM      7  C   UNL     1      25.366  71.430  27.382  1.00  0.00     0.000 C 
BRANCH   7   8
ATOM      8  C   UNL     1      25.073  72.903  27.717  1.00  0.00    -0.000 C 
BRANCH   8   9
ATOM      9  C   UNL     1      23.589  73.135  28.074  1.00  0.00    -0.000 C 
BRANCH   9  10
ATOM     10  C   UNL     1      23.383  73.818  29.437  1.00  0.00    -0.003 C 
ATOM     11  C   UNL     1      24.468  74.843  29.763  1.00  0.00     0.004 C 
ENDBRANCH   9  10
ENDBRANCH   8   9
ENDBRANCH   7   8
ENDBRANCH   1   7
TORSDOF 7
ENDMDL
MODEL 4
REMARK VINA RESULT:    -4.261      3.703      5.818
REMARK INTER + INTRA:          -6.417
REMARK INTER:                  -6.057
REMARK INTRA:                  -0.360
REMARK UNBOUND:                -0.412
REMARK SMILES CCCCCCCCC(=O)[O-]
REMARK SMILES IDX 6 1 7 2 8 3 9 4 10 5 11 6 5 7 4 8 3 9 2 10 1 11
REMARK H PARENT
REMARK Flexibility Score: inf
ROOT
ATOM      1  C   UNL     1      23.181  70.548  27.762  1.00  0.00     0.000 C 
ENDROOT
BRANCH   1   2
ATOM      2  C   UNL     1      23.216  69.051  27.418  1.00  0.00     0.006 C 
BRANCH   2   3
ATOM      3  C   UNL     1      24.654  68.573  27.203  1.00  0.00     0.053 C 
BRANCH   3   4
ATOM      4  C   UNL     1      24.809  67.972  25.841  1.00  0.00     0.041 C 
ATOM      5  O   UNL     1      25.431  68.595  24.940  1.00  0.00    -0.550 OA
ATOM      6  O   UNL     1      24.308  66.702  25.580  1.00  0.00    -0.550 OA
ENDBRANCH   3   4
ENDBRANCH   2   3
ENDBRANCH   1   2
BRANCH   1   7
ATOM      7  C   UNL     1      24.568  71.102  28.124  1.00  0.00     0.000 C 
BRANCH   7   8
ATOM      8  C   UNL     1      24.705  72.604  27.815  1.00  0.00    -0.000 C 
BRANCH   8   9
ATOM      9  C   UNL     1      23.452  73.401  28.236  1.00  0.00    -0.000 C 
BRANCH   9  10
ATOM     10  C   UNL     1      23.472  73.847  29.708  1.00  0.00    -0.003 C 
ATOM     11  C   UNL     1      24.492  74.949  29.987  1.00  0.00     0.004 C 
ENDBRANCH   9  10
ENDBRANCH   8   9
ENDBRANCH   7   8
ENDBRANCH   1   7
TORSDOF 7
ENDMDL
MODEL 5
REMARK VINA RESULT:    -4.171      9.974     11.351
REMARK INTER + INTRA:          -6.289
REMARK INTER:                  -6.102
REMARK INTRA:                  -0.187
REMARK UNBOUND:                -0.412
REMARK SMILES CCCCCCCCC(=O)[O-]
REMARK SMILES IDX 6 1 7 2 8 3 9 4 10 5 11 6 5 7 4 8 3 9 2 10 1 11
REMARK H PARENT
REMARK Flexibility Score: inf
ROOT
ATOM      1  C   UNL     1      16.772  68.168  35.540  1.00  0.00     0.000 C 
ENDROOT
BRANCH   1   2
ATOM      2  C   UNL     1      17.403  67.495  36.769  1.00  0.00     0.006 C 
BRANCH   2   3
ATOM      3  C   UNL     1      18.009  68.539  37.712  1.00  0.00     0.053 C 
BRANCH   3   4
ATOM      4  C   UNL     1      17.817  68.129  39.139  1.00  0.00     0.041 C 
ATOM      5  O   UNL     1      17.700  66.912  39.438  1.00  0.00    -0.550 OA
ATOM      6  O   UNL     1      17.819  69.089  40.144  1.00  0.00    -0.550 OA
ENDBRANCH   3   4
ENDBRANCH   2   3
ENDBRANCH   1   2
BRANCH   1   7
ATOM      7  C   UNL     1      17.681  69.246  34.927  1.00  0.00     0.000 C 
BRANCH   7   8
ATOM      8  C   UNL     1      16.908  70.235  34.036  1.00  0.00    -0.000 C 
BRANCH   8   9
ATOM      9  C   UNL     1      16.660  69.673  32.620  1.00  0.00    -0.000 C 
BRANCH   9  10
ATOM     10  C   UNL     1      15.299  68.972  32.466  1.00  0.00    -0.003 C 
ATOM     11  C   UNL     1      14.621  69.269  31.130  1.00  0.00     0.004 C 
ENDBRANCH   9  10
ENDBRANCH   8   9
ENDBRANCH   7   8
ENDBRANCH   1   7
TORSDOF 7
ENDMDL
MODEL 6
REMARK VINA RESULT:    -4.050      9.541     10.567
REMARK INTER + INTRA:          -6.120
REMARK INTER:                  -5.522
REMARK INTRA:                  -0.599
REMARK UNBOUND:                -0.412
REMARK SMILES CCCCCCCCC(=O)[O-]
REMARK SMILES IDX 6 1 7 2 8 3 9 4 10 5 11 6 5 7 4 8 3 9 2 10 1 11
REMARK H PARENT
REMARK Flexibility Score: inf
ROOT
ATOM      1  C   UNL     1      17.113  70.169  34.357  1.00  0.00     0.000 C 
ENDROOT
BRANCH   1   2
ATOM      2  C   UNL     1      18.219  69.529  35.211  1.00  0.00     0.006 C 
BRANCH   2   3
ATOM      3  C   UNL     1      17.636  68.484  36.166  1.00  0.00     0.053 C 
BRANCH   3   4
ATOM      4  C   UNL     1      18.446  68.414  37.423  1.00  0.00     0.041 C 
ATOM      5  O   UNL     1      19.617  67.952  37.396  1.00  0.00    -0.550 OA
ATOM      6  O   UNL     1      17.925  68.904  38.614  1.00  0.00    -0.550 OA
ENDBRANCH   3   4
ENDBRANCH   2   3
ENDBRANCH   1   2
BRANCH   1   7
ATOM      7  C   UNL     1      16.882  69.420  33.034  1.00  0.00     0.000 C 
BRANCH   7   8
ATOM      8  C   UNL     1      15.400  69.081  32.797  1.00  0.00    -0.000 C 
BRANCH   8   9
ATOM      9  C   UNL     1      15.171  67.564  32.624  1.00  0.00    -0.000 C 
BRANCH   9  10
ATOM     10  C   UNL     1      15.223  66.779  33.946  1.00  0.00    -0.003 C 
ATOM     11  C   UNL     1      16.322  65.718  33.970  1.00  0.00     0.004 C 
ENDBRANCH   9  10
ENDBRANCH   8   9
ENDBRANCH   7   8
ENDBRANCH   1   7
TORSDOF 7
ENDMDL
MODEL 7
REMARK VINA RESULT:    -4.001      9.793     11.482
REMARK INTER + INTRA:          -6.051
REMARK INTER:                  -5.349
REMARK INTRA:                  -0.702
REMARK UNBOUND:                -0.412
REMARK SMILES CCCCCCCCC(=O)[O-]
REMARK SMILES IDX 6 1 7 2 8 3 9 4 10 5 11 6 5 7 4 8 3 9 2 10 1 11
REMARK H PARENT
REMARK Flexibility Score: inf
ROOT
ATOM      1  C   UNL     1      17.140  66.579  35.941  1.00  0.00     0.000 C 
ENDROOT
BRANCH   1   2
ATOM      2  C   UNL     1      16.063  67.580  35.493  1.00  0.00     0.006 C 
BRANCH   2   3
ATOM      3  C   UNL     1      16.700  68.828  34.877  1.00  0.00     0.053 C 
BRANCH   3   4
ATOM      4  C   UNL     1      16.294  68.969  33.443  1.00  0.00     0.041 C 
ATOM      5  O   UNL     1      15.241  68.419  33.025  1.00  0.00    -0.550 OA
ATOM      6  O   UNL     1      17.054  69.749  32.579  1.00  0.00    -0.550 OA
ENDBRANCH   3   4
ENDBRANCH   2   3
ENDBRANCH   1   2
BRANCH   1   7
ATOM      7  C   UNL     1      17.004  66.190  37.421  1.00  0.00     0.000 C 
BRANCH   7   8
ATOM      8  C   UNL     1      18.121  66.789  38.295  1.00  0.00    -0.000 C 
BRANCH   8   9
ATOM      9  C   UNL     1      19.334  67.246  37.458  1.00  0.00    -0.000 C 
BRANCH   9  10
ATOM     10  C   UNL     1      19.635  68.749  37.580  1.00  0.00    -0.003 C 
ATOM     11  C   UNL     1      18.571  69.511  38.369  1.00  0.00     0.004 C 
ENDBRANCH   9  10
ENDBRANCH   8   9
ENDBRANCH   7   8
ENDBRANCH   1   7
TORSDOF 7
ENDMDL
MODEL 8
REMARK VINA RESULT:    -4.000     10.059     11.269
REMARK INTER + INTRA:          -6.048
REMARK INTER:                  -5.643
REMARK INTRA:                  -0.406
REMARK UNBOUND:                -0.412
REMARK SMILES CCCCCCCCC(=O)[O-]
REMARK SMILES IDX 6 1 7 2 8 3 9 4 10 5 11 6 5 7 4 8 3 9 2 10 1 11
REMARK H PARENT
REMARK Flexibility Score: inf
ROOT
ATOM      1  C   UNL     1      17.105  68.488  35.544  1.00  0.00     0.000 C 
ENDROOT
BRANCH   1   2
ATOM      2  C   UNL     1      16.875  68.081  34.080  1.00  0.00     0.006 C 
BRANCH   2   3
ATOM      3  C   UNL     1      16.139  69.184  33.315  1.00  0.00     0.053 C 
BRANCH   3   4
ATOM      4  C   UNL     1      15.213  68.590  32.301  1.00  0.00     0.041 C 
ATOM      5  O   UNL     1      14.886  67.376  32.375  1.00  0.00    -0.550 OA
ATOM      6  O   UNL     1      14.671  69.389  31.302  1.00  0.00    -0.550 OA
ENDBRANCH   3   4
ENDBRANCH   2   3
ENDBRANCH   1   2
BRANCH   1   7
ATOM      7  C   UNL     1      18.302  69.438  35.711  1.00  0.00     0.000 C 
BRANCH   7   8
ATOM      8  C   UNL     1      19.220  69.034  36.878  1.00  0.00    -0.000 C 
BRANCH   8   9
ATOM      9  C   UNL     1      18.878  67.634  37.431  1.00  0.00    -0.000 C 
BRANCH   9  10
ATOM     10  C   UNL     1      18.546  67.630  38.933  1.00  0.00    -0.003 C 
ATOM     11  C   UNL     1      17.801  68.885  39.385  1.00  0.00     0.004 C 
ENDBRANCH   9  10
ENDBRANCH   8   9
ENDBRANCH   7   8
ENDBRANCH   1   7
TORSDOF 7
ENDMDL
MODEL 9
REMARK VINA RESULT:    -3.974      9.764     11.405
REMARK INTER + INTRA:          -6.012
REMARK INTER:                  -5.415
REMARK INTRA:                  -0.597
REMARK UNBOUND:                -0.412
REMARK SMILES CCCCCCCCC(=O)[O-]
REMARK SMILES IDX 6 1 7 2 8 3 9 4 10 5 11 6 5 7 4 8 3 9 2 10 1 11
REMARK H PARENT
REMARK Flexibility Score: inf
ROOT
ATOM      1  C   UNL     1      18.512  69.189  37.409  1.00  0.00     0.000 C 
ENDROOT
BRANCH   1   2
ATOM      2  C   UNL     1      18.533  69.358  35.881  1.00  0.00     0.006 C 
BRANCH   2   3
ATOM      3  C   UNL     1      17.242  68.823  35.255  1.00  0.00     0.053 C 
BRANCH   3   4
ATOM      4  C   UNL     1      16.749  69.755  34.194  1.00  0.00     0.041 C 
ATOM      5  O   UNL     1      15.962  69.341  33.302  1.00  0.00    -0.550 OA
ATOM      6  O   UNL     1      17.118  71.095  34.219  1.00  0.00    -0.550 OA
ENDBRANCH   3   4
ENDBRANCH   2   3
ENDBRANCH   1   2
BRANCH   1   7
ATOM      7  C   UNL     1      19.774  68.491  37.941  1.00  0.00     0.000 C 
BRANCH   7   8
ATOM      8  C   UNL     1      19.449  67.307  38.869  1.00  0.00    -0.000 C 
BRANCH   8   9
ATOM      9  C   UNL     1      17.998  67.359  39.393  1.00  0.00    -0.000 C 
BRANCH   9  10
ATOM     10  C   UNL     1      17.194  66.080  39.106  1.00  0.00    -0.003 C 
ATOM     11  C   UNL     1      17.078  65.766  37.616  1.00  0.00     0.004 C 
ENDBRANCH   9  10
ENDBRANCH   8   9
ENDBRANCH   7   8
ENDBRANCH   1   7
TORSDOF 7
ENDMDL
