MODEL 1
REMARK VINA RESULT:    -3.386      0.000      0.000
REMARK INTER + INTRA:          -4.330
REMARK INTER:                  -4.177
REMARK INTRA:                  -0.152
REMARK UNBOUND:                -0.152
REMARK SMILES CCCCCC(=O)[O-]
REMARK SMILES IDX 4 1 5 2 6 3 7 4 8 5 3 6 2 7 1 8
REMARK H PARENT
REMARK Flexibility Score: inf
ROOT
ATOM      1  C   UNL     1     -19.906 -30.004  18.884  1.00  0.00     0.006 C 
ENDROOT
BRANCH   1   2
ATOM      2  C   UNL     1     -18.379 -30.003  18.769  1.00  0.00     0.053 C 
BRANCH   2   3
ATOM      3  C   UNL     1     -17.815 -28.723  19.300  1.00  0.00     0.041 C 
ATOM      4  O   UNL     1     -16.777 -28.736  20.012  1.00  0.00    -0.550 OA
ATOM      5  O   UNL     1     -18.464 -27.521  19.050  1.00  0.00    -0.550 OA
ENDBRANCH   2   3
ENDBRANCH   1   2
BRANCH   1   6
ATOM      6  C   UNL     1     -20.374 -30.948  19.997  1.00  0.00     0.000 C 
BRANCH   6   7
ATOM      7  C   UNL     1     -19.326 -32.032  20.276  1.00  0.00    -0.003 C 
ATOM      8  C   UNL     1     -19.735 -33.366  19.658  1.00  0.00     0.004 C 
ENDBRANCH   6   7
ENDBRANCH   1   6
TORSDOF 4
ENDMDL
MODEL 2
REMARK VINA RESULT:    -3.377      2.637      4.252
REMARK INTER + INTRA:          -4.319
REMARK INTER:                  -4.196
REMARK INTRA:                  -0.124
REMARK UNBOUND:                -0.152
REMARK SMILES CCCCCC(=O)[O-]
REMARK SMILES IDX 4 1 5 2 6 3 7 4 8 5 3 6 2 7 1 8
REMARK H PARENT
REMARK Flexibility Score: inf
ROOT
ATOM      1  C   UNL     1     -19.735 -30.277  18.861  1.00  0.00     0.006 C 
ENDROOT
BRANCH   1   2
ATOM      2  C   UNL     1     -20.268 -31.153  19.998  1.00  0.00     0.053 C 
BRANCH   2   3
ATOM      3  C   UNL     1     -19.515 -32.444  20.061  1.00  0.00     0.041 C 
ATOM      4  O   UNL     1     -18.839 -32.734  21.083  1.00  0.00    -0.550 OA
ATOM      5  O   UNL     1     -19.519 -33.305  18.972  1.00  0.00    -0.550 OA
ENDBRANCH   2   3
ENDBRANCH   1   2
BRANCH   1   6
ATOM      6  C   UNL     1     -18.349 -29.716  19.200  1.00  0.00     0.000 C 
BRANCH   6   7
ATOM      7  C   UNL     1     -18.012 -28.509  18.319  1.00  0.00    -0.003 C 
ATOM      8  C   UNL     1     -18.234 -27.199  19.069  1.00  0.00     0.004 C 
ENDBRANCH   6   7
ENDBRANCH   1   6
TORSDOF 4
ENDMDL
MODEL 3
REMARK VINA RESULT:    -3.372      1.448      2.119
REMARK INTER + INTRA:          -4.313
REMARK INTER:                  -4.049
REMARK INTRA:                  -0.264
REMARK UNBOUND:                -0.152
REMARK SMILES CCCCCC(=O)[O-]
REMARK SMILES IDX 4 1 5 2 6 3 7 4 8 5 3 6 2 7 1 8
REMARK H PARENT
REMARK Flexibility Score: inf
ROOT
ATOM      1  C   UNL     1     -20.018 -31.360  20.104  1.00  0.00     0.006 C 
ENDROOT
BRANCH   1   2
ATOM      2  C   UNL     1     -19.865 -30.315  18.995  1.00  0.00     0.053 C 
BRANCH   2   3
ATOM      3  C   UNL     1     -18.418 -30.028  18.742  1.00  0.00     0.041 C 
ATOM      4  O   UNL     1     -17.900 -30.314  17.631  1.00  0.00    -0.550 OA
ATOM      5  O   UNL     1     -17.631 -29.488  19.751  1.00  0.00    -0.550 OA
ENDBRANCH   2   3
ENDBRANCH   1   2
BRANCH   1   6
ATOM      6  C   UNL     1     -19.683 -32.764  19.588  1.00  0.00     0.000 C 
BRANCH   6   7
ATOM      7  C   UNL     1     -18.632 -33.441  20.476  1.00  0.00    -0.003 C 
ATOM      8  C   UNL     1     -18.188 -32.517  21.606  1.00  0.00     0.004 C 
ENDBRANCH   6   7
ENDBRANCH   1   6
TORSDOF 4
ENDMDL
MODEL 4
REMARK VINA RESULT:    -3.262      2.443      3.394
REMARK INTER + INTRA:          -4.177
REMARK INTER:                  -4.025
REMARK INTRA:                  -0.152
REMARK UNBOUND:                -0.152
REMARK SMILES CCCCCC(=O)[O-]
REMARK SMILES IDX 4 1 5 2 6 3 7 4 8 5 3 6 2 7 1 8
REMARK H PARENT
REMARK Flexibility Score: inf
ROOT
ATOM      1  C   UNL     1     -19.371 -33.081  19.975  1.00  0.00     0.006 C 
ENDROOT
BRANCH   1   2
ATOM      2  C   UNL     1     -19.584 -31.596  20.284  1.00  0.00     0.053 C 
BRANCH   2   3
ATOM      3  C   UNL     1     -19.659 -30.803  19.018  1.00  0.00     0.041 C 
ATOM      4  O   UNL     1     -20.307 -29.725  18.983  1.00  0.00    -0.550 OA
ATOM      5  O   UNL     1     -19.053 -31.279  17.863  1.00  0.00    -0.550 OA
ENDBRANCH   2   3
ENDBRANCH   1   2
BRANCH   1   6
ATOM      6  C   UNL     1     -18.109 -33.612  20.667  1.00  0.00     0.000 C 
BRANCH   6   7
ATOM      7  C   UNL     1     -17.779 -32.788  21.917  1.00  0.00    -0.003 C 
ATOM      8  C   UNL     1     -16.272 -32.622  22.085  1.00  0.00     0.004 C 
ENDBRANCH   6   7
ENDBRANCH   1   6
TORSDOF 4
ENDMDL
MODEL 5
REMARK VINA RESULT:    -3.234      2.822      4.132
REMARK INTER + INTRA:          -4.142
REMARK INTER:                  -3.866
REMARK INTRA:                  -0.276
REMARK UNBOUND:                -0.152
REMARK SMILES CCCCCC(=O)[O-]
REMARK SMILES IDX 4 1 5 2 6 3 7 4 8 5 3 6 2 7 1 8
REMARK H PARENT
REMARK Flexibility Score: inf
ROOT
ATOM      1  C   UNL     1     -19.400 -31.547  20.325  1.00  0.00     0.006 C 
ENDROOT
BRANCH   1   2
ATOM      2  C   UNL     1     -19.652 -32.985  19.863  1.00  0.00     0.053 C 
BRANCH   2   3
ATOM      3  C   UNL     1     -18.834 -33.297  18.651  1.00  0.00     0.041 C 
ATOM      4  O   UNL     1     -19.393 -33.673  17.588  1.00  0.00    -0.550 OA
ATOM      5  O   UNL     1     -17.448 -33.219  18.709  1.00  0.00    -0.550 OA
ENDBRANCH   2   3
ENDBRANCH   1   2
BRANCH   1   6
ATOM      6  C   UNL     1     -19.922 -30.538  19.296  1.00  0.00     0.000 C 
BRANCH   6   7
ATOM      7  C   UNL     1     -18.813 -29.575  18.858  1.00  0.00    -0.003 C 
ATOM      8  C   UNL     1     -17.571 -29.731  19.730  1.00  0.00     0.004 C 
ENDBRANCH   6   7
ENDBRANCH   1   6
TORSDOF 4
ENDMDL
MODEL 6
REMARK VINA RESULT:    -3.228      2.171      4.093
REMARK INTER + INTRA:          -4.135
REMARK INTER:                  -3.917
REMARK INTRA:                  -0.218
REMARK UNBOUND:                -0.152
REMARK SMILES CCCCCC(=O)[O-]
REMARK SMILES IDX 4 1 5 2 6 3 7 4 8 5 3 6 2 7 1 8
REMARK H PARENT
REMARK Flexibility Score: inf
ROOT
ATOM      1  C   UNL     1     -17.620 -29.582  18.324  1.00  0.00     0.006 C 
ENDROOT
BRANCH   1   2
ATOM      2  C   UNL     1     -18.275 -30.946  18.556  1.00  0.00     0.053 C 
BRANCH   2   3
ATOM      3  C   UNL     1     -19.596 -30.784  19.239  1.00  0.00     0.041 C 
ATOM      4  O   UNL     1     -20.352 -29.824  18.936  1.00  0.00    -0.550 OA
ATOM      5  O   UNL     1     -19.971 -31.664  20.246  1.00  0.00    -0.550 OA
ENDBRANCH   2   3
ENDBRANCH   1   2
BRANCH   1   6
ATOM      6  C   UNL     1     -16.864 -29.115  19.574  1.00  0.00     0.000 C 
BRANCH   6   7
ATOM      7  C   UNL     1     -16.961 -27.594  19.740  1.00  0.00    -0.003 C 
ATOM      8  C   UNL     1     -18.229 -27.049  19.091  1.00  0.00     0.004 C 
ENDBRANCH   6   7
ENDBRANCH   1   6
TORSDOF 4
ENDMDL
MODEL 7
REMARK VINA RESULT:    -3.189      3.026      3.951
REMARK INTER + INTRA:          -4.087
REMARK INTER:                  -4.003
REMARK INTRA:                  -0.083
REMARK UNBOUND:                -0.152
REMARK SMILES CCCCCC(=O)[O-]
REMARK SMILES IDX 4 1 5 2 6 3 7 4 8 5 3 6 2 7 1 8
REMARK H PARENT
REMARK Flexibility Score: inf
ROOT
ATOM      1  C   UNL     1     -18.447 -33.350  18.571  1.00  0.00     0.006 C 
ENDROOT
BRANCH   1   2
ATOM      2  C   UNL     1     -19.339 -33.273  19.813  1.00  0.00     0.053 C 
BRANCH   2   3
ATOM      3  C   UNL     1     -19.406 -31.868  20.323  1.00  0.00     0.041 C 
ATOM      4  O   UNL     1     -18.502 -31.425  21.078  1.00  0.00    -0.550 OA
ATOM      5  O   UNL     1     -20.493 -31.065  20.004  1.00  0.00    -0.550 OA
ENDBRANCH   2   3
ENDBRANCH   1   2
BRANCH   1   6
ATOM      6  C   UNL     1     -19.247 -33.803  17.344  1.00  0.00     0.000 C 
BRANCH   6   7
ATOM      7  C   UNL     1     -19.270 -32.713  16.267  1.00  0.00    -0.003 C 
ATOM      8  C   UNL     1     -18.978 -33.294  14.887  1.00  0.00     0.004 C 
ENDBRANCH   6   7
ENDBRANCH   1   6
TORSDOF 4
ENDMDL
MODEL 8
REMARK VINA RESULT:    -3.167      2.200      2.987
REMARK INTER + INTRA:          -4.060
REMARK INTER:                  -3.840
REMARK INTRA:                  -0.220
REMARK UNBOUND:                -0.152
REMARK SMILES CCCCCC(=O)[O-]
REMARK SMILES IDX 4 1 5 2 6 3 7 4 8 5 3 6 2 7 1 8
REMARK H PARENT
REMARK Flexibility Score: inf
ROOT
ATOM      1  C   UNL     1     -19.380 -33.084  19.949  1.00  0.00     0.006 C 
ENDROOT
BRANCH   1   2
ATOM      2  C   UNL     1     -18.972 -32.140  18.814  1.00  0.00     0.053 C 
BRANCH   2   3
ATOM      3  C   UNL     1     -19.130 -30.713  19.237  1.00  0.00     0.041 C 
ATOM      4  O   UNL     1     -18.155 -30.087  19.728  1.00  0.00    -0.550 OA
ATOM      5  O   UNL     1     -20.366 -30.090  19.133  1.00  0.00    -0.550 OA
ENDBRANCH   2   3
ENDBRANCH   1   2
BRANCH   1   6
ATOM      6  C   UNL     1     -18.148 -33.650  20.663  1.00  0.00     0.000 C 
BRANCH   6   7
ATOM      7  C   UNL     1     -17.844 -32.865  21.944  1.00  0.00    -0.003 C 
ATOM      8  C   UNL     1     -16.394 -32.392  21.970  1.00  0.00     0.004 C 
ENDBRANCH   6   7
ENDBRANCH   1   6
TORSDOF 4
ENDMDL
MODEL 9
REMARK VINA RESULT:    -3.090      2.781      4.069
REMARK INTER + INTRA:          -3.964
REMARK INTER:                  -3.790
REMARK INTRA:                  -0.174
REMARK UNBOUND:                -0.152
REMARK SMILES CCCCCC(=O)[O-]
REMARK SMILES IDX 4 1 5 2 6 3 7 4 8 5 3 6 2 7 1 8
REMARK H PARENT
REMARK Flexibility Score: inf
ROOT
ATOM      1  C   UNL     1     -18.091 -33.448  19.546  1.00  0.00     0.006 C 
ENDROOT
BRANCH   1   2
ATOM      2  C   UNL     1     -17.463 -34.029  20.816  1.00  0.00     0.053 C 
BRANCH   2   3
ATOM      3  C   UNL     1     -16.411 -33.108  21.349  1.00  0.00     0.041 C 
ATOM      4  O   UNL     1     -15.194 -33.416  21.256  1.00  0.00    -0.550 OA
ATOM      5  O   UNL     1     -16.778 -31.933  21.992  1.00  0.00    -0.550 OA
ENDBRANCH   2   3
ENDBRANCH   1   2
BRANCH   1   6
ATOM      6  C   UNL     1     -19.577 -33.139  19.757  1.00  0.00     0.000 C 
BRANCH   6   7
ATOM      7  C   UNL     1     -19.791 -31.656  20.081  1.00  0.00    -0.003 C 
ATOM      8  C   UNL     1     -19.459 -30.777  18.879  1.00  0.00     0.004 C 
ENDBRANCH   6   7
ENDBRANCH   1   6
TORSDOF 4
ENDMDL
