MODEL 1
REMARK VINA RESULT:    -4.117      0.000      0.000
REMARK INTER + INTRA:          -5.145
REMARK INTER:                  -4.959
REMARK INTRA:                  -0.185
REMARK UNBOUND:                -0.185
REMARK SMILES C=CCc1ccc(O)c(OC)c1
REMARK SMILES IDX 9 1 7 2 6 3 5 4 4 5 12 6 10 7 11 8 8 9 3 11 2 12 1 13
REMARK H PARENT 8 10
REMARK Flexibility Score: inf
ROOT
ATOM      1  C   UNL     1       6.323  -3.526  -7.247  1.00  0.00     0.160 A 
ATOM      2  C   UNL     1       4.995  -3.479  -7.694  1.00  0.00     0.157 A 
ATOM      3  C   UNL     1       4.471  -2.294  -8.223  1.00  0.00     0.050 A 
ATOM      4  C   UNL     1       5.268  -1.151  -8.313  1.00  0.00     0.008 A 
ATOM      5  C   UNL     1       6.602  -1.184  -7.881  1.00  0.00    -0.040 A 
ATOM      6  C   UNL     1       7.124  -2.370  -7.341  1.00  0.00     0.054 A 
ENDROOT
BRANCH   1   7
ATOM      7  O   UNL     1       6.809  -4.731  -6.716  1.00  0.00    -0.493 OA
ATOM      8  C   UNL     1       7.799  -4.822  -5.697  1.00  0.00     0.278 C 
ENDBRANCH   1   7
BRANCH   2   9
ATOM      9  O   UNL     1       4.198  -4.621  -7.604  1.00  0.00    -0.504 OA
ATOM     10  H   UNL     1       3.266  -4.587  -7.207  1.00  0.00     0.293 HD
ENDBRANCH   2   9
BRANCH   5  11
ATOM     11  C   UNL     1       7.449   0.060  -7.951  1.00  0.00     0.062 C 
BRANCH  11  12
ATOM     12  C   UNL     1       8.522   0.034  -6.900  1.00  0.00    -0.030 C 
ATOM     13  C   UNL     1       9.182   1.140  -6.542  1.00  0.00     0.004 C 
ENDBRANCH  11  12
ENDBRANCH   5  11
TORSDOF 4
ENDMDL
MODEL 2
REMARK VINA RESULT:    -4.116      7.640      8.941
REMARK INTER + INTRA:          -5.144
REMARK INTER:                  -5.022
REMARK INTRA:                  -0.122
REMARK UNBOUND:                -0.185
REMARK SMILES C=CCc1ccc(O)c(OC)c1
REMARK SMILES IDX 9 1 7 2 6 3 5 4 4 5 12 6 10 7 11 8 8 9 3 11 2 12 1 13
REMARK H PARENT 8 10
REMARK Flexibility Score: inf
ROOT
ATOM      1  C   UNL     1       6.998  -6.146   0.676  1.00  0.00     0.160 A 
ATOM      2  C   UNL     1       7.683  -6.379  -0.525  1.00  0.00     0.157 A 
ATOM      3  C   UNL     1       8.467  -5.370  -1.096  1.00  0.00     0.050 A 
ATOM      4  C   UNL     1       8.576  -4.125  -0.472  1.00  0.00     0.008 A 
ATOM      5  C   UNL     1       7.907  -3.879   0.736  1.00  0.00    -0.040 A 
ATOM      6  C   UNL     1       7.112  -4.888   1.302  1.00  0.00     0.054 A 
ENDROOT
BRANCH   1   7
ATOM      7  O   UNL     1       6.216  -7.180   1.213  1.00  0.00    -0.493 OA
ATOM      8  C   UNL     1       6.731  -8.267   1.975  1.00  0.00     0.278 C 
ENDBRANCH   1   7
BRANCH   2   9
ATOM      9  O   UNL     1       7.574  -7.622  -1.149  1.00  0.00    -0.504 OA
ATOM     10  H   UNL     1       8.066  -7.827  -2.011  1.00  0.00     0.293 HD
ENDBRANCH   2   9
BRANCH   5  11
ATOM     11  C   UNL     1       8.002  -2.525   1.389  1.00  0.00     0.062 C 
BRANCH  11  12
ATOM     12  C   UNL     1       6.893  -2.335   2.384  1.00  0.00    -0.030 C 
ATOM     13  C   UNL     1       6.942  -1.378   3.316  1.00  0.00     0.004 C 
ENDBRANCH  11  12
ENDBRANCH   5  11
TORSDOF 4
ENDMDL
MODEL 3
REMARK VINA RESULT:    -4.025      6.764      8.605
REMARK INTER + INTRA:          -5.033
REMARK INTER:                  -4.811
REMARK INTRA:                  -0.222
REMARK UNBOUND:                -0.185
REMARK SMILES C=CCc1ccc(O)c(OC)c1
REMARK SMILES IDX 9 1 7 2 6 3 5 4 4 5 12 6 10 7 11 8 8 9 3 11 2 12 1 13
REMARK H PARENT 8 10
REMARK Flexibility Score: inf
ROOT
ATOM      1  C   UNL     1       8.376  -5.396  -0.778  1.00  0.00     0.160 A 
ATOM      2  C   UNL     1       7.524  -6.335  -0.179  1.00  0.00     0.157 A 
ATOM      3  C   UNL     1       6.804  -5.998   0.974  1.00  0.00     0.050 A 
ATOM      4  C   UNL     1       6.926  -4.723   1.533  1.00  0.00     0.008 A 
ATOM      5  C   UNL     1       7.765  -3.770   0.940  1.00  0.00    -0.040 A 
ATOM      6  C   UNL     1       8.495  -4.111  -0.210  1.00  0.00     0.054 A 
ENDROOT
BRANCH   1   7
ATOM      7  O   UNL     1       9.086  -5.774  -1.928  1.00  0.00    -0.493 OA
ATOM      8  C   UNL     1       9.138  -5.012  -3.130  1.00  0.00     0.278 C 
ENDBRANCH   1   7
BRANCH   2   9
ATOM      9  O   UNL     1       7.402  -7.607  -0.737  1.00  0.00    -0.504 OA
ATOM     10  H   UNL     1       8.018  -8.365  -0.468  1.00  0.00     0.293 HD
ENDBRANCH   2   9
BRANCH   5  11
ATOM     11  C   UNL     1       7.919  -2.407   1.564  1.00  0.00     0.062 C 
BRANCH  11  12
ATOM     12  C   UNL     1       6.797  -2.132   2.524  1.00  0.00    -0.030 C 
ATOM     13  C   UNL     1       6.945  -1.293   3.555  1.00  0.00     0.004 C 
ENDBRANCH  11  12
ENDBRANCH   5  11
TORSDOF 4
ENDMDL
MODEL 4
REMARK VINA RESULT:    -4.014      1.527      2.329
REMARK INTER + INTRA:          -5.021
REMARK INTER:                  -4.811
REMARK INTRA:                  -0.210
REMARK UNBOUND:                -0.185
REMARK SMILES C=CCc1ccc(O)c(OC)c1
REMARK SMILES IDX 9 1 7 2 6 3 5 4 4 5 12 6 10 7 11 8 8 9 3 11 2 12 1 13
REMARK H PARENT 8 10
REMARK Flexibility Score: inf
ROOT
ATOM      1  C   UNL     1       7.789  -2.158  -7.338  1.00  0.00     0.160 A 
ATOM      2  C   UNL     1       6.621  -1.745  -7.995  1.00  0.00     0.157 A 
ATOM      3  C   UNL     1       6.344  -0.381  -8.150  1.00  0.00     0.050 A 
ATOM      4  C   UNL     1       7.231   0.578  -7.654  1.00  0.00     0.008 A 
ATOM      5  C   UNL     1       8.409   0.182  -7.005  1.00  0.00    -0.040 A 
ATOM      6  C   UNL     1       8.681  -1.186  -6.841  1.00  0.00     0.054 A 
ENDROOT
BRANCH   1   7
ATOM      7  O   UNL     1       8.027  -3.533  -7.197  1.00  0.00    -0.493 OA
ATOM      8  C   UNL     1       7.813  -4.270  -5.998  1.00  0.00     0.278 C 
ENDBRANCH   1   7
BRANCH   2   9
ATOM      9  O   UNL     1       5.735  -2.702  -8.490  1.00  0.00    -0.504 OA
ATOM     10  H   UNL     1       5.269  -2.581  -9.381  1.00  0.00     0.293 HD
ENDBRANCH   2   9
BRANCH   5  11
ATOM     11  C   UNL     1       9.347   1.219  -6.444  1.00  0.00     0.062 C 
BRANCH  11  12
ATOM     12  C   UNL     1       9.751   2.201  -7.507  1.00  0.00    -0.030 C 
ATOM     13  C   UNL     1      10.467   3.293  -7.218  1.00  0.00     0.004 C 
ENDBRANCH  11  12
ENDBRANCH   5  11
TORSDOF 4
ENDMDL
MODEL 5
REMARK VINA RESULT:    -3.999      4.433      6.530
REMARK INTER + INTRA:          -5.002
REMARK INTER:                  -4.804
REMARK INTRA:                  -0.198
REMARK UNBOUND:                -0.185
REMARK SMILES C=CCc1ccc(O)c(OC)c1
REMARK SMILES IDX 9 1 7 2 6 3 5 4 4 5 12 6 10 7 11 8 8 9 3 11 2 12 1 13
REMARK H PARENT 8 10
REMARK Flexibility Score: inf
ROOT
ATOM      1  C   UNL     1      10.382   2.094  -6.049  1.00  0.00     0.160 A 
ATOM      2  C   UNL     1      10.757   2.750  -7.229  1.00  0.00     0.157 A 
ATOM      3  C   UNL     1      10.105   2.460  -8.434  1.00  0.00     0.050 A 
ATOM      4  C   UNL     1       9.074   1.519  -8.468  1.00  0.00     0.008 A 
ATOM      5  C   UNL     1       8.679   0.862  -7.294  1.00  0.00    -0.040 A 
ATOM      6  C   UNL     1       9.340   1.145  -6.088  1.00  0.00     0.054 A 
ENDROOT
BRANCH   1   7
ATOM      7  O   UNL     1      11.063   2.407  -4.863  1.00  0.00    -0.493 OA
ATOM      8  C   UNL     1      10.615   2.054  -3.558  1.00  0.00     0.278 C 
ENDBRANCH   1   7
BRANCH   2   9
ATOM      9  O   UNL     1      11.787   3.690  -7.196  1.00  0.00    -0.504 OA
ATOM     10  H   UNL     1      11.640   4.648  -7.493  1.00  0.00     0.293 HD
ENDBRANCH   2   9
BRANCH   5  11
ATOM     11  C   UNL     1       7.588  -0.176  -7.341  1.00  0.00     0.062 C 
BRANCH  11  12
ATOM     12  C   UNL     1       6.405   0.329  -8.117  1.00  0.00    -0.030 C 
ATOM     13  C   UNL     1       5.363  -0.459  -8.402  1.00  0.00     0.004 C 
ENDBRANCH  11  12
ENDBRANCH   5  11
TORSDOF 4
ENDMDL
MODEL 6
REMARK VINA RESULT:    -3.995      1.436      3.040
REMARK INTER + INTRA:          -4.998
REMARK INTER:                  -4.776
REMARK INTRA:                  -0.222
REMARK UNBOUND:                -0.185
REMARK SMILES C=CCc1ccc(O)c(OC)c1
REMARK SMILES IDX 9 1 7 2 6 3 5 4 4 5 12 6 10 7 11 8 8 9 3 11 2 12 1 13
REMARK H PARENT 8 10
REMARK Flexibility Score: inf
ROOT
ATOM      1  C   UNL     1       4.335  -1.585  -8.402  1.00  0.00     0.160 A 
ATOM      2  C   UNL     1       4.803  -2.849  -8.015  1.00  0.00     0.157 A 
ATOM      3  C   UNL     1       6.139  -3.019  -7.636  1.00  0.00     0.050 A 
ATOM      4  C   UNL     1       7.016  -1.931  -7.636  1.00  0.00     0.008 A 
ATOM      5  C   UNL     1       6.561  -0.659  -8.009  1.00  0.00    -0.040 A 
ATOM      6  C   UNL     1       5.223  -0.490  -8.399  1.00  0.00     0.054 A 
ENDROOT
BRANCH   1   7
ATOM      7  O   UNL     1       2.990  -1.456  -8.782  1.00  0.00    -0.493 OA
ATOM      8  C   UNL     1       1.963  -0.932  -7.946  1.00  0.00     0.278 C 
ENDBRANCH   1   7
BRANCH   2   9
ATOM      9  O   UNL     1       3.928  -3.935  -8.015  1.00  0.00    -0.504 OA
ATOM     10  H   UNL     1       3.223  -4.048  -8.734  1.00  0.00     0.293 HD
ENDBRANCH   2   9
BRANCH   5  11
ATOM     11  C   UNL     1       7.517   0.506  -8.038  1.00  0.00     0.062 C 
BRANCH  11  12
ATOM     12  C   UNL     1       8.522   0.398  -6.927  1.00  0.00    -0.030 C 
ATOM     13  C   UNL     1       9.270   1.441  -6.553  1.00  0.00     0.004 C 
ENDBRANCH  11  12
ENDBRANCH   5  11
TORSDOF 4
ENDMDL
MODEL 7
REMARK VINA RESULT:    -3.956      3.367      4.786
REMARK INTER + INTRA:          -4.950
REMARK INTER:                  -4.728
REMARK INTRA:                  -0.222
REMARK UNBOUND:                -0.185
REMARK SMILES C=CCc1ccc(O)c(OC)c1
REMARK SMILES IDX 9 1 7 2 6 3 5 4 4 5 12 6 10 7 11 8 8 9 3 11 2 12 1 13
REMARK H PARENT 8 10
REMARK Flexibility Score: inf
ROOT
ATOM      1  C   UNL     1       1.931  -0.746  -7.953  1.00  0.00     0.160 A 
ATOM      2  C   UNL     1       1.627   0.480  -8.564  1.00  0.00     0.157 A 
ATOM      3  C   UNL     1       2.646   1.258  -9.126  1.00  0.00     0.050 A 
ATOM      4  C   UNL     1       3.971   0.819  -9.086  1.00  0.00     0.008 A 
ATOM      5  C   UNL     1       4.290  -0.409  -8.490  1.00  0.00    -0.040 A 
ATOM      6  C   UNL     1       3.270  -1.185  -7.917  1.00  0.00     0.054 A 
ENDROOT
BRANCH   1   7
ATOM      7  O   UNL     1       0.883  -1.494  -7.395  1.00  0.00    -0.493 OA
ATOM      8  C   UNL     1       0.220  -2.569  -8.054  1.00  0.00     0.278 C 
ENDBRANCH   1   7
BRANCH   2   9
ATOM      9  O   UNL     1       0.304   0.919  -8.603  1.00  0.00    -0.504 OA
ATOM     10  H   UNL     1      -0.327   0.634  -9.343  1.00  0.00     0.293 HD
ENDBRANCH   2   9
BRANCH   5  11
ATOM     11  C   UNL     1       5.725  -0.865  -8.421  1.00  0.00     0.062 C 
BRANCH  11  12
ATOM     12  C   UNL     1       6.624   0.268  -8.016  1.00  0.00    -0.030 C 
ATOM     13  C   UNL     1       7.703   0.069  -7.252  1.00  0.00     0.004 C 
ENDBRANCH  11  12
ENDBRANCH   5  11
TORSDOF 4
ENDMDL
MODEL 8
REMARK VINA RESULT:    -3.926      4.454      6.805
REMARK INTER + INTRA:          -4.914
REMARK INTER:                  -4.731
REMARK INTRA:                  -0.183
REMARK UNBOUND:                -0.185
REMARK SMILES C=CCc1ccc(O)c(OC)c1
REMARK SMILES IDX 9 1 7 2 6 3 5 4 4 5 12 6 10 7 11 8 8 9 3 11 2 12 1 13
REMARK H PARENT 8 10
REMARK Flexibility Score: inf
ROOT
ATOM      1  C   UNL     1      10.214   2.121  -8.979  1.00  0.00     0.160 A 
ATOM      2  C   UNL     1      10.789   2.734  -7.857  1.00  0.00     0.157 A 
ATOM      3  C   UNL     1      10.333   2.419  -6.572  1.00  0.00     0.050 A 
ATOM      4  C   UNL     1       9.304   1.490  -6.397  1.00  0.00     0.008 A 
ATOM      5  C   UNL     1       8.726   0.860  -7.509  1.00  0.00    -0.040 A 
ATOM      6  C   UNL     1       9.178   1.183  -8.798  1.00  0.00     0.054 A 
ENDROOT
BRANCH   1   7
ATOM      7  O   UNL     1      10.695   2.468 -10.252  1.00  0.00    -0.493 OA
ATOM      8  C   UNL     1      10.094   2.065 -11.478  1.00  0.00     0.278 C 
ENDBRANCH   1   7
BRANCH   2   9
ATOM      9  O   UNL     1      11.817   3.661  -8.030  1.00  0.00    -0.504 OA
ATOM     10  H   UNL     1      11.964   4.129  -8.917  1.00  0.00     0.293 HD
ENDBRANCH   2   9
BRANCH   5  11
ATOM     11  C   UNL     1       7.596  -0.118  -7.319  1.00  0.00     0.062 C 
BRANCH  11  12
ATOM     12  C   UNL     1       6.367   0.340  -8.051  1.00  0.00    -0.030 C 
ATOM     13  C   UNL     1       5.414  -0.518  -8.430  1.00  0.00     0.004 C 
ENDBRANCH  11  12
ENDBRANCH   5  11
TORSDOF 4
ENDMDL
