MODEL 1
REMARK VINA RESULT:    -3.004      0.000      0.000
REMARK INTER + INTRA:          -3.936
REMARK INTER:                  -3.531
REMARK INTRA:                  -0.405
REMARK UNBOUND:                -0.405
REMARK SMILES [NH3+][C@H](CO)C(=O)[O-]
REMARK SMILES IDX 3 1 2 2 1 3 5 7 6 8 7 9 4 10
REMARK H PARENT 1 4 1 5 1 6 4 11
REMARK Flexibility Score: inf
ROOT
ATOM      1  C   UNL     1     120.283 122.585 121.970  1.00  0.00     0.227 C 
ENDROOT
BRANCH   1   2
ATOM      2  C   UNL     1     118.927 123.141 121.497  1.00  0.00     0.253 C 
BRANCH   2   3
ATOM      3  N   UNL     1     118.536 124.320 122.280  1.00  0.00    -0.348 N 
ATOM      4  H   UNL     1     118.275 124.048 123.256  1.00  0.00     0.345 HD
ATOM      5  H   UNL     1     119.329 125.002 122.313  1.00  0.00     0.345 HD
ATOM      6  H   UNL     1     117.720 124.793 121.827  1.00  0.00     0.345 HD
ENDBRANCH   2   3
BRANCH   2   7
ATOM      7  C   UNL     1     118.990 123.480 120.032  1.00  0.00     0.102 C 
ATOM      8  O   UNL     1     119.253 124.654 119.658  1.00  0.00    -0.544 OA
ATOM      9  O   UNL     1     118.774 122.490 119.081  1.00  0.00    -0.544 OA
ENDBRANCH   2   7
ENDBRANCH   1   2
BRANCH   1  10
ATOM     10  O   UNL     1     121.240 122.669 120.948  1.00  0.00    -0.390 OA
ATOM     11  H   UNL     1     120.741 122.645 120.089  1.00  0.00     0.210 HD
ENDBRANCH   1  10
TORSDOF 4
ENDMDL
MODEL 2
REMARK VINA RESULT:    -2.999     16.063     16.533
REMARK INTER + INTRA:          -3.930
REMARK INTER:                  -3.529
REMARK INTRA:                  -0.401
REMARK UNBOUND:                -0.405
REMARK SMILES [NH3+][C@H](CO)C(=O)[O-]
REMARK SMILES IDX 3 1 2 2 1 3 5 7 6 8 7 9 4 10
REMARK H PARENT 1 4 1 5 1 6 4 11
REMARK Flexibility Score: inf
ROOT
ATOM      1  C   UNL     1     135.935 123.887 122.011  1.00  0.00     0.227 C 
ENDROOT
BRANCH   1   2
ATOM      2  C   UNL     1     136.213 122.441 121.560  1.00  0.00     0.253 C 
BRANCH   2   3
ATOM      3  N   UNL     1     135.420 121.481 122.339  1.00  0.00    -0.348 N 
ATOM      4  H   UNL     1     136.043 120.842 122.886  1.00  0.00     0.345 HD
ATOM      5  H   UNL     1     134.791 121.995 122.999  1.00  0.00     0.345 HD
ATOM      6  H   UNL     1     134.821 120.910 121.698  1.00  0.00     0.345 HD
ENDBRANCH   2   3
BRANCH   2   7
ATOM      7  C   UNL     1     135.921 122.293 120.092  1.00  0.00     0.102 C 
ATOM      8  O   UNL     1     134.758 122.015 119.695  1.00  0.00    -0.544 OA
ATOM      9  O   UNL     1     136.936 122.478 119.161  1.00  0.00    -0.544 OA
ENDBRANCH   2   7
ENDBRANCH   1   2
BRANCH   1  10
ATOM     10  O   UNL     1     135.553 124.683 120.923  1.00  0.00    -0.390 OA
ATOM     11  H   UNL     1     135.512 124.084 120.132  1.00  0.00     0.210 HD
ENDBRANCH   1  10
TORSDOF 4
ENDMDL
MODEL 3
REMARK VINA RESULT:    -2.972      1.851      2.424
REMARK INTER + INTRA:          -3.899
REMARK INTER:                  -3.498
REMARK INTRA:                  -0.401
REMARK UNBOUND:                -0.405
REMARK SMILES [NH3+][C@H](CO)C(=O)[O-]
REMARK SMILES IDX 3 1 2 2 1 3 5 7 6 8 7 9 4 10
REMARK H PARENT 1 4 1 5 1 6 4 11
REMARK Flexibility Score: inf
ROOT
ATOM      1  C   UNL     1     120.592 123.578 121.540  1.00  0.00     0.227 C 
ENDROOT
BRANCH   1   2
ATOM      2  C   UNL     1     119.220 123.472 122.231  1.00  0.00     0.253 C 
BRANCH   2   3
ATOM      3  N   UNL     1     118.242 124.372 121.606  1.00  0.00    -0.348 N 
ATOM      4  H   UNL     1     117.268 124.011 121.737  1.00  0.00     0.345 HD
ATOM      5  H   UNL     1     118.315 125.325 122.031  1.00  0.00     0.345 HD
ATOM      6  H   UNL     1     118.440 124.457 120.582  1.00  0.00     0.345 HD
ENDBRANCH   2   3
BRANCH   2   7
ATOM      7  C   UNL     1     118.728 122.051 122.188  1.00  0.00     0.102 C 
ATOM      8  O   UNL     1     117.898 121.687 121.313  1.00  0.00    -0.544 OA
ATOM      9  O   UNL     1     119.203 121.125 123.109  1.00  0.00    -0.544 OA
ENDBRANCH   2   7
ENDBRANCH   1   2
BRANCH   1  10
ATOM     10  O   UNL     1     120.966 122.348 120.982  1.00  0.00    -0.390 OA
ATOM     11  H   UNL     1     121.934 122.233 121.169  1.00  0.00     0.210 HD
ENDBRANCH   1  10
TORSDOF 4
ENDMDL
MODEL 4
REMARK VINA RESULT:    -2.972     15.867     16.372
REMARK INTER + INTRA:          -3.898
REMARK INTER:                  -3.490
REMARK INTRA:                  -0.408
REMARK UNBOUND:                -0.405
REMARK SMILES [NH3+][C@H](CO)C(=O)[O-]
REMARK SMILES IDX 3 1 2 2 1 3 5 7 6 8 7 9 4 10
REMARK H PARENT 1 4 1 5 1 6 4 11
REMARK Flexibility Score: inf
ROOT
ATOM      1  C   UNL     1     135.756 120.950 121.253  1.00  0.00     0.227 C 
ENDROOT
BRANCH   1   2
ATOM      2  C   UNL     1     135.889 122.179 120.335  1.00  0.00     0.253 C 
BRANCH   2   3
ATOM      3  N   UNL     1     134.906 122.135 119.245  1.00  0.00    -0.348 N 
ATOM      4  H   UNL     1     134.387 123.041 119.176  1.00  0.00     0.345 HD
ATOM      5  H   UNL     1     135.392 121.947 118.338  1.00  0.00     0.345 HD
ATOM      6  H   UNL     1     134.223 121.361 119.414  1.00  0.00     0.345 HD
ENDBRANCH   2   3
BRANCH   2   7
ATOM      7  C   UNL     1     135.729 123.443 121.136  1.00  0.00     0.102 C 
ATOM      8  O   UNL     1     134.602 123.998 121.238  1.00  0.00    -0.544 OA
ATOM      9  O   UNL     1     136.825 123.997 121.785  1.00  0.00    -0.544 OA
ENDBRANCH   2   7
ENDBRANCH   1   2
BRANCH   1  10
ATOM     10  O   UNL     1     135.454 121.339 122.566  1.00  0.00    -0.390 OA
ATOM     11  H   UNL     1     134.559 121.768 122.537  1.00  0.00     0.210 HD
ENDBRANCH   1  10
TORSDOF 4
ENDMDL
MODEL 5
REMARK VINA RESULT:    -2.970     16.096     16.556
REMARK INTER + INTRA:          -3.896
REMARK INTER:                  -3.518
REMARK INTRA:                  -0.378
REMARK UNBOUND:                -0.405
REMARK SMILES [NH3+][C@H](CO)C(=O)[O-]
REMARK SMILES IDX 3 1 2 2 1 3 5 7 6 8 7 9 4 10
REMARK H PARENT 1 4 1 5 1 6 4 11
REMARK Flexibility Score: inf
ROOT
ATOM      1  C   UNL     1     127.008 137.032 122.026  1.00  0.00     0.227 C 
ENDROOT
BRANCH   1   2
ATOM      2  C   UNL     1     128.228 137.822 121.517  1.00  0.00     0.253 C 
BRANCH   2   3
ATOM      3  N   UNL     1     129.428 137.507 122.303  1.00  0.00    -0.348 N 
ATOM      4  H   UNL     1     129.351 136.557 122.733  1.00  0.00     0.345 HD
ATOM      5  H   UNL     1     130.273 137.538 121.686  1.00  0.00     0.345 HD
ATOM      6  H   UNL     1     129.553 138.217 123.061  1.00  0.00     0.345 HD
ENDBRANCH   2   3
BRANCH   2   7
ATOM      7  C   UNL     1     128.462 137.529 120.060  1.00  0.00     0.102 C 
ATOM      8  O   UNL     1     129.373 136.735 119.705  1.00  0.00    -0.544 OA
ATOM      9  O   UNL     1     127.659 138.125 119.095  1.00  0.00    -0.544 OA
ENDBRANCH   2   7
ENDBRANCH   1   2
BRANCH   1  10
ATOM     10  O   UNL     1     126.466 136.238 121.004  1.00  0.00    -0.390 OA
ATOM     11  H   UNL     1     125.826 135.615 121.438  1.00  0.00     0.210 HD
ENDBRANCH   1  10
TORSDOF 4
ENDMDL
MODEL 6
REMARK VINA RESULT:    -2.961      2.098      2.769
REMARK INTER + INTRA:          -3.886
REMARK INTER:                  -3.491
REMARK INTRA:                  -0.395
REMARK UNBOUND:                -0.405
REMARK SMILES [NH3+][C@H](CO)C(=O)[O-]
REMARK SMILES IDX 3 1 2 2 1 3 5 7 6 8 7 9 4 10
REMARK H PARENT 1 4 1 5 1 6 4 11
REMARK Flexibility Score: inf
ROOT
ATOM      1  C   UNL     1     117.915 124.250 121.320  1.00  0.00     0.227 C 
ENDROOT
BRANCH   1   2
ATOM      2  C   UNL     1     118.949 123.558 120.412  1.00  0.00     0.253 C 
BRANCH   2   3
ATOM      3  N   UNL     1     119.336 124.426 119.294  1.00  0.00    -0.348 N 
ATOM      4  H   UNL     1     118.794 124.186 118.432  1.00  0.00     0.345 HD
ATOM      5  H   UNL     1     119.159 125.427 119.544  1.00  0.00     0.345 HD
ATOM      6  H   UNL     1     120.358 124.318 119.096  1.00  0.00     0.345 HD
ENDBRANCH   2   3
BRANCH   2   7
ATOM      7  C   UNL     1     120.159 123.164 121.215  1.00  0.00     0.102 C 
ATOM      8  O   UNL     1     121.195 123.880 121.204  1.00  0.00    -0.544 OA
ATOM      9  O   UNL     1     120.132 122.011 121.990  1.00  0.00    -0.544 OA
ENDBRANCH   2   7
ENDBRANCH   1   2
BRANCH   1  10
ATOM     10  O   UNL     1     118.398 124.362 122.631  1.00  0.00    -0.390 OA
ATOM     11  H   UNL     1     118.473 123.437 122.987  1.00  0.00     0.210 HD
ENDBRANCH   1  10
TORSDOF 4
ENDMDL
MODEL 7
REMARK VINA RESULT:    -2.933     16.255     17.136
REMARK INTER + INTRA:          -3.853
REMARK INTER:                  -3.456
REMARK INTRA:                  -0.397
REMARK UNBOUND:                -0.405
REMARK SMILES [NH3+][C@H](CO)C(=O)[O-]
REMARK SMILES IDX 3 1 2 2 1 3 5 7 6 8 7 9 4 10
REMARK H PARENT 1 4 1 5 1 6 4 11
REMARK Flexibility Score: inf
ROOT
ATOM      1  C   UNL     1     135.087 123.771 121.243  1.00  0.00     0.227 C 
ENDROOT
BRANCH   1   2
ATOM      2  C   UNL     1     135.691 122.517 120.584  1.00  0.00     0.253 C 
BRANCH   2   3
ATOM      3  N   UNL     1     134.974 122.170 119.350  1.00  0.00    -0.348 N 
ATOM      4  H   UNL     1     134.045 122.649 119.313  1.00  0.00     0.345 HD
ATOM      5  H   UNL     1     135.542 122.456 118.519  1.00  0.00     0.345 HD
ATOM      6  H   UNL     1     134.828 121.135 119.303  1.00  0.00     0.345 HD
ENDBRANCH   2   3
BRANCH   2   7
ATOM      7  C   UNL     1     137.152 122.736 120.300  1.00  0.00     0.102 C 
ATOM      8  O   UNL     1     138.030 122.283 121.081  1.00  0.00    -0.544 OA
ATOM      9  O   UNL     1     137.541 123.428 119.159  1.00  0.00    -0.544 OA
ENDBRANCH   2   7
ENDBRANCH   1   2
BRANCH   1  10
ATOM     10  O   UNL     1     136.089 124.699 121.560  1.00  0.00    -0.390 OA
ATOM     11  H   UNL     1     136.890 124.174 121.823  1.00  0.00     0.210 HD
ENDBRANCH   1  10
TORSDOF 4
ENDMDL
MODEL 8
REMARK VINA RESULT:    -2.900     16.195     16.634
REMARK INTER + INTRA:          -3.814
REMARK INTER:                  -3.580
REMARK INTRA:                  -0.234
REMARK UNBOUND:                -0.405
REMARK SMILES [NH3+][C@H](CO)C(=O)[O-]
REMARK SMILES IDX 3 1 2 2 1 3 5 7 6 8 7 9 4 10
REMARK H PARENT 1 4 1 5 1 6 4 11
REMARK Flexibility Score: inf
ROOT
ATOM      1  C   UNL     1     136.224 122.251 122.714  1.00  0.00     0.227 C 
ENDROOT
BRANCH   1   2
ATOM      2  C   UNL     1     135.770 123.430 121.835  1.00  0.00     0.253 C 
BRANCH   2   3
ATOM      3  N   UNL     1     136.580 124.627 122.094  1.00  0.00    -0.348 N 
ATOM      4  H   UNL     1     136.782 124.725 123.117  1.00  0.00     0.345 HD
ATOM      5  H   UNL     1     137.484 124.564 121.570  1.00  0.00     0.345 HD
ATOM      6  H   UNL     1     136.072 125.480 121.763  1.00  0.00     0.345 HD
ENDBRANCH   2   3
BRANCH   2   7
ATOM      7  C   UNL     1     135.846 123.050 120.381  1.00  0.00     0.102 C 
ATOM      8  O   UNL     1     134.928 122.370 119.849  1.00  0.00    -0.544 OA
ATOM      9  O   UNL     1     136.925 123.463 119.610  1.00  0.00    -0.544 OA
ENDBRANCH   2   7
ENDBRANCH   1   2
BRANCH   1  10
ATOM     10  O   UNL     1     135.434 121.117 122.474  1.00  0.00    -0.390 OA
ATOM     11  H   UNL     1     135.509 120.919 121.504  1.00  0.00     0.210 HD
ENDBRANCH   1  10
TORSDOF 4
ENDMDL
MODEL 9
REMARK VINA RESULT:    -2.872     16.731     17.509
REMARK INTER + INTRA:          -3.781
REMARK INTER:                  -3.750
REMARK INTRA:                  -0.031
REMARK UNBOUND:                -0.405
REMARK SMILES [NH3+][C@H](CO)C(=O)[O-]
REMARK SMILES IDX 3 1 2 2 1 3 5 7 6 8 7 9 4 10
REMARK H PARENT 1 4 1 5 1 6 4 11
REMARK Flexibility Score: inf
ROOT
ATOM      1  C   UNL     1     136.249 123.485 120.831  1.00  0.00     0.227 C 
ENDROOT
BRANCH   1   2
ATOM      2  C   UNL     1     137.217 123.366 122.024  1.00  0.00     0.253 C 
BRANCH   2   3
ATOM      3  N   UNL     1     137.102 124.526 122.917  1.00  0.00    -0.348 N 
ATOM      4  H   UNL     1     137.149 124.230 123.919  1.00  0.00     0.345 HD
ATOM      5  H   UNL     1     137.876 125.202 122.721  1.00  0.00     0.345 HD
ATOM      6  H   UNL     1     136.193 125.017 122.747  1.00  0.00     0.345 HD
ENDBRANCH   2   3
BRANCH   2   7
ATOM      7  C   UNL     1     136.951 122.093 122.780  1.00  0.00     0.102 C 
ATOM      8  O   UNL     1     137.801 121.644 123.595  1.00  0.00    -0.544 OA
ATOM      9  O   UNL     1     135.754 121.412 122.594  1.00  0.00    -0.544 OA
ENDBRANCH   2   7
ENDBRANCH   1   2
BRANCH   1  10
ATOM     10  O   UNL     1     135.473 124.648 120.933  1.00  0.00    -0.390 OA
ATOM     11  H   UNL     1     136.086 125.413 120.769  1.00  0.00     0.210 HD
ENDBRANCH   1  10
TORSDOF 4
ENDMDL
