MODEL 1
REMARK VINA RESULT:    -5.206      0.000      0.000
REMARK INTER + INTRA:          -8.083
REMARK INTER:                  -7.641
REMARK INTRA:                  -0.442
REMARK UNBOUND:                -0.442
REMARK SMILES O=C([O-])CCCCCCCC(=O)[O-]
REMARK SMILES IDX 7 1 6 2 5 3 4 4 2 5 1 6 3 7 8 8 9 9 10 10 11 11 12 12 13 13
REMARK H PARENT
REMARK Flexibility Score: inf
ROOT
ATOM      1  C   UNL     1     -18.394 -10.467  -0.061  1.00  0.00     0.000 C 
ENDROOT
BRANCH   1   2
ATOM      2  C   UNL     1     -18.361  -9.617  -1.340  1.00  0.00     0.000 C 
BRANCH   2   3
ATOM      3  C   UNL     1     -16.981  -9.617  -2.017  1.00  0.00     0.006 C 
BRANCH   3   4
ATOM      4  C   UNL     1     -16.685  -8.304  -2.753  1.00  0.00     0.053 C 
BRANCH   4   5
ATOM      5  C   UNL     1     -16.228  -8.582  -4.150  1.00  0.00     0.041 C 
ATOM      6  O   UNL     1     -16.759  -7.981  -5.121  1.00  0.00    -0.550 OA
ATOM      7  O   UNL     1     -15.182  -9.466  -4.378  1.00  0.00    -0.550 OA
ENDBRANCH   4   5
ENDBRANCH   3   4
ENDBRANCH   2   3
ENDBRANCH   1   2
BRANCH   1   8
ATOM      8  C   UNL     1     -19.219 -11.743  -0.272  1.00  0.00     0.000 C 
BRANCH   8   9
ATOM      9  C   UNL     1     -18.333 -12.897  -0.755  1.00  0.00     0.006 C 
BRANCH   9  10
ATOM     10  C   UNL     1     -18.620 -13.235  -2.221  1.00  0.00     0.053 C 
BRANCH  10  11
ATOM     11  C   UNL     1     -17.376 -13.708  -2.904  1.00  0.00     0.041 C 
ATOM     12  O   UNL     1     -17.259 -14.915  -3.242  1.00  0.00    -0.550 OA
ATOM     13  O   UNL     1     -16.364 -12.806  -3.209  1.00  0.00    -0.550 OA
ENDBRANCH  10  11
ENDBRANCH   9  10
ENDBRANCH   8   9
ENDBRANCH   1   8
TORSDOF 8
ENDMDL
MODEL 2
REMARK VINA RESULT:    -5.204      3.222      3.846
REMARK INTER + INTRA:          -8.080
REMARK INTER:                  -7.507
REMARK INTRA:                  -0.572
REMARK UNBOUND:                -0.442
REMARK SMILES O=C([O-])CCCCCCCC(=O)[O-]
REMARK SMILES IDX 7 1 6 2 5 3 4 4 2 5 1 6 3 7 8 8 9 9 10 10 11 11 12 12 13 13
REMARK H PARENT
REMARK Flexibility Score: inf
ROOT
ATOM      1  C   UNL     1     -18.830 -11.521  -0.237  1.00  0.00     0.000 C 
ENDROOT
BRANCH   1   2
ATOM      2  C   UNL     1     -19.011 -10.397  -1.268  1.00  0.00     0.000 C 
BRANCH   2   3
ATOM      3  C   UNL     1     -18.250  -9.116  -0.889  1.00  0.00     0.006 C 
BRANCH   3   4
ATOM      4  C   UNL     1     -17.804  -9.108   0.579  1.00  0.00     0.053 C 
BRANCH   4   5
ATOM      5  C   UNL     1     -16.427  -8.536   0.701  1.00  0.00     0.041 C 
ATOM      6  O   UNL     1     -15.419  -9.259   0.488  1.00  0.00    -0.550 OA
ATOM      7  O   UNL     1     -16.257  -7.190   1.002  1.00  0.00    -0.550 OA
ENDBRANCH   4   5
ENDBRANCH   3   4
ENDBRANCH   2   3
ENDBRANCH   1   2
BRANCH   1   8
ATOM      8  C   UNL     1     -18.717 -12.886  -0.927  1.00  0.00     0.000 C 
BRANCH   8   9
ATOM      9  C   UNL     1     -17.348 -13.524  -0.663  1.00  0.00     0.006 C 
BRANCH   9  10
ATOM     10  C   UNL     1     -16.514 -12.662   0.290  1.00  0.00     0.053 C 
BRANCH  10  11
ATOM     11  C   UNL     1     -15.389 -13.460   0.869  1.00  0.00     0.041 C 
ATOM     12  O   UNL     1     -15.553 -14.105   1.937  1.00  0.00    -0.550 OA
ATOM     13  O   UNL     1     -14.171 -13.529   0.202  1.00  0.00    -0.550 OA
ENDBRANCH  10  11
ENDBRANCH   9  10
ENDBRANCH   8   9
ENDBRANCH   1   8
TORSDOF 8
ENDMDL
MODEL 3
REMARK VINA RESULT:    -5.203      0.598      4.655
REMARK INTER + INTRA:          -8.079
REMARK INTER:                  -7.631
REMARK INTRA:                  -0.448
REMARK UNBOUND:                -0.442
REMARK SMILES O=C([O-])CCCCCCCC(=O)[O-]
REMARK SMILES IDX 7 1 6 2 5 3 4 4 2 5 1 6 3 7 8 8 9 9 10 10 11 11 12 12 13 13
REMARK H PARENT
REMARK Flexibility Score: inf
ROOT
ATOM      1  C   UNL     1     -19.372 -10.379  -1.001  1.00  0.00     0.000 C 
ENDROOT
BRANCH   1   2
ATOM      2  C   UNL     1     -18.892 -11.623  -0.238  1.00  0.00     0.000 C 
BRANCH   2   3
ATOM      3  C   UNL     1     -18.789 -12.866  -1.137  1.00  0.00     0.006 C 
BRANCH   3   4
ATOM      4  C   UNL     1     -17.368 -13.442  -1.186  1.00  0.00     0.053 C 
BRANCH   4   5
ATOM      5  C   UNL     1     -16.885 -13.522  -2.600  1.00  0.00     0.041 C 
ATOM      6  O   UNL     1     -16.005 -12.723  -3.015  1.00  0.00    -0.550 OA
ATOM      7  O   UNL     1     -17.372 -14.510  -3.446  1.00  0.00    -0.550 OA
ENDBRANCH   4   5
ENDBRANCH   3   4
ENDBRANCH   2   3
ENDBRANCH   1   2
BRANCH   1   8
ATOM      8  C   UNL     1     -18.282  -9.301  -1.031  1.00  0.00     0.000 C 
BRANCH   8   9
ATOM      9  C   UNL     1     -17.230  -9.613  -2.101  1.00  0.00     0.006 C 
BRANCH   9  10
ATOM     10  C   UNL     1     -16.684  -8.325  -2.727  1.00  0.00     0.053 C 
BRANCH  10  11
ATOM     11  C   UNL     1     -16.245  -8.572  -4.135  1.00  0.00     0.041 C 
ATOM     12  O   UNL     1     -16.801  -7.966  -5.089  1.00  0.00    -0.550 OA
ATOM     13  O   UNL     1     -15.188  -9.437  -4.392  1.00  0.00    -0.550 OA
ENDBRANCH  10  11
ENDBRANCH   9  10
ENDBRANCH   8   9
ENDBRANCH   1   8
TORSDOF 8
ENDMDL
MODEL 4
REMARK VINA RESULT:    -5.190      2.512      4.088
REMARK INTER + INTRA:          -8.059
REMARK INTER:                  -7.181
REMARK INTRA:                  -0.879
REMARK UNBOUND:                -0.442
REMARK SMILES O=C([O-])CCCCCCCC(=O)[O-]
REMARK SMILES IDX 7 1 6 2 5 3 4 4 2 5 1 6 3 7 8 8 9 9 10 10 11 11 12 12 13 13
REMARK H PARENT
REMARK Flexibility Score: inf
ROOT
ATOM      1  C   UNL     1     -15.419  -8.071  -1.437  1.00  0.00     0.000 C 
ENDROOT
BRANCH   1   2
ATOM      2  C   UNL     1     -15.991  -7.291  -0.243  1.00  0.00     0.000 C 
BRANCH   2   3
ATOM      3  C   UNL     1     -16.452  -8.211   0.899  1.00  0.00     0.006 C 
BRANCH   3   4
ATOM      4  C   UNL     1     -17.970  -8.433   0.901  1.00  0.00     0.053 C 
BRANCH   4   5
ATOM      5  C   UNL     1     -18.316  -9.671   0.135  1.00  0.00     0.041 C 
ATOM      6  O   UNL     1     -19.217  -9.641  -0.744  1.00  0.00    -0.550 OA
ATOM      7  O   UNL     1     -17.609 -10.846   0.356  1.00  0.00    -0.550 OA
ENDBRANCH   4   5
ENDBRANCH   3   4
ENDBRANCH   2   3
ENDBRANCH   1   2
BRANCH   1   8
ATOM      8  C   UNL     1     -16.382  -8.031  -2.629  1.00  0.00     0.000 C 
BRANCH   8   9
ATOM      9  C   UNL     1     -16.557  -9.426  -3.241  1.00  0.00     0.006 C 
BRANCH   9  10
ATOM     10  C   UNL     1     -15.612 -10.438  -2.584  1.00  0.00     0.053 C 
BRANCH  10  11
ATOM     11  C   UNL     1     -16.143 -11.828  -2.738  1.00  0.00     0.041 C 
ATOM     12  O   UNL     1     -17.382 -12.044  -2.678  1.00  0.00    -0.550 OA
ATOM     13  O   UNL     1     -15.271 -12.879  -2.997  1.00  0.00    -0.550 OA
ENDBRANCH  10  11
ENDBRANCH   9  10
ENDBRANCH   8   9
ENDBRANCH   1   8
TORSDOF 8
ENDMDL
MODEL 5
REMARK VINA RESULT:    -5.184      3.224      5.653
REMARK INTER + INTRA:          -8.050
REMARK INTER:                  -7.494
REMARK INTRA:                  -0.556
REMARK UNBOUND:                -0.442
REMARK SMILES O=C([O-])CCCCCCCC(=O)[O-]
REMARK SMILES IDX 7 1 6 2 5 3 4 4 2 5 1 6 3 7 8 8 9 9 10 10 11 11 12 12 13 13
REMARK H PARENT
REMARK Flexibility Score: inf
ROOT
ATOM      1  C   UNL     1     -18.903 -11.630  -0.250  1.00  0.00     0.000 C 
ENDROOT
BRANCH   1   2
ATOM      2  C   UNL     1     -18.632 -12.942  -1.002  1.00  0.00     0.000 C 
BRANCH   2   3
ATOM      3  C   UNL     1     -17.287 -13.580  -0.616  1.00  0.00     0.006 C 
BRANCH   3   4
ATOM      4  C   UNL     1     -16.461 -12.691   0.322  1.00  0.00     0.053 C 
BRANCH   4   5
ATOM      5  C   UNL     1     -15.339 -13.474   0.927  1.00  0.00     0.041 C 
ATOM      6  O   UNL     1     -14.202 -13.475   0.385  1.00  0.00    -0.550 OA
ATOM      7  O   UNL     1     -15.533 -14.163   2.118  1.00  0.00    -0.550 OA
ENDBRANCH   4   5
ENDBRANCH   3   4
ENDBRANCH   2   3
ENDBRANCH   1   2
BRANCH   1   8
ATOM      8  C   UNL     1     -18.914 -10.439  -1.215  1.00  0.00     0.000 C 
BRANCH   8   9
ATOM      9  C   UNL     1     -18.894  -9.111  -0.448  1.00  0.00     0.006 C 
BRANCH   9  10
ATOM     10  C   UNL     1     -17.994  -9.202   0.788  1.00  0.00     0.053 C 
BRANCH  10  11
ATOM     11  C   UNL     1     -16.667  -8.567   0.518  1.00  0.00     0.041 C 
ATOM     12  O   UNL     1     -15.748  -9.228  -0.034  1.00  0.00    -0.550 OA
ATOM     13  O   UNL     1     -16.460  -7.229   0.832  1.00  0.00    -0.550 OA
ENDBRANCH  10  11
ENDBRANCH   9  10
ENDBRANCH   8   9
ENDBRANCH   1   8
TORSDOF 8
ENDMDL
MODEL 6
REMARK VINA RESULT:    -5.161      2.744      5.105
REMARK INTER + INTRA:          -8.016
REMARK INTER:                  -7.392
REMARK INTRA:                  -0.624
REMARK UNBOUND:                -0.442
REMARK SMILES O=C([O-])CCCCCCCC(=O)[O-]
REMARK SMILES IDX 7 1 6 2 5 3 4 4 2 5 1 6 3 7 8 8 9 9 10 10 11 11 12 12 13 13
REMARK H PARENT
REMARK Flexibility Score: inf
ROOT
ATOM      1  C   UNL     1     -18.966 -11.441  -0.276  1.00  0.00     0.000 C 
ENDROOT
BRANCH   1   2
ATOM      2  C   UNL     1     -18.664 -12.869  -0.755  1.00  0.00     0.000 C 
BRANCH   2   3
ATOM      3  C   UNL     1     -17.236 -13.322  -0.406  1.00  0.00     0.006 C 
BRANCH   3   4
ATOM      4  C   UNL     1     -16.611 -14.198  -1.499  1.00  0.00     0.053 C 
BRANCH   4   5
ATOM      5  C   UNL     1     -16.711 -13.521  -2.830  1.00  0.00     0.041 C 
ATOM      6  O   UNL     1     -17.342 -14.066  -3.772  1.00  0.00    -0.550 OA
ATOM      7  O   UNL     1     -16.148 -12.264  -3.014  1.00  0.00    -0.550 OA
ENDBRANCH   4   5
ENDBRANCH   3   4
ENDBRANCH   2   3
ENDBRANCH   1   2
BRANCH   1   8
ATOM      8  C   UNL     1     -19.005 -10.464  -1.457  1.00  0.00     0.000 C 
BRANCH   8   9
ATOM      9  C   UNL     1     -18.009  -9.316  -1.254  1.00  0.00     0.006 C 
BRANCH   9  10
ATOM     10  C   UNL     1     -17.172  -9.532   0.011  1.00  0.00     0.053 C 
BRANCH  10  11
ATOM     11  C   UNL     1     -17.252  -8.334   0.903  1.00  0.00     0.041 C 
ATOM     12  O   UNL     1     -18.340  -8.031   1.461  1.00  0.00    -0.550 OA
ATOM     13  O   UNL     1     -16.113  -7.580   1.158  1.00  0.00    -0.550 OA
ENDBRANCH  10  11
ENDBRANCH   9  10
ENDBRANCH   8   9
ENDBRANCH   1   8
TORSDOF 8
ENDMDL
MODEL 7
REMARK VINA RESULT:    -5.149      1.775      4.533
REMARK INTER + INTRA:          -7.999
REMARK INTER:                  -7.256
REMARK INTRA:                  -0.743
REMARK UNBOUND:                -0.442
REMARK SMILES O=C([O-])CCCCCCCC(=O)[O-]
REMARK SMILES IDX 7 1 6 2 5 3 4 4 2 5 1 6 3 7 8 8 9 9 10 10 11 11 12 12 13 13
REMARK H PARENT
REMARK Flexibility Score: inf
ROOT
ATOM      1  C   UNL     1     -16.398  -8.856   0.604  1.00  0.00     0.000 C 
ENDROOT
BRANCH   1   2
ATOM      2  C   UNL     1     -17.906  -9.138   0.535  1.00  0.00     0.000 C 
BRANCH   2   3
ATOM      3  C   UNL     1     -18.221 -10.584   0.119  1.00  0.00     0.006 C 
BRANCH   3   4
ATOM      4  C   UNL     1     -16.956 -11.409  -0.150  1.00  0.00     0.053 C 
BRANCH   4   5
ATOM      5  C   UNL     1     -16.769 -11.612  -1.620  1.00  0.00     0.041 C 
ATOM      6  O   UNL     1     -17.758 -11.568  -2.397  1.00  0.00    -0.550 OA
ATOM      7  O   UNL     1     -15.494 -11.800  -2.140  1.00  0.00    -0.550 OA
ENDBRANCH   4   5
ENDBRANCH   3   4
ENDBRANCH   2   3
ENDBRANCH   1   2
BRANCH   1   8
ATOM      8  C   UNL     1     -16.029  -7.632  -0.242  1.00  0.00     0.000 C 
BRANCH   8   9
ATOM      9  C   UNL     1     -15.492  -8.054  -1.615  1.00  0.00     0.006 C 
BRANCH   9  10
ATOM     10  C   UNL     1     -16.625  -8.158  -2.640  1.00  0.00     0.053 C 
BRANCH  10  11
ATOM     11  C   UNL     1     -16.078  -8.469  -3.997  1.00  0.00     0.041 C 
ATOM     12  O   UNL     1     -15.057  -9.197  -4.117  1.00  0.00    -0.550 OA
ATOM     13  O   UNL     1     -16.723  -7.995  -5.133  1.00  0.00    -0.550 OA
ENDBRANCH  10  11
ENDBRANCH   9  10
ENDBRANCH   8   9
ENDBRANCH   1   8
TORSDOF 8
ENDMDL
MODEL 8
REMARK VINA RESULT:    -5.129      2.557      4.590
REMARK INTER + INTRA:          -7.969
REMARK INTER:                  -7.075
REMARK INTRA:                  -0.894
REMARK UNBOUND:                -0.442
REMARK SMILES O=C([O-])CCCCCCCC(=O)[O-]
REMARK SMILES IDX 7 1 6 2 5 3 4 4 2 5 1 6 3 7 8 8 9 9 10 10 11 11 12 12 13 13
REMARK H PARENT
REMARK Flexibility Score: inf
ROOT
ATOM      1  C   UNL     1     -15.387  -7.992  -1.465  1.00  0.00     0.000 C 
ENDROOT
BRANCH   1   2
ATOM      2  C   UNL     1     -16.367  -8.035  -2.647  1.00  0.00     0.000 C 
BRANCH   2   3
ATOM      3  C   UNL     1     -16.621  -9.464  -3.154  1.00  0.00     0.006 C 
BRANCH   3   4
ATOM      4  C   UNL     1     -15.745 -10.505  -2.448  1.00  0.00     0.053 C 
BRANCH   4   5
ATOM      5  C   UNL     1     -16.349 -11.868  -2.575  1.00  0.00     0.041 C 
ATOM      6  O   UNL     1     -15.610 -12.882  -2.677  1.00  0.00    -0.550 OA
ATOM      7  O   UNL     1     -17.729 -12.024  -2.530  1.00  0.00    -0.550 OA
ENDBRANCH   4   5
ENDBRANCH   3   4
ENDBRANCH   2   3
ENDBRANCH   1   2
BRANCH   1   8
ATOM      8  C   UNL     1     -15.999  -7.247  -0.273  1.00  0.00     0.000 C 
BRANCH   8   9
ATOM      9  C   UNL     1     -16.299  -8.210   0.882  1.00  0.00     0.006 C 
BRANCH   9  10
ATOM     10  C   UNL     1     -17.807  -8.423   1.043  1.00  0.00     0.053 C 
BRANCH  10  11
ATOM     11  C   UNL     1     -18.254  -9.617   0.261  1.00  0.00     0.041 C 
ATOM     12  O   UNL     1     -19.122  -9.495  -0.642  1.00  0.00    -0.550 OA
ATOM     13  O   UNL     1     -17.676 -10.859   0.498  1.00  0.00    -0.550 OA
ENDBRANCH  10  11
ENDBRANCH   9  10
ENDBRANCH   8   9
ENDBRANCH   1   8
TORSDOF 8
ENDMDL
MODEL 9
REMARK VINA RESULT:    -5.109      1.544      5.033
REMARK INTER + INTRA:          -7.940
REMARK INTER:                  -7.545
REMARK INTRA:                  -0.395
REMARK UNBOUND:                -0.442
REMARK SMILES O=C([O-])CCCCCCCC(=O)[O-]
REMARK SMILES IDX 7 1 6 2 5 3 4 4 2 5 1 6 3 7 8 8 9 9 10 10 11 11 12 12 13 13
REMARK H PARENT
REMARK Flexibility Score: inf
ROOT
ATOM      1  C   UNL     1     -18.268 -10.651   0.053  1.00  0.00     0.000 C 
ENDROOT
BRANCH   1   2
ATOM      2  C   UNL     1     -19.002 -11.948  -0.318  1.00  0.00     0.000 C 
BRANCH   2   3
ATOM      3  C   UNL     1     -18.040 -13.083  -0.708  1.00  0.00     0.006 C 
BRANCH   3   4
ATOM      4  C   UNL     1     -16.794 -13.134   0.186  1.00  0.00     0.053 C 
BRANCH   4   5
ATOM      5  C   UNL     1     -15.721 -13.950  -0.461  1.00  0.00     0.041 C 
ATOM      6  O   UNL     1     -16.020 -14.840  -1.300  1.00  0.00    -0.550 OA
ATOM      7  O   UNL     1     -14.385 -13.694  -0.177  1.00  0.00    -0.550 OA
ENDBRANCH   4   5
ENDBRANCH   3   4
ENDBRANCH   2   3
ENDBRANCH   1   2
BRANCH   1   8
ATOM      8  C   UNL     1     -18.279  -9.662  -1.119  1.00  0.00     0.000 C 
BRANCH   8   9
ATOM      9  C   UNL     1     -16.961  -9.719  -1.900  1.00  0.00     0.006 C 
BRANCH   9  10
ATOM     10  C   UNL     1     -16.713  -8.410  -2.657  1.00  0.00     0.053 C 
BRANCH  10  11
ATOM     11  C   UNL     1     -16.178  -8.690  -4.025  1.00  0.00     0.041 C 
ATOM     12  O   UNL     1     -15.255  -9.532  -4.186  1.00  0.00    -0.550 OA
ATOM     13  O   UNL     1     -16.731  -8.054  -5.131  1.00  0.00    -0.550 OA
ENDBRANCH  10  11
ENDBRANCH   9  10
ENDBRANCH   8   9
ENDBRANCH   1   8
TORSDOF 8
ENDMDL
