MODEL 1
REMARK VINA RESULT:    -4.147      0.000      0.000
REMARK INTER + INTRA:          -5.489
REMARK INTER:                  -5.359
REMARK INTRA:                  -0.131
REMARK UNBOUND:                -0.131
REMARK SMILES CCCCCCC(=O)[O-]
REMARK SMILES IDX 5 1 6 2 7 3 8 4 9 5 4 6 3 7 2 8 1 9
REMARK H PARENT
REMARK Flexibility Score: inf
ROOT
ATOM      1  C   UNL     1       2.988 -37.162  18.536  1.00  0.00     0.006 C 
ENDROOT
BRANCH   1   2
ATOM      2  C   UNL     1       4.312 -37.253  19.306  1.00  0.00     0.053 C 
BRANCH   2   3
ATOM      3  C   UNL     1       4.632 -35.941  19.950  1.00  0.00     0.041 C 
ATOM      4  O   UNL     1       3.879 -35.474  20.844  1.00  0.00    -0.550 OA
ATOM      5  O   UNL     1       5.791 -35.260  19.599  1.00  0.00    -0.550 OA
ENDBRANCH   2   3
ENDBRANCH   1   2
BRANCH   1   6
ATOM      6  C   UNL     1       3.155 -37.421  17.028  1.00  0.00     0.000 C 
BRANCH   6   7
ATOM      7  C   UNL     1       2.452 -36.403  16.108  1.00  0.00    -0.000 C 
BRANCH   7   8
ATOM      8  C   UNL     1       2.903 -36.436  14.637  1.00  0.00    -0.003 C 
ATOM      9  C   UNL     1       3.927 -37.533  14.353  1.00  0.00     0.004 C 
ENDBRANCH   7   8
ENDBRANCH   6   7
ENDBRANCH   1   6
TORSDOF 5
ENDMDL
MODEL 2
REMARK VINA RESULT:    -4.081      1.267      1.598
REMARK INTER + INTRA:          -5.405
REMARK INTER:                  -5.243
REMARK INTRA:                  -0.161
REMARK UNBOUND:                -0.131
REMARK SMILES CCCCCCC(=O)[O-]
REMARK SMILES IDX 5 1 6 2 7 3 8 4 9 5 4 6 3 7 2 8 1 9
REMARK H PARENT
REMARK Flexibility Score: inf
ROOT
ATOM      1  C   UNL     1       3.029 -37.216  19.699  1.00  0.00     0.006 C 
ENDROOT
BRANCH   1   2
ATOM      2  C   UNL     1       4.272 -36.336  19.519  1.00  0.00     0.053 C 
BRANCH   2   3
ATOM      3  C   UNL     1       5.300 -36.667  20.553  1.00  0.00     0.041 C 
ATOM      4  O   UNL     1       5.454 -37.855  20.937  1.00  0.00    -0.550 OA
ATOM      5  O   UNL     1       6.125 -35.668  21.056  1.00  0.00    -0.550 OA
ENDBRANCH   2   3
ENDBRANCH   1   2
BRANCH   1   6
ATOM      6  C   UNL     1       2.304 -37.506  18.373  1.00  0.00     0.000 C 
BRANCH   6   7
ATOM      7  C   UNL     1       3.104 -37.159  17.101  1.00  0.00    -0.000 C 
BRANCH   7   8
ATOM      8  C   UNL     1       2.305 -36.420  16.013  1.00  0.00    -0.003 C 
ATOM      9  C   UNL     1       2.963 -36.497  14.636  1.00  0.00     0.004 C 
ENDBRANCH   7   8
ENDBRANCH   6   7
ENDBRANCH   1   6
TORSDOF 5
ENDMDL
MODEL 3
REMARK VINA RESULT:    -4.068      1.002      1.450
REMARK INTER + INTRA:          -5.388
REMARK INTER:                  -5.203
REMARK INTRA:                  -0.185
REMARK UNBOUND:                -0.131
REMARK SMILES CCCCCCC(=O)[O-]
REMARK SMILES IDX 5 1 6 2 7 3 8 4 9 5 4 6 3 7 2 8 1 9
REMARK H PARENT
REMARK Flexibility Score: inf
ROOT
ATOM      1  C   UNL     1       3.157 -37.170  19.696  1.00  0.00     0.006 C 
ENDROOT
BRANCH   1   2
ATOM      2  C   UNL     1       4.679 -37.242  19.516  1.00  0.00     0.053 C 
BRANCH   2   3
ATOM      3  C   UNL     1       5.307 -35.927  19.854  1.00  0.00     0.041 C 
ATOM      4  O   UNL     1       5.191 -34.950  19.069  1.00  0.00    -0.550 OA
ATOM      5  O   UNL     1       5.979 -35.768  21.059  1.00  0.00    -0.550 OA
ENDBRANCH   2   3
ENDBRANCH   1   2
BRANCH   1   6
ATOM      6  C   UNL     1       2.387 -37.485  18.401  1.00  0.00     0.000 C 
BRANCH   6   7
ATOM      7  C   UNL     1       3.122 -37.116  17.097  1.00  0.00    -0.000 C 
BRANCH   7   8
ATOM      8  C   UNL     1       2.271 -36.355  16.064  1.00  0.00    -0.003 C 
ATOM      9  C   UNL     1       2.848 -36.424  14.651  1.00  0.00     0.004 C 
ENDBRANCH   7   8
ENDBRANCH   6   7
ENDBRANCH   1   6
TORSDOF 5
ENDMDL
MODEL 4
REMARK VINA RESULT:    -3.914      3.024      5.040
REMARK INTER + INTRA:          -5.189
REMARK INTER:                  -5.059
REMARK INTRA:                  -0.131
REMARK UNBOUND:                -0.131
REMARK SMILES CCCCCCC(=O)[O-]
REMARK SMILES IDX 5 1 6 2 7 3 8 4 9 5 4 6 3 7 2 8 1 9
REMARK H PARENT
REMARK Flexibility Score: inf
ROOT
ATOM      1  C   UNL     1       2.660 -37.122  17.584  1.00  0.00     0.006 C 
ENDROOT
BRANCH   1   2
ATOM      2  C   UNL     1       3.273 -36.241  16.488  1.00  0.00     0.053 C 
BRANCH   2   3
ATOM      3  C   UNL     1       3.122 -36.891  15.150  1.00  0.00     0.041 C 
ATOM      4  O   UNL     1       2.352 -36.394  14.288  1.00  0.00    -0.550 OA
ATOM      5  O   UNL     1       3.871 -38.018  14.837  1.00  0.00    -0.550 OA
ENDBRANCH   2   3
ENDBRANCH   1   2
BRANCH   1   6
ATOM      6  C   UNL     1       3.616 -37.356  18.767  1.00  0.00     0.000 C 
BRANCH   6   7
ATOM      7  C   UNL     1       4.469 -36.137  19.171  1.00  0.00    -0.000 C 
BRANCH   7   8
ATOM      8  C   UNL     1       4.356 -35.725  20.649  1.00  0.00    -0.003 C 
ATOM      9  C   UNL     1       5.699 -35.746  21.377  1.00  0.00     0.004 C 
ENDBRANCH   7   8
ENDBRANCH   6   7
ENDBRANCH   1   6
TORSDOF 5
ENDMDL
MODEL 5
REMARK VINA RESULT:    -3.831      2.958      5.665
REMARK INTER + INTRA:          -5.082
REMARK INTER:                  -4.993
REMARK INTRA:                  -0.089
REMARK UNBOUND:                -0.131
REMARK SMILES CCCCCCC(=O)[O-]
REMARK SMILES IDX 5 1 6 2 7 3 8 4 9 5 4 6 3 7 2 8 1 9
REMARK H PARENT
REMARK Flexibility Score: inf
ROOT
ATOM      1  C   UNL     1       3.855 -36.889  19.996  1.00  0.00     0.006 C 
ENDROOT
BRANCH   1   2
ATOM      2  C   UNL     1       3.760 -37.238  18.506  1.00  0.00     0.053 C 
BRANCH   2   3
ATOM      3  C   UNL     1       2.329 -37.309  18.076  1.00  0.00     0.041 C 
ATOM      4  O   UNL     1       1.992 -36.918  16.928  1.00  0.00    -0.550 OA
ATOM      5  O   UNL     1       1.375 -37.854  18.926  1.00  0.00    -0.550 OA
ENDBRANCH   2   3
ENDBRANCH   1   2
BRANCH   1   6
ATOM      6  C   UNL     1       5.296 -36.947  20.533  1.00  0.00     0.000 C 
BRANCH   6   7
ATOM      7  C   UNL     1       5.794 -35.654  21.210  1.00  0.00    -0.000 C 
BRANCH   7   8
ATOM      8  C   UNL     1       6.041 -35.767  22.724  1.00  0.00    -0.003 C 
ATOM      9  C   UNL     1       5.796 -34.454  23.467  1.00  0.00     0.004 C 
ENDBRANCH   7   8
ENDBRANCH   6   7
ENDBRANCH   1   6
TORSDOF 5
ENDMDL
MODEL 6
REMARK VINA RESULT:    -3.823      2.833      5.223
REMARK INTER + INTRA:          -5.072
REMARK INTER:                  -4.994
REMARK INTRA:                  -0.078
REMARK UNBOUND:                -0.131
REMARK SMILES CCCCCCC(=O)[O-]
REMARK SMILES IDX 5 1 6 2 7 3 8 4 9 5 4 6 3 7 2 8 1 9
REMARK H PARENT
REMARK Flexibility Score: inf
ROOT
ATOM      1  C   UNL     1       3.844 -36.775  18.505  1.00  0.00     0.006 C 
ENDROOT
BRANCH   1   2
ATOM      2  C   UNL     1       2.704 -37.411  17.699  1.00  0.00     0.053 C 
BRANCH   2   3
ATOM      3  C   UNL     1       2.713 -36.902  16.292  1.00  0.00     0.041 C 
ATOM      4  O   UNL     1       2.019 -35.901  15.977  1.00  0.00    -0.550 OA
ATOM      5  O   UNL     1       3.528 -37.504  15.342  1.00  0.00    -0.550 OA
ENDBRANCH   2   3
ENDBRANCH   1   2
BRANCH   1   6
ATOM      6  C   UNL     1       3.564 -36.751  20.019  1.00  0.00     0.000 C 
BRANCH   6   7
ATOM      7  C   UNL     1       4.273 -35.623  20.796  1.00  0.00    -0.000 C 
BRANCH   7   8
ATOM      8  C   UNL     1       5.686 -35.968  21.297  1.00  0.00    -0.003 C 
ATOM      9  C   UNL     1       6.008 -35.339  22.651  1.00  0.00     0.004 C 
ENDBRANCH   7   8
ENDBRANCH   6   7
ENDBRANCH   1   6
TORSDOF 5
ENDMDL
MODEL 7
REMARK VINA RESULT:    -3.710      2.619      4.101
REMARK INTER + INTRA:          -4.925
REMARK INTER:                  -4.830
REMARK INTRA:                  -0.095
REMARK UNBOUND:                -0.131
REMARK SMILES CCCCCCC(=O)[O-]
REMARK SMILES IDX 5 1 6 2 7 3 8 4 9 5 4 6 3 7 2 8 1 9
REMARK H PARENT
REMARK Flexibility Score: inf
ROOT
ATOM      1  C   UNL     1       4.780 -35.522  21.496  1.00  0.00     0.006 C 
ENDROOT
BRANCH   1   2
ATOM      2  C   UNL     1       6.028 -35.675  22.373  1.00  0.00     0.053 C 
BRANCH   2   3
ATOM      3  C   UNL     1       5.796 -35.072  23.722  1.00  0.00     0.041 C 
ATOM      4  O   UNL     1       5.879 -33.827  23.882  1.00  0.00    -0.550 OA
ATOM      5  O   UNL     1       5.438 -35.882  24.792  1.00  0.00    -0.550 OA
ENDBRANCH   2   3
ENDBRANCH   1   2
BRANCH   1   6
ATOM      6  C   UNL     1       5.034 -35.892  20.024  1.00  0.00     0.000 C 
BRANCH   6   7
ATOM      7  C   UNL     1       4.529 -37.288  19.604  1.00  0.00    -0.000 C 
BRANCH   7   8
ATOM      8  C   UNL     1       3.127 -37.308  18.970  1.00  0.00    -0.003 C 
ATOM      9  C   UNL     1       3.157 -37.142  17.452  1.00  0.00     0.004 C 
ENDBRANCH   7   8
ENDBRANCH   6   7
ENDBRANCH   1   6
TORSDOF 5
ENDMDL
MODEL 8
REMARK VINA RESULT:    -3.172      3.380      6.442
REMARK INTER + INTRA:          -4.231
REMARK INTER:                  -4.066
REMARK INTRA:                  -0.165
REMARK UNBOUND:                -0.131
REMARK SMILES CCCCCCC(=O)[O-]
REMARK SMILES IDX 5 1 6 2 7 3 8 4 9 5 4 6 3 7 2 8 1 9
REMARK H PARENT
REMARK Flexibility Score: inf
ROOT
ATOM      1  C   UNL     1       4.530 -35.305  21.179  1.00  0.00     0.006 C 
ENDROOT
BRANCH   1   2
ATOM      2  C   UNL     1       5.085 -35.755  19.821  1.00  0.00     0.053 C 
BRANCH   2   3
ATOM      3  C   UNL     1       4.681 -37.165  19.532  1.00  0.00     0.041 C 
ATOM      4  O   UNL     1       3.739 -37.403  18.732  1.00  0.00    -0.550 OA
ATOM      5  O   UNL     1       5.379 -38.219  20.109  1.00  0.00    -0.550 OA
ENDBRANCH   2   3
ENDBRANCH   1   2
BRANCH   1   6
ATOM      6  C   UNL     1       5.633 -34.881  22.165  1.00  0.00     0.000 C 
BRANCH   6   7
ATOM      7  C   UNL     1       6.125 -35.992  23.113  1.00  0.00    -0.000 C 
BRANCH   7   8
ATOM      8  C   UNL     1       6.114 -35.624  24.607  1.00  0.00    -0.003 C 
ATOM      9  C   UNL     1       5.376 -36.648  25.468  1.00  0.00     0.004 C 
ENDBRANCH   7   8
ENDBRANCH   6   7
ENDBRANCH   1   6
TORSDOF 5
ENDMDL
MODEL 9
REMARK VINA RESULT:    -2.561      3.064      4.484
REMARK INTER + INTRA:          -3.440
REMARK INTER:                  -3.271
REMARK INTRA:                  -0.169
REMARK UNBOUND:                -0.131
REMARK SMILES CCCCCCC(=O)[O-]
REMARK SMILES IDX 5 1 6 2 7 3 8 4 9 5 4 6 3 7 2 8 1 9
REMARK H PARENT
REMARK Flexibility Score: inf
ROOT
ATOM      1  C   UNL     1       4.017 -37.117  17.926  1.00  0.00     0.006 C 
ENDROOT
BRANCH   1   2
ATOM      2  C   UNL     1       3.315 -36.158  16.956  1.00  0.00     0.053 C 
BRANCH   2   3
ATOM      3  C   UNL     1       2.965 -36.865  15.685  1.00  0.00     0.041 C 
ATOM      4  O   UNL     1       2.097 -36.384  14.911  1.00  0.00    -0.550 OA
ATOM      5  O   UNL     1       3.636 -38.029  15.331  1.00  0.00    -0.550 OA
ENDBRANCH   2   3
ENDBRANCH   1   2
BRANCH   1   6
ATOM      6  C   UNL     1       3.862 -36.697  19.399  1.00  0.00     0.000 C 
BRANCH   6   7
ATOM      7  C   UNL     1       2.471 -36.958  20.011  1.00  0.00    -0.000 C 
BRANCH   7   8
ATOM      8  C   UNL     1       1.628 -38.017  19.279  1.00  0.00    -0.003 C 
ATOM      9  C   UNL     1       0.310 -37.462  18.743  1.00  0.00     0.004 C 
ENDBRANCH   7   8
ENDBRANCH   6   7
ENDBRANCH   1   6
TORSDOF 5
ENDMDL
