MODEL 1
REMARK VINA RESULT:     0.000      0.000      0.000
REMARK INTER + INTRA:          -3.698
REMARK INTER:                   0.000
REMARK INTRA:                  -3.698
REMARK UNBOUND:                -3.698
REMARK SMILES CCCCCCCCCCCCCCCCCC(=O)[O-]
REMARK SMILES IDX 10 1 11 2 12 3 13 4 14 5 15 6 16 7 17 8 18 9 19 10 20 11
REMARK SMILES IDX 9 12 8 13 7 14 6 15 5 16 4 17 3 18 2 19 1 20
REMARK H PARENT
REMARK Flexibility Score: inf
ROOT
ATOM      1  C   UNL     1     182.714 179.888 180.473  1.00  0.00     0.000 C 
ENDROOT
BRANCH   1   2
ATOM      2  C   UNL     1     183.525 178.582 180.432  1.00  0.00     0.000 C 
BRANCH   2   3
ATOM      3  C   UNL     1     182.711 177.394 179.890  1.00  0.00     0.000 C 
BRANCH   3   4
ATOM      4  C   UNL     1     183.061 176.064 180.584  1.00  0.00     0.000 C 
BRANCH   4   5
ATOM      5  C   UNL     1     183.818 176.204 181.917  1.00  0.00     0.000 C 
BRANCH   5   6
ATOM      6  C   UNL     1     183.577 175.021 182.871  1.00  0.00     0.000 C 
BRANCH   6   7
ATOM      7  C   UNL     1     183.472 175.460 184.340  1.00  0.00     0.006 C 
BRANCH   7   8
ATOM      8  C   UNL     1     182.497 174.593 185.149  1.00  0.00     0.053 C 
BRANCH   8   9
ATOM      9  C   UNL     1     181.631 175.453 186.015  1.00  0.00     0.041 C 
ATOM     10  O   UNL     1     180.424 175.148 186.206  1.00  0.00    -0.550 OA
ATOM     11  O   UNL     1     182.144 176.617 186.572  1.00  0.00    -0.550 OA
ENDBRANCH   8   9
ENDBRANCH   7   8
ENDBRANCH   6   7
ENDBRANCH   5   6
ENDBRANCH   4   5
ENDBRANCH   3   4
ENDBRANCH   2   3
ENDBRANCH   1   2
BRANCH   1  12
ATOM     12  C   UNL     1     182.589 180.457 181.897  1.00  0.00     0.000 C 
BRANCH  12  13
ATOM     13  C   UNL     1     183.514 179.747 182.899  1.00  0.00    -0.000 C 
BRANCH  13  14
ATOM     14  C   UNL     1     182.745 179.086 184.052  1.00  0.00    -0.000 C 
BRANCH  14  15
ATOM     15  C   UNL     1     181.233 179.099 183.781  1.00  0.00    -0.000 C 
BRANCH  15  16
ATOM     16  C   UNL     1     180.697 177.724 183.349  1.00  0.00    -0.000 C 
BRANCH  16  17
ATOM     17  C   UNL     1     179.817 177.799 182.091  1.00  0.00    -0.000 C 
BRANCH  17  18
ATOM     18  C   UNL     1     179.491 176.393 181.566  1.00  0.00    -0.000 C 
BRANCH  18  19
ATOM     19  C   UNL     1     179.847 175.289 182.573  1.00  0.00    -0.003 C 
ATOM     20  C   UNL     1     180.168 173.955 181.899  1.00  0.00     0.004 C 
ENDBRANCH  18  19
ENDBRANCH  17  18
ENDBRANCH  16  17
ENDBRANCH  15  16
ENDBRANCH  14  15
ENDBRANCH  13  14
ENDBRANCH  12  13
ENDBRANCH   1  12
TORSDOF 16
ENDMDL
MODEL 2
REMARK VINA RESULT:     0.001      6.999      9.429
REMARK INTER + INTRA:          -3.695
REMARK INTER:                   0.000
REMARK INTRA:                  -3.695
REMARK UNBOUND:                -3.698
REMARK SMILES CCCCCCCCCCCCCCCCCC(=O)[O-]
REMARK SMILES IDX 10 1 11 2 12 3 13 4 14 5 15 6 16 7 17 8 18 9 19 10 20 11
REMARK SMILES IDX 9 12 8 13 7 14 6 15 5 16 4 17 3 18 2 19 1 20
REMARK H PARENT
REMARK Flexibility Score: inf
ROOT
ATOM      1  C   UNL     1     186.282 176.526 176.723  1.00  0.00     0.000 C 
ENDROOT
BRANCH   1   2
ATOM      2  C   UNL     1     186.441 177.989 177.168  1.00  0.00     0.000 C 
BRANCH   2   3
ATOM      3  C   UNL     1     185.452 178.384 178.279  1.00  0.00     0.000 C 
BRANCH   3   4
ATOM      4  C   UNL     1     184.865 179.794 178.083  1.00  0.00     0.000 C 
BRANCH   4   5
ATOM      5  C   UNL     1     185.251 180.483 176.762  1.00  0.00     0.000 C 
BRANCH   5   6
ATOM      6  C   UNL     1     184.167 181.450 176.252  1.00  0.00     0.000 C 
BRANCH   6   7
ATOM      7  C   UNL     1     184.081 181.480 174.717  1.00  0.00     0.006 C 
BRANCH   7   8
ATOM      8  C   UNL     1     182.633 181.483 174.206  1.00  0.00     0.053 C 
BRANCH   8   9
ATOM      9  C   UNL     1     182.557 180.842 172.856  1.00  0.00     0.041 C 
ATOM     10  O   UNL     1     181.657 179.997 172.605  1.00  0.00    -0.550 OA
ATOM     11  O   UNL     1     183.508 181.142 171.890  1.00  0.00    -0.550 OA
ENDBRANCH   8   9
ENDBRANCH   7   8
ENDBRANCH   6   7
ENDBRANCH   5   6
ENDBRANCH   4   5
ENDBRANCH   3   4
ENDBRANCH   2   3
ENDBRANCH   1   2
BRANCH   1  12
ATOM     12  C   UNL     1     186.099 176.392 175.200  1.00  0.00     0.000 C 
BRANCH  12  13
ATOM     13  C   UNL     1     186.087 177.754 174.485  1.00  0.00    -0.000 C 
BRANCH  13  14
ATOM     14  C   UNL     1     184.806 177.984 173.670  1.00  0.00    -0.000 C 
BRANCH  14  15
ATOM     15  C   UNL     1     183.635 177.176 174.248  1.00  0.00    -0.000 C 
BRANCH  15  16
ATOM     16  C   UNL     1     182.831 177.964 175.296  1.00  0.00    -0.000 C 
BRANCH  16  17
ATOM     17  C   UNL     1     182.477 177.119 176.529  1.00  0.00    -0.000 C 
BRANCH  17  18
ATOM     18  C   UNL     1     181.693 177.951 177.555  1.00  0.00    -0.000 C 
BRANCH  18  19
ATOM     19  C   UNL     1     181.230 179.302 176.991  1.00  0.00    -0.003 C 
ATOM     20  C   UNL     1     181.106 180.382 178.066  1.00  0.00     0.004 C 
ENDBRANCH  18  19
ENDBRANCH  17  18
ENDBRANCH  16  17
ENDBRANCH  15  16
ENDBRANCH  14  15
ENDBRANCH  13  14
ENDBRANCH  12  13
ENDBRANCH   1  12
TORSDOF 16
ENDMDL
MODEL 3
REMARK VINA RESULT:     0.023      8.260     11.036
REMARK INTER + INTRA:          -3.654
REMARK INTER:                   0.000
REMARK INTRA:                  -3.654
REMARK UNBOUND:                -3.698
REMARK SMILES CCCCCCCCCCCCCCCCCC(=O)[O-]
REMARK SMILES IDX 10 1 11 2 12 3 13 4 14 5 15 6 16 7 17 8 18 9 19 10 20 11
REMARK SMILES IDX 9 12 8 13 7 14 6 15 5 16 4 17 3 18 2 19 1 20
REMARK H PARENT
REMARK Flexibility Score: inf
ROOT
ATOM      1  C   UNL     1     178.961 182.364 179.074  1.00  0.00     0.000 C 
ENDROOT
BRANCH   1   2
ATOM      2  C   UNL     1     179.609 183.206 177.963  1.00  0.00     0.000 C 
BRANCH   2   3
ATOM      3  C   UNL     1     180.946 183.833 178.394  1.00  0.00     0.000 C 
BRANCH   3   4
ATOM      4  C   UNL     1     181.007 185.350 178.132  1.00  0.00     0.000 C 
BRANCH   4   5
ATOM      5  C   UNL     1     180.119 185.847 176.977  1.00  0.00     0.000 C 
BRANCH   5   6
ATOM      6  C   UNL     1     179.400 187.169 177.301  1.00  0.00     0.000 C 
BRANCH   6   7
ATOM      7  C   UNL     1     178.100 187.344 176.501  1.00  0.00     0.006 C 
BRANCH   7   8
ATOM      8  C   UNL     1     177.793 186.139 175.600  1.00  0.00     0.053 C 
BRANCH   8   9
ATOM      9  C   UNL     1     176.315 185.952 175.466  1.00  0.00     0.041 C 
ATOM     10  O   UNL     1     175.533 186.447 176.319  1.00  0.00    -0.550 OA
ATOM     11  O   UNL     1     175.803 185.190 174.424  1.00  0.00    -0.550 OA
ENDBRANCH   8   9
ENDBRANCH   7   8
ENDBRANCH   6   7
ENDBRANCH   5   6
ENDBRANCH   4   5
ENDBRANCH   3   4
ENDBRANCH   2   3
ENDBRANCH   1   2
BRANCH   1  12
ATOM     12  C   UNL     1     177.623 182.954 179.554  1.00  0.00     0.000 C 
BRANCH  12  13
ATOM     13  C   UNL     1     177.134 184.108 178.662  1.00  0.00    -0.000 C 
BRANCH  13  14
ATOM     14  C   UNL     1     176.924 185.414 179.444  1.00  0.00    -0.000 C 
BRANCH  14  15
ATOM     15  C   UNL     1     177.642 185.362 180.801  1.00  0.00    -0.000 C 
BRANCH  15  16
ATOM     16  C   UNL     1     178.797 186.372 180.898  1.00  0.00    -0.000 C 
BRANCH  16  17
ATOM     17  C   UNL     1     180.011 185.814 181.657  1.00  0.00    -0.000 C 
BRANCH  17  18
ATOM     18  C   UNL     1     179.720 184.406 182.195  1.00  0.00    -0.000 C 
BRANCH  18  19
ATOM     19  C   UNL     1     180.931 183.468 182.083  1.00  0.00    -0.003 C 
ATOM     20  C   UNL     1     182.245 184.221 181.869  1.00  0.00     0.004 C 
ENDBRANCH  18  19
ENDBRANCH  17  18
ENDBRANCH  16  17
ENDBRANCH  15  16
ENDBRANCH  14  15
ENDBRANCH  13  14
ENDBRANCH  12  13
ENDBRANCH   1  12
TORSDOF 16
ENDMDL
MODEL 4
REMARK VINA RESULT:     0.026      5.816      8.475
REMARK INTER + INTRA:          -3.647
REMARK INTER:                   0.000
REMARK INTRA:                  -3.647
REMARK UNBOUND:                -3.698
REMARK SMILES CCCCCCCCCCCCCCCCCC(=O)[O-]
REMARK SMILES IDX 10 1 11 2 12 3 13 4 14 5 15 6 16 7 17 8 18 9 19 10 20 11
REMARK SMILES IDX 9 12 8 13 7 14 6 15 5 16 4 17 3 18 2 19 1 20
REMARK H PARENT
REMARK Flexibility Score: inf
ROOT
ATOM      1  C   UNL     1     179.749 181.566 183.594  1.00  0.00     0.000 C 
ENDROOT
BRANCH   1   2
ATOM      2  C   UNL     1     178.331 182.128 183.406  1.00  0.00     0.000 C 
BRANCH   2   3
ATOM      3  C   UNL     1     178.246 183.636 183.700  1.00  0.00     0.000 C 
BRANCH   3   4
ATOM      4  C   UNL     1     177.005 184.015 184.530  1.00  0.00     0.000 C 
BRANCH   4   5
ATOM      5  C   UNL     1     177.085 183.651 186.024  1.00  0.00     0.000 C 
BRANCH   5   6
ATOM      6  C   UNL     1     178.452 183.986 186.649  1.00  0.00     0.000 C 
BRANCH   6   7
ATOM      7  C   UNL     1     179.009 182.831 187.497  1.00  0.00     0.006 C 
BRANCH   7   8
ATOM      8  C   UNL     1     178.406 181.472 187.116  1.00  0.00     0.053 C 
BRANCH   8   9
ATOM      9  C   UNL     1     179.458 180.409 187.145  1.00  0.00     0.041 C 
ATOM     10  O   UNL     1     179.323 179.364 186.455  1.00  0.00    -0.550 OA
ATOM     11  O   UNL     1     180.565 180.549 187.971  1.00  0.00    -0.550 OA
ENDBRANCH   8   9
ENDBRANCH   7   8
ENDBRANCH   6   7
ENDBRANCH   5   6
ENDBRANCH   4   5
ENDBRANCH   3   4
ENDBRANCH   2   3
ENDBRANCH   1   2
BRANCH   1  12
ATOM     12  C   UNL     1     180.772 182.658 183.956  1.00  0.00     0.000 C 
BRANCH  12  13
ATOM     13  C   UNL     1     181.804 182.179 184.990  1.00  0.00    -0.000 C 
BRANCH  13  14
ATOM     14  C   UNL     1     182.299 183.311 185.903  1.00  0.00    -0.000 C 
BRANCH  14  15
ATOM     15  C   UNL     1     181.913 184.684 185.333  1.00  0.00    -0.000 C 
BRANCH  15  16
ATOM     16  C   UNL     1     181.710 185.744 186.428  1.00  0.00    -0.000 C 
BRANCH  16  17
ATOM     17  C   UNL     1     180.722 186.844 186.011  1.00  0.00    -0.000 C 
BRANCH  17  18
ATOM     18  C   UNL     1     180.236 186.628 184.570  1.00  0.00    -0.000 C 
BRANCH  18  19
ATOM     19  C   UNL     1     178.868 187.274 184.305  1.00  0.00    -0.003 C 
ATOM     20  C   UNL     1     178.069 187.517 185.586  1.00  0.00     0.004 C 
ENDBRANCH  18  19
ENDBRANCH  17  18
ENDBRANCH  16  17
ENDBRANCH  15  16
ENDBRANCH  14  15
ENDBRANCH  13  14
ENDBRANCH  12  13
ENDBRANCH   1  12
TORSDOF 16
ENDMDL
MODEL 5
REMARK VINA RESULT:     0.028      4.457      6.989
REMARK INTER + INTRA:          -3.645
REMARK INTER:                   0.000
REMARK INTRA:                  -3.645
REMARK UNBOUND:                -3.698
REMARK SMILES CCCCCCCCCCCCCCCCCC(=O)[O-]
REMARK SMILES IDX 10 1 11 2 12 3 13 4 14 5 15 6 16 7 17 8 18 9 19 10 20 11
REMARK SMILES IDX 9 12 8 13 7 14 6 15 5 16 4 17 3 18 2 19 1 20
REMARK H PARENT
REMARK Flexibility Score: inf
ROOT
ATOM      1  C   UNL     1     183.601 180.219 178.984  1.00  0.00     0.000 C 
ENDROOT
BRANCH   1   2
ATOM      2  C   UNL     1     183.114 180.603 180.390  1.00  0.00     0.000 C 
BRANCH   2   3
ATOM      3  C   UNL     1     182.525 182.024 180.448  1.00  0.00     0.000 C 
BRANCH   3   4
ATOM      4  C   UNL     1     183.314 182.961 181.382  1.00  0.00     0.000 C 
BRANCH   4   5
ATOM      5  C   UNL     1     184.721 182.467 181.764  1.00  0.00     0.000 C 
BRANCH   5   6
ATOM      6  C   UNL     1     185.006 182.578 183.272  1.00  0.00     0.000 C 
BRANCH   6   7
ATOM      7  C   UNL     1     185.471 181.246 183.883  1.00  0.00     0.006 C 
BRANCH   7   8
ATOM      8  C   UNL     1     184.393 180.155 183.814  1.00  0.00     0.053 C 
BRANCH   8   9
ATOM      9  C   UNL     1     183.156 180.599 184.528  1.00  0.00     0.041 C 
ATOM     10  O   UNL     1     182.071 180.721 183.900  1.00  0.00    -0.550 OA
ATOM     11  O   UNL     1     183.211 180.924 185.877  1.00  0.00    -0.550 OA
ENDBRANCH   8   9
ENDBRANCH   7   8
ENDBRANCH   6   7
ENDBRANCH   5   6
ENDBRANCH   4   5
ENDBRANCH   3   4
ENDBRANCH   2   3
ENDBRANCH   1   2
BRANCH   1  12
ATOM     12  C   UNL     1     184.985 179.546 179.005  1.00  0.00     0.000 C 
BRANCH  12  13
ATOM     13  C   UNL     1     185.372 179.038 180.404  1.00  0.00    -0.000 C 
BRANCH  13  14
ATOM     14  C   UNL     1     186.775 179.494 180.833  1.00  0.00    -0.000 C 
BRANCH  14  15
ATOM     15  C   UNL     1     187.370 180.473 179.810  1.00  0.00    -0.000 C 
BRANCH  15  16
ATOM     16  C   UNL     1     188.049 181.682 180.474  1.00  0.00    -0.000 C 
BRANCH  16  17
ATOM     17  C   UNL     1     187.739 183.004 179.753  1.00  0.00    -0.000 C 
BRANCH  17  18
ATOM     18  C   UNL     1     186.738 182.784 178.610  1.00  0.00    -0.000 C 
BRANCH  18  19
ATOM     19  C   UNL     1     185.675 183.889 178.534  1.00  0.00    -0.003 C 
ATOM     20  C   UNL     1     184.512 183.530 177.608  1.00  0.00     0.004 C 
ENDBRANCH  18  19
ENDBRANCH  17  18
ENDBRANCH  16  17
ENDBRANCH  15  16
ENDBRANCH  14  15
ENDBRANCH  13  14
ENDBRANCH  12  13
ENDBRANCH   1  12
TORSDOF 16
ENDMDL
MODEL 6
REMARK VINA RESULT:     0.034      7.174      9.741
REMARK INTER + INTRA:          -3.632
REMARK INTER:                   0.000
REMARK INTRA:                  -3.632
REMARK UNBOUND:                -3.698
REMARK SMILES CCCCCCCCCCCCCCCCCC(=O)[O-]
REMARK SMILES IDX 10 1 11 2 12 3 13 4 14 5 15 6 16 7 17 8 18 9 19 10 20 11
REMARK SMILES IDX 9 12 8 13 7 14 6 15 5 16 4 17 3 18 2 19 1 20
REMARK H PARENT
REMARK Flexibility Score: inf
ROOT
ATOM      1  C   UNL     1     180.915 183.827 181.522  1.00  0.00     0.000 C 
ENDROOT
BRANCH   1   2
ATOM      2  C   UNL     1     179.532 183.797 180.852  1.00  0.00     0.000 C 
BRANCH   2   3
ATOM      3  C   UNL     1     179.519 184.500 179.483  1.00  0.00     0.000 C 
BRANCH   3   4
ATOM      4  C   UNL     1     180.483 185.700 179.418  1.00  0.00     0.000 C 
BRANCH   4   5
ATOM      5  C   UNL     1     181.298 185.810 178.117  1.00  0.00     0.000 C 
BRANCH   5   6
ATOM      6  C   UNL     1     182.808 185.612 178.338  1.00  0.00     0.000 C 
BRANCH   6   7
ATOM      7  C   UNL     1     183.316 184.278 177.769  1.00  0.00     0.006 C 
BRANCH   7   8
ATOM      8  C   UNL     1     183.279 183.142 178.800  1.00  0.00     0.053 C 
BRANCH   8   9
ATOM      9  C   UNL     1     182.200 182.163 178.458  1.00  0.00     0.041 C 
ATOM     10  O   UNL     1     181.541 182.292 177.393  1.00  0.00    -0.550 OA
ATOM     11  O   UNL     1     181.890 181.136 179.339  1.00  0.00    -0.550 OA
ENDBRANCH   8   9
ENDBRANCH   7   8
ENDBRANCH   6   7
ENDBRANCH   5   6
ENDBRANCH   4   5
ENDBRANCH   3   4
ENDBRANCH   2   3
ENDBRANCH   1   2
BRANCH   1  12
ATOM     12  C   UNL     1     180.868 184.422 182.940  1.00  0.00     0.000 C 
BRANCH  12  13
ATOM     13  C   UNL     1     182.098 185.289 183.257  1.00  0.00    -0.000 C 
BRANCH  13  14
ATOM     14  C   UNL     1     183.086 185.369 182.083  1.00  0.00    -0.000 C 
BRANCH  14  15
ATOM     15  C   UNL     1     183.397 186.831 181.728  1.00  0.00    -0.000 C 
BRANCH  15  16
ATOM     16  C   UNL     1     182.335 187.808 182.257  1.00  0.00    -0.000 C 
BRANCH  16  17
ATOM     17  C   UNL     1     181.731 188.685 181.149  1.00  0.00    -0.000 C 
BRANCH  17  18
ATOM     18  C   UNL     1     180.208 188.799 181.310  1.00  0.00    -0.000 C 
BRANCH  18  19
ATOM     19  C   UNL     1     179.672 187.957 182.478  1.00  0.00    -0.003 C 
ATOM     20  C   UNL     1     178.410 187.175 182.113  1.00  0.00     0.004 C 
ENDBRANCH  18  19
ENDBRANCH  17  18
ENDBRANCH  16  17
ENDBRANCH  15  16
ENDBRANCH  14  15
ENDBRANCH  13  14
ENDBRANCH  12  13
ENDBRANCH   1  12
TORSDOF 16
ENDMDL
MODEL 7
REMARK VINA RESULT:     0.035      5.730      7.832
REMARK INTER + INTRA:          -3.631
REMARK INTER:                   0.000
REMARK INTRA:                  -3.631
REMARK UNBOUND:                -3.698
REMARK SMILES CCCCCCCCCCCCCCCCCC(=O)[O-]
REMARK SMILES IDX 10 1 11 2 12 3 13 4 14 5 15 6 16 7 17 8 18 9 19 10 20 11
REMARK SMILES IDX 9 12 8 13 7 14 6 15 5 16 4 17 3 18 2 19 1 20
REMARK H PARENT
REMARK Flexibility Score: inf
ROOT
ATOM      1  C   UNL     1     178.240 181.119 179.664  1.00  0.00     0.000 C 
ENDROOT
BRANCH   1   2
ATOM      2  C   UNL     1     179.294 180.401 180.523  1.00  0.00     0.000 C 
BRANCH   2   3
ATOM      3  C   UNL     1     180.708 180.976 180.333  1.00  0.00     0.000 C 
BRANCH   3   4
ATOM      4  C   UNL     1     181.811 179.908 180.462  1.00  0.00     0.000 C 
BRANCH   4   5
ATOM      5  C   UNL     1     183.091 180.194 179.657  1.00  0.00     0.000 C 
BRANCH   5   6
ATOM      6  C   UNL     1     183.078 181.577 178.981  1.00  0.00     0.000 C 
BRANCH   6   7
ATOM      7  C   UNL     1     183.862 181.594 177.659  1.00  0.00     0.006 C 
BRANCH   7   8
ATOM      8  C   UNL     1     184.255 180.187 177.186  1.00  0.00     0.053 C 
BRANCH   8   9
ATOM      9  C   UNL     1     184.025 180.049 175.715  1.00  0.00     0.041 C 
ATOM     10  O   UNL     1     184.139 178.926 175.157  1.00  0.00    -0.550 OA
ATOM     11  O   UNL     1     183.733 181.171 174.949  1.00  0.00    -0.550 OA
ENDBRANCH   8   9
ENDBRANCH   7   8
ENDBRANCH   6   7
ENDBRANCH   5   6
ENDBRANCH   4   5
ENDBRANCH   3   4
ENDBRANCH   2   3
ENDBRANCH   1   2
BRANCH   1  12
ATOM     12  C   UNL     1     178.866 182.138 178.696  1.00  0.00     0.000 C 
BRANCH  12  13
ATOM     13  C   UNL     1     178.103 182.234 177.365  1.00  0.00    -0.000 C 
BRANCH  13  14
ATOM     14  C   UNL     1     179.029 182.152 176.142  1.00  0.00    -0.000 C 
BRANCH  14  15
ATOM     15  C   UNL     1     180.340 181.433 176.495  1.00  0.00    -0.000 C 
BRANCH  15  16
ATOM     16  C   UNL     1     180.380 179.986 175.978  1.00  0.00    -0.000 C 
BRANCH  16  17
ATOM     17  C   UNL     1     180.679 178.967 177.088  1.00  0.00    -0.000 C 
BRANCH  17  18
ATOM     18  C   UNL     1     179.395 178.258 177.541  1.00  0.00    -0.000 C 
BRANCH  18  19
ATOM     19  C   UNL     1     178.250 178.404 176.527  1.00  0.00    -0.003 C 
ATOM     20  C   UNL     1     176.901 178.675 177.193  1.00  0.00     0.004 C 
ENDBRANCH  18  19
ENDBRANCH  17  18
ENDBRANCH  16  17
ENDBRANCH  15  16
ENDBRANCH  14  15
ENDBRANCH  13  14
ENDBRANCH  12  13
ENDBRANCH   1  12
TORSDOF 16
ENDMDL
MODEL 8
REMARK VINA RESULT:     0.038      4.729      7.117
REMARK INTER + INTRA:          -3.625
REMARK INTER:                   0.000
REMARK INTRA:                  -3.625
REMARK UNBOUND:                -3.698
REMARK SMILES CCCCCCCCCCCCCCCCCC(=O)[O-]
REMARK SMILES IDX 10 1 11 2 12 3 13 4 14 5 15 6 16 7 17 8 18 9 19 10 20 11
REMARK SMILES IDX 9 12 8 13 7 14 6 15 5 16 4 17 3 18 2 19 1 20
REMARK H PARENT
REMARK Flexibility Score: inf
ROOT
ATOM      1  C   UNL     1     182.754 181.584 182.130  1.00  0.00     0.000 C 
ENDROOT
BRANCH   1   2
ATOM      2  C   UNL     1     183.112 180.256 182.816  1.00  0.00     0.000 C 
BRANCH   2   3
ATOM      3  C   UNL     1     182.031 179.789 183.806  1.00  0.00     0.000 C 
BRANCH   3   4
ATOM      4  C   UNL     1     182.392 180.090 185.273  1.00  0.00     0.000 C 
BRANCH   4   5
ATOM      5  C   UNL     1     181.262 180.720 186.106  1.00  0.00     0.000 C 
BRANCH   5   6
ATOM      6  C   UNL     1     179.862 180.415 185.545  1.00  0.00     0.000 C 
BRANCH   6   7
ATOM      7  C   UNL     1     178.990 181.675 185.421  1.00  0.00     0.006 C 
BRANCH   7   8
ATOM      8  C   UNL     1     179.354 182.750 186.454  1.00  0.00     0.053 C 
BRANCH   8   9
ATOM      9  C   UNL     1     178.915 184.099 185.979  1.00  0.00     0.041 C 
ATOM     10  O   UNL     1     178.183 184.205 184.960  1.00  0.00    -0.550 OA
ATOM     11  O   UNL     1     179.353 185.243 186.632  1.00  0.00    -0.550 OA
ENDBRANCH   8   9
ENDBRANCH   7   8
ENDBRANCH   6   7
ENDBRANCH   5   6
ENDBRANCH   4   5
ENDBRANCH   3   4
ENDBRANCH   2   3
ENDBRANCH   1   2
BRANCH   1  12
ATOM     12  C   UNL     1     181.297 182.006 182.388  1.00  0.00     0.000 C 
BRANCH  12  13
ATOM     13  C   UNL     1     181.192 183.389 183.052  1.00  0.00    -0.000 C 
BRANCH  13  14
ATOM     14  C   UNL     1     182.546 183.911 183.553  1.00  0.00    -0.000 C 
BRANCH  14  15
ATOM     15  C   UNL     1     182.533 184.094 185.079  1.00  0.00    -0.000 C 
BRANCH  15  16
ATOM     16  C   UNL     1     183.772 183.489 185.758  1.00  0.00    -0.000 C 
BRANCH  16  17
ATOM     17  C   UNL     1     184.890 183.151 184.761  1.00  0.00    -0.000 C 
BRANCH  17  18
ATOM     18  C   UNL     1     185.623 181.866 185.173  1.00  0.00    -0.000 C 
BRANCH  18  19
ATOM     19  C   UNL     1     186.441 181.257 184.025  1.00  0.00    -0.003 C 
ATOM     20  C   UNL     1     186.417 182.117 182.761  1.00  0.00     0.004 C 
ENDBRANCH  18  19
ENDBRANCH  17  18
ENDBRANCH  16  17
ENDBRANCH  15  16
ENDBRANCH  14  15
ENDBRANCH  13  14
ENDBRANCH  12  13
ENDBRANCH   1  12
TORSDOF 16
ENDMDL
MODEL 9
REMARK VINA RESULT:     0.040      5.862      8.914
REMARK INTER + INTRA:          -3.620
REMARK INTER:                   0.000
REMARK INTRA:                  -3.620
REMARK UNBOUND:                -3.698
REMARK SMILES CCCCCCCCCCCCCCCCCC(=O)[O-]
REMARK SMILES IDX 10 1 11 2 12 3 13 4 14 5 15 6 16 7 17 8 18 9 19 10 20 11
REMARK SMILES IDX 9 12 8 13 7 14 6 15 5 16 4 17 3 18 2 19 1 20
REMARK H PARENT
REMARK Flexibility Score: inf
ROOT
ATOM      1  C   UNL     1     184.212 185.513 179.483  1.00  0.00     0.000 C 
ENDROOT
BRANCH   1   2
ATOM      2  C   UNL     1     185.094 184.336 179.928  1.00  0.00     0.000 C 
BRANCH   2   3
ATOM      3  C   UNL     1     184.998 183.129 178.979  1.00  0.00     0.000 C 
BRANCH   3   4
ATOM      4  C   UNL     1     184.303 181.914 179.623  1.00  0.00     0.000 C 
BRANCH   4   5
ATOM      5  C   UNL     1     182.814 181.751 179.267  1.00  0.00     0.000 C 
BRANCH   5   6
ATOM      6  C   UNL     1     181.886 181.910 180.484  1.00  0.00     0.000 C 
BRANCH   6   7
ATOM      7  C   UNL     1     182.625 181.716 181.818  1.00  0.00     0.006 C 
BRANCH   7   8
ATOM      8  C   UNL     1     182.431 182.898 182.779  1.00  0.00     0.053 C 
BRANCH   8   9
ATOM      9  C   UNL     1     183.756 183.449 183.200  1.00  0.00     0.041 C 
ATOM     10  O   UNL     1     183.849 184.637 183.607  1.00  0.00    -0.550 OA
ATOM     11  O   UNL     1     184.899 182.665 183.099  1.00  0.00    -0.550 OA
ENDBRANCH   8   9
ENDBRANCH   7   8
ENDBRANCH   6   7
ENDBRANCH   5   6
ENDBRANCH   4   5
ENDBRANCH   3   4
ENDBRANCH   2   3
ENDBRANCH   1   2
BRANCH   1  12
ATOM     12  C   UNL     1     182.848 185.529 180.196  1.00  0.00     0.000 C 
BRANCH  12  13
ATOM     13  C   UNL     1     181.669 185.417 179.216  1.00  0.00    -0.000 C 
BRANCH  13  14
ATOM     14  C   UNL     1     182.102 185.552 177.749  1.00  0.00    -0.000 C 
BRANCH  14  15
ATOM     15  C   UNL     1     181.686 184.316 176.938  1.00  0.00    -0.000 C 
BRANCH  15  16
ATOM     16  C   UNL     1     182.818 183.785 176.044  1.00  0.00    -0.000 C 
BRANCH  16  17
ATOM     17  C   UNL     1     183.722 184.905 175.504  1.00  0.00    -0.000 C 
BRANCH  17  18
ATOM     18  C   UNL     1     185.204 184.529 175.648  1.00  0.00    -0.000 C 
BRANCH  18  19
ATOM     19  C   UNL     1     186.052 185.677 176.215  1.00  0.00    -0.003 C 
ATOM     20  C   UNL     1     185.287 186.999 176.288  1.00  0.00     0.004 C 
ENDBRANCH  18  19
ENDBRANCH  17  18
ENDBRANCH  16  17
ENDBRANCH  15  16
ENDBRANCH  14  15
ENDBRANCH  13  14
ENDBRANCH  12  13
ENDBRANCH   1  12
TORSDOF 16
ENDMDL
