MODEL 1
REMARK VINA RESULT:     8.580      0.000      0.000
REMARK INTER + INTRA:          15.990
REMARK INTER:                  16.105
REMARK INTRA:                  -0.114
REMARK UNBOUND:                -0.114
REMARK SMILES O=C([O-])CCCCCCCCCCCCCCC(=O)[O-]
REMARK SMILES IDX 10 1 9 2 8 3 7 4 6 5 5 6 4 7 2 8 1 9 3 10 11 11 12 12 13 13
REMARK SMILES IDX 14 14 15 15 16 16 17 17 18 18 19 19 20 20
REMARK H PARENT
REMARK Flexibility Score: inf
ROOT
ATOM      1  C   UNL     1      -4.271 -15.862   7.096  1.00  0.00     0.000 C 
ENDROOT
BRANCH   1   2
ATOM      2  C   UNL     1      -5.484 -16.501   6.409  1.00  0.00     0.000 C 
BRANCH   2   3
ATOM      3  C   UNL     1      -6.789 -16.091   7.102  1.00  0.00     0.000 C 
BRANCH   3   4
ATOM      4  C   UNL     1      -6.749 -14.616   7.521  1.00  0.00     0.000 C 
BRANCH   4   5
ATOM      5  C   UNL     1      -6.888 -13.695   6.299  1.00  0.00     0.000 C 
BRANCH   5   6
ATOM      6  C   UNL     1      -5.941 -12.482   6.355  1.00  0.00     0.006 C 
BRANCH   6   7
ATOM      7  C   UNL     1      -4.459 -12.843   6.541  1.00  0.00     0.053 C 
BRANCH   7   8
ATOM      8  C   UNL     1      -3.854 -12.142   7.718  1.00  0.00     0.041 C 
ATOM      9  O   UNL     1      -3.833 -10.884   7.765  1.00  0.00    -0.550 OA
ATOM     10  O   UNL     1      -3.344 -12.879   8.779  1.00  0.00    -0.550 OA
ENDBRANCH   7   8
ENDBRANCH   6   7
ENDBRANCH   5   6
ENDBRANCH   4   5
ENDBRANCH   3   4
ENDBRANCH   2   3
ENDBRANCH   1   2
BRANCH   1  11
ATOM     11  C   UNL     1      -3.037 -16.770   6.990  1.00  0.00     0.000 C 
BRANCH  11  12
ATOM     12  C   UNL     1      -1.874 -16.101   6.240  1.00  0.00     0.000 C 
BRANCH  12  13
ATOM     13  C   UNL     1      -2.095 -14.592   6.031  1.00  0.00     0.000 C 
BRANCH  13  14
ATOM     14  C   UNL     1      -0.987 -13.742   6.688  1.00  0.00     0.000 C 
BRANCH  14  15
ATOM     15  C   UNL     1      -0.639 -14.181   8.125  1.00  0.00     0.000 C 
BRANCH  15  16
ATOM     16  C   UNL     1       0.756 -13.748   8.615  1.00  0.00     0.006 C 
BRANCH  16  17
ATOM     17  C   UNL     1       1.687 -14.914   8.981  1.00  0.00     0.053 C 
BRANCH  17  18
ATOM     18  C   UNL     1       2.001 -14.941  10.445  1.00  0.00     0.041 C 
ATOM     19  O   UNL     1       1.075 -15.053  11.291  1.00  0.00    -0.550 OA
ATOM     20  O   UNL     1       3.321 -14.877  10.873  1.00  0.00    -0.550 OA
ENDBRANCH  17  18
ENDBRANCH  16  17
ENDBRANCH  15  16
ENDBRANCH  14  15
ENDBRANCH  13  14
ENDBRANCH  12  13
ENDBRANCH  11  12
ENDBRANCH   1  11
TORSDOF 15
ENDMDL
MODEL 2
REMARK VINA RESULT:     8.724      0.590      6.172
REMARK INTER + INTRA:          16.260
REMARK INTER:                  15.879
REMARK INTRA:                   0.381
REMARK UNBOUND:                -0.114
REMARK SMILES O=C([O-])CCCCCCCCCCCCCCC(=O)[O-]
REMARK SMILES IDX 10 1 9 2 8 3 7 4 6 5 5 6 4 7 2 8 1 9 3 10 11 11 12 12 13 13
REMARK SMILES IDX 14 14 15 15 16 16 17 17 18 18 19 19 20 20
REMARK H PARENT
REMARK Flexibility Score: inf
ROOT
ATOM      1  C   UNL     1      -2.955 -16.459   7.012  1.00  0.00     0.000 C 
ENDROOT
BRANCH   1   2
ATOM      2  C   UNL     1      -2.966 -15.158   6.200  1.00  0.00     0.000 C 
BRANCH   2   3
ATOM      3  C   UNL     1      -1.672 -14.363   6.415  1.00  0.00     0.000 C 
BRANCH   3   4
ATOM      4  C   UNL     1      -1.115 -14.590   7.825  1.00  0.00     0.000 C 
BRANCH   4   5
ATOM      5  C   UNL     1      -0.091 -13.506   8.192  1.00  0.00     0.000 C 
BRANCH   5   6
ATOM      6  C   UNL     1       1.306 -14.081   8.490  1.00  0.00     0.006 C 
BRANCH   6   7
ATOM      7  C   UNL     1       1.299 -15.319   9.401  1.00  0.00     0.053 C 
BRANCH   7   8
ATOM      8  C   UNL     1       1.896 -15.030  10.744  1.00  0.00     0.041 C 
ATOM      9  O   UNL     1       1.195 -15.129  11.785  1.00  0.00    -0.550 OA
ATOM     10  O   UNL     1       3.238 -14.684  10.848  1.00  0.00    -0.550 OA
ENDBRANCH   7   8
ENDBRANCH   6   7
ENDBRANCH   5   6
ENDBRANCH   4   5
ENDBRANCH   3   4
ENDBRANCH   2   3
ENDBRANCH   1   2
BRANCH   1  11
ATOM     11  C   UNL     1      -4.332 -17.139   6.979  1.00  0.00     0.000 C 
BRANCH  11  12
ATOM     12  C   UNL     1      -5.409 -16.260   6.324  1.00  0.00     0.000 C 
BRANCH  12  13
ATOM     13  C   UNL     1      -6.645 -16.071   7.222  1.00  0.00     0.000 C 
BRANCH  13  14
ATOM     14  C   UNL     1      -6.953 -14.582   7.487  1.00  0.00     0.000 C 
BRANCH  14  15
ATOM     15  C   UNL     1      -6.867 -13.697   6.227  1.00  0.00     0.000 C 
BRANCH  15  16
ATOM     16  C   UNL     1      -5.891 -12.510   6.333  1.00  0.00     0.006 C 
BRANCH  16  17
ATOM     17  C   UNL     1      -4.436 -12.912   6.621  1.00  0.00     0.053 C 
BRANCH  17  18
ATOM     18  C   UNL     1      -3.860 -12.143   7.770  1.00  0.00     0.041 C 
ATOM     19  O   UNL     1      -3.922 -10.885   7.786  1.00  0.00    -0.550 OA
ATOM     20  O   UNL     1      -3.286 -12.818   8.839  1.00  0.00    -0.550 OA
ENDBRANCH  17  18
ENDBRANCH  16  17
ENDBRANCH  15  16
ENDBRANCH  14  15
ENDBRANCH  13  14
ENDBRANCH  12  13
ENDBRANCH  11  12
ENDBRANCH   1  11
TORSDOF 15
ENDMDL
MODEL 3
REMARK VINA RESULT:     9.760     14.400     16.226
REMARK INTER + INTRA:          18.204
REMARK INTER:                  19.040
REMARK INTRA:                  -0.836
REMARK UNBOUND:                -0.114
REMARK SMILES O=C([O-])CCCCCCCCCCCCCCC(=O)[O-]
REMARK SMILES IDX 10 1 9 2 8 3 7 4 6 5 5 6 4 7 2 8 1 9 3 10 11 11 12 12 13 13
REMARK SMILES IDX 14 14 15 15 16 16 17 17 18 18 19 19 20 20
REMARK H PARENT
REMARK Flexibility Score: inf
ROOT
ATOM      1  C   UNL     1      -1.117  -8.495  20.407  1.00  0.00     0.000 C 
ENDROOT
BRANCH   1   2
ATOM      2  C   UNL     1      -0.819  -7.973  21.817  1.00  0.00     0.000 C 
BRANCH   2   3
ATOM      3  C   UNL     1      -1.477  -6.607  22.050  1.00  0.00     0.000 C 
BRANCH   3   4
ATOM      4  C   UNL     1      -1.922  -6.453  23.509  1.00  0.00     0.000 C 
BRANCH   4   5
ATOM      5  C   UNL     1      -1.560  -5.061  24.050  1.00  0.00     0.000 C 
BRANCH   5   6
ATOM      6  C   UNL     1      -2.782  -4.290  24.581  1.00  0.00     0.006 C 
BRANCH   6   7
ATOM      7  C   UNL     1      -3.571  -5.030  25.673  1.00  0.00     0.053 C 
BRANCH   7   8
ATOM      8  C   UNL     1      -4.979  -5.316  25.250  1.00  0.00     0.041 C 
ATOM      9  O   UNL     1      -5.214  -5.805  24.113  1.00  0.00    -0.550 OA
ATOM     10  O   UNL     1      -6.031  -5.074  26.125  1.00  0.00    -0.550 OA
ENDBRANCH   7   8
ENDBRANCH   6   7
ENDBRANCH   5   6
ENDBRANCH   4   5
ENDBRANCH   3   4
ENDBRANCH   2   3
ENDBRANCH   1   2
BRANCH   1  11
ATOM     11  C   UNL     1      -2.280  -7.721  19.768  1.00  0.00     0.000 C 
BRANCH  11  12
ATOM     12  C   UNL     1      -3.622  -8.459  19.898  1.00  0.00     0.000 C 
BRANCH  12  13
ATOM     13  C   UNL     1      -3.485  -9.977  19.685  1.00  0.00     0.000 C 
BRANCH  13  14
ATOM     14  C   UNL     1      -3.919 -10.783  20.928  1.00  0.00     0.000 C 
BRANCH  14  15
ATOM     15  C   UNL     1      -4.992 -11.850  20.632  1.00  0.00     0.000 C 
BRANCH  15  16
ATOM     16  C   UNL     1      -4.538 -12.983  19.694  1.00  0.00     0.006 C 
BRANCH  16  17
ATOM     17  C   UNL     1      -4.248 -14.315  20.404  1.00  0.00     0.053 C 
BRANCH  17  18
ATOM     18  C   UNL     1      -3.208 -15.117  19.685  1.00  0.00     0.041 C 
ATOM     19  O   UNL     1      -2.183 -14.554  19.218  1.00  0.00    -0.550 OA
ATOM     20  O   UNL     1      -3.354 -16.493  19.563  1.00  0.00    -0.550 OA
ENDBRANCH  17  18
ENDBRANCH  16  17
ENDBRANCH  15  16
ENDBRANCH  14  15
ENDBRANCH  13  14
ENDBRANCH  12  13
ENDBRANCH  11  12
ENDBRANCH   1  11
TORSDOF 15
ENDMDL
MODEL 4
REMARK VINA RESULT:    10.091      2.099      3.307
REMARK INTER + INTRA:          18.826
REMARK INTER:                  19.277
REMARK INTRA:                  -0.451
REMARK UNBOUND:                -0.114
REMARK SMILES O=C([O-])CCCCCCCCCCCCCCC(=O)[O-]
REMARK SMILES IDX 10 1 9 2 8 3 7 4 6 5 5 6 4 7 2 8 1 9 3 10 11 11 12 12 13 13
REMARK SMILES IDX 14 14 15 15 16 16 17 17 18 18 19 19 20 20
REMARK H PARENT
REMARK Flexibility Score: inf
ROOT
ATOM      1  C   UNL     1      -4.715 -13.183   6.825  1.00  0.00     0.000 C 
ENDROOT
BRANCH   1   2
ATOM      2  C   UNL     1      -5.799 -12.253   6.267  1.00  0.00     0.000 C 
BRANCH   2   3
ATOM      3  C   UNL     1      -7.083 -13.031   5.952  1.00  0.00     0.000 C 
BRANCH   3   4
ATOM      4  C   UNL     1      -6.810 -14.538   5.886  1.00  0.00     0.000 C 
BRANCH   4   5
ATOM      5  C   UNL     1      -6.563 -15.114   7.289  1.00  0.00     0.000 C 
BRANCH   5   6
ATOM      6  C   UNL     1      -6.108 -16.584   7.259  1.00  0.00     0.006 C 
BRANCH   6   7
ATOM      7  C   UNL     1      -4.960 -16.872   6.280  1.00  0.00     0.053 C 
BRANCH   7   8
ATOM      8  C   UNL     1      -3.780 -17.490   6.965  1.00  0.00     0.041 C 
ATOM      9  O   UNL     1      -2.729 -17.741   6.318  1.00  0.00    -0.550 OA
ATOM     10  O   UNL     1      -3.829 -17.757   8.328  1.00  0.00    -0.550 OA
ENDBRANCH   7   8
ENDBRANCH   6   7
ENDBRANCH   5   6
ENDBRANCH   4   5
ENDBRANCH   3   4
ENDBRANCH   2   3
ENDBRANCH   1   2
BRANCH   1  11
ATOM     11  C   UNL     1      -3.414 -13.057   6.018  1.00  0.00     0.000 C 
BRANCH  11  12
ATOM     12  C   UNL     1      -2.380 -14.131   6.395  1.00  0.00     0.000 C 
BRANCH  12  13
ATOM     13  C   UNL     1      -2.562 -14.649   7.833  1.00  0.00     0.000 C 
BRANCH  13  14
ATOM     14  C   UNL     1      -1.248 -14.598   8.642  1.00  0.00     0.000 C 
BRANCH  14  15
ATOM     15  C   UNL     1      -0.221 -13.587   8.095  1.00  0.00     0.000 C 
BRANCH  15  16
ATOM     16  C   UNL     1       1.250 -13.930   8.395  1.00  0.00     0.006 C 
BRANCH  16  17
ATOM     17  C   UNL     1       1.447 -15.233   9.186  1.00  0.00     0.053 C 
BRANCH  17  18
ATOM     18  C   UNL     1       1.976 -14.977  10.564  1.00  0.00     0.041 C 
ATOM     19  O   UNL     1       3.203 -14.759  10.742  1.00  0.00    -0.550 OA
ATOM     20  O   UNL     1       1.106 -14.943  11.646  1.00  0.00    -0.550 OA
ENDBRANCH  17  18
ENDBRANCH  16  17
ENDBRANCH  15  16
ENDBRANCH  14  15
ENDBRANCH  13  14
ENDBRANCH  12  13
ENDBRANCH  11  12
ENDBRANCH   1  11
TORSDOF 15
ENDMDL
MODEL 5
REMARK VINA RESULT:    10.202     14.464     16.321
REMARK INTER + INTRA:          19.034
REMARK INTER:                  19.875
REMARK INTRA:                  -0.841
REMARK UNBOUND:                -0.114
REMARK SMILES O=C([O-])CCCCCCCCCCCCCCC(=O)[O-]
REMARK SMILES IDX 10 1 9 2 8 3 7 4 6 5 5 6 4 7 2 8 1 9 3 10 11 11 12 12 13 13
REMARK SMILES IDX 14 14 15 15 16 16 17 17 18 18 19 19 20 20
REMARK H PARENT
REMARK Flexibility Score: inf
ROOT
ATOM      1  C   UNL     1      -2.238  -7.974  19.732  1.00  0.00     0.000 C 
ENDROOT
BRANCH   1   2
ATOM      2  C   UNL     1      -3.476  -8.699  20.274  1.00  0.00     0.000 C 
BRANCH   2   3
ATOM      3  C   UNL     1      -3.450 -10.186  19.901  1.00  0.00     0.000 C 
BRANCH   3   4
ATOM      4  C   UNL     1      -4.070 -11.043  21.012  1.00  0.00     0.000 C 
BRANCH   4   5
ATOM      5  C   UNL     1      -5.262 -11.853  20.480  1.00  0.00     0.000 C 
BRANCH   5   6
ATOM      6  C   UNL     1      -4.834 -13.160  19.788  1.00  0.00     0.006 C 
BRANCH   6   7
ATOM      7  C   UNL     1      -3.694 -13.908  20.497  1.00  0.00     0.053 C 
BRANCH   7   8
ATOM      8  C   UNL     1      -3.136 -15.010  19.650  1.00  0.00     0.041 C 
ATOM      9  O   UNL     1      -2.048 -14.851  19.036  1.00  0.00    -0.550 OA
ATOM     10  O   UNL     1      -3.800 -16.227  19.567  1.00  0.00    -0.550 OA
ENDBRANCH   7   8
ENDBRANCH   6   7
ENDBRANCH   5   6
ENDBRANCH   4   5
ENDBRANCH   3   4
ENDBRANCH   2   3
ENDBRANCH   1   2
BRANCH   1  11
ATOM     11  C   UNL     1      -0.976  -8.385  20.506  1.00  0.00     0.000 C 
BRANCH  11  12
ATOM     12  C   UNL     1      -1.022  -7.954  21.981  1.00  0.00     0.000 C 
BRANCH  12  13
ATOM     13  C   UNL     1      -1.477  -6.494  22.156  1.00  0.00     0.000 C 
BRANCH  13  14
ATOM     14  C   UNL     1      -1.832  -6.164  23.622  1.00  0.00     0.000 C 
BRANCH  14  15
ATOM     15  C   UNL     1      -1.786  -4.658  23.948  1.00  0.00     0.000 C 
BRANCH  15  16
ATOM     16  C   UNL     1      -2.962  -4.143  24.800  1.00  0.00     0.006 C 
BRANCH  16  17
ATOM     17  C   UNL     1      -3.673  -5.231  25.620  1.00  0.00     0.053 C 
BRANCH  17  18
ATOM     18  C   UNL     1      -5.129  -5.324  25.282  1.00  0.00     0.041 C 
ATOM     19  O   UNL     1      -5.999  -4.980  26.125  1.00  0.00    -0.550 OA
ATOM     20  O   UNL     1      -5.524  -5.757  24.023  1.00  0.00    -0.550 OA
ENDBRANCH  17  18
ENDBRANCH  16  17
ENDBRANCH  15  16
ENDBRANCH  14  15
ENDBRANCH  13  14
ENDBRANCH  12  13
ENDBRANCH  11  12
ENDBRANCH   1  11
TORSDOF 15
ENDMDL
MODEL 6
REMARK VINA RESULT:    10.712      2.428      6.791
REMARK INTER + INTRA:          19.990
REMARK INTER:                  20.545
REMARK INTRA:                  -0.555
REMARK UNBOUND:                -0.114
REMARK SMILES O=C([O-])CCCCCCCCCCCCCCC(=O)[O-]
REMARK SMILES IDX 10 1 9 2 8 3 7 4 6 5 5 6 4 7 2 8 1 9 3 10 11 11 12 12 13 13
REMARK SMILES IDX 14 14 15 15 16 16 17 17 18 18 19 19 20 20
REMARK H PARENT
REMARK Flexibility Score: inf
ROOT
ATOM      1  C   UNL     1      -2.796 -14.795   6.131  1.00  0.00     0.000 C 
ENDROOT
BRANCH   1   2
ATOM      2  C   UNL     1      -1.503 -14.054   6.492  1.00  0.00     0.000 C 
BRANCH   2   3
ATOM      3  C   UNL     1      -1.068 -14.373   7.928  1.00  0.00     0.000 C 
BRANCH   3   4
ATOM      4  C   UNL     1       0.373 -13.915   8.180  1.00  0.00     0.000 C 
BRANCH   4   5
ATOM      5  C   UNL     1       1.288 -15.114   8.471  1.00  0.00     0.000 C 
BRANCH   5   6
ATOM      6  C   UNL     1       1.156 -16.234   7.422  1.00  0.00     0.006 C 
BRANCH   6   7
ATOM      7  C   UNL     1       2.254 -17.307   7.500  1.00  0.00     0.053 C 
BRANCH   7   8
ATOM      8  C   UNL     1       1.893 -18.534   6.721  1.00  0.00     0.041 C 
ATOM      9  O   UNL     1       2.573 -19.587   6.845  1.00  0.00    -0.550 OA
ATOM     10  O   UNL     1       0.785 -18.525   5.884  1.00  0.00    -0.550 OA
ENDBRANCH   7   8
ENDBRANCH   6   7
ENDBRANCH   5   6
ENDBRANCH   4   5
ENDBRANCH   3   4
ENDBRANCH   2   3
ENDBRANCH   1   2
BRANCH   1  11
ATOM     11  C   UNL     1      -2.821 -16.196   6.759  1.00  0.00     0.000 C 
BRANCH  11  12
ATOM     12  C   UNL     1      -4.184 -16.540   7.381  1.00  0.00     0.000 C 
BRANCH  12  13
ATOM     13  C   UNL     1      -5.359 -16.240   6.433  1.00  0.00     0.000 C 
BRANCH  13  14
ATOM     14  C   UNL     1      -6.476 -15.429   7.125  1.00  0.00     0.000 C 
BRANCH  14  15
ATOM     15  C   UNL     1      -6.734 -14.053   6.478  1.00  0.00     0.000 C 
BRANCH  15  16
ATOM     16  C   UNL     1      -5.466 -13.241   6.154  1.00  0.00     0.006 C 
BRANCH  16  17
ATOM     17  C   UNL     1      -5.288 -11.978   7.011  1.00  0.00     0.053 C 
BRANCH  17  18
ATOM     18  C   UNL     1      -4.062 -12.052   7.868  1.00  0.00     0.041 C 
ATOM     19  O   UNL     1      -3.803 -13.100   8.516  1.00  0.00    -0.550 OA
ATOM     20  O   UNL     1      -3.187 -10.974   7.923  1.00  0.00    -0.550 OA
ENDBRANCH  17  18
ENDBRANCH  16  17
ENDBRANCH  15  16
ENDBRANCH  14  15
ENDBRANCH  13  14
ENDBRANCH  12  13
ENDBRANCH  11  12
ENDBRANCH   1  11
TORSDOF 15
ENDMDL
MODEL 7
REMARK VINA RESULT:    10.791     15.034     16.839
REMARK INTER + INTRA:          20.139
REMARK INTER:                  20.529
REMARK INTRA:                  -0.389
REMARK UNBOUND:                -0.114
REMARK SMILES O=C([O-])CCCCCCCCCCCCCCC(=O)[O-]
REMARK SMILES IDX 10 1 9 2 8 3 7 4 6 5 5 6 4 7 2 8 1 9 3 10 11 11 12 12 13 13
REMARK SMILES IDX 14 14 15 15 16 16 17 17 18 18 19 19 20 20
REMARK H PARENT
REMARK Flexibility Score: inf
ROOT
ATOM      1  C   UNL     1      -0.556  -7.529  21.711  1.00  0.00     0.000 C 
ENDROOT
BRANCH   1   2
ATOM      2  C   UNL     1      -1.668  -6.568  22.146  1.00  0.00     0.000 C 
BRANCH   2   3
ATOM      3  C   UNL     1      -1.515  -6.179  23.621  1.00  0.00     0.000 C 
BRANCH   3   4
ATOM      4  C   UNL     1      -1.508  -4.655  23.790  1.00  0.00     0.000 C 
BRANCH   4   5
ATOM      5  C   UNL     1      -2.882  -4.148  24.256  1.00  0.00     0.000 C 
BRANCH   5   6
ATOM      6  C   UNL     1      -3.105  -4.335  25.768  1.00  0.00     0.006 C 
BRANCH   6   7
ATOM      7  C   UNL     1      -4.217  -5.333  26.125  1.00  0.00     0.053 C 
BRANCH   7   8
ATOM      8  C   UNL     1      -5.206  -5.493  25.011  1.00  0.00     0.041 C 
ATOM      9  O   UNL     1      -6.329  -4.926  25.074  1.00  0.00    -0.550 OA
ATOM     10  O   UNL     1      -4.874  -6.240  23.889  1.00  0.00    -0.550 OA
ENDBRANCH   7   8
ENDBRANCH   6   7
ENDBRANCH   5   6
ENDBRANCH   4   5
ENDBRANCH   3   4
ENDBRANCH   2   3
ENDBRANCH   1   2
BRANCH   1  11
ATOM     11  C   UNL     1      -1.003  -8.383  20.515  1.00  0.00     0.000 C 
BRANCH  11  12
ATOM     12  C   UNL     1      -2.138  -7.726  19.712  1.00  0.00     0.000 C 
BRANCH  12  13
ATOM     13  C   UNL     1      -3.436  -8.553  19.737  1.00  0.00     0.000 C 
BRANCH  13  14
ATOM     14  C   UNL     1      -3.184 -10.024  20.133  1.00  0.00     0.000 C 
BRANCH  14  15
ATOM     15  C   UNL     1      -3.394 -11.021  18.977  1.00  0.00     0.000 C 
BRANCH  15  16
ATOM     16  C   UNL     1      -3.854 -12.427  19.408  1.00  0.00     0.006 C 
BRANCH  16  17
ATOM     17  C   UNL     1      -5.251 -12.466  20.046  1.00  0.00     0.053 C 
BRANCH  17  18
ATOM     18  C   UNL     1      -5.217 -12.077  21.492  1.00  0.00     0.041 C 
ATOM     19  O   UNL     1      -6.167 -11.422  21.996  1.00  0.00    -0.550 OA
ATOM     20  O   UNL     1      -4.151 -12.469  22.292  1.00  0.00    -0.550 OA
ENDBRANCH  17  18
ENDBRANCH  16  17
ENDBRANCH  15  16
ENDBRANCH  14  15
ENDBRANCH  13  14
ENDBRANCH  12  13
ENDBRANCH  11  12
ENDBRANCH   1  11
TORSDOF 15
ENDMDL
