MODEL 1
REMARK VINA RESULT:    -6.070      0.000      0.000
REMARK INTER + INTRA:          -9.145
REMARK INTER:                  -8.199
REMARK INTRA:                  -0.945
REMARK UNBOUND:                -0.945
REMARK SMILES CC(=O)CCC=C(C)CCC=C(C)C
REMARK SMILES IDX 7 1 6 2 8 3 9 4 10 5 11 6 13 7 12 8 14 9 5 10 4 11 2 12 3 13
REMARK SMILES IDX 1 14
REMARK H PARENT
REMARK Flexibility Score: inf
ROOT
ATOM      1  C   UNL     1      -8.578  32.611  21.363  1.00  0.00    -0.077 C 
ATOM      2  C   UNL     1      -8.699  33.484  22.390  1.00  0.00    -0.028 C 
ATOM      3  C   UNL     1      -7.489  32.747  20.325  1.00  0.00     0.039 C 
ENDROOT
BRANCH   1   4
ATOM      4  C   UNL     1      -9.549  31.456  21.263  1.00  0.00     0.034 C 
BRANCH   4   5
ATOM      5  C   UNL     1      -8.933  30.174  21.835  1.00  0.00     0.032 C 
BRANCH   5   6
ATOM      6  C   UNL     1      -8.934  30.206  23.343  1.00  0.00    -0.028 C 
ATOM      7  C   UNL     1      -7.982  30.135  25.607  1.00  0.00     0.039 C 
ATOM      8  C   UNL     1      -7.823  30.131  24.109  1.00  0.00    -0.080 C 
ATOM      9  C   UNL     1      -6.439  30.062  23.507  1.00  0.00     0.039 C 
ENDBRANCH   5   6
ENDBRANCH   4   5
ENDBRANCH   1   4
BRANCH   2  10
ATOM     10  C   UNL     1      -7.824  34.697  22.589  1.00  0.00     0.035 C 
BRANCH  10  11
ATOM     11  C   UNL     1      -7.070  34.608  23.924  1.00  0.00     0.079 C 
BRANCH  11  12
ATOM     12  C   UNL     1      -7.935  34.827  25.146  1.00  0.00     0.130 C 
ATOM     13  O   UNL     1      -7.851  34.026  26.066  1.00  0.00    -0.300 OA
ATOM     14  C   UNL     1      -8.894  35.977  25.276  1.00  0.00     0.087 C 
ENDBRANCH  11  12
ENDBRANCH  10  11
ENDBRANCH   2  10
TORSDOF 6
ENDMDL
MODEL 2
REMARK VINA RESULT:    -5.694      1.394      4.246
REMARK INTER + INTRA:          -8.637
REMARK INTER:                  -8.018
REMARK INTRA:                  -0.619
REMARK UNBOUND:                -0.945
REMARK SMILES CC(=O)CCC=C(C)CCC=C(C)C
REMARK SMILES IDX 7 1 6 2 8 3 9 4 10 5 11 6 13 7 12 8 14 9 5 10 4 11 2 12 3 13
REMARK SMILES IDX 1 14
REMARK H PARENT
REMARK Flexibility Score: inf
ROOT
ATOM      1  C   UNL     1      -8.234  33.473  21.377  1.00  0.00    -0.077 C 
ATOM      2  C   UNL     1      -9.194  32.619  21.805  1.00  0.00    -0.028 C 
ATOM      3  C   UNL     1      -7.323  33.132  20.222  1.00  0.00     0.039 C 
ENDROOT
BRANCH   1   4
ATOM      4  C   UNL     1      -8.084  34.812  22.063  1.00  0.00     0.034 C 
BRANCH   4   5
ATOM      5  C   UNL     1      -7.027  34.742  23.171  1.00  0.00     0.032 C 
BRANCH   5   6
ATOM      6  C   UNL     1      -7.529  33.930  24.339  1.00  0.00    -0.028 C 
ATOM      7  C   UNL     1      -8.653  33.508  26.482  1.00  0.00     0.039 C 
ATOM      8  C   UNL     1      -8.255  34.433  25.362  1.00  0.00    -0.080 C 
ATOM      9  C   UNL     1      -8.690  35.880  25.400  1.00  0.00     0.039 C 
ENDBRANCH   5   6
ENDBRANCH   4   5
ENDBRANCH   1   4
BRANCH   2  10
ATOM     10  C   UNL     1      -9.429  31.242  21.237  1.00  0.00     0.035 C 
BRANCH  10  11
ATOM     11  C   UNL     1      -8.597  30.195  21.993  1.00  0.00     0.079 C 
BRANCH  11  12
ATOM     12  C   UNL     1      -8.516  30.421  23.487  1.00  0.00     0.130 C 
ATOM     13  O   UNL     1      -9.556  30.607  24.101  1.00  0.00    -0.300 OA
ATOM     14  C   UNL     1      -7.218  30.432  24.246  1.00  0.00     0.087 C 
ENDBRANCH  11  12
ENDBRANCH  10  11
ENDBRANCH   2  10
TORSDOF 6
ENDMDL
MODEL 3
REMARK VINA RESULT:    -5.664      1.342      3.804
REMARK INTER + INTRA:          -8.597
REMARK INTER:                  -7.634
REMARK INTRA:                  -0.963
REMARK UNBOUND:                -0.945
REMARK SMILES CC(=O)CCC=C(C)CCC=C(C)C
REMARK SMILES IDX 7 1 6 2 8 3 9 4 10 5 11 6 13 7 12 8 14 9 5 10 4 11 2 12 3 13
REMARK SMILES IDX 1 14
REMARK H PARENT
REMARK Flexibility Score: inf
ROOT
ATOM      1  C   UNL     1      -7.693  30.603  25.004  1.00  0.00    -0.077 C 
ATOM      2  C   UNL     1      -8.533  31.661  24.919  1.00  0.00    -0.028 C 
ATOM      3  C   UNL     1      -7.196  30.085  26.332  1.00  0.00     0.039 C 
ENDROOT
BRANCH   1   4
ATOM      4  C   UNL     1      -7.257  29.908  23.733  1.00  0.00     0.034 C 
BRANCH   4   5
ATOM      5  C   UNL     1      -8.176  30.281  22.564  1.00  0.00     0.032 C 
BRANCH   5   6
ATOM      6  C   UNL     1      -7.495  31.260  21.640  1.00  0.00    -0.028 C 
ATOM      7  C   UNL     1      -7.276  33.256  20.225  1.00  0.00     0.039 C 
ATOM      8  C   UNL     1      -8.065  32.395  21.176  1.00  0.00    -0.080 C 
ATOM      9  C   UNL     1      -9.450  32.825  21.598  1.00  0.00     0.039 C 
ENDBRANCH   5   6
ENDBRANCH   4   5
ENDBRANCH   1   4
BRANCH   2  10
ATOM     10  C   UNL     1      -9.016  32.466  26.099  1.00  0.00     0.035 C 
BRANCH  10  11
ATOM     11  C   UNL     1      -8.139  33.710  26.303  1.00  0.00     0.079 C 
BRANCH  11  12
ATOM     12  C   UNL     1      -8.172  34.694  25.154  1.00  0.00     0.130 C 
ATOM     13  O   UNL     1      -9.069  35.523  25.128  1.00  0.00    -0.300 OA
ATOM     14  C   UNL     1      -7.158  34.693  24.044  1.00  0.00     0.087 C 
ENDBRANCH  11  12
ENDBRANCH  10  11
ENDBRANCH   2  10
TORSDOF 6
ENDMDL
MODEL 4
REMARK VINA RESULT:    -5.652      2.228      4.982
REMARK INTER + INTRA:          -8.580
REMARK INTER:                  -7.670
REMARK INTRA:                  -0.910
REMARK UNBOUND:                -0.945
REMARK SMILES CC(=O)CCC=C(C)CCC=C(C)C
REMARK SMILES IDX 7 1 6 2 8 3 9 4 10 5 11 6 13 7 12 8 14 9 5 10 4 11 2 12 3 13
REMARK SMILES IDX 1 14
REMARK H PARENT
REMARK Flexibility Score: inf
ROOT
ATOM      1  C   UNL     1      -7.743  30.235  22.449  1.00  0.00    -0.077 C 
ATOM      2  C   UNL     1      -8.620  29.229  22.220  1.00  0.00    -0.028 C 
ATOM      3  C   UNL     1      -6.656  30.123  23.492  1.00  0.00     0.039 C 
ENDROOT
BRANCH   1   4
ATOM      4  C   UNL     1      -7.843  31.498  21.623  1.00  0.00     0.034 C 
BRANCH   4   5
ATOM      5  C   UNL     1      -8.988  32.386  22.122  1.00  0.00     0.032 C 
BRANCH   5   6
ATOM      6  C   UNL     1      -8.575  33.149  23.356  1.00  0.00    -0.028 C 
ATOM      7  C   UNL     1      -7.509  34.940  24.656  1.00  0.00     0.039 C 
ATOM      8  C   UNL     1      -7.887  34.312  23.340  1.00  0.00    -0.080 C 
ATOM      9  C   UNL     1      -7.508  35.001  22.049  1.00  0.00     0.039 C 
ENDBRANCH   5   6
ENDBRANCH   4   5
ENDBRANCH   1   4
BRANCH   2  10
ATOM     10  C   UNL     1      -8.656  27.934  22.993  1.00  0.00     0.035 C 
BRANCH  10  11
ATOM     11  C   UNL     1      -9.900  27.875  23.892  1.00  0.00     0.079 C 
BRANCH  11  12
ATOM     12  C   UNL     1      -9.751  28.598  25.212  1.00  0.00     0.130 C 
ATOM     13  O   UNL     1      -9.402  27.953  26.190  1.00  0.00    -0.300 OA
ATOM     14  C   UNL     1     -10.018  30.069  25.377  1.00  0.00     0.087 C 
ENDBRANCH  11  12
ENDBRANCH  10  11
ENDBRANCH   2  10
TORSDOF 6
ENDMDL
MODEL 5
REMARK VINA RESULT:    -5.637      1.307      3.792
REMARK INTER + INTRA:          -8.559
REMARK INTER:                  -7.498
REMARK INTRA:                  -1.062
REMARK UNBOUND:                -0.945
REMARK SMILES CC(=O)CCC=C(C)CCC=C(C)C
REMARK SMILES IDX 7 1 6 2 8 3 9 4 10 5 11 6 13 7 12 8 14 9 5 10 4 11 2 12 3 13
REMARK SMILES IDX 1 14
REMARK H PARENT
REMARK Flexibility Score: inf
ROOT
ATOM      1  C   UNL     1      -8.168  30.447  23.393  1.00  0.00    -0.077 C 
ATOM      2  C   UNL     1      -9.185  30.364  24.282  1.00  0.00    -0.028 C 
ATOM      3  C   UNL     1      -6.723  30.462  23.833  1.00  0.00     0.039 C 
ENDROOT
BRANCH   1   4
ATOM      4  C   UNL     1      -8.487  30.508  21.916  1.00  0.00     0.034 C 
BRANCH   4   5
ATOM      5  C   UNL     1      -9.491  31.628  21.622  1.00  0.00     0.032 C 
BRANCH   5   6
ATOM      6  C   UNL     1      -8.954  32.962  22.078  1.00  0.00    -0.028 C 
ATOM      7  C   UNL     1      -7.535  34.967  22.023  1.00  0.00     0.039 C 
ATOM      8  C   UNL     1      -8.002  33.665  21.425  1.00  0.00    -0.080 C 
ATOM      9  C   UNL     1      -7.414  33.193  20.116  1.00  0.00     0.039 C 
ENDBRANCH   5   6
ENDBRANCH   4   5
ENDBRANCH   1   4
BRANCH   2  10
ATOM     10  C   UNL     1      -9.010  30.333  25.780  1.00  0.00     0.035 C 
BRANCH  10  11
ATOM     11  C   UNL     1      -9.336  31.703  26.392  1.00  0.00     0.079 C 
BRANCH  11  12
ATOM     12  C   UNL     1      -8.144  32.625  26.529  1.00  0.00     0.130 C 
ATOM     13  O   UNL     1      -7.424  32.499  27.509  1.00  0.00    -0.300 OA
ATOM     14  C   UNL     1      -7.810  33.690  25.521  1.00  0.00     0.087 C 
ENDBRANCH  11  12
ENDBRANCH  10  11
ENDBRANCH   2  10
TORSDOF 6
ENDMDL
MODEL 6
REMARK VINA RESULT:    -5.602      2.186      3.714
REMARK INTER + INTRA:          -8.513
REMARK INTER:                  -7.350
REMARK INTRA:                  -1.163
REMARK UNBOUND:                -0.945
REMARK SMILES CC(=O)CCC=C(C)CCC=C(C)C
REMARK SMILES IDX 7 1 6 2 8 3 9 4 10 5 11 6 13 7 12 8 14 9 5 10 4 11 2 12 3 13
REMARK SMILES IDX 1 14
REMARK H PARENT
REMARK Flexibility Score: inf
ROOT
ATOM      1  C   UNL     1      -9.016  32.152  24.847  1.00  0.00    -0.077 C 
ATOM      2  C   UNL     1      -9.890  32.104  23.815  1.00  0.00    -0.028 C 
ATOM      3  C   UNL     1      -7.927  33.196  24.921  1.00  0.00     0.039 C 
ENDROOT
BRANCH   1   4
ATOM      4  C   UNL     1      -9.146  31.143  25.967  1.00  0.00     0.034 C 
BRANCH   4   5
ATOM      5  C   UNL     1      -8.164  29.983  25.771  1.00  0.00     0.032 C 
BRANCH   5   6
ATOM      6  C   UNL     1      -8.608  29.091  24.639  1.00  0.00    -0.028 C 
ATOM      7  C   UNL     1      -8.566  28.100  22.391  1.00  0.00     0.039 C 
ATOM      8  C   UNL     1      -7.983  29.007  23.443  1.00  0.00    -0.080 C 
ATOM      9  C   UNL     1      -6.718  29.777  23.145  1.00  0.00     0.039 C 
ENDBRANCH   5   6
ENDBRANCH   4   5
ENDBRANCH   1   4
BRANCH   2  10
ATOM     10  C   UNL     1      -9.853  33.022  22.618  1.00  0.00     0.035 C 
BRANCH  10  11
ATOM     11  C   UNL     1      -9.003  32.412  21.494  1.00  0.00     0.079 C 
BRANCH  11  12
ATOM     12  C   UNL     1      -7.884  33.303  21.003  1.00  0.00     0.130 C 
ATOM     13  O   UNL     1      -7.171  32.893  20.099  1.00  0.00    -0.300 OA
ATOM     14  C   UNL     1      -7.605  34.663  21.580  1.00  0.00     0.087 C 
ENDBRANCH  11  12
ENDBRANCH  10  11
ENDBRANCH   2  10
TORSDOF 6
ENDMDL
MODEL 7
REMARK VINA RESULT:    -5.535      1.966      5.220
REMARK INTER + INTRA:          -8.422
REMARK INTER:                  -7.526
REMARK INTRA:                  -0.897
REMARK UNBOUND:                -0.945
REMARK SMILES CC(=O)CCC=C(C)CCC=C(C)C
REMARK SMILES IDX 7 1 6 2 8 3 9 4 10 5 11 6 13 7 12 8 14 9 5 10 4 11 2 12 3 13
REMARK SMILES IDX 1 14
REMARK H PARENT
REMARK Flexibility Score: inf
ROOT
ATOM      1  C   UNL     1      -7.984  33.333  25.420  1.00  0.00    -0.077 C 
ATOM      2  C   UNL     1      -8.559  32.259  24.830  1.00  0.00    -0.028 C 
ATOM      3  C   UNL     1      -7.822  33.428  26.918  1.00  0.00     0.039 C 
ENDROOT
BRANCH   1   4
ATOM      4  C   UNL     1      -7.474  34.461  24.551  1.00  0.00     0.034 C 
BRANCH   4   5
ATOM      5  C   UNL     1      -8.416  34.707  23.367  1.00  0.00     0.032 C 
BRANCH   5   6
ATOM      6  C   UNL     1      -7.699  34.485  22.058  1.00  0.00    -0.028 C 
ATOM      7  C   UNL     1      -7.193  33.401  19.913  1.00  0.00     0.039 C 
ATOM      8  C   UNL     1      -8.027  33.529  21.161  1.00  0.00    -0.080 C 
ATOM      9  C   UNL     1      -9.206  32.607  21.368  1.00  0.00     0.039 C 
ENDBRANCH   5   6
ENDBRANCH   4   5
ENDBRANCH   1   4
BRANCH   2  10
ATOM     10  C   UNL     1      -9.143  31.084  25.575  1.00  0.00     0.035 C 
BRANCH  10  11
ATOM     11  C   UNL     1      -8.326  29.812  25.306  1.00  0.00     0.079 C 
BRANCH  11  12
ATOM     12  C   UNL     1      -8.052  29.544  23.843  1.00  0.00     0.130 C 
ATOM     13  O   UNL     1      -8.964  29.116  23.151  1.00  0.00    -0.300 OA
ATOM     14  C   UNL     1      -6.709  29.774  23.204  1.00  0.00     0.087 C 
ENDBRANCH  11  12
ENDBRANCH  10  11
ENDBRANCH   2  10
TORSDOF 6
ENDMDL
MODEL 8
REMARK VINA RESULT:    -5.518      1.834      3.432
REMARK INTER + INTRA:          -8.399
REMARK INTER:                  -7.160
REMARK INTRA:                  -1.239
REMARK UNBOUND:                -0.945
REMARK SMILES CC(=O)CCC=C(C)CCC=C(C)C
REMARK SMILES IDX 7 1 6 2 8 3 9 4 10 5 11 6 13 7 12 8 14 9 5 10 4 11 2 12 3 13
REMARK SMILES IDX 1 14
REMARK H PARENT
REMARK Flexibility Score: inf
ROOT
ATOM      1  C   UNL     1      -8.403  33.406  23.694  1.00  0.00    -0.077 C 
ATOM      2  C   UNL     1      -9.063  32.863  24.744  1.00  0.00    -0.028 C 
ATOM      3  C   UNL     1      -7.259  34.373  23.886  1.00  0.00     0.039 C 
ENDROOT
BRANCH   1   4
ATOM      4  C   UNL     1      -8.812  33.018  22.290  1.00  0.00     0.034 C 
BRANCH   4   5
ATOM      5  C   UNL     1      -7.833  31.996  21.701  1.00  0.00     0.032 C 
BRANCH   5   6
ATOM      6  C   UNL     1      -8.319  30.589  21.943  1.00  0.00    -0.028 C 
ATOM      7  C   UNL     1      -8.320  28.333  22.917  1.00  0.00     0.039 C 
ATOM      8  C   UNL     1      -7.748  29.723  22.811  1.00  0.00    -0.080 C 
ATOM      9  C   UNL     1      -6.577  30.116  23.680  1.00  0.00     0.039 C 
ENDBRANCH   5   6
ENDBRANCH   4   5
ENDBRANCH   1   4
BRANCH   2  10
ATOM     10  C   UNL     1      -8.785  33.189  26.190  1.00  0.00     0.035 C 
BRANCH  10  11
ATOM     11  C   UNL     1      -7.917  32.098  26.834  1.00  0.00     0.079 C 
BRANCH  11  12
ATOM     12  C   UNL     1      -8.688  30.885  27.308  1.00  0.00     0.130 C 
ATOM     13  O   UNL     1      -9.683  31.063  27.996  1.00  0.00    -0.300 OA
ATOM     14  C   UNL     1      -8.284  29.475  26.975  1.00  0.00     0.087 C 
ENDBRANCH  11  12
ENDBRANCH  10  11
ENDBRANCH   2  10
TORSDOF 6
ENDMDL
MODEL 9
REMARK VINA RESULT:    -5.449      1.872      3.406
REMARK INTER + INTRA:          -8.306
REMARK INTER:                  -7.065
REMARK INTRA:                  -1.241
REMARK UNBOUND:                -0.945
REMARK SMILES CC(=O)CCC=C(C)CCC=C(C)C
REMARK SMILES IDX 7 1 6 2 8 3 9 4 10 5 11 6 13 7 12 8 14 9 5 10 4 11 2 12 3 13
REMARK SMILES IDX 1 14
REMARK H PARENT
REMARK Flexibility Score: inf
ROOT
ATOM      1  C   UNL     1      -7.633  30.351  22.798  1.00  0.00    -0.077 C 
ATOM      2  C   UNL     1      -7.493  31.598  22.290  1.00  0.00    -0.028 C 
ATOM      3  C   UNL     1      -8.614  29.360  22.218  1.00  0.00     0.039 C 
ENDROOT
BRANCH   1   4
ATOM      4  C   UNL     1      -6.770  29.933  23.968  1.00  0.00     0.034 C 
BRANCH   4   5
ATOM      5  C   UNL     1      -7.613  29.776  25.238  1.00  0.00     0.032 C 
BRANCH   5   6
ATOM      6  C   UNL     1      -7.544  31.023  26.084  1.00  0.00    -0.028 C 
ATOM      7  C   UNL     1      -8.271  33.194  26.974  1.00  0.00     0.039 C 
ATOM      8  C   UNL     1      -8.496  31.982  26.108  1.00  0.00    -0.080 C 
ATOM      9  C   UNL     1      -9.775  31.862  25.312  1.00  0.00     0.039 C 
ENDBRANCH   5   6
ENDBRANCH   4   5
ENDBRANCH   1   4
BRANCH   2  10
ATOM     10  C   UNL     1      -8.312  32.156  21.153  1.00  0.00     0.035 C 
BRANCH  10  11
ATOM     11  C   UNL     1      -9.001  33.462  21.572  1.00  0.00     0.079 C 
BRANCH  11  12
ATOM     12  C   UNL     1      -8.075  34.485  22.194  1.00  0.00     0.130 C 
ATOM     13  O   UNL     1      -7.272  35.055  21.470  1.00  0.00    -0.300 OA
ATOM     14  C   UNL     1      -8.095  34.826  23.658  1.00  0.00     0.087 C 
ENDBRANCH  11  12
ENDBRANCH  10  11
ENDBRANCH   2  10
TORSDOF 6
ENDMDL
