MODEL 1
REMARK VINA RESULT:    -3.695      0.000      0.000
REMARK INTER + INTRA:          -6.471
REMARK INTER:                  -5.639
REMARK INTRA:                  -0.832
REMARK UNBOUND:                -0.832
REMARK SMILES O=C([O-])CCCCCCCCC(=O)[O-]
REMARK SMILES IDX 7 1 6 2 5 3 4 4 2 5 1 6 3 7 8 8 9 9 10 10 11 11 12 12 13 13
REMARK SMILES IDX 14 14
REMARK H PARENT
REMARK Flexibility Score: inf
ROOT
ATOM      1  C   UNL     1     180.892 182.752 200.310  1.00  0.00     0.000 C 
ENDROOT
BRANCH   1   2
ATOM      2  C   UNL     1     181.840 181.609 199.908  1.00  0.00     0.000 C 
BRANCH   2   3
ATOM      3  C   UNL     1     183.323 181.973 200.102  1.00  0.00     0.006 C 
BRANCH   3   4
ATOM      4  C   UNL     1     184.036 182.219 198.767  1.00  0.00     0.053 C 
BRANCH   4   5
ATOM      5  C   UNL     1     184.910 183.435 198.818  1.00  0.00     0.041 C 
ATOM      6  O   UNL     1     185.622 183.663 199.833  1.00  0.00    -0.550 OA
ATOM      7  O   UNL     1     184.960 184.302 197.734  1.00  0.00    -0.550 OA
ENDBRANCH   4   5
ENDBRANCH   3   4
ENDBRANCH   2   3
ENDBRANCH   1   2
BRANCH   1   8
ATOM      8  C   UNL     1     181.364 183.494 201.573  1.00  0.00     0.000 C 
BRANCH   8   9
ATOM      9  C   UNL     1     180.711 184.878 201.722  1.00  0.00     0.000 C 
BRANCH   9  10
ATOM     10  C   UNL     1     181.322 185.928 200.783  1.00  0.00     0.006 C 
BRANCH  10  11
ATOM     11  C   UNL     1     182.843 185.767 200.697  1.00  0.00     0.053 C 
BRANCH  11  12
ATOM     12  C   UNL     1     183.427 186.784 199.766  1.00  0.00     0.041 C 
ATOM     13  O   UNL     1     184.658 187.044 199.805  1.00  0.00    -0.550 OA
ATOM     14  O   UNL     1     182.621 187.407 198.822  1.00  0.00    -0.550 OA
ENDBRANCH  11  12
ENDBRANCH  10  11
ENDBRANCH   9  10
ENDBRANCH   8   9
ENDBRANCH   1   8
TORSDOF 9
ENDMDL
MODEL 2
REMARK VINA RESULT:    -3.636      2.797      3.864
REMARK INTER + INTRA:          -6.381
REMARK INTER:                  -5.850
REMARK INTRA:                  -0.531
REMARK UNBOUND:                -0.832
REMARK SMILES O=C([O-])CCCCCCCCC(=O)[O-]
REMARK SMILES IDX 7 1 6 2 5 3 4 4 2 5 1 6 3 7 8 8 9 9 10 10 11 11 12 12 13 13
REMARK SMILES IDX 14 14
REMARK H PARENT
REMARK Flexibility Score: inf
ROOT
ATOM      1  C   UNL     1     184.545 183.841 198.393  1.00  0.00     0.000 C 
ENDROOT
BRANCH   1   2
ATOM      2  C   UNL     1     184.186 182.406 198.813  1.00  0.00     0.000 C 
BRANCH   2   3
ATOM      3  C   UNL     1     184.043 182.252 200.338  1.00  0.00     0.006 C 
BRANCH   3   4
ATOM      4  C   UNL     1     182.903 181.299 200.718  1.00  0.00     0.053 C 
BRANCH   4   5
ATOM      5  C   UNL     1     181.612 181.686 200.063  1.00  0.00     0.041 C 
ATOM      6  O   UNL     1     181.055 182.778 200.354  1.00  0.00    -0.550 OA
ATOM      7  O   UNL     1     181.038 180.853 199.112  1.00  0.00    -0.550 OA
ENDBRANCH   4   5
ENDBRANCH   3   4
ENDBRANCH   2   3
ENDBRANCH   1   2
BRANCH   1   8
ATOM      8  C   UNL     1     183.914 184.901 199.313  1.00  0.00     0.000 C 
BRANCH   8   9
ATOM      9  C   UNL     1     184.966 185.716 200.082  1.00  0.00     0.000 C 
BRANCH   9  10
ATOM     10  C   UNL     1     184.876 187.222 199.796  1.00  0.00     0.006 C 
BRANCH  10  11
ATOM     11  C   UNL     1     186.272 187.833 199.632  1.00  0.00     0.053 C 
BRANCH  11  12
ATOM     12  C   UNL     1     186.528 188.179 198.199  1.00  0.00     0.041 C 
ATOM     13  O   UNL     1     187.293 189.135 197.906  1.00  0.00    -0.550 OA
ATOM     14  O   UNL     1     185.965 187.413 197.187  1.00  0.00    -0.550 OA
ENDBRANCH  11  12
ENDBRANCH  10  11
ENDBRANCH   9  10
ENDBRANCH   8   9
ENDBRANCH   1   8
TORSDOF 9
ENDMDL
MODEL 3
REMARK VINA RESULT:    -3.633      1.664      2.271
REMARK INTER + INTRA:          -6.378
REMARK INTER:                  -5.394
REMARK INTRA:                  -0.983
REMARK UNBOUND:                -0.832
REMARK SMILES O=C([O-])CCCCCCCCC(=O)[O-]
REMARK SMILES IDX 7 1 6 2 5 3 4 4 2 5 1 6 3 7 8 8 9 9 10 10 11 11 12 12 13 13
REMARK SMILES IDX 14 14
REMARK H PARENT
REMARK Flexibility Score: inf
ROOT
ATOM      1  C   UNL     1     181.860 183.315 200.830  1.00  0.00     0.000 C 
ENDROOT
BRANCH   1   2
ATOM      2  C   UNL     1     182.259 182.185 201.794  1.00  0.00     0.000 C 
BRANCH   2   3
ATOM      3  C   UNL     1     183.771 181.899 201.778  1.00  0.00     0.006 C 
BRANCH   3   4
ATOM      4  C   UNL     1     184.600 183.153 202.084  1.00  0.00     0.053 C 
BRANCH   4   5
ATOM      5  C   UNL     1     185.614 183.425 201.015  1.00  0.00     0.041 C 
ATOM      6  O   UNL     1     185.314 183.268 199.801  1.00  0.00    -0.550 OA
ATOM      7  O   UNL     1     186.880 183.880 201.357  1.00  0.00    -0.550 OA
ENDBRANCH   4   5
ENDBRANCH   3   4
ENDBRANCH   2   3
ENDBRANCH   1   2
BRANCH   1   8
ATOM      8  C   UNL     1     181.140 184.473 201.544  1.00  0.00     0.000 C 
BRANCH   8   9
ATOM      9  C   UNL     1     181.792 185.836 201.260  1.00  0.00     0.000 C 
BRANCH   9  10
ATOM     10  C   UNL     1     182.806 185.781 200.108  1.00  0.00     0.006 C 
BRANCH  10  11
ATOM     11  C   UNL     1     183.730 187.002 200.133  1.00  0.00     0.053 C 
BRANCH  11  12
ATOM     12  C   UNL     1     184.988 186.725 199.370  1.00  0.00     0.041 C 
ATOM     13  O   UNL     1     184.929 186.283 198.192  1.00  0.00    -0.550 OA
ATOM     14  O   UNL     1     186.223 187.003 199.940  1.00  0.00    -0.550 OA
ENDBRANCH  11  12
ENDBRANCH  10  11
ENDBRANCH   9  10
ENDBRANCH   8   9
ENDBRANCH   1   8
TORSDOF 9
ENDMDL
MODEL 4
REMARK VINA RESULT:    -3.616     13.603     16.058
REMARK INTER + INTRA:          -6.351
REMARK INTER:                  -5.369
REMARK INTRA:                  -0.983
REMARK UNBOUND:                -0.832
REMARK SMILES O=C([O-])CCCCCCCCC(=O)[O-]
REMARK SMILES IDX 7 1 6 2 5 3 4 4 2 5 1 6 3 7 8 8 9 9 10 10 11 11 12 12 13 13
REMARK SMILES IDX 14 14
REMARK H PARENT
REMARK Flexibility Score: inf
ROOT
ATOM      1  C   UNL     1     197.217 194.947 201.026  1.00  0.00     0.000 C 
ENDROOT
BRANCH   1   2
ATOM      2  C   UNL     1     196.409 196.069 201.700  1.00  0.00     0.000 C 
BRANCH   2   3
ATOM      3  C   UNL     1     195.238 196.561 200.830  1.00  0.00     0.006 C 
BRANCH   3   4
ATOM      4  C   UNL     1     195.283 195.972 199.414  1.00  0.00     0.053 C 
BRANCH   4   5
ATOM      5  C   UNL     1     193.978 195.344 199.031  1.00  0.00     0.041 C 
ATOM      6  O   UNL     1     193.760 195.011 197.836  1.00  0.00    -0.550 OA
ATOM      7  O   UNL     1     193.012 195.101 200.000  1.00  0.00    -0.550 OA
ENDBRANCH   4   5
ENDBRANCH   3   4
ENDBRANCH   2   3
ENDBRANCH   1   2
BRANCH   1   8
ATOM      8  C   UNL     1     197.356 193.702 201.919  1.00  0.00     0.000 C 
BRANCH   8   9
ATOM      9  C   UNL     1     196.167 192.738 201.774  1.00  0.00     0.000 C 
BRANCH   9  10
ATOM     10  C   UNL     1     195.877 192.368 200.313  1.00  0.00     0.006 C 
BRANCH  10  11
ATOM     11  C   UNL     1     194.442 191.856 200.152  1.00  0.00     0.053 C 
BRANCH  11  12
ATOM     12  C   UNL     1     194.236 191.291 198.782  1.00  0.00     0.041 C 
ATOM     13  O   UNL     1     193.281 191.695 198.068  1.00  0.00    -0.550 OA
ATOM     14  O   UNL     1     195.129 190.357 198.273  1.00  0.00    -0.550 OA
ENDBRANCH  11  12
ENDBRANCH  10  11
ENDBRANCH   9  10
ENDBRANCH   8   9
ENDBRANCH   1   8
TORSDOF 9
ENDMDL
MODEL 5
REMARK VINA RESULT:    -3.586      2.474      4.253
REMARK INTER + INTRA:          -6.305
REMARK INTER:                  -5.563
REMARK INTRA:                  -0.741
REMARK UNBOUND:                -0.832
REMARK SMILES O=C([O-])CCCCCCCCC(=O)[O-]
REMARK SMILES IDX 7 1 6 2 5 3 4 4 2 5 1 6 3 7 8 8 9 9 10 10 11 11 12 12 13 13
REMARK SMILES IDX 14 14
REMARK H PARENT
REMARK Flexibility Score: inf
ROOT
ATOM      1  C   UNL     1     185.572 183.590 200.915  1.00  0.00     0.000 C 
ENDROOT
BRANCH   1   2
ATOM      2  C   UNL     1     184.923 184.149 199.638  1.00  0.00     0.000 C 
BRANCH   2   3
ATOM      3  C   UNL     1     184.015 185.360 199.916  1.00  0.00     0.006 C 
BRANCH   3   4
ATOM      4  C   UNL     1     184.161 186.449 198.846  1.00  0.00     0.053 C 
BRANCH   4   5
ATOM      5  C   UNL     1     185.486 187.144 198.936  1.00  0.00     0.041 C 
ATOM      6  O   UNL     1     185.976 187.433 200.060  1.00  0.00    -0.550 OA
ATOM      7  O   UNL     1     186.192 187.446 197.779  1.00  0.00    -0.550 OA
ENDBRANCH   4   5
ENDBRANCH   3   4
ENDBRANCH   2   3
ENDBRANCH   1   2
BRANCH   1   8
ATOM      8  C   UNL     1     184.535 183.198 201.982  1.00  0.00     0.000 C 
BRANCH   8   9
ATOM      9  C   UNL     1     183.991 181.774 201.780  1.00  0.00     0.000 C 
BRANCH   9  10
ATOM     10  C   UNL     1     182.462 181.699 201.900  1.00  0.00     0.006 C 
BRANCH  10  11
ATOM     11  C   UNL     1     181.841 183.099 201.870  1.00  0.00     0.053 C 
BRANCH  11  12
ATOM     12  C   UNL     1     180.785 183.183 200.813  1.00  0.00     0.041 C 
ATOM     13  O   UNL     1     180.081 184.221 200.703  1.00  0.00    -0.550 OA
ATOM     14  O   UNL     1     180.614 182.136 199.916  1.00  0.00    -0.550 OA
ENDBRANCH  11  12
ENDBRANCH  10  11
ENDBRANCH   9  10
ENDBRANCH   8   9
ENDBRANCH   1   8
TORSDOF 9
ENDMDL
MODEL 6
REMARK VINA RESULT:    -3.565      2.473      4.016
REMARK INTER + INTRA:          -6.274
REMARK INTER:                  -5.406
REMARK INTRA:                  -0.868
REMARK UNBOUND:                -0.832
REMARK SMILES O=C([O-])CCCCCCCCC(=O)[O-]
REMARK SMILES IDX 7 1 6 2 5 3 4 4 2 5 1 6 3 7 8 8 9 9 10 10 11 11 12 12 13 13
REMARK SMILES IDX 14 14
REMARK H PARENT
REMARK Flexibility Score: inf
ROOT
ATOM      1  C   UNL     1     181.135 184.884 201.001  1.00  0.00     0.000 C 
ENDROOT
BRANCH   1   2
ATOM      2  C   UNL     1     181.173 183.786 202.076  1.00  0.00     0.000 C 
BRANCH   2   3
ATOM      3  C   UNL     1     181.662 182.434 201.526  1.00  0.00     0.006 C 
BRANCH   3   4
ATOM      4  C   UNL     1     181.066 182.121 200.148  1.00  0.00     0.053 C 
BRANCH   4   5
ATOM      5  C   UNL     1     181.053 180.649 199.868  1.00  0.00     0.041 C 
ATOM      6  O   UNL     1     180.591 180.213 198.780  1.00  0.00    -0.550 OA
ATOM      7  O   UNL     1     181.579 179.760 200.797  1.00  0.00    -0.550 OA
ENDBRANCH   4   5
ENDBRANCH   3   4
ENDBRANCH   2   3
ENDBRANCH   1   2
BRANCH   1   8
ATOM      8  C   UNL     1     182.215 185.959 201.217  1.00  0.00     0.000 C 
BRANCH   8   9
ATOM      9  C   UNL     1     182.865 186.414 199.900  1.00  0.00     0.000 C 
BRANCH   9  10
ATOM     10  C   UNL     1     184.267 185.822 199.694  1.00  0.00     0.006 C 
BRANCH  10  11
ATOM     11  C   UNL     1     184.243 184.709 198.643  1.00  0.00     0.053 C 
BRANCH  11  12
ATOM     12  C   UNL     1     184.502 183.379 199.279  1.00  0.00     0.041 C 
ATOM     13  O   UNL     1     184.897 183.316 200.473  1.00  0.00    -0.550 OA
ATOM     14  O   UNL     1     184.260 182.210 198.571  1.00  0.00    -0.550 OA
ENDBRANCH  11  12
ENDBRANCH  10  11
ENDBRANCH   9  10
ENDBRANCH   8   9
ENDBRANCH   1   8
TORSDOF 9
ENDMDL
MODEL 7
REMARK VINA RESULT:    -3.507      2.020      4.128
REMARK INTER + INTRA:          -6.185
REMARK INTER:                  -5.351
REMARK INTRA:                  -0.834
REMARK UNBOUND:                -0.832
REMARK SMILES O=C([O-])CCCCCCCCC(=O)[O-]
REMARK SMILES IDX 7 1 6 2 5 3 4 4 2 5 1 6 3 7 8 8 9 9 10 10 11 11 12 12 13 13
REMARK SMILES IDX 14 14
REMARK H PARENT
REMARK Flexibility Score: inf
ROOT
ATOM      1  C   UNL     1     180.707 186.426 200.744  1.00  0.00     0.000 C 
ENDROOT
BRANCH   1   2
ATOM      2  C   UNL     1     181.953 187.318 200.606  1.00  0.00     0.000 C 
BRANCH   2   3
ATOM      3  C   UNL     1     182.753 187.025 199.325  1.00  0.00     0.006 C 
BRANCH   3   4
ATOM      4  C   UNL     1     184.196 186.603 199.629  1.00  0.00     0.053 C 
BRANCH   4   5
ATOM      5  C   UNL     1     184.913 186.141 198.397  1.00  0.00     0.041 C 
ATOM      6  O   UNL     1     184.852 184.934 198.041  1.00  0.00    -0.550 OA
ATOM      7  O   UNL     1     185.626 187.050 197.625  1.00  0.00    -0.550 OA
ENDBRANCH   4   5
ENDBRANCH   3   4
ENDBRANCH   2   3
ENDBRANCH   1   2
BRANCH   1   8
ATOM      8  C   UNL     1     180.682 185.649 202.072  1.00  0.00     0.000 C 
BRANCH   8   9
ATOM      9  C   UNL     1     180.919 184.143 201.878  1.00  0.00     0.000 C 
BRANCH   9  10
ATOM     10  C   UNL     1     182.397 183.799 201.645  1.00  0.00     0.006 C 
BRANCH  10  11
ATOM     11  C   UNL     1     182.619 183.268 200.225  1.00  0.00     0.053 C 
BRANCH  11  12
ATOM     12  C   UNL     1     182.491 181.778 200.195  1.00  0.00     0.041 C 
ATOM     13  O   UNL     1     183.286 181.061 200.858  1.00  0.00    -0.550 OA
ATOM     14  O   UNL     1     181.463 181.182 199.477  1.00  0.00    -0.550 OA
ENDBRANCH  11  12
ENDBRANCH  10  11
ENDBRANCH   9  10
ENDBRANCH   8   9
ENDBRANCH   1   8
TORSDOF 9
ENDMDL
MODEL 8
REMARK VINA RESULT:    -3.500      2.515      4.903
REMARK INTER + INTRA:          -6.173
REMARK INTER:                  -5.576
REMARK INTRA:                  -0.597
REMARK UNBOUND:                -0.832
REMARK SMILES O=C([O-])CCCCCCCCC(=O)[O-]
REMARK SMILES IDX 7 1 6 2 5 3 4 4 2 5 1 6 3 7 8 8 9 9 10 10 11 11 12 12 13 13
REMARK SMILES IDX 14 14
REMARK H PARENT
REMARK Flexibility Score: inf
ROOT
ATOM      1  C   UNL     1     184.642 184.390 198.363  1.00  0.00     0.000 C 
ENDROOT
BRANCH   1   2
ATOM      2  C   UNL     1     184.083 185.362 199.416  1.00  0.00     0.000 C 
BRANCH   2   3
ATOM      3  C   UNL     1     183.729 186.738 198.825  1.00  0.00     0.006 C 
BRANCH   3   4
ATOM      4  C   UNL     1     184.647 187.847 199.352  1.00  0.00     0.053 C 
BRANCH   4   5
ATOM      5  C   UNL     1     185.569 188.360 198.288  1.00  0.00     0.041 C 
ATOM      6  O   UNL     1     186.236 187.557 197.584  1.00  0.00    -0.550 OA
ATOM      7  O   UNL     1     185.670 189.726 198.055  1.00  0.00    -0.550 OA
ENDBRANCH   4   5
ENDBRANCH   3   4
ENDBRANCH   2   3
ENDBRANCH   1   2
BRANCH   1   8
ATOM      8  C   UNL     1     184.516 182.918 198.793  1.00  0.00     0.000 C 
BRANCH   8   9
ATOM      9  C   UNL     1     184.424 182.755 200.319  1.00  0.00     0.000 C 
BRANCH   9  10
ATOM     10  C   UNL     1     183.642 181.501 200.737  1.00  0.00     0.006 C 
BRANCH  10  11
ATOM     11  C   UNL     1     182.412 181.874 201.568  1.00  0.00     0.053 C 
BRANCH  11  12
ATOM     12  C   UNL     1     181.373 182.522 200.708  1.00  0.00     0.041 C 
ATOM     13  O   UNL     1     180.805 181.863 199.797  1.00  0.00    -0.550 OA
ATOM     14  O   UNL     1     180.994 183.837 200.945  1.00  0.00    -0.550 OA
ENDBRANCH  11  12
ENDBRANCH  10  11
ENDBRANCH   9  10
ENDBRANCH   8   9
ENDBRANCH   1   8
TORSDOF 9
ENDMDL
