MODEL 1
REMARK VINA RESULT:    -4.505      0.000      0.000
REMARK INTER + INTRA:         -10.258
REMARK INTER:                  -8.456
REMARK INTRA:                  -1.802
REMARK UNBOUND:                -1.802
REMARK SMILES O=C([O-])CCCCCCCCCCCCCCC(=O)[O-]
REMARK SMILES IDX 10 1 9 2 8 3 7 4 6 5 5 6 4 7 2 8 1 9 3 10 11 11 12 12 13 13
REMARK SMILES IDX 14 14 15 15 16 16 17 17 18 18 19 19 20 20
REMARK H PARENT
REMARK Flexibility Score: inf
ROOT
ATOM      1  C   UNL     1      44.408  60.766  49.026  1.00  0.00     0.000 C 
ENDROOT
BRANCH   1   2
ATOM      2  C   UNL     1      45.303  59.879  49.910  1.00  0.00     0.000 C 
BRANCH   2   3
ATOM      3  C   UNL     1      45.021  58.379  49.722  1.00  0.00     0.000 C 
BRANCH   3   4
ATOM      4  C   UNL     1      45.985  57.713  48.729  1.00  0.00     0.000 C 
BRANCH   4   5
ATOM      5  C   UNL     1      45.268  56.627  47.913  1.00  0.00     0.000 C 
BRANCH   5   6
ATOM      6  C   UNL     1      43.879  57.068  47.427  1.00  0.00     0.006 C 
BRANCH   6   7
ATOM      7  C   UNL     1      43.942  57.924  46.155  1.00  0.00     0.053 C 
BRANCH   7   8
ATOM      8  C   UNL     1      42.797  57.596  45.248  1.00  0.00     0.041 C 
ATOM      9  O   UNL     1      41.654  58.072  45.472  1.00  0.00    -0.550 OA
ATOM     10  O   UNL     1      43.004  56.800  44.129  1.00  0.00    -0.550 OA
ENDBRANCH   7   8
ENDBRANCH   6   7
ENDBRANCH   5   6
ENDBRANCH   4   5
ENDBRANCH   3   4
ENDBRANCH   2   3
ENDBRANCH   1   2
BRANCH   1  11
ATOM     11  C   UNL     1      43.173  61.291  49.777  1.00  0.00     0.000 C 
BRANCH  11  12
ATOM     12  C   UNL     1      41.880  61.167  48.952  1.00  0.00     0.000 C 
BRANCH  12  13
ATOM     13  C   UNL     1      41.690  59.760  48.364  1.00  0.00     0.000 C 
BRANCH  13  14
ATOM     14  C   UNL     1      41.502  58.687  49.451  1.00  0.00     0.000 C 
BRANCH  14  15
ATOM     15  C   UNL     1      40.058  58.161  49.518  1.00  0.00     0.000 C 
BRANCH  15  16
ATOM     16  C   UNL     1      39.621  57.468  48.216  1.00  0.00     0.006 C 
BRANCH  16  17
ATOM     17  C   UNL     1      40.458  56.217  47.917  1.00  0.00     0.053 C 
BRANCH  17  18
ATOM     18  C   UNL     1      39.764  55.299  46.958  1.00  0.00     0.041 C 
ATOM     19  O   UNL     1      39.314  55.744  45.867  1.00  0.00    -0.550 OA
ATOM     20  O   UNL     1      39.638  53.948  47.255  1.00  0.00    -0.550 OA
ENDBRANCH  17  18
ENDBRANCH  16  17
ENDBRANCH  15  16
ENDBRANCH  14  15
ENDBRANCH  13  14
ENDBRANCH  12  13
ENDBRANCH  11  12
ENDBRANCH   1  11
TORSDOF 15
ENDMDL
MODEL 2
REMARK VINA RESULT:    -4.451      3.232      5.870
REMARK INTER + INTRA:         -10.157
REMARK INTER:                  -8.302
REMARK INTRA:                  -1.855
REMARK UNBOUND:                -1.802
REMARK SMILES O=C([O-])CCCCCCCCCCCCCCC(=O)[O-]
REMARK SMILES IDX 10 1 9 2 8 3 7 4 6 5 5 6 4 7 2 8 1 9 3 10 11 11 12 12 13 13
REMARK SMILES IDX 14 14 15 15 16 16 17 17 18 18 19 19 20 20
REMARK H PARENT
REMARK Flexibility Score: inf
ROOT
ATOM      1  C   UNL     1      40.388  56.943  46.121  1.00  0.00     0.000 C 
ENDROOT
BRANCH   1   2
ATOM      2  C   UNL     1      41.342  57.918  45.409  1.00  0.00     0.000 C 
BRANCH   2   3
ATOM      3  C   UNL     1      42.475  57.196  44.660  1.00  0.00     0.000 C 
BRANCH   3   4
ATOM      4  C   UNL     1      43.864  57.761  44.995  1.00  0.00     0.000 C 
BRANCH   4   5
ATOM      5  C   UNL     1      43.947  58.172  46.473  1.00  0.00     0.000 C 
BRANCH   5   6
ATOM      6  C   UNL     1      44.234  56.985  47.404  1.00  0.00     0.006 C 
BRANCH   6   7
ATOM      7  C   UNL     1      44.175  57.369  48.888  1.00  0.00     0.053 C 
BRANCH   7   8
ATOM      8  C   UNL     1      45.516  57.831  49.363  1.00  0.00     0.041 C 
ATOM      9  O   UNL     1      46.541  57.636  48.658  1.00  0.00    -0.550 OA
ATOM     10  O   UNL     1      45.629  58.518  50.565  1.00  0.00    -0.550 OA
ENDBRANCH   7   8
ENDBRANCH   6   7
ENDBRANCH   5   6
ENDBRANCH   4   5
ENDBRANCH   3   4
ENDBRANCH   2   3
ENDBRANCH   1   2
BRANCH   1  11
ATOM     11  C   UNL     1      40.675  56.832  47.627  1.00  0.00     0.000 C 
BRANCH  11  12
ATOM     12  C   UNL     1      40.124  58.026  48.427  1.00  0.00     0.000 C 
BRANCH  12  13
ATOM     13  C   UNL     1      41.238  58.874  49.061  1.00  0.00     0.000 C 
BRANCH  13  14
ATOM     14  C   UNL     1      41.600  60.104  48.209  1.00  0.00     0.000 C 
BRANCH  14  15
ATOM     15  C   UNL     1      41.895  61.348  49.063  1.00  0.00     0.000 C 
BRANCH  15  16
ATOM     16  C   UNL     1      43.298  61.312  49.693  1.00  0.00     0.006 C 
BRANCH  16  17
ATOM     17  C   UNL     1      44.394  61.050  48.651  1.00  0.00     0.053 C 
BRANCH  17  18
ATOM     18  C   UNL     1      45.652  61.799  48.964  1.00  0.00     0.041 C 
ATOM     19  O   UNL     1      46.424  61.391  49.874  1.00  0.00    -0.550 OA
ATOM     20  O   UNL     1      45.985  62.934  48.236  1.00  0.00    -0.550 OA
ENDBRANCH  17  18
ENDBRANCH  16  17
ENDBRANCH  15  16
ENDBRANCH  14  15
ENDBRANCH  13  14
ENDBRANCH  12  13
ENDBRANCH  11  12
ENDBRANCH   1  11
TORSDOF 15
ENDMDL
MODEL 3
REMARK VINA RESULT:    -4.430      3.000      5.780
REMARK INTER + INTRA:         -10.117
REMARK INTER:                  -8.514
REMARK INTRA:                  -1.603
REMARK UNBOUND:                -1.802
REMARK SMILES O=C([O-])CCCCCCCCCCCCCCC(=O)[O-]
REMARK SMILES IDX 10 1 9 2 8 3 7 4 6 5 5 6 4 7 2 8 1 9 3 10 11 11 12 12 13 13
REMARK SMILES IDX 14 14 15 15 16 16 17 17 18 18 19 19 20 20
REMARK H PARENT
REMARK Flexibility Score: inf
ROOT
ATOM      1  C   UNL     1      39.551  57.612  48.172  1.00  0.00     0.000 C 
ENDROOT
BRANCH   1   2
ATOM      2  C   UNL     1      40.218  57.993  49.505  1.00  0.00     0.000 C 
BRANCH   2   3
ATOM      3  C   UNL     1      41.539  58.756  49.308  1.00  0.00     0.000 C 
BRANCH   3   4
ATOM      4  C   UNL     1      41.414  59.914  48.306  1.00  0.00     0.000 C 
BRANCH   4   5
ATOM      5  C   UNL     1      41.960  61.219  48.904  1.00  0.00     0.000 C 
BRANCH   5   6
ATOM      6  C   UNL     1      43.309  61.029  49.613  1.00  0.00     0.006 C 
BRANCH   6   7
ATOM      7  C   UNL     1      44.142  62.317  49.654  1.00  0.00     0.053 C 
BRANCH   7   8
ATOM      8  C   UNL     1      45.524  62.063  49.138  1.00  0.00     0.041 C 
ATOM      9  O   UNL     1      46.199  61.099  49.582  1.00  0.00    -0.550 OA
ATOM     10  O   UNL     1      46.048  62.866  48.133  1.00  0.00    -0.550 OA
ENDBRANCH   7   8
ENDBRANCH   6   7
ENDBRANCH   5   6
ENDBRANCH   4   5
ENDBRANCH   3   4
ENDBRANCH   2   3
ENDBRANCH   1   2
BRANCH   1  11
ATOM     11  C   UNL     1      40.404  56.637  47.344  1.00  0.00     0.000 C 
BRANCH  11  12
ATOM     12  C   UNL     1      40.382  56.959  45.839  1.00  0.00     0.000 C 
BRANCH  12  13
ATOM     13  C   UNL     1      41.491  57.943  45.432  1.00  0.00     0.000 C 
BRANCH  13  14
ATOM     14  C   UNL     1      42.671  57.244  44.734  1.00  0.00     0.000 C 
BRANCH  14  15
ATOM     15  C   UNL     1      44.032  57.827  45.149  1.00  0.00     0.000 C 
BRANCH  15  16
ATOM     16  C   UNL     1      44.047  58.313  46.609  1.00  0.00     0.006 C 
BRANCH  16  17
ATOM     17  C   UNL     1      44.355  57.176  47.593  1.00  0.00     0.053 C 
BRANCH  17  18
ATOM     18  C   UNL     1      45.308  57.611  48.665  1.00  0.00     0.041 C 
ATOM     19  O   UNL     1      44.891  58.274  49.652  1.00  0.00    -0.550 OA
ATOM     20  O   UNL     1      46.650  57.262  48.586  1.00  0.00    -0.550 OA
ENDBRANCH  17  18
ENDBRANCH  16  17
ENDBRANCH  15  16
ENDBRANCH  14  15
ENDBRANCH  13  14
ENDBRANCH  12  13
ENDBRANCH  11  12
ENDBRANCH   1  11
TORSDOF 15
ENDMDL
MODEL 4
REMARK VINA RESULT:    -4.389      0.481      4.195
REMARK INTER + INTRA:         -10.041
REMARK INTER:                  -8.044
REMARK INTRA:                  -1.997
REMARK UNBOUND:                -1.802
REMARK SMILES O=C([O-])CCCCCCCCCCCCCCC(=O)[O-]
REMARK SMILES IDX 10 1 9 2 8 3 7 4 6 5 5 6 4 7 2 8 1 9 3 10 11 11 12 12 13 13
REMARK SMILES IDX 14 14 15 15 16 16 17 17 18 18 19 19 20 20
REMARK H PARENT
REMARK Flexibility Score: inf
ROOT
ATOM      1  C   UNL     1      44.225  60.530  48.770  1.00  0.00     0.000 C 
ENDROOT
BRANCH   1   2
ATOM      2  C   UNL     1      42.831  60.852  49.336  1.00  0.00     0.000 C 
BRANCH   2   3
ATOM      3  C   UNL     1      41.728  59.967  48.732  1.00  0.00     0.000 C 
BRANCH   3   4
ATOM      4  C   UNL     1      41.652  58.580  49.388  1.00  0.00     0.000 C 
BRANCH   4   5
ATOM      5  C   UNL     1      40.194  58.120  49.532  1.00  0.00     0.000 C 
BRANCH   5   6
ATOM      6  C   UNL     1      39.667  57.412  48.275  1.00  0.00     0.006 C 
BRANCH   6   7
ATOM      7  C   UNL     1      40.570  56.257  47.823  1.00  0.00     0.053 C 
BRANCH   7   8
ATOM      8  C   UNL     1      39.793  55.273  47.007  1.00  0.00     0.041 C 
ATOM      9  O   UNL     1      39.256  55.630  45.926  1.00  0.00    -0.550 OA
ATOM     10  O   UNL     1      39.698  53.950  47.420  1.00  0.00    -0.550 OA
ENDBRANCH   7   8
ENDBRANCH   6   7
ENDBRANCH   5   6
ENDBRANCH   4   5
ENDBRANCH   3   4
ENDBRANCH   2   3
ENDBRANCH   1   2
BRANCH   1  11
ATOM     11  C   UNL     1      45.172  59.947  49.832  1.00  0.00     0.000 C 
BRANCH  11  12
ATOM     12  C   UNL     1      45.184  58.408  49.837  1.00  0.00     0.000 C 
BRANCH  12  13
ATOM     13  C   UNL     1      46.143  57.825  48.786  1.00  0.00     0.000 C 
BRANCH  13  14
ATOM     14  C   UNL     1      45.545  56.610  48.054  1.00  0.00     0.000 C 
BRANCH  14  15
ATOM     15  C   UNL     1      44.144  56.892  47.488  1.00  0.00     0.000 C 
BRANCH  15  16
ATOM     16  C   UNL     1      44.179  57.824  46.265  1.00  0.00     0.006 C 
BRANCH  16  17
ATOM     17  C   UNL     1      42.807  58.450  45.976  1.00  0.00     0.053 C 
BRANCH  17  18
ATOM     18  C   UNL     1      42.076  57.714  44.894  1.00  0.00     0.041 C 
ATOM     19  O   UNL     1      40.857  57.951  44.678  1.00  0.00    -0.550 OA
ATOM     20  O   UNL     1      42.748  56.786  44.108  1.00  0.00    -0.550 OA
ENDBRANCH  17  18
ENDBRANCH  16  17
ENDBRANCH  15  16
ENDBRANCH  14  15
ENDBRANCH  13  14
ENDBRANCH  12  13
ENDBRANCH  11  12
ENDBRANCH   1  11
TORSDOF 15
ENDMDL
MODEL 5
REMARK VINA RESULT:    -4.290      3.021      5.257
REMARK INTER + INTRA:          -9.855
REMARK INTER:                  -7.869
REMARK INTRA:                  -1.986
REMARK UNBOUND:                -1.802
REMARK SMILES O=C([O-])CCCCCCCCCCCCCCC(=O)[O-]
REMARK SMILES IDX 10 1 9 2 8 3 7 4 6 5 5 6 4 7 2 8 1 9 3 10 11 11 12 12 13 13
REMARK SMILES IDX 14 14 15 15 16 16 17 17 18 18 19 19 20 20
REMARK H PARENT
REMARK Flexibility Score: inf
ROOT
ATOM      1  C   UNL     1      42.397  57.141  44.609  1.00  0.00     0.000 C 
ENDROOT
BRANCH   1   2
ATOM      2  C   UNL     1      43.820  57.645  44.909  1.00  0.00     0.000 C 
BRANCH   2   3
ATOM      3  C   UNL     1      44.046  57.924  46.404  1.00  0.00     0.000 C 
BRANCH   3   4
ATOM      4  C   UNL     1      44.117  56.640  47.245  1.00  0.00     0.000 C 
BRANCH   4   5
ATOM      5  C   UNL     1      45.472  56.526  47.958  1.00  0.00     0.000 C 
BRANCH   5   6
ATOM      6  C   UNL     1      45.846  57.799  48.733  1.00  0.00     0.006 C 
BRANCH   6   7
ATOM      7  C   UNL     1      44.978  58.009  49.980  1.00  0.00     0.053 C 
BRANCH   7   8
ATOM      8  C   UNL     1      45.711  58.829  50.995  1.00  0.00     0.041 C 
ATOM      9  O   UNL     1      46.025  60.020  50.741  1.00  0.00    -0.550 OA
ATOM     10  O   UNL     1      46.008  58.289  52.240  1.00  0.00    -0.550 OA
ENDBRANCH   7   8
ENDBRANCH   6   7
ENDBRANCH   5   6
ENDBRANCH   4   5
ENDBRANCH   3   4
ENDBRANCH   2   3
ENDBRANCH   1   2
BRANCH   1  11
ATOM     11  C   UNL     1      41.316  57.976  45.315  1.00  0.00     0.000 C 
BRANCH  11  12
ATOM     12  C   UNL     1      40.202  57.108  45.927  1.00  0.00     0.000 C 
BRANCH  12  13
ATOM     13  C   UNL     1      40.488  56.730  47.390  1.00  0.00     0.000 C 
BRANCH  13  14
ATOM     14  C   UNL     1      39.476  57.355  48.367  1.00  0.00     0.000 C 
BRANCH  14  15
ATOM     15  C   UNL     1      40.156  58.173  49.478  1.00  0.00     0.000 C 
BRANCH  15  16
ATOM     16  C   UNL     1      41.594  58.581  49.114  1.00  0.00     0.006 C 
BRANCH  16  17
ATOM     17  C   UNL     1      41.657  59.983  48.492  1.00  0.00     0.053 C 
BRANCH  17  18
ATOM     18  C   UNL     1      42.902  60.714  48.893  1.00  0.00     0.041 C 
ATOM     19  O   UNL     1      43.926  60.675  48.157  1.00  0.00    -0.550 OA
ATOM     20  O   UNL     1      42.925  61.459  50.065  1.00  0.00    -0.550 OA
ENDBRANCH  17  18
ENDBRANCH  16  17
ENDBRANCH  15  16
ENDBRANCH  14  15
ENDBRANCH  13  14
ENDBRANCH  12  13
ENDBRANCH  11  12
ENDBRANCH   1  11
TORSDOF 15
ENDMDL
MODEL 6
REMARK VINA RESULT:    -4.290      3.189      6.117
REMARK INTER + INTRA:          -9.854
REMARK INTER:                  -8.121
REMARK INTRA:                  -1.733
REMARK UNBOUND:                -1.802
REMARK SMILES O=C([O-])CCCCCCCCCCCCCCC(=O)[O-]
REMARK SMILES IDX 10 1 9 2 8 3 7 4 6 5 5 6 4 7 2 8 1 9 3 10 11 11 12 12 13 13
REMARK SMILES IDX 14 14 15 15 16 16 17 17 18 18 19 19 20 20
REMARK H PARENT
REMARK Flexibility Score: inf
ROOT
ATOM      1  C   UNL     1      41.316  57.853  45.133  1.00  0.00     0.000 C 
ENDROOT
BRANCH   1   2
ATOM      2  C   UNL     1      40.316  56.936  45.858  1.00  0.00     0.000 C 
BRANCH   2   3
ATOM      3  C   UNL     1      40.626  56.789  47.357  1.00  0.00     0.000 C 
BRANCH   3   4
ATOM      4  C   UNL     1      39.838  57.780  48.227  1.00  0.00     0.000 C 
BRANCH   4   5
ATOM      5  C   UNL     1      40.548  58.016  49.569  1.00  0.00     0.000 C 
BRANCH   5   6
ATOM      6  C   UNL     1      41.932  58.661  49.403  1.00  0.00     0.006 C 
BRANCH   6   7
ATOM      7  C   UNL     1      41.873  60.015  48.685  1.00  0.00     0.053 C 
BRANCH   7   8
ATOM      8  C   UNL     1      42.993  60.898  49.140  1.00  0.00     0.041 C 
ATOM      9  O   UNL     1      42.846  61.642  50.144  1.00  0.00    -0.550 OA
ATOM     10  O   UNL     1      44.215  60.865  48.480  1.00  0.00    -0.550 OA
ENDBRANCH   7   8
ENDBRANCH   6   7
ENDBRANCH   5   6
ENDBRANCH   4   5
ENDBRANCH   3   4
ENDBRANCH   2   3
ENDBRANCH   1   2
BRANCH   1  11
ATOM     11  C   UNL     1      42.556  57.094  44.632  1.00  0.00     0.000 C 
BRANCH  11  12
ATOM     12  C   UNL     1      43.871  57.822  44.962  1.00  0.00     0.000 C 
BRANCH  12  13
ATOM     13  C   UNL     1      44.043  58.074  46.468  1.00  0.00     0.000 C 
BRANCH  13  14
ATOM     14  C   UNL     1      44.079  56.768  47.283  1.00  0.00     0.000 C 
BRANCH  14  15
ATOM     15  C   UNL     1      45.415  56.568  48.019  1.00  0.00     0.000 C 
BRANCH  15  16
ATOM     16  C   UNL     1      45.888  57.841  48.740  1.00  0.00     0.006 C 
BRANCH  16  17
ATOM     17  C   UNL     1      46.515  57.532  50.106  1.00  0.00     0.053 C 
BRANCH  17  18
ATOM     18  C   UNL     1      46.001  58.448  51.175  1.00  0.00     0.041 C 
ATOM     19  O   UNL     1      45.670  59.631  50.891  1.00  0.00    -0.550 OA
ATOM     20  O   UNL     1      45.862  57.987  52.478  1.00  0.00    -0.550 OA
ENDBRANCH  17  18
ENDBRANCH  16  17
ENDBRANCH  15  16
ENDBRANCH  14  15
ENDBRANCH  13  14
ENDBRANCH  12  13
ENDBRANCH  11  12
ENDBRANCH   1  11
TORSDOF 15
ENDMDL
MODEL 7
REMARK VINA RESULT:    -4.239      2.334      3.837
REMARK INTER + INTRA:          -9.758
REMARK INTER:                  -7.419
REMARK INTRA:                  -2.339
REMARK UNBOUND:                -1.802
REMARK SMILES O=C([O-])CCCCCCCCCCCCCCC(=O)[O-]
REMARK SMILES IDX 10 1 9 2 8 3 7 4 6 5 5 6 4 7 2 8 1 9 3 10 11 11 12 12 13 13
REMARK SMILES IDX 14 14 15 15 16 16 17 17 18 18 19 19 20 20
REMARK H PARENT
REMARK Flexibility Score: inf
ROOT
ATOM      1  C   UNL     1      43.547  57.167  46.513  1.00  0.00     0.000 C 
ENDROOT
BRANCH   1   2
ATOM      2  C   UNL     1      44.064  56.867  47.931  1.00  0.00     0.000 C 
BRANCH   2   3
ATOM      3  C   UNL     1      45.599  56.799  47.999  1.00  0.00     0.000 C 
BRANCH   3   4
ATOM      4  C   UNL     1      46.202  57.877  48.913  1.00  0.00     0.000 C 
BRANCH   4   5
ATOM      5  C   UNL     1      45.217  58.267  50.025  1.00  0.00     0.000 C 
BRANCH   5   6
ATOM      6  C   UNL     1      44.805  59.745  49.964  1.00  0.00     0.006 C 
BRANCH   6   7
ATOM      7  C   UNL     1      45.928  60.651  49.444  1.00  0.00     0.053 C 
BRANCH   7   8
ATOM      8  C   UNL     1      45.388  62.000  49.086  1.00  0.00     0.041 C 
ATOM      9  O   UNL     1      46.069  62.790  48.380  1.00  0.00    -0.550 OA
ATOM     10  O   UNL     1      44.113  62.369  49.498  1.00  0.00    -0.550 OA
ENDBRANCH   7   8
ENDBRANCH   6   7
ENDBRANCH   5   6
ENDBRANCH   4   5
ENDBRANCH   3   4
ENDBRANCH   2   3
ENDBRANCH   1   2
BRANCH   1  11
ATOM     11  C   UNL     1      44.147  58.456  45.928  1.00  0.00     0.000 C 
BRANCH  11  12
ATOM     12  C   UNL     1      43.648  59.723  46.645  1.00  0.00     0.000 C 
BRANCH  12  13
ATOM     13  C   UNL     1      42.126  59.718  46.858  1.00  0.00     0.000 C 
BRANCH  13  14
ATOM     14  C   UNL     1      41.733  60.060  48.306  1.00  0.00     0.000 C 
BRANCH  14  15
ATOM     15  C   UNL     1      41.346  58.816  49.123  1.00  0.00     0.000 C 
BRANCH  15  16
ATOM     16  C   UNL     1      40.117  58.091  48.548  1.00  0.00     0.006 C 
BRANCH  16  17
ATOM     17  C   UNL     1      40.403  56.612  48.254  1.00  0.00     0.053 C 
BRANCH  17  18
ATOM     18  C   UNL     1      40.054  56.248  46.844  1.00  0.00     0.041 C 
ATOM     19  O   UNL     1      39.617  55.096  46.576  1.00  0.00    -0.550 OA
ATOM     20  O   UNL     1      40.187  57.187  45.829  1.00  0.00    -0.550 OA
ENDBRANCH  17  18
ENDBRANCH  16  17
ENDBRANCH  15  16
ENDBRANCH  14  15
ENDBRANCH  13  14
ENDBRANCH  12  13
ENDBRANCH  11  12
ENDBRANCH   1  11
TORSDOF 15
ENDMDL
MODEL 8
REMARK VINA RESULT:    -4.195      2.700      6.169
REMARK INTER + INTRA:          -9.676
REMARK INTER:                  -7.974
REMARK INTRA:                  -1.703
REMARK UNBOUND:                -1.802
REMARK SMILES O=C([O-])CCCCCCCCCCCCCCC(=O)[O-]
REMARK SMILES IDX 10 1 9 2 8 3 7 4 6 5 5 6 4 7 2 8 1 9 3 10 11 11 12 12 13 13
REMARK SMILES IDX 14 14 15 15 16 16 17 17 18 18 19 19 20 20
REMARK H PARENT
REMARK Flexibility Score: inf
ROOT
ATOM      1  C   UNL     1      43.878  57.799  45.019  1.00  0.00     0.000 C 
ENDROOT
BRANCH   1   2
ATOM      2  C   UNL     1      42.571  56.999  44.870  1.00  0.00     0.000 C 
BRANCH   2   3
ATOM      3  C   UNL     1      41.332  57.809  45.285  1.00  0.00     0.000 C 
BRANCH   3   4
ATOM      4  C   UNL     1      40.348  56.994  46.139  1.00  0.00     0.000 C 
BRANCH   4   5
ATOM      5  C   UNL     1      40.836  56.893  47.592  1.00  0.00     0.000 C 
BRANCH   5   6
ATOM      6  C   UNL     1      40.365  58.069  48.460  1.00  0.00     0.006 C 
BRANCH   6   7
ATOM      7  C   UNL     1      41.519  58.759  49.198  1.00  0.00     0.053 C 
BRANCH   7   8
ATOM      8  C   UNL     1      41.761  60.123  48.631  1.00  0.00     0.041 C 
ATOM      9  O   UNL     1      41.864  60.284  47.387  1.00  0.00    -0.550 OA
ATOM     10  O   UNL     1      41.830  61.224  49.476  1.00  0.00    -0.550 OA
ENDBRANCH   7   8
ENDBRANCH   6   7
ENDBRANCH   5   6
ENDBRANCH   4   5
ENDBRANCH   3   4
ENDBRANCH   2   3
ENDBRANCH   1   2
BRANCH   1  11
ATOM     11  C   UNL     1      44.158  58.203  46.475  1.00  0.00     0.000 C 
BRANCH  11  12
ATOM     12  C   UNL     1      44.166  56.999  47.434  1.00  0.00     0.000 C 
BRANCH  12  13
ATOM     13  C   UNL     1      45.564  56.708  48.003  1.00  0.00     0.000 C 
BRANCH  13  14
ATOM     14  C   UNL     1      46.120  57.883  48.828  1.00  0.00     0.000 C 
BRANCH  14  15
ATOM     15  C   UNL     1      45.176  58.304  49.967  1.00  0.00     0.000 C 
BRANCH  15  16
ATOM     16  C   UNL     1      45.042  59.831  50.088  1.00  0.00     0.006 C 
BRANCH  16  17
ATOM     17  C   UNL     1      45.564  60.558  48.841  1.00  0.00     0.053 C 
BRANCH  17  18
ATOM     18  C   UNL     1      45.364  62.040  48.936  1.00  0.00     0.041 C 
ATOM     19  O   UNL     1      44.380  62.508  49.570  1.00  0.00    -0.550 OA
ATOM     20  O   UNL     1      46.277  62.904  48.346  1.00  0.00    -0.550 OA
ENDBRANCH  17  18
ENDBRANCH  16  17
ENDBRANCH  15  16
ENDBRANCH  14  15
ENDBRANCH  13  14
ENDBRANCH  12  13
ENDBRANCH  11  12
ENDBRANCH   1  11
TORSDOF 15
ENDMDL
MODEL 9
REMARK VINA RESULT:    -4.190      2.332      5.804
REMARK INTER + INTRA:          -9.666
REMARK INTER:                  -7.492
REMARK INTRA:                  -2.174
REMARK UNBOUND:                -1.802
REMARK SMILES O=C([O-])CCCCCCCCCCCCCCC(=O)[O-]
REMARK SMILES IDX 10 1 9 2 8 3 7 4 6 5 5 6 4 7 2 8 1 9 3 10 11 11 12 12 13 13
REMARK SMILES IDX 14 14 15 15 16 16 17 17 18 18 19 19 20 20
REMARK H PARENT
REMARK Flexibility Score: inf
ROOT
ATOM      1  C   UNL     1      42.810  58.538  45.930  1.00  0.00     0.000 C 
ENDROOT
BRANCH   1   2
ATOM      2  C   UNL     1      43.116  59.688  46.905  1.00  0.00     0.000 C 
BRANCH   2   3
ATOM      3  C   UNL     1      41.888  60.110  47.728  1.00  0.00     0.000 C 
BRANCH   3   4
ATOM      4  C   UNL     1      41.921  59.571  49.166  1.00  0.00     0.000 C 
BRANCH   4   5
ATOM      5  C   UNL     1      41.212  58.212  49.258  1.00  0.00     0.000 C 
BRANCH   5   6
ATOM      6  C   UNL     1      39.959  58.133  48.373  1.00  0.00     0.006 C 
BRANCH   6   7
ATOM      7  C   UNL     1      39.342  56.729  48.343  1.00  0.00     0.053 C 
BRANCH   7   8
ATOM      8  C   UNL     1      39.783  55.990  47.119  1.00  0.00     0.041 C 
ATOM      9  O   UNL     1      40.322  56.607  46.165  1.00  0.00    -0.550 OA
ATOM     10  O   UNL     1      39.637  54.609  47.052  1.00  0.00    -0.550 OA
ENDBRANCH   7   8
ENDBRANCH   6   7
ENDBRANCH   5   6
ENDBRANCH   4   5
ENDBRANCH   3   4
ENDBRANCH   2   3
ENDBRANCH   1   2
BRANCH   1  11
ATOM     11  C   UNL     1      43.769  57.349  46.102  1.00  0.00     0.000 C 
BRANCH  11  12
ATOM     12  C   UNL     1      43.911  56.908  47.569  1.00  0.00     0.000 C 
BRANCH  12  13
ATOM     13  C   UNL     1      45.371  56.630  47.961  1.00  0.00     0.000 C 
BRANCH  13  14
ATOM     14  C   UNL     1      46.016  57.810  48.709  1.00  0.00     0.000 C 
BRANCH  14  15
ATOM     15  C   UNL     1      45.242  58.198  49.980  1.00  0.00     0.000 C 
BRANCH  15  16
ATOM     16  C   UNL     1      45.182  59.720  50.194  1.00  0.00     0.006 C 
BRANCH  16  17
ATOM     17  C   UNL     1      45.722  60.495  48.984  1.00  0.00     0.053 C 
BRANCH  17  18
ATOM     18  C   UNL     1      45.307  61.934  49.015  1.00  0.00     0.041 C 
ATOM     19  O   UNL     1      44.218  62.269  49.554  1.00  0.00    -0.550 OA
ATOM     20  O   UNL     1      46.134  62.909  48.471  1.00  0.00    -0.550 OA
ENDBRANCH  17  18
ENDBRANCH  16  17
ENDBRANCH  15  16
ENDBRANCH  14  15
ENDBRANCH  13  14
ENDBRANCH  12  13
ENDBRANCH  11  12
ENDBRANCH   1  11
TORSDOF 15
ENDMDL
