MODEL 1
REMARK VINA RESULT:    -4.838      0.000      0.000
REMARK INTER + INTRA:          -7.984
REMARK INTER:                  -6.534
REMARK INTRA:                  -1.449
REMARK UNBOUND:                -1.449
REMARK SMILES C=CC(C)=CCC=C(C)CCC=C(C)C
REMARK SMILES IDX 8 1 7 2 9 3 10 4 11 5 12 6 14 7 13 8 15 9 6 10 5 11 3 12
REMARK SMILES IDX 4 13 2 14 1 15
REMARK H PARENT
REMARK Flexibility Score: inf
ROOT
ATOM      1  C   UNL     1     144.325 141.987 133.837  1.00  0.00    -0.077 C 
ATOM      2  C   UNL     1     143.778 142.244 135.045  1.00  0.00    -0.024 C 
ATOM      3  C   UNL     1     144.317 143.017 132.732  1.00  0.00     0.039 C 
ENDROOT
BRANCH   1   4
ATOM      4  C   UNL     1     144.952 140.632 133.582  1.00  0.00     0.034 C 
BRANCH   4   5
ATOM      5  C   UNL     1     144.084 139.770 132.657  1.00  0.00     0.032 C 
BRANCH   5   6
ATOM      6  C   UNL     1     143.308 138.741 133.446  1.00  0.00    -0.028 C 
ATOM      7  C   UNL     1     141.200 140.096 133.495  1.00  0.00     0.039 C 
ATOM      8  C   UNL     1     142.010 138.860 133.807  1.00  0.00    -0.080 C 
ATOM      9  C   UNL     1     141.362 137.716 134.542  1.00  0.00     0.039 C 
ENDBRANCH   5   6
ENDBRANCH   4   5
ENDBRANCH   1   4
BRANCH   2  10
ATOM     10  C   UNL     1     143.117 143.557 135.386  1.00  0.00     0.055 C 
BRANCH  10  11
ATOM     11  C   UNL     1     141.619 143.449 135.295  1.00  0.00    -0.020 C 
ATOM     12  C   UNL     1     140.850 144.157 134.443  1.00  0.00    -0.055 C 
ATOM     13  C   UNL     1     141.445 145.140 133.459  1.00  0.00     0.044 C 
BRANCH  12  14
ATOM     14  C   UNL     1     139.388 143.890 134.442  1.00  0.00    -0.005 C 
ATOM     15  C   UNL     1     138.786 143.074 135.308  1.00  0.00     0.009 C 
ENDBRANCH  12  14
ENDBRANCH  10  11
ENDBRANCH   2  10
TORSDOF 6
ENDMDL
MODEL 2
REMARK VINA RESULT:    -4.836      2.159      6.318
REMARK INTER + INTRA:          -7.982
REMARK INTER:                  -6.523
REMARK INTRA:                  -1.459
REMARK UNBOUND:                -1.449
REMARK SMILES C=CC(C)=CCC=C(C)CCC=C(C)C
REMARK SMILES IDX 8 1 7 2 9 3 10 4 11 5 12 6 14 7 13 8 15 9 6 10 5 11 3 12
REMARK SMILES IDX 4 13 2 14 1 15
REMARK H PARENT
REMARK Flexibility Score: inf
ROOT
ATOM      1  C   UNL     1     137.894 140.132 133.916  1.00  0.00    -0.077 C 
ATOM      2  C   UNL     1     138.459 139.878 135.117  1.00  0.00    -0.024 C 
ATOM      3  C   UNL     1     137.932 139.119 132.797  1.00  0.00     0.039 C 
ENDROOT
BRANCH   1   4
ATOM      4  C   UNL     1     137.216 141.467 133.686  1.00  0.00     0.034 C 
BRANCH   4   5
ATOM      5  C   UNL     1     138.027 142.360 132.739  1.00  0.00     0.032 C 
BRANCH   5   6
ATOM      6  C   UNL     1     138.820 143.389 133.510  1.00  0.00    -0.028 C 
ATOM      7  C   UNL     1     140.951 142.071 133.444  1.00  0.00     0.039 C 
ATOM      8  C   UNL     1     140.135 143.287 133.811  1.00  0.00    -0.080 C 
ATOM      9  C   UNL     1     140.795 144.431 134.537  1.00  0.00     0.039 C 
ENDBRANCH   5   6
ENDBRANCH   4   5
ENDBRANCH   1   4
BRANCH   2  10
ATOM     10  C   UNL     1     139.170 138.585 135.434  1.00  0.00     0.055 C 
BRANCH  10  11
ATOM     11  C   UNL     1     140.661 138.737 135.291  1.00  0.00    -0.020 C 
ATOM     12  C   UNL     1     141.420 138.055 134.409  1.00  0.00    -0.055 C 
ATOM     13  C   UNL     1     140.819 137.059 133.442  1.00  0.00     0.044 C 
BRANCH  12  14
ATOM     14  C   UNL     1     142.873 138.365 134.359  1.00  0.00    -0.005 C 
ATOM     15  C   UNL     1     143.469 139.243 135.166  1.00  0.00     0.009 C 
ENDBRANCH  12  14
ENDBRANCH  10  11
ENDBRANCH   2  10
TORSDOF 6
ENDMDL
MODEL 3
REMARK VINA RESULT:    -4.836      1.646      3.621
REMARK INTER + INTRA:          -7.982
REMARK INTER:                  -7.179
REMARK INTRA:                  -0.802
REMARK UNBOUND:                -1.449
REMARK SMILES C=CC(C)=CCC=C(C)CCC=C(C)C
REMARK SMILES IDX 8 1 7 2 9 3 10 4 11 5 12 6 14 7 13 8 15 9 6 10 5 11 3 12
REMARK SMILES IDX 4 13 2 14 1 15
REMARK H PARENT
REMARK Flexibility Score: inf
ROOT
ATOM      1  C   UNL     1     143.184 138.751 133.829  1.00  0.00    -0.077 C 
ATOM      2  C   UNL     1     143.901 139.693 133.179  1.00  0.00    -0.024 C 
ATOM      3  C   UNL     1     143.131 138.702 135.337  1.00  0.00     0.039 C 
ENDROOT
BRANCH   1   4
ATOM      4  C   UNL     1     142.423 137.716 133.027  1.00  0.00     0.034 C 
BRANCH   4   5
ATOM      5  C   UNL     1     141.149 137.260 133.750  1.00  0.00     0.032 C 
BRANCH   5   6
ATOM      6  C   UNL     1     139.948 138.047 133.279  1.00  0.00    -0.028 C 
ATOM      7  C   UNL     1     139.226 138.687 135.593  1.00  0.00     0.039 C 
ATOM      8  C   UNL     1     139.093 138.713 134.089  1.00  0.00    -0.080 C 
ATOM      9  C   UNL     1     137.976 139.502 133.458  1.00  0.00     0.039 C 
ENDBRANCH   5   6
ENDBRANCH   4   5
ENDBRANCH   1   4
BRANCH   2  10
ATOM     10  C   UNL     1     144.704 140.753 133.892  1.00  0.00     0.055 C 
BRANCH  10  11
ATOM     11  C   UNL     1     143.827 141.898 134.322  1.00  0.00    -0.020 C 
ATOM     12  C   UNL     1     143.639 143.029 133.612  1.00  0.00    -0.055 C 
ATOM     13  C   UNL     1     144.300 143.247 132.268  1.00  0.00     0.044 C 
BRANCH  12  14
ATOM     14  C   UNL     1     142.696 144.042 134.154  1.00  0.00    -0.005 C 
ATOM     15  C   UNL     1     141.816 144.707 133.405  1.00  0.00     0.009 C 
ENDBRANCH  12  14
ENDBRANCH  10  11
ENDBRANCH   2  10
TORSDOF 6
ENDMDL
MODEL 4
REMARK VINA RESULT:    -4.815      1.341      2.317
REMARK INTER + INTRA:          -7.953
REMARK INTER:                  -7.198
REMARK INTRA:                  -0.755
REMARK UNBOUND:                -1.449
REMARK SMILES C=CC(C)=CCC=C(C)CCC=C(C)C
REMARK SMILES IDX 8 1 7 2 9 3 10 4 11 5 12 6 14 7 13 8 15 9 6 10 5 11 3 12
REMARK SMILES IDX 4 13 2 14 1 15
REMARK H PARENT
REMARK Flexibility Score: inf
ROOT
ATOM      1  C   UNL     1     143.355 143.322 134.019  1.00  0.00    -0.077 C 
ATOM      2  C   UNL     1     142.387 144.015 133.380  1.00  0.00    -0.024 C 
ATOM      3  C   UNL     1     143.400 143.238 135.526  1.00  0.00     0.039 C 
ENDROOT
BRANCH   1   4
ATOM      4  C   UNL     1     144.423 142.622 133.204  1.00  0.00     0.034 C 
BRANCH   4   5
ATOM      5  C   UNL     1     144.898 141.331 133.882  1.00  0.00     0.032 C 
BRANCH   5   6
ATOM      6  C   UNL     1     144.249 140.119 133.254  1.00  0.00    -0.028 C 
ATOM      7  C   UNL     1     143.493 139.158 135.442  1.00  0.00     0.039 C 
ATOM      8  C   UNL     1     143.594 139.152 133.935  1.00  0.00    -0.080 C 
ATOM      9  C   UNL     1     142.949 138.037 133.154  1.00  0.00     0.039 C 
ENDBRANCH   5   6
ENDBRANCH   4   5
ENDBRANCH   1   4
BRANCH   2  10
ATOM     10  C   UNL     1     141.292 144.757 134.106  1.00  0.00     0.055 C 
BRANCH  10  11
ATOM     11  C   UNL     1     140.170 143.831 134.489  1.00  0.00    -0.020 C 
ATOM     12  C   UNL     1     139.111 143.543 133.705  1.00  0.00    -0.055 C 
ATOM     13  C   UNL     1     138.961 144.133 132.319  1.00  0.00     0.044 C 
BRANCH  12  14
ATOM     14  C   UNL     1     138.117 142.562 134.212  1.00  0.00    -0.005 C 
ATOM     15  C   UNL     1     137.388 141.773 133.422  1.00  0.00     0.009 C 
ENDBRANCH  12  14
ENDBRANCH  10  11
ENDBRANCH   2  10
TORSDOF 6
ENDMDL
MODEL 5
REMARK VINA RESULT:    -4.813      1.685      4.421
REMARK INTER + INTRA:          -7.950
REMARK INTER:                  -6.477
REMARK INTRA:                  -1.473
REMARK UNBOUND:                -1.449
REMARK SMILES C=CC(C)=CCC=C(C)CCC=C(C)C
REMARK SMILES IDX 8 1 7 2 9 3 10 4 11 5 12 6 14 7 13 8 15 9 6 10 5 11 3 12
REMARK SMILES IDX 4 13 2 14 1 15
REMARK H PARENT
REMARK Flexibility Score: inf
ROOT
ATOM      1  C   UNL     1     142.052 137.890 133.962  1.00  0.00    -0.077 C 
ATOM      2  C   UNL     1     142.304 138.489 135.145  1.00  0.00    -0.024 C 
ATOM      3  C   UNL     1     143.073 137.882 132.849  1.00  0.00     0.039 C 
ENDROOT
BRANCH   1   4
ATOM      4  C   UNL     1     140.712 137.220 133.743  1.00  0.00     0.034 C 
BRANCH   4   5
ATOM      5  C   UNL     1     139.795 138.062 132.847  1.00  0.00     0.032 C 
BRANCH   5   6
ATOM      6  C   UNL     1     138.797 138.841 133.672  1.00  0.00    -0.028 C 
ATOM      7  C   UNL     1     140.085 140.988 133.544  1.00  0.00     0.039 C 
ATOM      8  C   UNL     1     138.899 140.156 133.970  1.00  0.00    -0.080 C 
ATOM      9  C   UNL     1     137.786 140.801 134.755  1.00  0.00     0.039 C 
ENDBRANCH   5   6
ENDBRANCH   4   5
ENDBRANCH   1   4
BRANCH   2  10
ATOM     10  C   UNL     1     143.602 139.196 135.450  1.00  0.00     0.055 C 
BRANCH  10  11
ATOM     11  C   UNL     1     143.465 140.684 135.270  1.00  0.00    -0.020 C 
ATOM     12  C   UNL     1     144.153 141.413 134.369  1.00  0.00    -0.055 C 
ATOM     13  C   UNL     1     145.143 140.779 133.416  1.00  0.00     0.044 C 
BRANCH  12  14
ATOM     14  C   UNL     1     143.859 142.868 134.282  1.00  0.00    -0.005 C 
ATOM     15  C   UNL     1     142.919 143.475 135.007  1.00  0.00     0.009 C 
ENDBRANCH  12  14
ENDBRANCH  10  11
ENDBRANCH   2  10
TORSDOF 6
ENDMDL
MODEL 6
REMARK VINA RESULT:    -4.809      1.945      6.440
REMARK INTER + INTRA:          -7.946
REMARK INTER:                  -7.117
REMARK INTRA:                  -0.829
REMARK UNBOUND:                -1.449
REMARK SMILES C=CC(C)=CCC=C(C)CCC=C(C)C
REMARK SMILES IDX 8 1 7 2 9 3 10 4 11 5 12 6 14 7 13 8 15 9 6 10 5 11 3 12
REMARK SMILES IDX 4 13 2 14 1 15
REMARK H PARENT
REMARK Flexibility Score: inf
ROOT
ATOM      1  C   UNL     1     138.686 139.060 133.805  1.00  0.00    -0.077 C 
ATOM      2  C   UNL     1     139.625 138.329 133.166  1.00  0.00    -0.024 C 
ATOM      3  C   UNL     1     138.606 139.097 135.313  1.00  0.00     0.039 C 
ENDROOT
BRANCH   1   4
ATOM      4  C   UNL     1     137.685 139.853 132.991  1.00  0.00     0.034 C 
BRANCH   4   5
ATOM      5  C   UNL     1     137.213 141.108 133.736  1.00  0.00     0.032 C 
BRANCH   5   6
ATOM      6  C   UNL     1     138.067 142.303 133.380  1.00  0.00    -0.028 C 
ATOM      7  C   UNL     1     138.654 142.826 135.760  1.00  0.00     0.039 C 
ATOM      8  C   UNL     1     138.739 143.066 134.272  1.00  0.00    -0.080 C 
ATOM      9  C   UNL     1     139.598 144.189 133.750  1.00  0.00     0.039 C 
ENDBRANCH   5   6
ENDBRANCH   4   5
ENDBRANCH   1   4
BRANCH   2  10
ATOM     10  C   UNL     1     140.652 137.495 133.892  1.00  0.00     0.055 C 
BRANCH  10  11
ATOM     11  C   UNL     1     141.817 138.337 134.339  1.00  0.00    -0.020 C 
ATOM     12  C   UNL     1     142.951 138.513 133.631  1.00  0.00    -0.055 C 
ATOM     13  C   UNL     1     143.154 137.873 132.275  1.00  0.00     0.044 C 
BRANCH  12  14
ATOM     14  C   UNL     1     143.985 139.423 134.190  1.00  0.00    -0.005 C 
ATOM     15  C   UNL     1     144.698 140.273 133.451  1.00  0.00     0.009 C 
ENDBRANCH  12  14
ENDBRANCH  10  11
ENDBRANCH   2  10
TORSDOF 6
ENDMDL
MODEL 7
REMARK VINA RESULT:    -4.800      1.756      4.462
REMARK INTER + INTRA:          -7.933
REMARK INTER:                  -6.454
REMARK INTRA:                  -1.479
REMARK UNBOUND:                -1.449
REMARK SMILES C=CC(C)=CCC=C(C)CCC=C(C)C
REMARK SMILES IDX 8 1 7 2 9 3 10 4 11 5 12 6 14 7 13 8 15 9 6 10 5 11 3 12
REMARK SMILES IDX 4 13 2 14 1 15
REMARK H PARENT
REMARK Flexibility Score: inf
ROOT
ATOM      1  C   UNL     1     140.251 144.351 133.855  1.00  0.00    -0.077 C 
ATOM      2  C   UNL     1     139.997 143.814 135.068  1.00  0.00    -0.024 C 
ATOM      3  C   UNL     1     139.216 144.343 132.755  1.00  0.00     0.039 C 
ENDROOT
BRANCH   1   4
ATOM      4  C   UNL     1     141.609 144.967 133.590  1.00  0.00     0.034 C 
BRANCH   4   5
ATOM      5  C   UNL     1     142.511 144.027 132.780  1.00  0.00     0.032 C 
BRANCH   5   6
ATOM      6  C   UNL     1     143.456 143.270 133.685  1.00  0.00    -0.028 C 
ATOM      7  C   UNL     1     142.136 141.142 133.597  1.00  0.00     0.039 C 
ATOM      8  C   UNL     1     143.317 141.972 134.039  1.00  0.00    -0.080 C 
ATOM      9  C   UNL     1     144.381 141.346 134.902  1.00  0.00     0.039 C 
ENDBRANCH   5   6
ENDBRANCH   4   5
ENDBRANCH   1   4
BRANCH   2  10
ATOM     10  C   UNL     1     138.680 143.164 135.419  1.00  0.00     0.055 C 
BRANCH  10  11
ATOM     11  C   UNL     1     138.792 141.664 135.395  1.00  0.00    -0.020 C 
ATOM     12  C   UNL     1     138.092 140.857 134.573  1.00  0.00    -0.055 C 
ATOM     13  C   UNL     1     137.112 141.406 133.559  1.00  0.00     0.044 C 
BRANCH  12  14
ATOM     14  C   UNL     1     138.362 139.396 134.637  1.00  0.00    -0.005 C 
ATOM     15  C   UNL     1     139.093 138.740 133.736  1.00  0.00     0.009 C 
ENDBRANCH  12  14
ENDBRANCH  10  11
ENDBRANCH   2  10
TORSDOF 6
ENDMDL
MODEL 8
REMARK VINA RESULT:    -4.776      1.956      5.024
REMARK INTER + INTRA:          -7.901
REMARK INTER:                  -6.845
REMARK INTRA:                  -1.056
REMARK UNBOUND:                -1.449
REMARK SMILES C=CC(C)=CCC=C(C)CCC=C(C)C
REMARK SMILES IDX 8 1 7 2 9 3 10 4 11 5 12 6 14 7 13 8 15 9 6 10 5 11 3 12
REMARK SMILES IDX 4 13 2 14 1 15
REMARK H PARENT
REMARK Flexibility Score: inf
ROOT
ATOM      1  C   UNL     1     143.335 139.063 133.812  1.00  0.00    -0.077 C 
ATOM      2  C   UNL     1     142.570 138.313 132.990  1.00  0.00    -0.024 C 
ATOM      3  C   UNL     1     143.069 139.128 135.297  1.00  0.00     0.039 C 
ENDROOT
BRANCH   1   4
ATOM      4  C   UNL     1     144.479 139.866 133.228  1.00  0.00     0.034 C 
BRANCH   4   5
ATOM      5  C   UNL     1     144.736 141.151 134.025  1.00  0.00     0.032 C 
BRANCH   5   6
ATOM      6  C   UNL     1     143.862 142.280 133.530  1.00  0.00    -0.028 C 
ATOM      7  C   UNL     1     143.272 143.082 135.830  1.00  0.00     0.039 C 
ATOM      8  C   UNL     1     143.221 143.168 134.323  1.00  0.00    -0.080 C 
ATOM      9  C   UNL     1     142.435 144.275 133.670  1.00  0.00     0.039 C 
ENDBRANCH   5   6
ENDBRANCH   4   5
ENDBRANCH   1   4
BRANCH   2  10
ATOM     10  C   UNL     1     141.399 137.494 133.476  1.00  0.00     0.055 C 
BRANCH  10  11
ATOM     11  C   UNL     1     140.104 138.010 132.910  1.00  0.00    -0.020 C 
ATOM     12  C   UNL     1     139.138 138.614 133.632  1.00  0.00    -0.055 C 
ATOM     13  C   UNL     1     139.283 138.850 135.119  1.00  0.00     0.044 C 
BRANCH  12  14
ATOM     14  C   UNL     1     137.941 139.116 132.908  1.00  0.00    -0.005 C 
ATOM     15  C   UNL     1     137.614 138.739 131.672  1.00  0.00     0.009 C 
ENDBRANCH  12  14
ENDBRANCH  10  11
ENDBRANCH   2  10
TORSDOF 6
ENDMDL
MODEL 9
REMARK VINA RESULT:    -4.759      1.234      5.286
REMARK INTER + INTRA:          -7.878
REMARK INTER:                  -6.826
REMARK INTRA:                  -1.053
REMARK UNBOUND:                -1.449
REMARK SMILES C=CC(C)=CCC=C(C)CCC=C(C)C
REMARK SMILES IDX 8 1 7 2 9 3 10 4 11 5 12 6 14 7 13 8 15 9 6 10 5 11 3 12
REMARK SMILES IDX 4 13 2 14 1 15
REMARK H PARENT
REMARK Flexibility Score: inf
ROOT
ATOM      1  C   UNL     1     143.221 143.310 133.861  1.00  0.00    -0.077 C 
ATOM      2  C   UNL     1     143.901 142.459 133.062  1.00  0.00    -0.024 C 
ATOM      3  C   UNL     1     143.222 143.153 135.363  1.00  0.00     0.039 C 
ENDROOT
BRANCH   1   4
ATOM      4  C   UNL     1     142.432 144.441 133.234  1.00  0.00     0.034 C 
BRANCH   4   5
ATOM      5  C   UNL     1     141.176 144.777 134.048  1.00  0.00     0.032 C 
BRANCH   5   6
ATOM      6  C   UNL     1     140.025 143.875 133.665  1.00  0.00    -0.028 C 
ATOM      7  C   UNL     1     139.346 143.421 136.034  1.00  0.00     0.039 C 
ATOM      8  C   UNL     1     139.182 143.282 134.540  1.00  0.00    -0.080 C 
ATOM      9  C   UNL     1     138.044 142.459 133.993  1.00  0.00     0.039 C 
ENDBRANCH   5   6
ENDBRANCH   4   5
ENDBRANCH   1   4
BRANCH   2  10
ATOM     10  C   UNL     1     144.700 141.294 133.593  1.00  0.00     0.055 C 
BRANCH  10  11
ATOM     11  C   UNL     1     144.254 140.000 132.968  1.00  0.00    -0.020 C 
ATOM     12  C   UNL     1     143.521 139.058 133.597  1.00  0.00    -0.055 C 
ATOM     13  C   UNL     1     143.054 139.232 135.026  1.00  0.00     0.044 C 
BRANCH  12  14
ATOM     14  C   UNL     1     143.115 137.859 132.818  1.00  0.00    -0.005 C 
ATOM     15  C   UNL     1     143.492 137.635 131.559  1.00  0.00     0.009 C 
ENDBRANCH  12  14
ENDBRANCH  10  11
ENDBRANCH   2  10
TORSDOF 6
ENDMDL
