MODEL 1
REMARK VINA RESULT:    -3.769      0.000      0.000
REMARK INTER + INTRA:          -4.623
REMARK INTER:                  -4.540
REMARK INTRA:                  -0.083
REMARK UNBOUND:                -0.083
REMARK SMILES CC[C@@H](C)[C@@H]([NH3+])C(=O)[O-]
REMARK SMILES IDX 3 1 4 2 5 3 6 4 7 8 8 9 9 10 2 11 1 12
REMARK H PARENT 6 5 6 6 6 7
REMARK Flexibility Score: inf
ROOT
ATOM      1  C   UNL     1      15.983  33.482  22.922  1.00  0.00     0.050 C 
ATOM      2  C   UNL     1      15.648  34.675  23.835  1.00  0.00     0.014 C 
ENDROOT
BRANCH   1   3
ATOM      3  C   UNL     1      14.672  32.805  22.397  1.00  0.00     0.230 C 
BRANCH   3   4
ATOM      4  N   UNL     1      14.550  32.859  20.931  1.00  0.00    -0.350 N 
ATOM      5  H   UNL     1      15.476  33.034  20.478  1.00  0.00     0.345 HD
ATOM      6  H   UNL     1      13.880  33.607  20.647  1.00  0.00     0.345 HD
ATOM      7  H   UNL     1      14.176  31.947  20.579  1.00  0.00     0.345 HD
ENDBRANCH   3   4
BRANCH   3   8
ATOM      8  C   UNL     1      14.525  31.389  22.905  1.00  0.00     0.099 C 
ATOM      9  O   UNL     1      15.218  30.998  23.883  1.00  0.00    -0.544 OA
ATOM     10  O   UNL     1      13.608  30.514  22.333  1.00  0.00    -0.544 OA
ENDBRANCH   3   8
ENDBRANCH   1   3
BRANCH   1  11
ATOM     11  C   UNL     1      16.979  33.940  21.825  1.00  0.00     0.006 C 
ATOM     12  C   UNL     1      17.865  35.110  22.250  1.00  0.00     0.004 C 
ENDBRANCH   1  11
TORSDOF 4
ENDMDL
MODEL 2
REMARK VINA RESULT:    -3.753      0.067      1.078
REMARK INTER + INTRA:          -4.604
REMARK INTER:                  -4.527
REMARK INTRA:                  -0.077
REMARK UNBOUND:                -0.083
REMARK SMILES CC[C@@H](C)[C@@H]([NH3+])C(=O)[O-]
REMARK SMILES IDX 3 1 4 2 5 3 6 4 7 8 8 9 9 10 2 11 1 12
REMARK H PARENT 6 5 6 6 6 7
REMARK Flexibility Score: inf
ROOT
ATOM      1  C   UNL     1      16.000  33.465  22.908  1.00  0.00     0.050 C 
ATOM      2  C   UNL     1      15.681  34.653  23.833  1.00  0.00     0.014 C 
ENDROOT
BRANCH   1   3
ATOM      3  C   UNL     1      14.680  32.811  22.375  1.00  0.00     0.230 C 
BRANCH   3   4
ATOM      4  N   UNL     1      14.583  32.838  20.906  1.00  0.00    -0.350 N 
ATOM      5  H   UNL     1      14.456  33.813  20.551  1.00  0.00     0.345 HD
ATOM      6  H   UNL     1      13.787  32.245  20.581  1.00  0.00     0.345 HD
ATOM      7  H   UNL     1      15.460  32.446  20.492  1.00  0.00     0.345 HD
ENDBRANCH   3   4
BRANCH   3   8
ATOM      8  C   UNL     1      14.486  31.411  22.910  1.00  0.00     0.099 C 
ATOM      9  O   UNL     1      13.661  30.637  22.356  1.00  0.00    -0.544 OA
ATOM     10  O   UNL     1      15.232  30.947  23.988  1.00  0.00    -0.544 OA
ENDBRANCH   3   8
ENDBRANCH   1   3
BRANCH   1  11
ATOM     11  C   UNL     1      17.002  33.920  21.816  1.00  0.00     0.006 C 
ATOM     12  C   UNL     1      17.875  35.102  22.238  1.00  0.00     0.004 C 
ENDBRANCH   1  11
TORSDOF 4
ENDMDL
MODEL 3
REMARK VINA RESULT:    -3.531      1.506      2.065
REMARK INTER + INTRA:          -4.337
REMARK INTER:                  -4.269
REMARK INTRA:                  -0.067
REMARK UNBOUND:                -0.083
REMARK SMILES CC[C@@H](C)[C@@H]([NH3+])C(=O)[O-]
REMARK SMILES IDX 3 1 4 2 5 3 6 4 7 8 8 9 9 10 2 11 1 12
REMARK H PARENT 6 5 6 6 6 7
REMARK Flexibility Score: inf
ROOT
ATOM      1  C   UNL     1      15.042  32.088  22.629  1.00  0.00     0.050 C 
ATOM      2  C   UNL     1      15.234  32.669  24.041  1.00  0.00     0.014 C 
ENDROOT
BRANCH   1   3
ATOM      3  C   UNL     1      13.580  31.556  22.446  1.00  0.00     0.230 C 
BRANCH   3   4
ATOM      4  N   UNL     1      12.920  32.103  21.249  1.00  0.00    -0.350 N 
ATOM      5  H   UNL     1      12.043  31.581  21.025  1.00  0.00     0.345 HD
ATOM      6  H   UNL     1      13.564  32.066  20.427  1.00  0.00     0.345 HD
ATOM      7  H   UNL     1      12.675  33.107  21.414  1.00  0.00     0.345 HD
ENDBRANCH   3   4
BRANCH   3   8
ATOM      8  C   UNL     1      13.522  30.046  22.459  1.00  0.00     0.099 C 
ATOM      9  O   UNL     1      12.593  29.448  21.853  1.00  0.00    -0.544 OA
ATOM     10  O   UNL     1      14.501  29.297  23.104  1.00  0.00    -0.544 OA
ENDBRANCH   3   8
ENDBRANCH   1   3
BRANCH   1  11
ATOM     11  C   UNL     1      15.505  33.130  21.579  1.00  0.00     0.006 C 
ATOM     12  C   UNL     1      16.859  33.763  21.897  1.00  0.00     0.004 C 
ENDBRANCH   1  11
TORSDOF 4
ENDMDL
MODEL 4
REMARK VINA RESULT:    -3.241      2.505      4.183
REMARK INTER + INTRA:          -3.987
REMARK INTER:                  -3.920
REMARK INTRA:                  -0.067
REMARK UNBOUND:                -0.083
REMARK SMILES CC[C@@H](C)[C@@H]([NH3+])C(=O)[O-]
REMARK SMILES IDX 3 1 4 2 5 3 6 4 7 8 8 9 9 10 2 11 1 12
REMARK H PARENT 6 5 6 6 6 7
REMARK Flexibility Score: inf
ROOT
ATOM      1  C   UNL     1      14.238  31.540  22.452  1.00  0.00     0.050 C 
ATOM      2  C   UNL     1      12.711  31.684  22.324  1.00  0.00     0.014 C 
ENDROOT
BRANCH   1   3
ATOM      3  C   UNL     1      14.899  32.927  22.760  1.00  0.00     0.230 C 
BRANCH   3   4
ATOM      4  N   UNL     1      15.478  32.995  24.112  1.00  0.00    -0.350 N 
ATOM      5  H   UNL     1      15.910  33.928  24.294  1.00  0.00     0.345 HD
ATOM      6  H   UNL     1      16.198  32.249  24.239  1.00  0.00     0.345 HD
ATOM      7  H   UNL     1      14.726  32.833  24.822  1.00  0.00     0.345 HD
ENDBRANCH   3   4
BRANCH   3   8
ATOM      8  C   UNL     1      15.915  33.314  21.710  1.00  0.00     0.099 C 
ATOM      9  O   UNL     1      15.665  33.114  20.492  1.00  0.00    -0.544 OA
ATOM     10  O   UNL     1      17.113  33.924  22.064  1.00  0.00    -0.544 OA
ENDBRANCH   3   8
ENDBRANCH   1   3
BRANCH   1  11
ATOM     11  C   UNL     1      14.563  30.411  23.465  1.00  0.00     0.006 C 
ATOM     12  C   UNL     1      14.192  29.015  22.968  1.00  0.00     0.004 C 
ENDBRANCH   1  11
TORSDOF 4
ENDMDL
MODEL 5
REMARK VINA RESULT:    -3.227      2.334      2.672
REMARK INTER + INTRA:          -3.971
REMARK INTER:                  -3.930
REMARK INTRA:                  -0.041
REMARK UNBOUND:                -0.083
REMARK SMILES CC[C@@H](C)[C@@H]([NH3+])C(=O)[O-]
REMARK SMILES IDX 3 1 4 2 5 3 6 4 7 8 8 9 9 10 2 11 1 12
REMARK H PARENT 6 5 6 6 6 7
REMARK Flexibility Score: inf
ROOT
ATOM      1  C   UNL     1      15.901  33.373  22.445  1.00  0.00     0.050 C 
ATOM      2  C   UNL     1      15.571  32.928  23.881  1.00  0.00     0.014 C 
ENDROOT
BRANCH   1   3
ATOM      3  C   UNL     1      14.686  33.107  21.493  1.00  0.00     0.230 C 
BRANCH   3   4
ATOM      4  N   UNL     1      14.046  31.803  21.735  1.00  0.00    -0.350 N 
ATOM      5  H   UNL     1      13.576  31.778  22.668  1.00  0.00     0.345 HD
ATOM      6  H   UNL     1      14.751  31.034  21.682  1.00  0.00     0.345 HD
ATOM      7  H   UNL     1      13.327  31.626  20.996  1.00  0.00     0.345 HD
ENDBRANCH   3   4
BRANCH   3   8
ATOM      8  C   UNL     1      13.675  34.229  21.539  1.00  0.00     0.099 C 
ATOM      9  O   UNL     1      13.536  34.990  20.545  1.00  0.00    -0.544 OA
ATOM     10  O   UNL     1      12.866  34.418  22.654  1.00  0.00    -0.544 OA
ENDBRANCH   3   8
ENDBRANCH   1   3
BRANCH   1  11
ATOM     11  C   UNL     1      16.418  34.835  22.468  1.00  0.00     0.006 C 
ATOM     12  C   UNL     1      17.910  34.964  22.166  1.00  0.00     0.004 C 
ENDBRANCH   1  11
TORSDOF 4
ENDMDL
MODEL 6
REMARK VINA RESULT:    -3.225      2.241      3.918
REMARK INTER + INTRA:          -3.968
REMARK INTER:                  -3.882
REMARK INTRA:                  -0.086
REMARK UNBOUND:                -0.083
REMARK SMILES CC[C@@H](C)[C@@H]([NH3+])C(=O)[O-]
REMARK SMILES IDX 3 1 4 2 5 3 6 4 7 8 8 9 9 10 2 11 1 12
REMARK H PARENT 6 5 6 6 6 7
REMARK Flexibility Score: inf
ROOT
ATOM      1  C   UNL     1      14.465  32.014  23.051  1.00  0.00     0.050 C 
ATOM      2  C   UNL     1      15.225  31.215  24.125  1.00  0.00     0.014 C 
ENDROOT
BRANCH   1   3
ATOM      3  C   UNL     1      15.467  32.703  22.064  1.00  0.00     0.230 C 
BRANCH   3   4
ATOM      4  N   UNL     1      14.871  32.984  20.748  1.00  0.00    -0.350 N 
ATOM      5  H   UNL     1      13.829  32.910  20.779  1.00  0.00     0.345 HD
ATOM      6  H   UNL     1      15.242  32.323  20.030  1.00  0.00     0.345 HD
ATOM      7  H   UNL     1      15.126  33.953  20.449  1.00  0.00     0.345 HD
ENDBRANCH   3   4
BRANCH   3   8
ATOM      8  C   UNL     1      16.082  33.948  22.662  1.00  0.00     0.099 C 
ATOM      9  O   UNL     1      15.414  34.656  23.461  1.00  0.00    -0.544 OA
ATOM     10  O   UNL     1      17.393  34.311  22.370  1.00  0.00    -0.544 OA
ENDBRANCH   3   8
ENDBRANCH   1   3
BRANCH   1  11
ATOM     11  C   UNL     1      13.404  31.098  22.386  1.00  0.00     0.006 C 
ATOM     12  C   UNL     1      13.674  29.606  22.579  1.00  0.00     0.004 C 
ENDBRANCH   1  11
TORSDOF 4
ENDMDL
MODEL 7
REMARK VINA RESULT:    -3.119      1.655      2.205
REMARK INTER + INTRA:          -3.841
REMARK INTER:                  -3.754
REMARK INTRA:                  -0.087
REMARK UNBOUND:                -0.083
REMARK SMILES CC[C@@H](C)[C@@H]([NH3+])C(=O)[O-]
REMARK SMILES IDX 3 1 4 2 5 3 6 4 7 8 8 9 9 10 2 11 1 12
REMARK H PARENT 6 5 6 6 6 7
REMARK Flexibility Score: inf
ROOT
ATOM      1  C   UNL     1      14.989  33.148  22.306  1.00  0.00     0.050 C 
ATOM      2  C   UNL     1      15.215  33.268  20.788  1.00  0.00     0.014 C 
ENDROOT
BRANCH   1   3
ATOM      3  C   UNL     1      14.809  31.648  22.720  1.00  0.00     0.230 C 
BRANCH   3   4
ATOM      4  N   UNL     1      15.171  31.397  24.125  1.00  0.00    -0.350 N 
ATOM      5  H   UNL     1      16.197  31.518  24.282  1.00  0.00     0.345 HD
ATOM      6  H   UNL     1      14.889  30.432  24.408  1.00  0.00     0.345 HD
ATOM      7  H   UNL     1      14.659  32.070  24.742  1.00  0.00     0.345 HD
ENDBRANCH   3   4
BRANCH   3   8
ATOM      8  C   UNL     1      13.419  31.141  22.414  1.00  0.00     0.099 C 
ATOM      9  O   UNL     1      13.240  29.921  22.155  1.00  0.00    -0.544 OA
ATOM     10  O   UNL     1      12.321  31.994  22.447  1.00  0.00    -0.544 OA
ENDBRANCH   3   8
ENDBRANCH   1   3
BRANCH   1  11
ATOM     11  C   UNL     1      16.113  33.912  23.053  1.00  0.00     0.006 C 
ATOM     12  C   UNL     1      17.263  34.353  22.147  1.00  0.00     0.004 C 
ENDBRANCH   1  11
TORSDOF 4
ENDMDL
MODEL 8
REMARK VINA RESULT:    -3.117      1.663      2.093
REMARK INTER + INTRA:          -3.838
REMARK INTER:                  -3.844
REMARK INTRA:                   0.006
REMARK UNBOUND:                -0.083
REMARK SMILES CC[C@@H](C)[C@@H]([NH3+])C(=O)[O-]
REMARK SMILES IDX 3 1 4 2 5 3 6 4 7 8 8 9 9 10 2 11 1 12
REMARK H PARENT 6 5 6 6 6 7
REMARK Flexibility Score: inf
ROOT
ATOM      1  C   UNL     1      15.497  34.213  22.038  1.00  0.00     0.050 C 
ATOM      2  C   UNL     1      14.665  33.561  20.919  1.00  0.00     0.014 C 
ENDROOT
BRANCH   1   3
ATOM      3  C   UNL     1      14.911  33.850  23.444  1.00  0.00     0.230 C 
BRANCH   3   4
ATOM      4  N   UNL     1      13.869  34.791  23.888  1.00  0.00    -0.350 N 
ATOM      5  H   UNL     1      13.615  34.634  24.889  1.00  0.00     0.345 HD
ATOM      6  H   UNL     1      13.014  34.695  23.295  1.00  0.00     0.345 HD
ATOM      7  H   UNL     1      14.218  35.772  23.784  1.00  0.00     0.345 HD
ENDBRANCH   3   4
BRANCH   3   8
ATOM      8  C   UNL     1      14.418  32.422  23.500  1.00  0.00     0.099 C 
ATOM      9  O   UNL     1      13.181  32.188  23.562  1.00  0.00    -0.544 OA
ATOM     10  O   UNL     1      15.307  31.355  23.449  1.00  0.00    -0.544 OA
ENDBRANCH   3   8
ENDBRANCH   1   3
BRANCH   1  11
ATOM     11  C   UNL     1      16.994  33.862  21.834  1.00  0.00     0.006 C 
ATOM     12  C   UNL     1      17.944  35.014  22.160  1.00  0.00     0.004 C 
ENDBRANCH   1  11
TORSDOF 4
ENDMDL
MODEL 9
REMARK VINA RESULT:    -2.983      1.657      2.336
REMARK INTER + INTRA:          -3.676
REMARK INTER:                  -3.554
REMARK INTRA:                  -0.122
REMARK UNBOUND:                -0.083
REMARK SMILES CC[C@@H](C)[C@@H]([NH3+])C(=O)[O-]
REMARK SMILES IDX 3 1 4 2 5 3 6 4 7 8 8 9 9 10 2 11 1 12
REMARK H PARENT 6 5 6 6 6 7
REMARK Flexibility Score: inf
ROOT
ATOM      1  C   UNL     1      15.621  33.406  21.886  1.00  0.00     0.050 C 
ATOM      2  C   UNL     1      17.056  33.963  21.878  1.00  0.00     0.014 C 
ENDROOT
BRANCH   1   3
ATOM      3  C   UNL     1      15.282  32.775  23.280  1.00  0.00     0.230 C 
BRANCH   3   4
ATOM      4  N   UNL     1      14.468  33.664  24.125  1.00  0.00    -0.350 N 
ATOM      5  H   UNL     1      13.494  33.751  23.758  1.00  0.00     0.345 HD
ATOM      6  H   UNL     1      14.901  34.612  24.183  1.00  0.00     0.345 HD
ATOM      7  H   UNL     1      14.423  33.276  25.096  1.00  0.00     0.345 HD
ENDBRANCH   3   4
BRANCH   3   8
ATOM      8  C   UNL     1      14.642  31.413  23.143  1.00  0.00     0.099 C 
ATOM      9  O   UNL     1      15.125  30.428  23.762  1.00  0.00    -0.544 OA
ATOM     10  O   UNL     1      13.501  31.233  22.368  1.00  0.00    -0.544 OA
ENDBRANCH   3   8
ENDBRANCH   1   3
BRANCH   1  11
ATOM     11  C   UNL     1      14.642  34.506  21.401  1.00  0.00     0.006 C 
ATOM     12  C   UNL     1      13.631  34.015  20.365  1.00  0.00     0.004 C 
ENDBRANCH   1  11
TORSDOF 4
ENDMDL
