MODEL 1
REMARK VINA RESULT:    -5.676      0.000      0.000
REMARK INTER + INTRA:          -7.583
REMARK INTER:                  -7.003
REMARK INTRA:                  -0.579
REMARK UNBOUND:                -0.579
REMARK SMILES COc1ccc(-c2cc3cc(O)c(OC)cc3o2)c(O)c1
REMARK SMILES IDX 7 1 8 2 9 3 10 4 11 5 13 6 16 7 17 8 18 9 6 10 3 11 21 12
REMARK SMILES IDX 4 13 19 14 5 15 2 16 1 17 20 18 12 20 14 22 15 23
REMARK H PARENT 20 19 12 21
REMARK Flexibility Score: inf
ROOT
ATOM      1  C   UNL     1     -26.924  -0.639   8.616  1.00  0.00     0.139 A 
ATOM      2  C   UNL     1     -26.220   0.564   8.711  1.00  0.00     0.060 A 
ATOM      3  C   UNL     1     -27.188   1.536   8.608  1.00  0.00     0.025 A 
ATOM      4  C   UNL     1     -27.092   2.923   8.642  1.00  0.00     0.062 A 
ATOM      5  C   UNL     1     -28.278   3.672   8.517  1.00  0.00     0.158 A 
ATOM      6  C   UNL     1     -29.531   3.016   8.365  1.00  0.00     0.164 A 
ATOM      7  C   UNL     1     -29.581   1.600   8.341  1.00  0.00     0.098 A 
ATOM      8  C   UNL     1     -28.387   0.897   8.466  1.00  0.00     0.138 A 
ATOM      9  O   UNL     1     -28.217  -0.400   8.476  1.00  0.00    -0.456 OA
ENDROOT
BRANCH   1  10
ATOM     10  C   UNL     1     -26.361  -2.009   8.689  1.00  0.00     0.059 A 
ATOM     11  C   UNL     1     -25.183  -4.574   8.802  1.00  0.00     0.122 A 
ATOM     12  C   UNL     1     -26.578  -4.427   8.911  1.00  0.00     0.093 A 
ATOM     13  C   UNL     1     -24.389  -3.435   8.650  1.00  0.00     0.047 A 
ATOM     14  C   UNL     1     -27.169  -3.155   8.866  1.00  0.00     0.130 A 
ATOM     15  C   UNL     1     -24.968  -2.166   8.598  1.00  0.00     0.020 A 
BRANCH  11  16
ATOM     16  O   UNL     1     -24.552  -5.826   8.844  1.00  0.00    -0.497 OA
ATOM     17  C   UNL     1     -25.237  -7.069   8.960  1.00  0.00     0.278 C 
ENDBRANCH  11  16
BRANCH  14  18
ATOM     18  O   UNL     1     -28.548  -3.036   9.023  1.00  0.00    -0.507 OA
ATOM     19  H   UNL     1     -29.080  -2.316   8.548  1.00  0.00     0.293 HD
ENDBRANCH  14  18
ENDBRANCH   1  10
BRANCH   5  20
ATOM     20  O   UNL     1     -28.195   5.064   8.547  1.00  0.00    -0.504 OA
ATOM     21  H   UNL     1     -28.634   5.645   7.843  1.00  0.00     0.293 HD
ENDBRANCH   5  20
BRANCH   6  22
ATOM     22  O   UNL     1     -30.691   3.798   8.244  1.00  0.00    -0.493 OA
ATOM     23  C   UNL     1     -31.685   3.612   7.241  1.00  0.00     0.278 C 
ENDBRANCH   6  22
TORSDOF 5
ENDMDL
MODEL 2
REMARK VINA RESULT:    -5.640      1.804      8.068
REMARK INTER + INTRA:          -7.538
REMARK INTER:                  -6.954
REMARK INTRA:                  -0.584
REMARK UNBOUND:                -0.579
REMARK SMILES COc1ccc(-c2cc3cc(O)c(OC)cc3o2)c(O)c1
REMARK SMILES IDX 7 1 8 2 9 3 10 4 11 5 13 6 16 7 17 8 18 9 6 10 3 11 21 12
REMARK SMILES IDX 4 13 19 14 5 15 2 16 1 17 20 18 12 20 14 22 15 23
REMARK H PARENT 20 19 12 21
REMARK Flexibility Score: inf
ROOT
ATOM      1  C   UNL     1     -27.900   1.160   8.601  1.00  0.00     0.139 A 
ATOM      2  C   UNL     1     -28.589  -0.009   8.266  1.00  0.00     0.060 A 
ATOM      3  C   UNL     1     -27.634  -0.997   8.320  1.00  0.00     0.025 A 
ATOM      4  C   UNL     1     -27.726  -2.366   8.094  1.00  0.00     0.062 A 
ATOM      5  C   UNL     1     -26.559  -3.141   8.235  1.00  0.00     0.158 A 
ATOM      6  C   UNL     1     -25.328  -2.529   8.602  1.00  0.00     0.164 A 
ATOM      7  C   UNL     1     -25.282  -1.130   8.828  1.00  0.00     0.098 A 
ATOM      8  C   UNL     1     -26.458  -0.401   8.678  1.00  0.00     0.138 A 
ATOM      9  O   UNL     1     -26.630   0.885   8.845  1.00  0.00    -0.456 OA
ENDROOT
BRANCH   1  10
ATOM     10  C   UNL     1     -28.466   2.525   8.714  1.00  0.00     0.059 A 
ATOM     11  C   UNL     1     -29.650   5.084   8.907  1.00  0.00     0.122 A 
ATOM     12  C   UNL     1     -28.251   4.943   8.943  1.00  0.00     0.093 A 
ATOM     13  C   UNL     1     -30.445   3.941   8.788  1.00  0.00     0.047 A 
ATOM     14  C   UNL     1     -27.657   3.674   8.857  1.00  0.00     0.130 A 
ATOM     15  C   UNL     1     -29.863   2.676   8.697  1.00  0.00     0.020 A 
BRANCH  11  16
ATOM     16  O   UNL     1     -30.284   6.331   8.991  1.00  0.00    -0.497 OA
ATOM     17  C   UNL     1     -29.630   7.545   9.346  1.00  0.00     0.278 C 
ENDBRANCH  11  16
BRANCH  14  18
ATOM     18  O   UNL     1     -26.270   3.562   8.942  1.00  0.00    -0.507 OA
ATOM     19  H   UNL     1     -25.770   2.790   8.518  1.00  0.00     0.293 HD
ENDBRANCH  14  18
ENDBRANCH   1  10
BRANCH   5  20
ATOM     20  O   UNL     1     -26.637  -4.515   8.007  1.00  0.00    -0.504 OA
ATOM     21  H   UNL     1     -27.522  -4.991   7.887  1.00  0.00     0.293 HD
ENDBRANCH   5  20
BRANCH   6  22
ATOM     22  O   UNL     1     -24.187  -3.335   8.732  1.00  0.00    -0.493 OA
ATOM     23  C   UNL     1     -23.193  -3.492   7.724  1.00  0.00     0.278 C 
ENDBRANCH   6  22
TORSDOF 5
ENDMDL
MODEL 3
REMARK VINA RESULT:    -5.389      1.234      7.645
REMARK INTER + INTRA:          -7.228
REMARK INTER:                  -6.659
REMARK INTRA:                  -0.569
REMARK UNBOUND:                -0.579
REMARK SMILES COc1ccc(-c2cc3cc(O)c(OC)cc3o2)c(O)c1
REMARK SMILES IDX 7 1 8 2 9 3 10 4 11 5 13 6 16 7 17 8 18 9 6 10 3 11 21 12
REMARK SMILES IDX 4 13 19 14 5 15 2 16 1 17 20 18 12 20 14 22 15 23
REMARK H PARENT 20 19 12 21
REMARK Flexibility Score: inf
ROOT
ATOM      1  C   UNL     1     -26.792   0.102   8.696  1.00  0.00     0.139 A 
ATOM      2  C   UNL     1     -25.413  -0.120   8.670  1.00  0.00     0.060 A 
ATOM      3  C   UNL     1     -25.287  -1.488   8.611  1.00  0.00     0.025 A 
ATOM      4  C   UNL     1     -24.157  -2.297   8.554  1.00  0.00     0.062 A 
ATOM      5  C   UNL     1     -24.343  -3.691   8.491  1.00  0.00     0.158 A 
ATOM      6  C   UNL     1     -25.654  -4.244   8.484  1.00  0.00     0.164 A 
ATOM      7  C   UNL     1     -26.777  -3.380   8.538  1.00  0.00     0.098 A 
ATOM      8  C   UNL     1     -26.549  -2.009   8.599  1.00  0.00     0.138 A 
ATOM      9  O   UNL     1     -27.439  -1.051   8.648  1.00  0.00    -0.456 OA
ENDROOT
BRANCH   1  10
ATOM     10  C   UNL     1     -27.482   1.413   8.739  1.00  0.00     0.059 A 
ATOM     11  C   UNL     1     -28.697   3.963   8.793  1.00  0.00     0.122 A 
ATOM     12  C   UNL     1     -29.415   2.825   9.202  1.00  0.00     0.093 A 
ATOM     13  C   UNL     1     -27.382   3.814   8.348  1.00  0.00     0.047 A 
ATOM     14  C   UNL     1     -28.821   1.554   9.168  1.00  0.00     0.130 A 
ATOM     15  C   UNL     1     -26.781   2.554   8.317  1.00  0.00     0.020 A 
BRANCH  11  16
ATOM     16  O   UNL     1     -29.253   5.250   8.809  1.00  0.00    -0.497 OA
ATOM     17  C   UNL     1     -28.633   6.388   9.399  1.00  0.00     0.278 C 
ENDBRANCH  11  16
BRANCH  14  18
ATOM     18  O   UNL     1     -29.572   0.438   9.535  1.00  0.00    -0.507 OA
ATOM     19  H   UNL     1     -29.406  -0.475   9.129  1.00  0.00     0.293 HD
ENDBRANCH  14  18
ENDBRANCH   1  10
BRANCH   5  20
ATOM     20  O   UNL     1     -23.218  -4.514   8.437  1.00  0.00    -0.504 OA
ATOM     21  H   UNL     1     -23.029  -5.216   9.142  1.00  0.00     0.293 HD
ENDBRANCH   5  20
BRANCH   6  22
ATOM     22  O   UNL     1     -25.798  -5.638   8.421  1.00  0.00    -0.493 OA
ATOM     23  C   UNL     1     -25.784  -6.501   9.554  1.00  0.00     0.278 C 
ENDBRANCH   6  22
TORSDOF 5
ENDMDL
MODEL 4
REMARK VINA RESULT:    -5.331      1.331      2.504
REMARK INTER + INTRA:          -7.156
REMARK INTER:                  -6.559
REMARK INTRA:                  -0.597
REMARK UNBOUND:                -0.579
REMARK SMILES COc1ccc(-c2cc3cc(O)c(OC)cc3o2)c(O)c1
REMARK SMILES IDX 7 1 8 2 9 3 10 4 11 5 13 6 16 7 17 8 18 9 6 10 3 11 21 12
REMARK SMILES IDX 4 13 19 14 5 15 2 16 1 17 20 18 12 20 14 22 15 23
REMARK H PARENT 20 19 12 21
REMARK Flexibility Score: inf
ROOT
ATOM      1  C   UNL     1     -26.804  -1.357   8.722  1.00  0.00     0.139 A 
ATOM      2  C   UNL     1     -28.151  -1.087   8.466  1.00  0.00     0.060 A 
ATOM      3  C   UNL     1     -28.237   0.285   8.498  1.00  0.00     0.025 A 
ATOM      4  C   UNL     1     -29.321   1.135   8.305  1.00  0.00     0.062 A 
ATOM      5  C   UNL     1     -29.099   2.522   8.392  1.00  0.00     0.158 A 
ATOM      6  C   UNL     1     -27.798   3.028   8.666  1.00  0.00     0.164 A 
ATOM      7  C   UNL     1     -26.721   2.125   8.850  1.00  0.00     0.098 A 
ATOM      8  C   UNL     1     -26.983   0.761   8.756  1.00  0.00     0.138 A 
ATOM      9  O   UNL     1     -26.136  -0.228   8.885  1.00  0.00    -0.456 OA
ENDROOT
BRANCH   1  10
ATOM     10  C   UNL     1     -26.159  -2.691   8.780  1.00  0.00     0.059 A 
ATOM     11  C   UNL     1     -25.029  -5.276   8.932  1.00  0.00     0.122 A 
ATOM     12  C   UNL     1     -24.230  -4.169   8.594  1.00  0.00     0.093 A 
ATOM     13  C   UNL     1     -26.390  -5.081   9.179  1.00  0.00     0.047 A 
ATOM     14  C   UNL     1     -24.786  -2.884   8.507  1.00  0.00     0.130 A 
ATOM     15  C   UNL     1     -26.952  -3.805   9.100  1.00  0.00     0.020 A 
BRANCH  11  16
ATOM     16  O   UNL     1     -24.514  -6.577   9.029  1.00  0.00    -0.497 OA
ATOM     17  C   UNL     1     -25.256  -7.705   9.481  1.00  0.00     0.278 C 
ENDBRANCH  11  16
BRANCH  14  18
ATOM     18  O   UNL     1     -23.979  -1.814   8.124  1.00  0.00    -0.507 OA
ATOM     19  H   UNL     1     -22.992  -1.933   7.929  1.00  0.00     0.293 HD
ENDBRANCH  14  18
ENDBRANCH   1  10
BRANCH   5  20
ATOM     20  O   UNL     1     -30.179   3.385   8.204  1.00  0.00    -0.504 OA
ATOM     21  H   UNL     1     -31.132   3.048   8.137  1.00  0.00     0.293 HD
ENDBRANCH   5  20
BRANCH   6  22
ATOM     22  O   UNL     1     -27.618   4.418   8.744  1.00  0.00    -0.493 OA
ATOM     23  C   UNL     1     -27.739   5.178   9.942  1.00  0.00     0.278 C 
ENDBRANCH   6  22
TORSDOF 5
ENDMDL
MODEL 5
REMARK VINA RESULT:    -5.328      2.787      8.681
REMARK INTER + INTRA:          -7.153
REMARK INTER:                  -6.612
REMARK INTRA:                  -0.541
REMARK UNBOUND:                -0.579
REMARK SMILES COc1ccc(-c2cc3cc(O)c(OC)cc3o2)c(O)c1
REMARK SMILES IDX 7 1 8 2 9 3 10 4 11 5 13 6 16 7 17 8 18 9 6 10 3 11 21 12
REMARK SMILES IDX 4 13 19 14 5 15 2 16 1 17 20 18 12 20 14 22 15 23
REMARK H PARENT 20 19 12 21
REMARK Flexibility Score: inf
ROOT
ATOM      1  C   UNL     1     -28.744   3.930   8.841  1.00  0.00     0.139 A 
ATOM      2  C   UNL     1     -27.378   3.677   8.690  1.00  0.00     0.060 A 
ATOM      3  C   UNL     1     -27.302   2.318   8.491  1.00  0.00     0.025 A 
ATOM      4  C   UNL     1     -26.206   1.490   8.272  1.00  0.00     0.062 A 
ATOM      5  C   UNL     1     -26.441   0.114   8.091  1.00  0.00     0.158 A 
ATOM      6  C   UNL     1     -27.767  -0.401   8.129  1.00  0.00     0.164 A 
ATOM      7  C   UNL     1     -28.854   0.481   8.349  1.00  0.00     0.098 A 
ATOM      8  C   UNL     1     -28.578   1.834   8.525  1.00  0.00     0.138 A 
ATOM      9  O   UNL     1     -29.431   2.805   8.731  1.00  0.00    -0.456 OA
ENDROOT
BRANCH   1  10
ATOM     10  C   UNL     1     -29.386   5.248   9.061  1.00  0.00     0.059 A 
ATOM     11  C   UNL     1     -30.505   7.806   9.494  1.00  0.00     0.122 A 
ATOM     12  C   UNL     1     -31.336   6.677   9.379  1.00  0.00     0.093 A 
ATOM     13  C   UNL     1     -29.122   7.647   9.378  1.00  0.00     0.047 A 
ATOM     14  C   UNL     1     -30.788   5.405   9.154  1.00  0.00     0.130 A 
ATOM     15  C   UNL     1     -28.567   6.384   9.160  1.00  0.00     0.020 A 
BRANCH  11  16
ATOM     16  O   UNL     1     -31.011   9.095   9.717  1.00  0.00    -0.497 OA
ATOM     17  C   UNL     1     -32.346   9.376  10.125  1.00  0.00     0.278 C 
ENDBRANCH  11  16
BRANCH  14  18
ATOM     18  O   UNL     1     -31.638   4.312   8.999  1.00  0.00    -0.507 OA
ATOM     19  H   UNL     1     -32.443   4.172   9.598  1.00  0.00     0.293 HD
ENDBRANCH  14  18
ENDBRANCH   1  10
BRANCH   5  20
ATOM     20  O   UNL     1     -25.350  -0.728   7.874  1.00  0.00    -0.504 OA
ATOM     21  H   UNL     1     -24.575  -0.782   8.522  1.00  0.00     0.293 HD
ENDBRANCH   5  20
BRANCH   6  22
ATOM     22  O   UNL     1     -27.960  -1.779   7.943  1.00  0.00    -0.493 OA
ATOM     23  C   UNL     1     -27.910  -2.746   8.987  1.00  0.00     0.278 C 
ENDBRANCH   6  22
TORSDOF 5
ENDMDL
MODEL 6
REMARK VINA RESULT:    -5.327      1.267      2.378
REMARK INTER + INTRA:          -7.152
REMARK INTER:                  -6.552
REMARK INTRA:                  -0.600
REMARK UNBOUND:                -0.579
REMARK SMILES COc1ccc(-c2cc3cc(O)c(OC)cc3o2)c(O)c1
REMARK SMILES IDX 7 1 8 2 9 3 10 4 11 5 13 6 16 7 17 8 18 9 6 10 3 11 21 12
REMARK SMILES IDX 4 13 19 14 5 15 2 16 1 17 20 18 12 20 14 22 15 23
REMARK H PARENT 20 19 12 21
REMARK Flexibility Score: inf
ROOT
ATOM      1  C   UNL     1     -27.428  -0.394   8.636  1.00  0.00     0.139 A 
ATOM      2  C   UNL     1     -28.803  -0.213   8.465  1.00  0.00     0.060 A 
ATOM      3  C   UNL     1     -28.966   1.152   8.422  1.00  0.00     0.025 A 
ATOM      4  C   UNL     1     -30.110   1.927   8.260  1.00  0.00     0.062 A 
ATOM      5  C   UNL     1     -29.964   3.328   8.248  1.00  0.00     0.158 A 
ATOM      6  C   UNL     1     -28.678   3.920   8.395  1.00  0.00     0.164 A 
ATOM      7  C   UNL     1     -27.540   3.089   8.552  1.00  0.00     0.098 A 
ATOM      8  C   UNL     1     -27.728   1.710   8.559  1.00  0.00     0.138 A 
ATOM      9  O   UNL     1     -26.817   0.778   8.683  1.00  0.00    -0.456 OA
ENDROOT
BRANCH   1  10
ATOM     10  C   UNL     1     -26.704  -1.684   8.725  1.00  0.00     0.059 A 
ATOM     11  C   UNL     1     -25.420  -4.198   8.858  1.00  0.00     0.122 A 
ATOM     12  C   UNL     1     -24.777  -3.044   9.344  1.00  0.00     0.093 A 
ATOM     13  C   UNL     1     -26.694  -4.081   8.298  1.00  0.00     0.047 A 
ATOM     14  C   UNL     1     -25.405  -1.791   9.272  1.00  0.00     0.130 A 
ATOM     15  C   UNL     1     -27.329  -2.839   8.228  1.00  0.00     0.020 A 
BRANCH  11  16
ATOM     16  O   UNL     1     -24.828  -5.468   8.909  1.00  0.00    -0.497 OA
ATOM     17  C   UNL     1     -25.550  -6.694   8.872  1.00  0.00     0.278 C 
ENDBRANCH  11  16
BRANCH  14  18
ATOM     18  O   UNL     1     -24.725  -0.659   9.719  1.00  0.00    -0.507 OA
ATOM     19  H   UNL     1     -25.032  -0.139  10.532  1.00  0.00     0.293 HD
ENDBRANCH  14  18
ENDBRANCH   1  10
BRANCH   5  20
ATOM     20  O   UNL     1     -31.103   4.117   8.089  1.00  0.00    -0.504 OA
ATOM     21  H   UNL     1     -31.995   3.726   7.811  1.00  0.00     0.293 HD
ENDBRANCH   5  20
BRANCH   6  22
ATOM     22  O   UNL     1     -28.574   5.319   8.378  1.00  0.00    -0.493 OA
ATOM     23  C   UNL     1     -28.549   6.138   9.543  1.00  0.00     0.278 C 
ENDBRANCH   6  22
TORSDOF 5
ENDMDL
MODEL 7
REMARK VINA RESULT:    -5.267      2.109      8.843
REMARK INTER + INTRA:          -7.078
REMARK INTER:                  -6.485
REMARK INTRA:                  -0.593
REMARK UNBOUND:                -0.579
REMARK SMILES COc1ccc(-c2cc3cc(O)c(OC)cc3o2)c(O)c1
REMARK SMILES IDX 7 1 8 2 9 3 10 4 11 5 13 6 16 7 17 8 18 9 6 10 3 11 21 12
REMARK SMILES IDX 4 13 19 14 5 15 2 16 1 17 20 18 12 20 14 22 15 23
REMARK H PARENT 20 19 12 21
REMARK Flexibility Score: inf
ROOT
ATOM      1  C   UNL     1     -25.767  -3.661   8.840  1.00  0.00     0.139 A 
ATOM      2  C   UNL     1     -26.415  -4.897   8.761  1.00  0.00     0.060 A 
ATOM      3  C   UNL     1     -25.418  -5.820   8.971  1.00  0.00     0.025 A 
ATOM      4  C   UNL     1     -25.459  -7.210   9.016  1.00  0.00     0.062 A 
ATOM      5  C   UNL     1     -24.257  -7.900   9.262  1.00  0.00     0.158 A 
ATOM      6  C   UNL     1     -23.043  -7.185   9.460  1.00  0.00     0.164 A 
ATOM      7  C   UNL     1     -23.050  -5.768   9.411  1.00  0.00     0.098 A 
ATOM      8  C   UNL     1     -24.259  -5.124   9.165  1.00  0.00     0.138 A 
ATOM      9  O   UNL     1     -24.480  -3.837   9.087  1.00  0.00    -0.456 OA
ENDROOT
BRANCH   1  10
ATOM     10  C   UNL     1     -26.387  -2.321   8.707  1.00  0.00     0.059 A 
ATOM     11  C   UNL     1     -27.656   0.185   8.395  1.00  0.00     0.122 A 
ATOM     12  C   UNL     1     -26.369   0.104   8.959  1.00  0.00     0.093 A 
ATOM     13  C   UNL     1     -28.301  -0.991   8.004  1.00  0.00     0.047 A 
ATOM     14  C   UNL     1     -25.738  -1.138   9.126  1.00  0.00     0.130 A 
ATOM     15  C   UNL     1     -27.678  -2.230   8.161  1.00  0.00     0.020 A 
BRANCH  11  16
ATOM     16  O   UNL     1     -28.323   1.404   8.212  1.00  0.00    -0.497 OA
ATOM     17  C   UNL     1     -29.700   1.620   8.501  1.00  0.00     0.278 C 
ENDBRANCH  11  16
BRANCH  14  18
ATOM     18  O   UNL     1     -24.483  -1.191   9.731  1.00  0.00    -0.507 OA
ATOM     19  H   UNL     1     -24.220  -1.947  10.351  1.00  0.00     0.293 HD
ENDBRANCH  14  18
ENDBRANCH   1  10
BRANCH   5  20
ATOM     20  O   UNL     1     -24.283  -9.294   9.306  1.00  0.00    -0.504 OA
ATOM     21  H   UNL     1     -25.149  -9.817   9.270  1.00  0.00     0.293 HD
ENDBRANCH   5  20
BRANCH   6  22
ATOM     22  O   UNL     1     -21.865  -7.908   9.703  1.00  0.00    -0.493 OA
ATOM     23  C   UNL     1     -20.760  -7.971   8.807  1.00  0.00     0.278 C 
ENDBRANCH   6  22
TORSDOF 5
ENDMDL
MODEL 8
REMARK VINA RESULT:    -5.244      2.791      4.667
REMARK INTER + INTRA:          -7.050
REMARK INTER:                  -6.463
REMARK INTRA:                  -0.587
REMARK UNBOUND:                -0.579
REMARK SMILES COc1ccc(-c2cc3cc(O)c(OC)cc3o2)c(O)c1
REMARK SMILES IDX 7 1 8 2 9 3 10 4 11 5 13 6 16 7 17 8 18 9 6 10 3 11 21 12
REMARK SMILES IDX 4 13 19 14 5 15 2 16 1 17 20 18 12 20 14 22 15 23
REMARK H PARENT 20 19 12 21
REMARK Flexibility Score: inf
ROOT
ATOM      1  C   UNL     1     -28.660   3.590   8.892  1.00  0.00     0.139 A 
ATOM      2  C   UNL     1     -27.980   4.810   8.849  1.00  0.00     0.060 A 
ATOM      3  C   UNL     1     -28.962   5.755   9.028  1.00  0.00     0.025 A 
ATOM      4  C   UNL     1     -28.890   7.143   9.086  1.00  0.00     0.062 A 
ATOM      5  C   UNL     1     -30.085   7.860   9.292  1.00  0.00     0.158 A 
ATOM      6  C   UNL     1     -31.322   7.173   9.437  1.00  0.00     0.164 A 
ATOM      7  C   UNL     1     -31.346   5.757   9.376  1.00  0.00     0.098 A 
ATOM      8  C   UNL     1     -30.144   5.086   9.171  1.00  0.00     0.138 A 
ATOM      9  O   UNL     1     -29.951   3.795   9.091  1.00  0.00    -0.456 OA
ENDROOT
BRANCH   1  10
ATOM     10  C   UNL     1     -28.067   2.236   8.772  1.00  0.00     0.059 A 
ATOM     11  C   UNL     1     -26.853  -0.298   8.479  1.00  0.00     0.122 A 
ATOM     12  C   UNL     1     -28.112  -0.180   9.095  1.00  0.00     0.093 A 
ATOM     13  C   UNL     1     -26.206   0.854   8.027  1.00  0.00     0.047 A 
ATOM     14  C   UNL     1     -28.717   1.077   9.253  1.00  0.00     0.130 A 
ATOM     15  C   UNL     1     -26.803   2.108   8.174  1.00  0.00     0.020 A 
BRANCH  11  16
ATOM     16  O   UNL     1     -26.213  -1.534   8.303  1.00  0.00    -0.497 OA
ATOM     17  C   UNL     1     -25.025  -1.929   8.981  1.00  0.00     0.278 C 
ENDBRANCH  11  16
BRANCH  14  18
ATOM     18  O   UNL     1     -29.943   1.168   9.908  1.00  0.00    -0.507 OA
ATOM     19  H   UNL     1     -30.010   1.437  10.883  1.00  0.00     0.293 HD
ENDBRANCH  14  18
ENDBRANCH   1  10
BRANCH   5  20
ATOM     20  O   UNL     1     -30.027   9.253   9.349  1.00  0.00    -0.504 OA
ATOM     21  H   UNL     1     -30.608   9.841   8.765  1.00  0.00     0.293 HD
ENDBRANCH   5  20
BRANCH   6  22
ATOM     22  O   UNL     1     -32.490   7.923   9.641  1.00  0.00    -0.493 OA
ATOM     23  C   UNL     1     -33.349   8.373   8.597  1.00  0.00     0.278 C 
ENDBRANCH   6  22
TORSDOF 5
ENDMDL
