MODEL 1
REMARK VINA RESULT:    -4.830      0.000      0.000
REMARK INTER + INTRA:         -10.085
REMARK INTER:                  -8.501
REMARK INTRA:                  -1.584
REMARK UNBOUND:                -1.584
REMARK SMILES CCCCCCCCCCCCCCC(=O)[O-]
REMARK SMILES IDX 9 1 10 2 11 3 12 4 13 5 14 6 15 7 16 8 17 9 8 10 7 11 6 12
REMARK SMILES IDX 5 13 4 14 3 15 2 16 1 17
REMARK H PARENT
REMARK Flexibility Score: inf
ROOT
ATOM      1  C   UNL     1      -8.269  37.571   6.018  1.00  0.00     0.000 C 
ENDROOT
BRANCH   1   2
ATOM      2  C   UNL     1      -9.201  36.436   5.569  1.00  0.00     0.000 C 
BRANCH   2   3
ATOM      3  C   UNL     1      -8.759  35.062   6.106  1.00  0.00     0.000 C 
BRANCH   3   4
ATOM      4  C   UNL     1      -7.865  34.300   5.114  1.00  0.00     0.000 C 
BRANCH   4   5
ATOM      5  C   UNL     1      -6.643  33.658   5.793  1.00  0.00     0.006 C 
BRANCH   5   6
ATOM      6  C   UNL     1      -6.998  32.346   6.505  1.00  0.00     0.053 C 
BRANCH   6   7
ATOM      7  C   UNL     1      -5.986  31.275   6.236  1.00  0.00     0.041 C 
ATOM      8  O   UNL     1      -4.781  31.444   6.565  1.00  0.00    -0.550 OA
ATOM      9  O   UNL     1      -6.376  30.077   5.650  1.00  0.00    -0.550 OA
ENDBRANCH   6   7
ENDBRANCH   5   6
ENDBRANCH   4   5
ENDBRANCH   3   4
ENDBRANCH   2   3
ENDBRANCH   1   2
BRANCH   1  10
ATOM     10  C   UNL     1      -9.014  38.897   6.238  1.00  0.00     0.000 C 
BRANCH  10  11
ATOM     11  C   UNL     1     -10.407  38.856   5.591  1.00  0.00    -0.000 C 
BRANCH  11  12
ATOM     12  C   UNL     1     -11.540  39.134   6.595  1.00  0.00    -0.000 C 
BRANCH  12  13
ATOM     13  C   UNL     1     -11.117  39.122   8.079  1.00  0.00    -0.000 C 
BRANCH  13  14
ATOM     14  C   UNL     1     -11.582  37.897   8.884  1.00  0.00    -0.000 C 
BRANCH  14  15
ATOM     15  C   UNL     1     -10.495  36.816   9.009  1.00  0.00    -0.000 C 
BRANCH  15  16
ATOM     16  C   UNL     1     -11.078  35.394   9.023  1.00  0.00    -0.003 C 
ATOM     17  C   UNL     1     -12.018  35.127   7.847  1.00  0.00     0.004 C 
ENDBRANCH  15  16
ENDBRANCH  14  15
ENDBRANCH  13  14
ENDBRANCH  12  13
ENDBRANCH  11  12
ENDBRANCH  10  11
ENDBRANCH   1  10
TORSDOF 13
ENDMDL
MODEL 2
REMARK VINA RESULT:    -4.774      0.595      2.850
REMARK INTER + INTRA:          -9.987
REMARK INTER:                  -8.268
REMARK INTRA:                  -1.719
REMARK UNBOUND:                -1.584
REMARK SMILES CCCCCCCCCCCCCCC(=O)[O-]
REMARK SMILES IDX 9 1 10 2 11 3 12 4 13 5 14 6 15 7 16 8 17 9 8 10 7 11 6 12
REMARK SMILES IDX 5 13 4 14 3 15 2 16 1 17
REMARK H PARENT
REMARK Flexibility Score: inf
ROOT
ATOM      1  C   UNL     1     -11.387  35.349   7.077  1.00  0.00     0.000 C 
ENDROOT
BRANCH   1   2
ATOM      2  C   UNL     1     -10.346  35.284   5.948  1.00  0.00     0.000 C 
BRANCH   2   3
ATOM      3  C   UNL     1      -9.296  34.182   6.177  1.00  0.00     0.000 C 
BRANCH   3   4
ATOM      4  C   UNL     1      -8.113  34.279   5.201  1.00  0.00     0.000 C 
BRANCH   4   5
ATOM      5  C   UNL     1      -6.808  33.722   5.796  1.00  0.00     0.006 C 
BRANCH   5   6
ATOM      6  C   UNL     1      -7.045  32.451   6.622  1.00  0.00     0.053 C 
BRANCH   6   7
ATOM      7  C   UNL     1      -6.081  31.363   6.259  1.00  0.00     0.041 C 
ATOM      8  O   UNL     1      -4.857  31.482   6.533  1.00  0.00    -0.550 OA
ATOM      9  O   UNL     1      -6.537  30.203   5.645  1.00  0.00    -0.550 OA
ENDBRANCH   6   7
ENDBRANCH   5   6
ENDBRANCH   4   5
ENDBRANCH   3   4
ENDBRANCH   2   3
ENDBRANCH   1   2
BRANCH   1  10
ATOM     10  C   UNL     1     -10.750  35.290   8.474  1.00  0.00     0.000 C 
BRANCH  10  11
ATOM     11  C   UNL     1     -10.485  36.703   9.016  1.00  0.00    -0.000 C 
BRANCH  11  12
ATOM     12  C   UNL     1     -11.638  37.680   8.722  1.00  0.00    -0.000 C 
BRANCH  12  13
ATOM     13  C   UNL     1     -11.214  39.017   8.079  1.00  0.00    -0.000 C 
BRANCH  13  14
ATOM     14  C   UNL     1     -11.507  39.143   6.573  1.00  0.00    -0.000 C 
BRANCH  14  15
ATOM     15  C   UNL     1     -10.263  38.906   5.701  1.00  0.00    -0.000 C 
BRANCH  15  16
ATOM     16  C   UNL     1      -8.957  38.980   6.506  1.00  0.00    -0.003 C 
ATOM     17  C   UNL     1      -7.910  37.972   6.033  1.00  0.00     0.004 C 
ENDBRANCH  15  16
ENDBRANCH  14  15
ENDBRANCH  13  14
ENDBRANCH  12  13
ENDBRANCH  11  12
ENDBRANCH  10  11
ENDBRANCH   1  10
TORSDOF 13
ENDMDL
MODEL 3
REMARK VINA RESULT:    -4.750      1.079      3.092
REMARK INTER + INTRA:          -9.944
REMARK INTER:                  -7.893
REMARK INTRA:                  -2.050
REMARK UNBOUND:                -1.584
REMARK SMILES CCCCCCCCCCCCCCC(=O)[O-]
REMARK SMILES IDX 9 1 10 2 11 3 12 4 13 5 14 6 15 7 16 8 17 9 8 10 7 11 6 12
REMARK SMILES IDX 5 13 4 14 3 15 2 16 1 17
REMARK H PARENT
REMARK Flexibility Score: inf
ROOT
ATOM      1  C   UNL     1     -10.505  35.931   8.615  1.00  0.00     0.000 C 
ENDROOT
BRANCH   1   2
ATOM      2  C   UNL     1     -11.360  35.764   7.349  1.00  0.00     0.000 C 
BRANCH   2   3
ATOM      3  C   UNL     1     -10.549  35.231   6.155  1.00  0.00     0.000 C 
BRANCH   3   4
ATOM      4  C   UNL     1      -9.147  34.748   6.560  1.00  0.00     0.000 C 
BRANCH   4   5
ATOM      5  C   UNL     1      -8.238  34.487   5.347  1.00  0.00     0.006 C 
BRANCH   5   6
ATOM      6  C   UNL     1      -8.086  32.990   5.048  1.00  0.00     0.053 C 
BRANCH   6   7
ATOM      7  C   UNL     1      -7.027  32.357   5.898  1.00  0.00     0.041 C 
ATOM      8  O   UNL     1      -5.958  32.975   6.145  1.00  0.00    -0.550 OA
ATOM      9  O   UNL     1      -7.232  31.095   6.442  1.00  0.00    -0.550 OA
ENDBRANCH   6   7
ENDBRANCH   5   6
ENDBRANCH   4   5
ENDBRANCH   3   4
ENDBRANCH   2   3
ENDBRANCH   1   2
BRANCH   1  10
ATOM     10  C   UNL     1     -11.068  36.993   9.573  1.00  0.00     0.000 C 
BRANCH  10  11
ATOM     11  C   UNL     1     -12.416  37.526   9.068  1.00  0.00    -0.000 C 
BRANCH  11  12
ATOM     12  C   UNL     1     -12.448  39.061   8.961  1.00  0.00    -0.000 C 
BRANCH  12  13
ATOM     13  C   UNL     1     -11.429  39.670   7.977  1.00  0.00    -0.000 C 
BRANCH  13  14
ATOM     14  C   UNL     1     -11.663  39.330   6.495  1.00  0.00    -0.000 C 
BRANCH  14  15
ATOM     15  C   UNL     1     -10.364  38.976   5.751  1.00  0.00    -0.000 C 
BRANCH  15  16
ATOM     16  C   UNL     1      -9.155  38.877   6.693  1.00  0.00    -0.003 C 
ATOM     17  C   UNL     1      -7.967  38.152   6.060  1.00  0.00     0.004 C 
ENDBRANCH  15  16
ENDBRANCH  14  15
ENDBRANCH  13  14
ENDBRANCH  12  13
ENDBRANCH  11  12
ENDBRANCH  10  11
ENDBRANCH   1  10
TORSDOF 13
ENDMDL
MODEL 4
REMARK VINA RESULT:    -4.624      1.023      1.671
REMARK INTER + INTRA:          -9.723
REMARK INTER:                  -8.229
REMARK INTRA:                  -1.494
REMARK UNBOUND:                -1.584
REMARK SMILES CCCCCCCCCCCCCCC(=O)[O-]
REMARK SMILES IDX 9 1 10 2 11 3 12 4 13 5 14 6 15 7 16 8 17 9 8 10 7 11 6 12
REMARK SMILES IDX 5 13 4 14 3 15 2 16 1 17
REMARK H PARENT
REMARK Flexibility Score: inf
ROOT
ATOM      1  C   UNL     1      -8.520  37.859   6.038  1.00  0.00     0.000 C 
ENDROOT
BRANCH   1   2
ATOM      2  C   UNL     1      -9.247  36.580   5.595  1.00  0.00     0.000 C 
BRANCH   2   3
ATOM      3  C   UNL     1      -8.470  35.303   5.960  1.00  0.00     0.000 C 
BRANCH   3   4
ATOM      4  C   UNL     1      -9.368  34.221   6.581  1.00  0.00     0.000 C 
BRANCH   4   5
ATOM      5  C   UNL     1      -8.661  32.859   6.693  1.00  0.00     0.006 C 
BRANCH   5   6
ATOM      6  C   UNL     1      -7.360  32.813   5.883  1.00  0.00     0.053 C 
BRANCH   6   7
ATOM      7  C   UNL     1      -6.479  31.677   6.306  1.00  0.00     0.041 C 
ATOM      8  O   UNL     1      -6.794  30.491   6.021  1.00  0.00    -0.550 OA
ATOM      9  O   UNL     1      -5.296  31.929   6.989  1.00  0.00    -0.550 OA
ENDBRANCH   6   7
ENDBRANCH   5   6
ENDBRANCH   4   5
ENDBRANCH   3   4
ENDBRANCH   2   3
ENDBRANCH   1   2
BRANCH   1  10
ATOM     10  C   UNL     1      -9.490  38.973   6.462  1.00  0.00     0.000 C 
BRANCH  10  11
ATOM     11  C   UNL     1     -10.753  38.963   5.588  1.00  0.00    -0.000 C 
BRANCH  11  12
ATOM     12  C   UNL     1     -11.869  39.866   6.142  1.00  0.00    -0.000 C 
BRANCH  12  13
ATOM     13  C   UNL     1     -12.730  39.234   7.255  1.00  0.00    -0.000 C 
BRANCH  13  14
ATOM     14  C   UNL     1     -12.436  39.738   8.679  1.00  0.00    -0.000 C 
BRANCH  14  15
ATOM     15  C   UNL     1     -11.797  38.662   9.573  1.00  0.00    -0.000 C 
BRANCH  15  16
ATOM     16  C   UNL     1     -11.739  37.287   8.889  1.00  0.00    -0.003 C 
ATOM     17  C   UNL     1     -10.439  36.537   9.175  1.00  0.00     0.004 C 
ENDBRANCH  15  16
ENDBRANCH  14  15
ENDBRANCH  13  14
ENDBRANCH  12  13
ENDBRANCH  11  12
ENDBRANCH  10  11
ENDBRANCH   1  10
TORSDOF 13
ENDMDL
MODEL 5
REMARK VINA RESULT:    -4.615      1.411      2.515
REMARK INTER + INTRA:          -9.707
REMARK INTER:                  -7.564
REMARK INTRA:                  -2.143
REMARK UNBOUND:                -1.584
REMARK SMILES CCCCCCCCCCCCCCC(=O)[O-]
REMARK SMILES IDX 9 1 10 2 11 3 12 4 13 5 14 6 15 7 16 8 17 9 8 10 7 11 6 12
REMARK SMILES IDX 5 13 4 14 3 15 2 16 1 17
REMARK H PARENT
REMARK Flexibility Score: inf
ROOT
ATOM      1  C   UNL     1     -10.580  38.627   5.690  1.00  0.00     0.000 C 
ENDROOT
BRANCH   1   2
ATOM      2  C   UNL     1      -9.155  38.969   6.154  1.00  0.00     0.000 C 
BRANCH   2   3
ATOM      3  C   UNL     1      -8.212  37.754   6.106  1.00  0.00     0.000 C 
BRANCH   3   4
ATOM      4  C   UNL     1      -8.877  36.513   5.491  1.00  0.00     0.000 C 
BRANCH   4   5
ATOM      5  C   UNL     1      -8.221  35.200   5.953  1.00  0.00     0.006 C 
BRANCH   5   6
ATOM      6  C   UNL     1      -8.971  33.964   5.438  1.00  0.00     0.053 C 
BRANCH   6   7
ATOM      7  C   UNL     1      -8.508  32.710   6.112  1.00  0.00     0.041 C 
ATOM      8  O   UNL     1      -7.659  31.965   5.552  1.00  0.00    -0.550 OA
ATOM      9  O   UNL     1      -8.989  32.376   7.372  1.00  0.00    -0.550 OA
ENDBRANCH   6   7
ENDBRANCH   5   6
ENDBRANCH   4   5
ENDBRANCH   3   4
ENDBRANCH   2   3
ENDBRANCH   1   2
BRANCH   1  10
ATOM     10  C   UNL     1     -11.659  39.351   6.510  1.00  0.00     0.000 C 
BRANCH  10  11
ATOM     11  C   UNL     1     -11.252  39.447   7.988  1.00  0.00    -0.000 C 
BRANCH  11  12
ATOM     12  C   UNL     1     -12.189  38.656   8.918  1.00  0.00    -0.000 C 
BRANCH  12  13
ATOM     13  C   UNL     1     -11.504  37.558   9.756  1.00  0.00    -0.000 C 
BRANCH  13  14
ATOM     14  C   UNL     1     -10.378  36.791   9.041  1.00  0.00    -0.000 C 
BRANCH  14  15
ATOM     15  C   UNL     1     -10.785  35.361   8.648  1.00  0.00    -0.000 C 
BRANCH  15  16
ATOM     16  C   UNL     1     -11.815  35.335   7.508  1.00  0.00    -0.003 C 
ATOM     17  C   UNL     1     -12.791  34.163   7.616  1.00  0.00     0.004 C 
ENDBRANCH  15  16
ENDBRANCH  14  15
ENDBRANCH  13  14
ENDBRANCH  12  13
ENDBRANCH  11  12
ENDBRANCH  10  11
ENDBRANCH   1  10
TORSDOF 13
ENDMDL
MODEL 6
REMARK VINA RESULT:    -4.512      2.855      5.523
REMARK INTER + INTRA:          -9.525
REMARK INTER:                  -8.975
REMARK INTRA:                  -0.551
REMARK UNBOUND:                -1.584
REMARK SMILES CCCCCCCCCCCCCCC(=O)[O-]
REMARK SMILES IDX 9 1 10 2 11 3 12 4 13 5 14 6 15 7 16 8 17 9 8 10 7 11 6 12
REMARK SMILES IDX 5 13 4 14 3 15 2 16 1 17
REMARK H PARENT
REMARK Flexibility Score: inf
ROOT
ATOM      1  C   UNL     1      -6.200  32.678   6.131  1.00  0.00     0.000 C 
ENDROOT
BRANCH   1   2
ATOM      2  C   UNL     1      -5.221  31.602   6.624  1.00  0.00     0.000 C 
BRANCH   2   3
ATOM      3  C   UNL     1      -5.375  30.272   5.865  1.00  0.00     0.000 C 
BRANCH   3   4
ATOM      4  C   UNL     1      -4.262  29.266   6.203  1.00  0.00     0.000 C 
BRANCH   4   5
ATOM      5  C   UNL     1      -3.449  29.679   7.442  1.00  0.00     0.006 C 
BRANCH   5   6
ATOM      6  C   UNL     1      -2.408  28.621   7.830  1.00  0.00     0.053 C 
BRANCH   6   7
ATOM      7  C   UNL     1      -2.916  27.705   8.902  1.00  0.00     0.041 C 
ATOM      8  O   UNL     1      -3.982  27.057   8.728  1.00  0.00    -0.550 OA
ATOM      9  O   UNL     1      -2.199  27.545  10.080  1.00  0.00    -0.550 OA
ENDBRANCH   6   7
ENDBRANCH   5   6
ENDBRANCH   4   5
ENDBRANCH   3   4
ENDBRANCH   2   3
ENDBRANCH   1   2
BRANCH   1  10
ATOM     10  C   UNL     1      -7.506  32.083   5.580  1.00  0.00     0.000 C 
BRANCH  10  11
ATOM     11  C   UNL     1      -8.502  33.192   5.214  1.00  0.00    -0.000 C 
BRANCH  11  12
ATOM     12  C   UNL     1      -9.128  33.864   6.449  1.00  0.00    -0.000 C 
BRANCH  12  13
ATOM     13  C   UNL     1     -10.034  35.075   6.147  1.00  0.00    -0.000 C 
BRANCH  13  14
ATOM     14  C   UNL     1      -9.312  36.310   5.579  1.00  0.00    -0.000 C 
BRANCH  14  15
ATOM     15  C   UNL     1      -9.138  37.431   6.618  1.00  0.00    -0.000 C 
BRANCH  15  16
ATOM     16  C   UNL     1      -9.295  38.831   6.005  1.00  0.00    -0.003 C 
ATOM     17  C   UNL     1     -10.734  39.138   5.590  1.00  0.00     0.004 C 
ENDBRANCH  15  16
ENDBRANCH  14  15
ENDBRANCH  13  14
ENDBRANCH  12  13
ENDBRANCH  11  12
ENDBRANCH  10  11
ENDBRANCH   1  10
TORSDOF 13
ENDMDL
MODEL 7
REMARK VINA RESULT:    -4.460      1.431      3.669
REMARK INTER + INTRA:          -9.434
REMARK INTER:                  -7.948
REMARK INTRA:                  -1.486
REMARK UNBOUND:                -1.584
REMARK SMILES CCCCCCCCCCCCCCC(=O)[O-]
REMARK SMILES IDX 9 1 10 2 11 3 12 4 13 5 14 6 15 7 16 8 17 9 8 10 7 11 6 12
REMARK SMILES IDX 5 13 4 14 3 15 2 16 1 17
REMARK H PARENT
REMARK Flexibility Score: inf
ROOT
ATOM      1  C   UNL     1     -10.789  36.984   9.521  1.00  0.00     0.000 C 
ENDROOT
BRANCH   1   2
ATOM      2  C   UNL     1     -11.299  35.596   9.105  1.00  0.00     0.000 C 
BRANCH   2   3
ATOM      3  C   UNL     1     -11.207  35.364   7.586  1.00  0.00     0.000 C 
BRANCH   3   4
ATOM      4  C   UNL     1     -10.005  34.491   7.193  1.00  0.00     0.000 C 
BRANCH   4   5
ATOM      5  C   UNL     1      -9.549  34.731   5.743  1.00  0.00     0.006 C 
BRANCH   5   6
ATOM      6  C   UNL     1      -8.021  34.746   5.612  1.00  0.00     0.053 C 
BRANCH   6   7
ATOM      7  C   UNL     1      -7.458  33.363   5.488  1.00  0.00     0.041 C 
ATOM      8  O   UNL     1      -8.130  32.453   4.933  1.00  0.00    -0.550 OA
ATOM      9  O   UNL     1      -6.181  33.085   5.958  1.00  0.00    -0.550 OA
ENDBRANCH   6   7
ENDBRANCH   5   6
ENDBRANCH   4   5
ENDBRANCH   3   4
ENDBRANCH   2   3
ENDBRANCH   1   2
BRANCH   1  10
ATOM     10  C   UNL     1     -11.889  37.857  10.144  1.00  0.00     0.000 C 
BRANCH  10  11
ATOM     11  C   UNL     1     -12.775  38.481   9.056  1.00  0.00    -0.000 C 
BRANCH  11  12
ATOM     12  C   UNL     1     -12.045  39.561   8.238  1.00  0.00    -0.000 C 
BRANCH  12  13
ATOM     13  C   UNL     1     -12.471  39.663   6.760  1.00  0.00    -0.000 C 
BRANCH  13  14
ATOM     14  C   UNL     1     -11.323  39.576   5.738  1.00  0.00    -0.000 C 
BRANCH  14  15
ATOM     15  C   UNL     1     -10.336  38.436   6.044  1.00  0.00    -0.000 C 
BRANCH  15  16
ATOM     16  C   UNL     1      -8.983  38.952   6.558  1.00  0.00    -0.003 C 
ATOM     17  C   UNL     1      -7.802  38.122   6.055  1.00  0.00     0.004 C 
ENDBRANCH  15  16
ENDBRANCH  14  15
ENDBRANCH  13  14
ENDBRANCH  12  13
ENDBRANCH  11  12
ENDBRANCH  10  11
ENDBRANCH   1  10
TORSDOF 13
ENDMDL
MODEL 8
REMARK VINA RESULT:    -4.400      1.314      2.346
REMARK INTER + INTRA:          -9.328
REMARK INTER:                  -8.028
REMARK INTRA:                  -1.301
REMARK UNBOUND:                -1.584
REMARK SMILES CCCCCCCCCCCCCCC(=O)[O-]
REMARK SMILES IDX 9 1 10 2 11 3 12 4 13 5 14 6 15 7 16 8 17 9 8 10 7 11 6 12
REMARK SMILES IDX 5 13 4 14 3 15 2 16 1 17
REMARK H PARENT
REMARK Flexibility Score: inf
ROOT
ATOM      1  C   UNL     1      -9.357  35.426   6.655  1.00  0.00     0.000 C 
ENDROOT
BRANCH   1   2
ATOM      2  C   UNL     1      -8.989  33.997   6.227  1.00  0.00     0.000 C 
BRANCH   2   3
ATOM      3  C   UNL     1      -7.874  33.967   5.166  1.00  0.00     0.000 C 
BRANCH   3   4
ATOM      4  C   UNL     1      -6.499  33.627   5.764  1.00  0.00     0.000 C 
BRANCH   4   5
ATOM      5  C   UNL     1      -6.550  32.418   6.714  1.00  0.00     0.006 C 
BRANCH   5   6
ATOM      6  C   UNL     1      -5.782  31.212   6.158  1.00  0.00     0.053 C 
BRANCH   6   7
ATOM      7  C   UNL     1      -6.706  30.126   5.698  1.00  0.00     0.041 C 
ATOM      8  O   UNL     1      -6.252  28.984   5.417  1.00  0.00    -0.550 OA
ATOM      9  O   UNL     1      -8.071  30.364   5.606  1.00  0.00    -0.550 OA
ENDBRANCH   6   7
ENDBRANCH   5   6
ENDBRANCH   4   5
ENDBRANCH   3   4
ENDBRANCH   2   3
ENDBRANCH   1   2
BRANCH   1  10
ATOM     10  C   UNL     1      -9.079  36.463   5.555  1.00  0.00     0.000 C 
BRANCH  10  11
ATOM     11  C   UNL     1      -8.230  37.622   6.098  1.00  0.00    -0.000 C 
BRANCH  11  12
ATOM     12  C   UNL     1      -9.012  38.945   6.186  1.00  0.00    -0.000 C 
BRANCH  12  13
ATOM     13  C   UNL     1     -10.493  38.859   5.764  1.00  0.00    -0.000 C 
BRANCH  13  14
ATOM     14  C   UNL     1     -11.511  39.216   6.861  1.00  0.00    -0.000 C 
BRANCH  14  15
ATOM     15  C   UNL     1     -11.967  37.992   7.673  1.00  0.00    -0.000 C 
BRANCH  15  16
ATOM     16  C   UNL     1     -11.127  37.783   8.943  1.00  0.00    -0.003 C 
ATOM     17  C   UNL     1     -11.955  37.878  10.224  1.00  0.00     0.004 C 
ENDBRANCH  15  16
ENDBRANCH  14  15
ENDBRANCH  13  14
ENDBRANCH  12  13
ENDBRANCH  11  12
ENDBRANCH  10  11
ENDBRANCH   1  10
TORSDOF 13
ENDMDL
MODEL 9
REMARK VINA RESULT:    -4.374     13.204     15.089
REMARK INTER + INTRA:          -9.283
REMARK INTER:                  -7.329
REMARK INTRA:                  -1.954
REMARK UNBOUND:                -1.584
REMARK SMILES CCCCCCCCCCCCCCC(=O)[O-]
REMARK SMILES IDX 9 1 10 2 11 3 12 4 13 5 14 6 15 7 16 8 17 9 8 10 7 11 6 12
REMARK SMILES IDX 5 13 4 14 3 15 2 16 1 17
REMARK H PARENT
REMARK Flexibility Score: inf
ROOT
ATOM      1  C   UNL     1      -0.333  41.896   0.381  1.00  0.00     0.000 C 
ENDROOT
BRANCH   1   2
ATOM      2  C   UNL     1      -0.295  42.908   1.536  1.00  0.00     0.000 C 
BRANCH   2   3
ATOM      3  C   UNL     1       0.900  42.682   2.479  1.00  0.00     0.000 C 
BRANCH   3   4
ATOM      4  C   UNL     1       1.769  41.486   2.057  1.00  0.00     0.000 C 
BRANCH   4   5
ATOM      5  C   UNL     1       3.263  41.843   1.971  1.00  0.00     0.006 C 
BRANCH   5   6
ATOM      6  C   UNL     1       4.162  40.686   2.426  1.00  0.00     0.053 C 
BRANCH   6   7
ATOM      7  C   UNL     1       5.379  40.553   1.563  1.00  0.00     0.041 C 
ATOM      8  O   UNL     1       6.224  39.647   1.794  1.00  0.00    -0.550 OA
ATOM      9  O   UNL     1       5.568  41.410   0.486  1.00  0.00    -0.550 OA
ENDBRANCH   6   7
ENDBRANCH   5   6
ENDBRANCH   4   5
ENDBRANCH   3   4
ENDBRANCH   2   3
ENDBRANCH   1   2
BRANCH   1  10
ATOM     10  C   UNL     1      -0.380  42.573  -0.998  1.00  0.00     0.000 C 
BRANCH  10  11
ATOM     11  C   UNL     1      -1.405  43.716  -1.012  1.00  0.00    -0.000 C 
BRANCH  11  12
ATOM     12  C   UNL     1      -1.032  44.840  -1.996  1.00  0.00    -0.000 C 
BRANCH  12  13
ATOM     13  C   UNL     1       0.353  45.478  -1.766  1.00  0.00    -0.000 C 
BRANCH  13  14
ATOM     14  C   UNL     1       0.605  46.006  -0.342  1.00  0.00    -0.000 C 
BRANCH  14  15
ATOM     15  C   UNL     1       1.967  45.571   0.224  1.00  0.00    -0.000 C 
BRANCH  15  16
ATOM     16  C   UNL     1       2.606  44.434  -0.589  1.00  0.00    -0.003 C 
ATOM     17  C   UNL     1       4.132  44.512  -0.621  1.00  0.00     0.004 C 
ENDBRANCH  15  16
ENDBRANCH  14  15
ENDBRANCH  13  14
ENDBRANCH  12  13
ENDBRANCH  11  12
ENDBRANCH  10  11
ENDBRANCH   1  10
TORSDOF 13
ENDMDL
