MODEL 1
REMARK VINA RESULT:    -4.437      0.000      0.000
REMARK INTER + INTRA:          -6.239
REMARK INTER:                  -5.864
REMARK INTRA:                  -0.375
REMARK UNBOUND:                -0.375
REMARK SMILES C=C[C@H](O)CCCCC
REMARK SMILES IDX 6 1 7 2 8 3 9 4 5 5 3 6 2 7 1 8 4 9
REMARK H PARENT 4 10
REMARK Flexibility Score: inf
ROOT
ATOM      1  C   UNL     1      14.481  15.895  26.611  1.00  0.00     0.003 C 
ENDROOT
BRANCH   1   2
ATOM      2  C   UNL     1      14.451  16.525  28.008  1.00  0.00    -0.000 C 
BRANCH   2   3
ATOM      3  C   UNL     1      13.817  15.571  29.028  1.00  0.00    -0.003 C 
ATOM      4  C   UNL     1      14.872  14.696  29.695  1.00  0.00     0.004 C 
ENDBRANCH   2   3
ENDBRANCH   1   2
BRANCH   1   5
ATOM      5  C   UNL     1      13.065  15.526  26.142  1.00  0.00     0.036 C 
BRANCH   5   6
ATOM      6  C   UNL     1      12.651  16.299  24.872  1.00  0.00     0.136 C 
BRANCH   6   7
ATOM      7  C   UNL     1      12.018  17.628  25.202  1.00  0.00    -0.004 C 
ATOM      8  C   UNL     1      11.290  17.820  26.308  1.00  0.00     0.007 C 
ENDBRANCH   6   7
BRANCH   6   9
ATOM      9  O   UNL     1      11.748  15.533  24.118  1.00  0.00    -0.389 OA
ATOM     10  H   UNL     1      12.035  14.586  24.198  1.00  0.00     0.211 HD
ENDBRANCH   6   9
ENDBRANCH   5   6
ENDBRANCH   1   5
TORSDOF 6
ENDMDL
MODEL 2
REMARK VINA RESULT:    -4.378      2.109      3.062
REMARK INTER + INTRA:          -6.161
REMARK INTER:                  -5.917
REMARK INTRA:                  -0.244
REMARK UNBOUND:                -0.375
REMARK SMILES C=C[C@H](O)CCCCC
REMARK SMILES IDX 6 1 7 2 8 3 9 4 5 5 3 6 2 7 1 8 4 9
REMARK H PARENT 4 10
REMARK Flexibility Score: inf
ROOT
ATOM      1  C   UNL     1      15.318  15.130  28.799  1.00  0.00     0.003 C 
ENDROOT
BRANCH   1   2
ATOM      2  C   UNL     1      14.456  14.729  30.001  1.00  0.00    -0.000 C 
BRANCH   2   3
ATOM      3  C   UNL     1      15.105  13.582  30.786  1.00  0.00    -0.003 C 
ATOM      4  C   UNL     1      14.744  13.653  32.266  1.00  0.00     0.004 C 
ENDBRANCH   2   3
ENDBRANCH   1   2
BRANCH   1   5
ATOM      5  C   UNL     1      14.686  16.303  28.034  1.00  0.00     0.036 C 
BRANCH   5   6
ATOM      6  C   UNL     1      13.152  16.178  27.935  1.00  0.00     0.136 C 
BRANCH   6   7
ATOM      7  C   UNL     1      12.704  15.810  26.542  1.00  0.00    -0.004 C 
ATOM      8  C   UNL     1      13.571  15.529  25.563  1.00  0.00     0.007 C 
ENDBRANCH   6   7
BRANCH   6   9
ATOM      9  O   UNL     1      12.547  17.388  28.308  1.00  0.00    -0.389 OA
ATOM     10  H   UNL     1      13.196  17.872  28.882  1.00  0.00     0.211 HD
ENDBRANCH   6   9
ENDBRANCH   5   6
ENDBRANCH   1   5
TORSDOF 6
ENDMDL
MODEL 3
REMARK VINA RESULT:    -4.321      1.767      4.427
REMARK INTER + INTRA:          -6.086
REMARK INTER:                  -5.820
REMARK INTRA:                  -0.266
REMARK UNBOUND:                -0.375
REMARK SMILES C=C[C@H](O)CCCCC
REMARK SMILES IDX 6 1 7 2 8 3 9 4 5 5 3 6 2 7 1 8 4 9
REMARK H PARENT 4 10
REMARK Flexibility Score: inf
ROOT
ATOM      1  C   UNL     1      14.651  16.284  26.486  1.00  0.00     0.003 C 
ENDROOT
BRANCH   1   2
ATOM      2  C   UNL     1      14.396  17.145  25.244  1.00  0.00    -0.000 C 
BRANCH   2   3
ATOM      3  C   UNL     1      12.901  17.448  25.082  1.00  0.00    -0.003 C 
ATOM      4  C   UNL     1      12.156  16.253  24.497  1.00  0.00     0.004 C 
ENDBRANCH   2   3
ENDBRANCH   1   2
BRANCH   1   5
ATOM      5  C   UNL     1      14.086  16.955  27.748  1.00  0.00     0.036 C 
BRANCH   5   6
ATOM      6  C   UNL     1      13.631  15.926  28.803  1.00  0.00     0.136 C 
BRANCH   6   7
ATOM      7  C   UNL     1      14.750  14.996  29.205  1.00  0.00    -0.004 C 
ATOM      8  C   UNL     1      14.719  14.290  30.340  1.00  0.00     0.007 C 
ENDBRANCH   6   7
BRANCH   6   9
ATOM      9  O   UNL     1      12.560  15.168  28.302  1.00  0.00    -0.389 OA
ATOM     10  H   UNL     1      12.945  14.508  27.669  1.00  0.00     0.211 HD
ENDBRANCH   6   9
ENDBRANCH   5   6
ENDBRANCH   1   5
TORSDOF 6
ENDMDL
MODEL 4
REMARK VINA RESULT:    -4.248      1.978      4.384
REMARK INTER + INTRA:          -5.989
REMARK INTER:                  -5.684
REMARK INTRA:                  -0.305
REMARK UNBOUND:                -0.375
REMARK SMILES C=C[C@H](O)CCCCC
REMARK SMILES IDX 6 1 7 2 8 3 9 4 5 5 3 6 2 7 1 8 4 9
REMARK H PARENT 4 10
REMARK Flexibility Score: inf
ROOT
ATOM      1  C   UNL     1      13.625  15.493  25.653  1.00  0.00     0.003 C 
ENDROOT
BRANCH   1   2
ATOM      2  C   UNL     1      14.117  16.899  25.294  1.00  0.00    -0.000 C 
BRANCH   2   3
ATOM      3  C   UNL     1      12.960  17.780  24.809  1.00  0.00    -0.003 C 
ATOM      4  C   UNL     1      12.199  17.112  23.668  1.00  0.00     0.004 C 
ENDBRANCH   2   3
ENDBRANCH   1   2
BRANCH   1   5
ATOM      5  C   UNL     1      12.779  15.515  26.935  1.00  0.00     0.036 C 
BRANCH   5   6
ATOM      6  C   UNL     1      13.451  16.323  28.064  1.00  0.00     0.136 C 
BRANCH   6   7
ATOM      7  C   UNL     1      13.833  15.448  29.234  1.00  0.00    -0.004 C 
ATOM      8  C   UNL     1      14.991  14.781  29.280  1.00  0.00     0.007 C 
ENDBRANCH   6   7
BRANCH   6   9
ATOM      9  O   UNL     1      12.586  17.335  28.510  1.00  0.00    -0.389 OA
ATOM     10  H   UNL     1      13.134  17.969  29.042  1.00  0.00     0.211 HD
ENDBRANCH   6   9
ENDBRANCH   5   6
ENDBRANCH   1   5
TORSDOF 6
ENDMDL
MODEL 5
REMARK VINA RESULT:    -4.243      2.258      4.581
REMARK INTER + INTRA:          -5.982
REMARK INTER:                  -5.501
REMARK INTRA:                  -0.480
REMARK UNBOUND:                -0.375
REMARK SMILES C=C[C@H](O)CCCCC
REMARK SMILES IDX 6 1 7 2 8 3 9 4 5 5 3 6 2 7 1 8 4 9
REMARK H PARENT 4 10
REMARK Flexibility Score: inf
ROOT
ATOM      1  C   UNL     1      11.698  18.057  27.058  1.00  0.00     0.003 C 
ENDROOT
BRANCH   1   2
ATOM      2  C   UNL     1      11.330  17.642  25.629  1.00  0.00    -0.000 C 
BRANCH   2   3
ATOM      3  C   UNL     1      12.492  17.902  24.663  1.00  0.00    -0.003 C 
ATOM      4  C   UNL     1      12.176  17.376  23.267  1.00  0.00     0.004 C 
ENDBRANCH   2   3
ENDBRANCH   1   2
BRANCH   1   5
ATOM      5  C   UNL     1      13.216  17.972  27.282  1.00  0.00     0.036 C 
BRANCH   5   6
ATOM      6  C   UNL     1      13.602  16.827  28.240  1.00  0.00     0.136 C 
BRANCH   6   7
ATOM      7  C   UNL     1      13.530  15.478  27.566  1.00  0.00    -0.004 C 
ATOM      8  C   UNL     1      14.174  15.215  26.424  1.00  0.00     0.007 C 
ENDBRANCH   6   7
BRANCH   6   9
ATOM      9  O   UNL     1      12.751  16.828  29.357  1.00  0.00    -0.389 OA
ATOM     10  H   UNL     1      13.241  17.280  30.093  1.00  0.00     0.211 HD
ENDBRANCH   6   9
ENDBRANCH   5   6
ENDBRANCH   1   5
TORSDOF 6
ENDMDL
MODEL 6
REMARK VINA RESULT:    -4.216      1.317      1.852
REMARK INTER + INTRA:          -5.946
REMARK INTER:                  -5.618
REMARK INTRA:                  -0.328
REMARK UNBOUND:                -0.375
REMARK SMILES C=C[C@H](O)CCCCC
REMARK SMILES IDX 6 1 7 2 8 3 9 4 5 5 3 6 2 7 1 8 4 9
REMARK H PARENT 4 10
REMARK Flexibility Score: inf
ROOT
ATOM      1  C   UNL     1      13.914  16.787  28.223  1.00  0.00     0.003 C 
ENDROOT
BRANCH   1   2
ATOM      2  C   UNL     1      13.640  15.619  29.177  1.00  0.00    -0.000 C 
BRANCH   2   3
ATOM      3  C   UNL     1      14.899  14.768  29.382  1.00  0.00    -0.003 C 
ATOM      4  C   UNL     1      14.840  14.005  30.701  1.00  0.00     0.004 C 
ENDBRANCH   2   3
ENDBRANCH   1   2
BRANCH   1   5
ATOM      5  C   UNL     1      14.881  16.369  27.105  1.00  0.00     0.036 C 
BRANCH   5   6
ATOM      6  C   UNL     1      14.168  16.203  25.747  1.00  0.00     0.136 C 
BRANCH   6   7
ATOM      7  C   UNL     1      12.829  16.899  25.724  1.00  0.00    -0.004 C 
ATOM      8  C   UNL     1      11.942  16.710  24.742  1.00  0.00     0.007 C 
ENDBRANCH   6   7
BRANCH   6   9
ATOM      9  O   UNL     1      13.983  14.840  25.466  1.00  0.00    -0.389 OA
ATOM     10  H   UNL     1      13.045  14.733  25.160  1.00  0.00     0.211 HD
ENDBRANCH   6   9
ENDBRANCH   5   6
ENDBRANCH   1   5
TORSDOF 6
ENDMDL
MODEL 7
REMARK VINA RESULT:    -4.111      1.628      4.304
REMARK INTER + INTRA:          -5.808
REMARK INTER:                  -5.464
REMARK INTRA:                  -0.344
REMARK UNBOUND:                -0.375
REMARK SMILES C=C[C@H](O)CCCCC
REMARK SMILES IDX 6 1 7 2 8 3 9 4 5 5 3 6 2 7 1 8 4 9
REMARK H PARENT 4 10
REMARK Flexibility Score: inf
ROOT
ATOM      1  C   UNL     1      12.837  17.391  27.001  1.00  0.00     0.003 C 
ENDROOT
BRANCH   1   2
ATOM      2  C   UNL     1      11.652  17.805  26.121  1.00  0.00    -0.000 C 
BRANCH   2   3
ATOM      3  C   UNL     1      11.673  17.056  24.782  1.00  0.00    -0.003 C 
ATOM      4  C   UNL     1      12.621  17.724  23.792  1.00  0.00     0.004 C 
ENDBRANCH   2   3
ENDBRANCH   1   2
BRANCH   1   5
ATOM      5  C   UNL     1      12.906  15.863  27.148  1.00  0.00     0.036 C 
BRANCH   5   6
ATOM      6  C   UNL     1      14.319  15.312  26.863  1.00  0.00     0.136 C 
BRANCH   6   7
ATOM      7  C   UNL     1      15.176  15.285  28.105  1.00  0.00    -0.004 C 
ATOM      8  C   UNL     1      14.668  15.043  29.319  1.00  0.00     0.007 C 
ENDBRANCH   6   7
BRANCH   6   9
ATOM      9  O   UNL     1      14.951  16.097  25.885  1.00  0.00    -0.389 OA
ATOM     10  H   UNL     1      15.287  15.475  25.189  1.00  0.00     0.211 HD
ENDBRANCH   6   9
ENDBRANCH   5   6
ENDBRANCH   1   5
TORSDOF 6
ENDMDL
MODEL 8
REMARK VINA RESULT:    -4.030      2.532      5.193
REMARK INTER + INTRA:          -5.701
REMARK INTER:                  -5.546
REMARK INTRA:                  -0.155
REMARK UNBOUND:                -0.375
REMARK SMILES C=C[C@H](O)CCCCC
REMARK SMILES IDX 6 1 7 2 8 3 9 4 5 5 3 6 2 7 1 8 4 9
REMARK H PARENT 4 10
REMARK Flexibility Score: inf
ROOT
ATOM      1  C   UNL     1      13.686  15.874  27.432  1.00  0.00     0.003 C 
ENDROOT
BRANCH   1   2
ATOM      2  C   UNL     1      13.654  17.383  27.163  1.00  0.00    -0.000 C 
BRANCH   2   3
ATOM      3  C   UNL     1      12.224  17.929  27.259  1.00  0.00    -0.003 C 
ATOM      4  C   UNL     1      11.445  17.664  25.975  1.00  0.00     0.004 C 
ENDBRANCH   2   3
ENDBRANCH   1   2
BRANCH   1   5
ATOM      5  C   UNL     1      13.593  15.581  28.938  1.00  0.00     0.036 C 
BRANCH   5   6
ATOM      6  C   UNL     1      14.789  14.750  29.446  1.00  0.00     0.136 C 
BRANCH   6   7
ATOM      7  C   UNL     1      14.582  14.271  30.863  1.00  0.00    -0.004 C 
ATOM      8  C   UNL     1      15.243  13.223  31.366  1.00  0.00     0.007 C 
ENDBRANCH   6   7
BRANCH   6   9
ATOM      9  O   UNL     1      15.964  15.515  29.385  1.00  0.00    -0.389 OA
ATOM     10  H   UNL     1      16.655  15.024  29.902  1.00  0.00     0.211 HD
ENDBRANCH   6   9
ENDBRANCH   5   6
ENDBRANCH   1   5
TORSDOF 6
ENDMDL
MODEL 9
REMARK VINA RESULT:    -3.811      1.267      1.680
REMARK INTER + INTRA:          -5.412
REMARK INTER:                  -5.154
REMARK INTRA:                  -0.258
REMARK UNBOUND:                -0.375
REMARK SMILES C=C[C@H](O)CCCCC
REMARK SMILES IDX 6 1 7 2 8 3 9 4 5 5 3 6 2 7 1 8 4 9
REMARK H PARENT 4 10
REMARK Flexibility Score: inf
ROOT
ATOM      1  C   UNL     1      13.284  16.782  27.451  1.00  0.00     0.003 C 
ENDROOT
BRANCH   1   2
ATOM      2  C   UNL     1      14.614  16.170  26.998  1.00  0.00    -0.000 C 
BRANCH   2   3
ATOM      3  C   UNL     1      15.158  15.196  28.049  1.00  0.00    -0.003 C 
ATOM      4  C   UNL     1      14.307  15.218  29.315  1.00  0.00     0.004 C 
ENDBRANCH   2   3
ENDBRANCH   1   2
BRANCH   1   5
ATOM      5  C   UNL     1      12.293  16.876  26.281  1.00  0.00     0.036 C 
BRANCH   5   6
ATOM      6  C   UNL     1      12.901  16.367  24.958  1.00  0.00     0.136 C 
BRANCH   6   7
ATOM      7  C   UNL     1      13.028  17.469  23.934  1.00  0.00    -0.004 C 
ATOM      8  C   UNL     1      12.162  17.610  22.925  1.00  0.00     0.007 C 
ENDBRANCH   6   7
BRANCH   6   9
ATOM      9  O   UNL     1      12.106  15.337  24.430  1.00  0.00    -0.389 OA
ATOM     10  H   UNL     1      12.451  15.144  23.519  1.00  0.00     0.211 HD
ENDBRANCH   6   9
ENDBRANCH   5   6
ENDBRANCH   1   5
TORSDOF 6
ENDMDL
