MODEL 1
REMARK VINA RESULT:    -4.313      0.000      0.000
REMARK INTER + INTRA:          -6.639
REMARK INTER:                  -6.330
REMARK INTRA:                  -0.310
REMARK UNBOUND:                -0.310
REMARK SMILES O=C([O-])CCCCCCCC(=O)[O-]
REMARK SMILES IDX 7 1 6 2 5 3 4 4 2 5 1 6 3 7 8 8 9 9 10 10 11 11 12 12 13 13
REMARK H PARENT
REMARK Flexibility Score: inf
ROOT
ATOM      1  C   UNL     1     -31.475 -22.571 -33.907  1.00  0.00     0.000 C 
ENDROOT
BRANCH   1   2
ATOM      2  C   UNL     1     -30.800 -21.211 -33.639  1.00  0.00     0.000 C 
BRANCH   2   3
ATOM      3  C   UNL     1     -29.509 -21.278 -32.798  1.00  0.00     0.006 C 
BRANCH   3   4
ATOM      4  C   UNL     1     -29.616 -20.609 -31.419  1.00  0.00     0.053 C 
BRANCH   4   5
ATOM      5  C   UNL     1     -30.346 -21.469 -30.435  1.00  0.00     0.041 C 
ATOM      6  O   UNL     1     -31.002 -20.944 -29.497  1.00  0.00    -0.550 OA
ATOM      7  O   UNL     1     -30.331 -22.851 -30.573  1.00  0.00    -0.550 OA
ENDBRANCH   4   5
ENDBRANCH   3   4
ENDBRANCH   2   3
ENDBRANCH   1   2
BRANCH   1   8
ATOM      8  C   UNL     1     -32.528 -22.569 -35.033  1.00  0.00     0.000 C 
BRANCH   8   9
ATOM      9  C   UNL     1     -32.446 -23.763 -36.002  1.00  0.00     0.006 C 
BRANCH   9  10
ATOM     10  C   UNL     1     -31.135 -23.795 -36.797  1.00  0.00     0.053 C 
BRANCH  10  11
ATOM     11  C   UNL     1     -31.306 -24.587 -38.055  1.00  0.00     0.041 C 
ATOM     12  O   UNL     1     -31.644 -24.013 -39.124  1.00  0.00    -0.550 OA
ATOM     13  O   UNL     1     -31.142 -25.966 -38.036  1.00  0.00    -0.550 OA
ENDBRANCH  10  11
ENDBRANCH   9  10
ENDBRANCH   8   9
ENDBRANCH   1   8
TORSDOF 8
ENDMDL
MODEL 2
REMARK VINA RESULT:    -4.209      0.434      6.877
REMARK INTER + INTRA:          -6.488
REMARK INTER:                  -6.249
REMARK INTRA:                  -0.239
REMARK UNBOUND:                -0.310
REMARK SMILES O=C([O-])CCCCCCCC(=O)[O-]
REMARK SMILES IDX 7 1 6 2 5 3 4 4 2 5 1 6 3 7 8 8 9 9 10 10 11 11 12 12 13 13
REMARK H PARENT
REMARK Flexibility Score: inf
ROOT
ATOM      1  C   UNL     1     -31.478 -22.490 -34.101  1.00  0.00     0.000 C 
ENDROOT
BRANCH   1   2
ATOM      2  C   UNL     1     -32.682 -22.341 -35.052  1.00  0.00     0.000 C 
BRANCH   2   3
ATOM      3  C   UNL     1     -32.451 -22.864 -36.484  1.00  0.00     0.006 C 
BRANCH   3   4
ATOM      4  C   UNL     1     -31.516 -24.080 -36.571  1.00  0.00     0.053 C 
BRANCH   4   5
ATOM      5  C   UNL     1     -31.458 -24.643 -37.957  1.00  0.00     0.041 C 
ATOM      6  O   UNL     1     -31.328 -25.884 -38.132  1.00  0.00    -0.550 OA
ATOM      7  O   UNL     1     -31.580 -23.802 -39.056  1.00  0.00    -0.550 OA
ENDBRANCH   4   5
ENDBRANCH   3   4
ENDBRANCH   2   3
ENDBRANCH   1   2
BRANCH   1   8
ATOM      8  C   UNL     1     -31.022 -21.189 -33.411  1.00  0.00     0.000 C 
BRANCH   8   9
ATOM      9  C   UNL     1     -29.524 -21.127 -33.066  1.00  0.00     0.006 C 
BRANCH   9  10
ATOM     10  C   UNL     1     -29.263 -20.683 -31.621  1.00  0.00     0.053 C 
BRANCH  10  11
ATOM     11  C   UNL     1     -30.254 -21.311 -30.694  1.00  0.00     0.041 C 
ATOM     12  O   UNL     1     -31.021 -20.590 -30.002  1.00  0.00    -0.550 OA
ATOM     13  O   UNL     1     -30.299 -22.693 -30.557  1.00  0.00    -0.550 OA
ENDBRANCH  10  11
ENDBRANCH   9  10
ENDBRANCH   8   9
ENDBRANCH   1   8
TORSDOF 8
ENDMDL
MODEL 3
REMARK VINA RESULT:    -4.088      1.405      1.876
REMARK INTER + INTRA:          -6.309
REMARK INTER:                  -6.011
REMARK INTRA:                  -0.299
REMARK UNBOUND:                -0.310
REMARK SMILES O=C([O-])CCCCCCCC(=O)[O-]
REMARK SMILES IDX 7 1 6 2 5 3 4 4 2 5 1 6 3 7 8 8 9 9 10 10 11 11 12 12 13 13
REMARK H PARENT
REMARK Flexibility Score: inf
ROOT
ATOM      1  C   UNL     1     -31.198 -22.381 -33.469  1.00  0.00     0.000 C 
ENDROOT
BRANCH   1   2
ATOM      2  C   UNL     1     -30.295 -21.132 -33.444  1.00  0.00     0.000 C 
BRANCH   2   3
ATOM      3  C   UNL     1     -29.286 -21.081 -32.279  1.00  0.00     0.006 C 
BRANCH   3   4
ATOM      4  C   UNL     1     -29.674 -20.117 -31.148  1.00  0.00     0.053 C 
BRANCH   4   5
ATOM      5  C   UNL     1     -30.560 -20.772 -30.134  1.00  0.00     0.041 C 
ATOM      6  O   UNL     1     -30.394 -21.984 -29.835  1.00  0.00    -0.550 OA
ATOM      7  O   UNL     1     -31.548 -20.035 -29.494  1.00  0.00    -0.550 OA
ENDBRANCH   4   5
ENDBRANCH   3   4
ENDBRANCH   2   3
ENDBRANCH   1   2
BRANCH   1   8
ATOM      8  C   UNL     1     -32.191 -22.448 -34.647  1.00  0.00     0.000 C 
BRANCH   8   9
ATOM      9  C   UNL     1     -31.939 -23.591 -35.646  1.00  0.00     0.006 C 
BRANCH   9  10
ATOM     10  C   UNL     1     -32.991 -23.653 -36.760  1.00  0.00     0.053 C 
BRANCH  10  11
ATOM     11  C   UNL     1     -32.719 -22.607 -37.795  1.00  0.00     0.041 C 
ATOM     12  O   UNL     1     -33.541 -21.673 -37.983  1.00  0.00    -0.550 OA
ATOM     13  O   UNL     1     -31.580 -22.693 -38.586  1.00  0.00    -0.550 OA
ENDBRANCH  10  11
ENDBRANCH   9  10
ENDBRANCH   8   9
ENDBRANCH   1   8
TORSDOF 8
ENDMDL
MODEL 4
REMARK VINA RESULT:    -4.065      2.286      7.457
REMARK INTER + INTRA:          -6.275
REMARK INTER:                  -6.063
REMARK INTRA:                  -0.212
REMARK UNBOUND:                -0.310
REMARK SMILES O=C([O-])CCCCCCCC(=O)[O-]
REMARK SMILES IDX 7 1 6 2 5 3 4 4 2 5 1 6 3 7 8 8 9 9 10 10 11 11 12 12 13 13
REMARK H PARENT
REMARK Flexibility Score: inf
ROOT
ATOM      1  C   UNL     1     -31.193 -23.667 -36.751  1.00  0.00     0.000 C 
ENDROOT
BRANCH   1   2
ATOM      2  C   UNL     1     -31.732 -24.304 -38.047  1.00  0.00     0.000 C 
BRANCH   2   3
ATOM      3  C   UNL     1     -31.520 -25.828 -38.162  1.00  0.00     0.006 C 
BRANCH   3   4
ATOM      4  C   UNL     1     -32.807 -26.657 -38.041  1.00  0.00     0.053 C 
BRANCH   4   5
ATOM      5  C   UNL     1     -32.627 -28.049 -38.564  1.00  0.00     0.041 C 
ATOM      6  O   UNL     1     -31.482 -28.460 -38.892  1.00  0.00    -0.550 OA
ATOM      7  O   UNL     1     -33.717 -28.904 -38.657  1.00  0.00    -0.550 OA
ENDBRANCH   4   5
ENDBRANCH   3   4
ENDBRANCH   2   3
ENDBRANCH   1   2
BRANCH   1   8
ATOM      8  C   UNL     1     -32.205 -23.586 -35.591  1.00  0.00     0.000 C 
BRANCH   8   9
ATOM      9  C   UNL     1     -32.122 -22.304 -34.744  1.00  0.00     0.006 C 
BRANCH   9  10
ATOM     10  C   UNL     1     -31.293 -22.486 -33.467  1.00  0.00     0.053 C 
BRANCH  10  11
ATOM     11  C   UNL     1     -30.590 -21.214 -33.114  1.00  0.00     0.041 C 
ATOM     12  O   UNL     1     -29.331 -21.170 -33.097  1.00  0.00    -0.550 OA
ATOM     13  O   UNL     1     -31.323 -20.090 -32.755  1.00  0.00    -0.550 OA
ENDBRANCH  10  11
ENDBRANCH   9  10
ENDBRANCH   8   9
ENDBRANCH   1   8
TORSDOF 8
ENDMDL
MODEL 5
REMARK VINA RESULT:    -3.961      1.062      7.067
REMARK INTER + INTRA:          -6.123
REMARK INTER:                  -5.859
REMARK INTRA:                  -0.264
REMARK UNBOUND:                -0.310
REMARK SMILES O=C([O-])CCCCCCCC(=O)[O-]
REMARK SMILES IDX 7 1 6 2 5 3 4 4 2 5 1 6 3 7 8 8 9 9 10 10 11 11 12 12 13 13
REMARK H PARENT
REMARK Flexibility Score: inf
ROOT
ATOM      1  C   UNL     1     -30.793 -22.156 -33.197  1.00  0.00     0.000 C 
ENDROOT
BRANCH   1   2
ATOM      2  C   UNL     1     -31.743 -21.997 -34.401  1.00  0.00     0.000 C 
BRANCH   2   3
ATOM      3  C   UNL     1     -32.014 -23.293 -35.193  1.00  0.00     0.006 C 
BRANCH   3   4
ATOM      4  C   UNL     1     -32.589 -23.066 -36.599  1.00  0.00     0.053 C 
BRANCH   4   5
ATOM      5  C   UNL     1     -31.634 -23.496 -37.670  1.00  0.00     0.041 C 
ATOM      6  O   UNL     1     -31.341 -22.711 -38.610  1.00  0.00    -0.550 OA
ATOM      7  O   UNL     1     -31.042 -24.751 -37.611  1.00  0.00    -0.550 OA
ENDBRANCH   4   5
ENDBRANCH   3   4
ENDBRANCH   2   3
ENDBRANCH   1   2
BRANCH   1   8
ATOM      8  C   UNL     1     -29.577 -21.209 -33.193  1.00  0.00     0.000 C 
BRANCH   8   9
ATOM      9  C   UNL     1     -29.333 -20.470 -31.864  1.00  0.00     0.006 C 
BRANCH   9  10
ATOM     10  C   UNL     1     -30.615 -19.875 -31.270  1.00  0.00     0.053 C 
BRANCH  10  11
ATOM     11  C   UNL     1     -30.965 -20.563 -29.988  1.00  0.00     0.041 C 
ATOM     12  O   UNL     1     -30.416 -21.655 -29.684  1.00  0.00    -0.550 OA
ATOM     13  O   UNL     1     -31.934 -20.023 -29.151  1.00  0.00    -0.550 OA
ENDBRANCH  10  11
ENDBRANCH   9  10
ENDBRANCH   8   9
ENDBRANCH   1   8
TORSDOF 8
ENDMDL
MODEL 6
REMARK VINA RESULT:    -3.760      1.648      2.377
REMARK INTER + INTRA:          -5.828
REMARK INTER:                  -5.636
REMARK INTRA:                  -0.192
REMARK UNBOUND:                -0.310
REMARK SMILES O=C([O-])CCCCCCCC(=O)[O-]
REMARK SMILES IDX 7 1 6 2 5 3 4 4 2 5 1 6 3 7 8 8 9 9 10 10 11 11 12 12 13 13
REMARK H PARENT
REMARK Flexibility Score: inf
ROOT
ATOM      1  C   UNL     1     -31.227 -23.400 -35.596  1.00  0.00     0.000 C 
ENDROOT
BRANCH   1   2
ATOM      2  C   UNL     1     -32.246 -22.721 -34.659  1.00  0.00     0.000 C 
BRANCH   2   3
ATOM      3  C   UNL     1     -31.714 -21.486 -33.903  1.00  0.00     0.006 C 
BRANCH   3   4
ATOM      4  C   UNL     1     -30.396 -21.724 -33.150  1.00  0.00     0.053 C 
BRANCH   4   5
ATOM      5  C   UNL     1     -30.582 -21.668 -31.665  1.00  0.00     0.041 C 
ATOM      6  O   UNL     1     -30.791 -20.565 -31.094  1.00  0.00    -0.550 OA
ATOM      7  O   UNL     1     -30.557 -22.837 -30.916  1.00  0.00    -0.550 OA
ENDBRANCH   4   5
ENDBRANCH   3   4
ENDBRANCH   2   3
ENDBRANCH   1   2
BRANCH   1   8
ATOM      8  C   UNL     1     -31.708 -23.608 -37.046  1.00  0.00     0.000 C 
BRANCH   8   9
ATOM      9  C   UNL     1     -32.417 -24.948 -37.309  1.00  0.00     0.006 C 
BRANCH   9  10
ATOM     10  C   UNL     1     -31.742 -25.774 -38.411  1.00  0.00     0.053 C 
BRANCH  10  11
ATOM     11  C   UNL     1     -32.295 -27.164 -38.436  1.00  0.00     0.041 C 
ATOM     12  O   UNL     1     -31.560 -28.133 -38.759  1.00  0.00    -0.550 OA
ATOM     13  O   UNL     1     -33.637 -27.383 -38.149  1.00  0.00    -0.550 OA
ENDBRANCH  10  11
ENDBRANCH   9  10
ENDBRANCH   8   9
ENDBRANCH   1   8
TORSDOF 8
ENDMDL
MODEL 7
REMARK VINA RESULT:    -3.114      1.851      2.430
REMARK INTER + INTRA:          -4.880
REMARK INTER:                  -4.439
REMARK INTRA:                  -0.441
REMARK UNBOUND:                -0.310
REMARK SMILES O=C([O-])CCCCCCCC(=O)[O-]
REMARK SMILES IDX 7 1 6 2 5 3 4 4 2 5 1 6 3 7 8 8 9 9 10 10 11 11 12 12 13 13
REMARK H PARENT
REMARK Flexibility Score: inf
ROOT
ATOM      1  C   UNL     1     -32.259 -20.092 -33.766  1.00  0.00     0.000 C 
ENDROOT
BRANCH   1   2
ATOM      2  C   UNL     1     -31.286 -21.287 -33.788  1.00  0.00     0.000 C 
BRANCH   2   3
ATOM      3  C   UNL     1     -30.173 -21.242 -32.721  1.00  0.00     0.006 C 
BRANCH   3   4
ATOM      4  C   UNL     1     -30.437 -22.128 -31.493  1.00  0.00     0.053 C 
BRANCH   4   5
ATOM      5  C   UNL     1     -30.472 -21.332 -30.226  1.00  0.00     0.041 C 
ATOM      6  O   UNL     1     -30.864 -20.135 -30.239  1.00  0.00    -0.550 OA
ATOM      7  O   UNL     1     -30.103 -21.921 -29.023  1.00  0.00    -0.550 OA
ENDBRANCH   4   5
ENDBRANCH   3   4
ENDBRANCH   2   3
ENDBRANCH   1   2
BRANCH   1   8
ATOM      8  C   UNL     1     -33.074 -19.887 -35.058  1.00  0.00     0.000 C 
BRANCH   8   9
ATOM      9  C   UNL     1     -34.047 -21.030 -35.401  1.00  0.00     0.006 C 
BRANCH   9  10
ATOM     10  C   UNL     1     -33.928 -21.497 -36.857  1.00  0.00     0.053 C 
BRANCH  10  11
ATOM     11  C   UNL     1     -32.935 -22.611 -36.969  1.00  0.00     0.041 C 
ATOM     12  O   UNL     1     -32.964 -23.570 -36.154  1.00  0.00    -0.550 OA
ATOM     13  O   UNL     1     -31.946 -22.565 -37.943  1.00  0.00    -0.550 OA
ENDBRANCH  10  11
ENDBRANCH   9  10
ENDBRANCH   8   9
ENDBRANCH   1   8
TORSDOF 8
ENDMDL
MODEL 8
REMARK VINA RESULT:    -2.815      1.857      2.214
REMARK INTER + INTRA:          -4.442
REMARK INTER:                  -4.237
REMARK INTRA:                  -0.205
REMARK UNBOUND:                -0.310
REMARK SMILES O=C([O-])CCCCCCCC(=O)[O-]
REMARK SMILES IDX 7 1 6 2 5 3 4 4 2 5 1 6 3 7 8 8 9 9 10 10 11 11 12 12 13 13
REMARK H PARENT
REMARK Flexibility Score: inf
ROOT
ATOM      1  C   UNL     1     -32.052 -22.835 -34.509  1.00  0.00     0.000 C 
ENDROOT
BRANCH   1   2
ATOM      2  C   UNL     1     -31.353 -21.565 -33.985  1.00  0.00     0.000 C 
BRANCH   2   3
ATOM      3  C   UNL     1     -31.226 -21.478 -32.450  1.00  0.00     0.006 C 
BRANCH   3   4
ATOM      4  C   UNL     1     -29.816 -21.765 -31.913  1.00  0.00     0.053 C 
BRANCH   4   5
ATOM      5  C   UNL     1     -28.935 -20.556 -31.980  1.00  0.00     0.041 C 
ATOM      6  O   UNL     1     -28.712 -19.876 -30.944  1.00  0.00    -0.550 OA
ATOM      7  O   UNL     1     -28.332 -20.200 -33.180  1.00  0.00    -0.550 OA
ENDBRANCH   4   5
ENDBRANCH   3   4
ENDBRANCH   2   3
ENDBRANCH   1   2
BRANCH   1   8
ATOM      8  C   UNL     1     -33.078 -22.599 -35.635  1.00  0.00     0.000 C 
BRANCH   8   9
ATOM      9  C   UNL     1     -33.059 -23.648 -36.762  1.00  0.00     0.006 C 
BRANCH   9  10
ATOM     10  C   UNL     1     -33.010 -23.019 -38.160  1.00  0.00     0.053 C 
BRANCH  10  11
ATOM     11  C   UNL     1     -31.670 -23.243 -38.787  1.00  0.00     0.041 C 
ATOM     12  O   UNL     1     -31.243 -24.413 -38.968  1.00  0.00    -0.550 OA
ATOM     13  O   UNL     1     -30.872 -22.158 -39.125  1.00  0.00    -0.550 OA
ENDBRANCH  10  11
ENDBRANCH   9  10
ENDBRANCH   8   9
ENDBRANCH   1   8
TORSDOF 8
ENDMDL
MODEL 9
REMARK VINA RESULT:    -2.498      2.247      6.934
REMARK INTER + INTRA:          -3.977
REMARK INTER:                  -3.862
REMARK INTRA:                  -0.115
REMARK UNBOUND:                -0.310
REMARK SMILES O=C([O-])CCCCCCCC(=O)[O-]
REMARK SMILES IDX 7 1 6 2 5 3 4 4 2 5 1 6 3 7 8 8 9 9 10 10 11 11 12 12 13 13
REMARK H PARENT
REMARK Flexibility Score: inf
ROOT
ATOM      1  C   UNL     1     -31.425 -20.561 -32.822  1.00  0.00     0.000 C 
ENDROOT
BRANCH   1   2
ATOM      2  C   UNL     1     -32.142 -20.229 -34.145  1.00  0.00     0.000 C 
BRANCH   2   3
ATOM      3  C   UNL     1     -32.639 -21.454 -34.942  1.00  0.00     0.006 C 
BRANCH   3   4
ATOM      4  C   UNL     1     -33.773 -21.148 -35.932  1.00  0.00     0.053 C 
BRANCH   4   5
ATOM      5  C   UNL     1     -33.793 -22.115 -37.075  1.00  0.00     0.041 C 
ATOM      6  O   UNL     1     -33.977 -21.702 -38.251  1.00  0.00    -0.550 OA
ATOM      7  O   UNL     1     -33.574 -23.467 -36.847  1.00  0.00    -0.550 OA
ENDBRANCH   4   5
ENDBRANCH   3   4
ENDBRANCH   2   3
ENDBRANCH   1   2
BRANCH   1   8
ATOM      8  C   UNL     1     -30.057 -19.875 -32.629  1.00  0.00     0.000 C 
BRANCH   8   9
ATOM      9  C   UNL     1     -29.460 -20.002 -31.217  1.00  0.00     0.006 C 
BRANCH   9  10
ATOM     10  C   UNL     1     -30.466 -20.534 -30.190  1.00  0.00     0.053 C 
BRANCH  10  11
ATOM     11  C   UNL     1     -30.170 -21.963 -29.860  1.00  0.00     0.041 C 
ATOM     12  O   UNL     1     -29.656 -22.264 -28.750  1.00  0.00    -0.550 OA
ATOM     13  O   UNL     1     -30.415 -22.958 -30.797  1.00  0.00    -0.550 OA
ENDBRANCH  10  11
ENDBRANCH   9  10
ENDBRANCH   8   9
ENDBRANCH   1   8
TORSDOF 8
ENDMDL
