MODEL 1
REMARK VINA RESULT:    -4.024      0.000      0.000
REMARK INTER + INTRA:          -6.059
REMARK INTER:                  -5.435
REMARK INTRA:                  -0.624
REMARK UNBOUND:                -0.624
REMARK SMILES CCCCCCCC(=O)[O-]
REMARK SMILES IDX 5 1 6 2 7 3 8 4 9 5 10 6 4 7 3 8 2 9 1 10
REMARK H PARENT
REMARK Flexibility Score: inf
ROOT
ATOM      1  C   UNL     1      -2.168   1.166   6.324  1.00  0.00     0.000 C 
ENDROOT
BRANCH   1   2
ATOM      2  C   UNL     1      -1.101   1.210   5.215  1.00  0.00     0.006 C 
BRANCH   2   3
ATOM      3  C   UNL     1       0.323   0.886   5.694  1.00  0.00     0.053 C 
BRANCH   3   4
ATOM      4  C   UNL     1       0.817   1.878   6.702  1.00  0.00     0.041 C 
ATOM      5  O   UNL     1       0.970   1.536   7.904  1.00  0.00    -0.550 OA
ATOM      6  O   UNL     1       1.074   3.188   6.320  1.00  0.00    -0.550 OA
ENDBRANCH   3   4
ENDBRANCH   2   3
ENDBRANCH   1   2
BRANCH   1   7
ATOM      7  C   UNL     1      -2.234  -0.195   7.034  1.00  0.00     0.000 C 
BRANCH   7   8
ATOM      8  C   UNL     1      -2.292  -0.018   8.556  1.00  0.00    -0.000 C 
BRANCH   8   9
ATOM      9  C   UNL     1      -1.148  -0.772   9.242  1.00  0.00    -0.003 C 
ATOM     10  C   UNL     1      -0.453  -1.723   8.272  1.00  0.00     0.004 C 
ENDBRANCH   8   9
ENDBRANCH   7   8
ENDBRANCH   1   7
TORSDOF 6
ENDMDL
MODEL 2
REMARK VINA RESULT:    -3.983      1.824      2.626
REMARK INTER + INTRA:          -6.005
REMARK INTER:                  -5.592
REMARK INTRA:                  -0.412
REMARK UNBOUND:                -0.624
REMARK SMILES CCCCCCCC(=O)[O-]
REMARK SMILES IDX 5 1 6 2 7 3 8 4 9 5 10 6 4 7 3 8 2 9 1 10
REMARK H PARENT
REMARK Flexibility Score: inf
ROOT
ATOM      1  C   UNL     1       0.394  -1.225   7.174  1.00  0.00     0.000 C 
ENDROOT
BRANCH   1   2
ATOM      2  C   UNL     1       0.504   0.237   6.702  1.00  0.00     0.006 C 
BRANCH   2   3
ATOM      3  C   UNL     1       0.685   0.400   5.184  1.00  0.00     0.053 C 
BRANCH   3   4
ATOM      4  C   UNL     1      -0.030   1.607   4.659  1.00  0.00     0.041 C 
ATOM      5  O   UNL     1      -1.157   1.925   5.121  1.00  0.00    -0.550 OA
ATOM      6  O   UNL     1       0.532   2.359   3.635  1.00  0.00    -0.550 OA
ENDBRANCH   3   4
ENDBRANCH   2   3
ENDBRANCH   1   2
BRANCH   1   7
ATOM      7  C   UNL     1      -0.892  -1.499   7.968  1.00  0.00     0.000 C 
BRANCH   7   8
ATOM      8  C   UNL     1      -1.955  -0.431   7.678  1.00  0.00    -0.000 C 
BRANCH   8   9
ATOM      9  C   UNL     1      -2.343   0.320   8.956  1.00  0.00    -0.003 C 
ATOM     10  C   UNL     1      -2.193   1.828   8.776  1.00  0.00     0.004 C 
ENDBRANCH   8   9
ENDBRANCH   7   8
ENDBRANCH   1   7
TORSDOF 6
ENDMDL
MODEL 3
REMARK VINA RESULT:    -3.953      2.813      4.956
REMARK INTER + INTRA:          -5.964
REMARK INTER:                  -5.748
REMARK INTRA:                  -0.217
REMARK UNBOUND:                -0.624
REMARK SMILES CCCCCCCC(=O)[O-]
REMARK SMILES IDX 5 1 6 2 7 3 8 4 9 5 10 6 4 7 3 8 2 9 1 10
REMARK H PARENT
REMARK Flexibility Score: inf
ROOT
ATOM      1  C   UNL     1      -0.813  -1.473   7.653  1.00  0.00     0.000 C 
ENDROOT
BRANCH   1   2
ATOM      2  C   UNL     1      -0.465  -1.543   9.152  1.00  0.00     0.006 C 
BRANCH   2   3
ATOM      3  C   UNL     1      -0.171  -2.961   9.667  1.00  0.00     0.053 C 
BRANCH   3   4
ATOM      4  C   UNL     1       1.296  -3.196   9.859  1.00  0.00     0.041 C 
ATOM      5  O   UNL     1       2.099  -2.226   9.848  1.00  0.00    -0.550 OA
ATOM      6  O   UNL     1       1.780  -4.488  10.015  1.00  0.00    -0.550 OA
ENDBRANCH   3   4
ENDBRANCH   2   3
ENDBRANCH   1   2
BRANCH   1   7
ATOM      7  C   UNL     1       0.289  -0.803   6.818  1.00  0.00     0.000 C 
BRANCH   7   8
ATOM      8  C   UNL     1       0.091   0.717   6.766  1.00  0.00    -0.000 C 
BRANCH   8   9
ATOM      9  C   UNL     1      -0.549   1.145   5.440  1.00  0.00    -0.003 C 
ATOM     10  C   UNL     1      -2.068   1.007   5.491  1.00  0.00     0.004 C 
ENDBRANCH   8   9
ENDBRANCH   7   8
ENDBRANCH   1   7
TORSDOF 6
ENDMDL
MODEL 4
REMARK VINA RESULT:    -3.924      1.740      2.010
REMARK INTER + INTRA:          -5.925
REMARK INTER:                  -5.551
REMARK INTRA:                  -0.374
REMARK UNBOUND:                -0.624
REMARK SMILES CCCCCCCC(=O)[O-]
REMARK SMILES IDX 5 1 6 2 7 3 8 4 9 5 10 6 4 7 3 8 2 9 1 10
REMARK H PARENT
REMARK Flexibility Score: inf
ROOT
ATOM      1  C   UNL     1      -1.981   1.763   7.450  1.00  0.00     0.000 C 
ENDROOT
BRANCH   1   2
ATOM      2  C   UNL     1      -0.718   1.973   6.595  1.00  0.00     0.006 C 
BRANCH   2   3
ATOM      3  C   UNL     1      -0.866   1.532   5.129  1.00  0.00     0.053 C 
BRANCH   3   4
ATOM      4  C   UNL     1       0.419   1.662   4.370  1.00  0.00     0.041 C 
ATOM      5  O   UNL     1       1.389   0.903   4.633  1.00  0.00    -0.550 OA
ATOM      6  O   UNL     1       0.558   2.645   3.399  1.00  0.00    -0.550 OA
ENDBRANCH   3   4
ENDBRANCH   2   3
ENDBRANCH   1   2
BRANCH   1   7
ATOM      7  C   UNL     1      -1.837   0.607   8.451  1.00  0.00     0.000 C 
BRANCH   7   8
ATOM      8  C   UNL     1      -2.190  -0.734   7.797  1.00  0.00    -0.000 C 
BRANCH   8   9
ATOM      9  C   UNL     1      -1.064  -1.756   7.990  1.00  0.00    -0.003 C 
ATOM     10  C   UNL     1       0.244  -1.255   7.387  1.00  0.00     0.004 C 
ENDBRANCH   8   9
ENDBRANCH   7   8
ENDBRANCH   1   7
TORSDOF 6
ENDMDL
MODEL 5
REMARK VINA RESULT:    -3.920     15.501     16.257
REMARK INTER + INTRA:          -5.919
REMARK INTER:                  -5.614
REMARK INTRA:                  -0.305
REMARK UNBOUND:                -0.624
REMARK SMILES CCCCCCCC(=O)[O-]
REMARK SMILES IDX 5 1 6 2 7 3 8 4 9 5 10 6 4 7 3 8 2 9 1 10
REMARK H PARENT
REMARK Flexibility Score: inf
ROOT
ATOM      1  C   UNL     1      -7.745  -6.354  -5.538  1.00  0.00     0.000 C 
ENDROOT
BRANCH   1   2
ATOM      2  C   UNL     1      -6.862  -7.283  -6.391  1.00  0.00     0.006 C 
BRANCH   2   3
ATOM      3  C   UNL     1      -5.768  -6.557  -7.191  1.00  0.00     0.053 C 
BRANCH   3   4
ATOM      4  C   UNL     1      -6.341  -5.558  -8.149  1.00  0.00     0.041 C 
ATOM      5  O   UNL     1      -6.100  -4.331  -8.002  1.00  0.00    -0.550 OA
ATOM      6  O   UNL     1      -7.169  -5.979  -9.181  1.00  0.00    -0.550 OA
ENDBRANCH   3   4
ENDBRANCH   2   3
ENDBRANCH   1   2
BRANCH   1   7
ATOM      7  C   UNL     1      -7.918  -6.855  -4.096  1.00  0.00     0.000 C 
BRANCH   7   8
ATOM      8  C   UNL     1      -7.219  -8.205  -3.897  1.00  0.00    -0.000 C 
BRANCH   8   9
ATOM      9  C   UNL     1      -6.254  -8.157  -2.708  1.00  0.00    -0.003 C 
ATOM     10  C   UNL     1      -6.773  -8.992  -1.541  1.00  0.00     0.004 C 
ENDBRANCH   8   9
ENDBRANCH   7   8
ENDBRANCH   1   7
TORSDOF 6
ENDMDL
MODEL 6
REMARK VINA RESULT:    -3.919      1.979      3.096
REMARK INTER + INTRA:          -5.918
REMARK INTER:                  -5.461
REMARK INTRA:                  -0.457
REMARK UNBOUND:                -0.624
REMARK SMILES CCCCCCCC(=O)[O-]
REMARK SMILES IDX 5 1 6 2 7 3 8 4 9 5 10 6 4 7 3 8 2 9 1 10
REMARK H PARENT
REMARK Flexibility Score: inf
ROOT
ATOM      1  C   UNL     1      -0.916   2.065   7.758  1.00  0.00     0.000 C 
ENDROOT
BRANCH   1   2
ATOM      2  C   UNL     1       0.463   1.469   7.421  1.00  0.00     0.006 C 
BRANCH   2   3
ATOM      3  C   UNL     1       1.192   2.173   6.265  1.00  0.00     0.053 C 
BRANCH   3   4
ATOM      4  C   UNL     1       0.839   1.581   4.935  1.00  0.00     0.041 C 
ATOM      5  O   UNL     1       0.430   2.322   4.002  1.00  0.00    -0.550 OA
ATOM      6  O   UNL     1       0.929   0.210   4.737  1.00  0.00    -0.550 OA
ENDBRANCH   3   4
ENDBRANCH   2   3
ENDBRANCH   1   2
BRANCH   1   7
ATOM      7  C   UNL     1      -1.993   0.991   7.973  1.00  0.00     0.000 C 
BRANCH   7   8
ATOM      8  C   UNL     1      -2.118   0.085   6.743  1.00  0.00    -0.000 C 
BRANCH   8   9
ATOM      9  C   UNL     1      -2.671   0.859   5.542  1.00  0.00    -0.003 C 
ATOM     10  C   UNL     1      -3.822   0.105   4.882  1.00  0.00     0.004 C 
ENDBRANCH   8   9
ENDBRANCH   7   8
ENDBRANCH   1   7
TORSDOF 6
ENDMDL
MODEL 7
REMARK VINA RESULT:    -3.912      1.712      3.876
REMARK INTER + INTRA:          -5.909
REMARK INTER:                  -5.460
REMARK INTRA:                  -0.450
REMARK UNBOUND:                -0.624
REMARK SMILES CCCCCCCC(=O)[O-]
REMARK SMILES IDX 5 1 6 2 7 3 8 4 9 5 10 6 4 7 3 8 2 9 1 10
REMARK H PARENT
REMARK Flexibility Score: inf
ROOT
ATOM      1  C   UNL     1      -2.365   0.189   6.270  1.00  0.00     0.000 C 
ENDROOT
BRANCH   1   2
ATOM      2  C   UNL     1      -2.112  -0.352   7.689  1.00  0.00     0.006 C 
BRANCH   2   3
ATOM      3  C   UNL     1      -1.199  -1.588   7.741  1.00  0.00     0.053 C 
BRANCH   3   4
ATOM      4  C   UNL     1       0.030  -1.344   8.563  1.00  0.00     0.041 C 
ATOM      5  O   UNL     1       1.002  -0.711   8.074  1.00  0.00    -0.550 OA
ATOM      6  O   UNL     1       0.115  -1.846   9.855  1.00  0.00    -0.550 OA
ENDBRANCH   3   4
ENDBRANCH   2   3
ENDBRANCH   1   2
BRANCH   1   7
ATOM      7  C   UNL     1      -1.563   1.464   5.968  1.00  0.00     0.000 C 
BRANCH   7   8
ATOM      8  C   UNL     1      -0.609   1.245   4.787  1.00  0.00    -0.000 C 
BRANCH   8   9
ATOM      9  C   UNL     1       0.853   1.339   5.236  1.00  0.00    -0.003 C 
ATOM     10  C   UNL     1       1.001   2.250   6.451  1.00  0.00     0.004 C 
ENDBRANCH   8   9
ENDBRANCH   7   8
ENDBRANCH   1   7
TORSDOF 6
ENDMDL
MODEL 8
REMARK VINA RESULT:    -3.814     16.051     16.752
REMARK INTER + INTRA:          -5.776
REMARK INTER:                  -5.546
REMARK INTRA:                  -0.230
REMARK UNBOUND:                -0.624
REMARK SMILES CCCCCCCC(=O)[O-]
REMARK SMILES IDX 5 1 6 2 7 3 8 4 9 5 10 6 4 7 3 8 2 9 1 10
REMARK H PARENT
REMARK Flexibility Score: inf
ROOT
ATOM      1  C   UNL     1      -7.138  -7.475  -5.519  1.00  0.00     0.000 C 
ENDROOT
BRANCH   1   2
ATOM      2  C   UNL     1      -6.957  -6.453  -6.655  1.00  0.00     0.006 C 
BRANCH   2   3
ATOM      3  C   UNL     1      -5.679  -6.651  -7.487  1.00  0.00     0.053 C 
BRANCH   3   4
ATOM      4  C   UNL     1      -5.798  -7.806  -8.434  1.00  0.00     0.041 C 
ATOM      5  O   UNL     1      -4.792  -8.519  -8.690  1.00  0.00    -0.550 OA
ATOM      6  O   UNL     1      -7.009  -8.072  -9.059  1.00  0.00    -0.550 OA
ENDBRANCH   3   4
ENDBRANCH   2   3
ENDBRANCH   1   2
BRANCH   1   7
ATOM      7  C   UNL     1      -8.070  -6.971  -4.407  1.00  0.00     0.000 C 
BRANCH   7   8
ATOM      8  C   UNL     1      -8.030  -7.904  -3.190  1.00  0.00    -0.000 C 
BRANCH   8   9
ATOM      9  C   UNL     1      -6.587  -8.261  -2.818  1.00  0.00    -0.003 C 
ATOM     10  C   UNL     1      -6.532  -9.039  -1.507  1.00  0.00     0.004 C 
ENDBRANCH   8   9
ENDBRANCH   7   8
ENDBRANCH   1   7
TORSDOF 6
ENDMDL
MODEL 9
REMARK VINA RESULT:    -3.740     15.040     16.157
REMARK INTER + INTRA:          -5.676
REMARK INTER:                  -5.372
REMARK INTRA:                  -0.304
REMARK UNBOUND:                -0.624
REMARK SMILES CCCCCCCC(=O)[O-]
REMARK SMILES IDX 5 1 6 2 7 3 8 4 9 5 10 6 4 7 3 8 2 9 1 10
REMARK H PARENT
REMARK Flexibility Score: inf
ROOT
ATOM      1  C   UNL     1      -7.966  -6.757  -4.372  1.00  0.00     0.000 C 
ENDROOT
BRANCH   1   2
ATOM      2  C   UNL     1      -7.459  -8.170  -4.027  1.00  0.00     0.006 C 
BRANCH   2   3
ATOM      3  C   UNL     1      -6.595  -8.240  -2.757  1.00  0.00     0.053 C 
BRANCH   3   4
ATOM      4  C   UNL     1      -7.300  -8.941  -1.636  1.00  0.00     0.041 C 
ATOM      5  O   UNL     1      -8.558  -8.990  -1.612  1.00  0.00    -0.550 OA
ATOM      6  O   UNL     1      -6.568  -9.509  -0.601  1.00  0.00    -0.550 OA
ENDBRANCH   3   4
ENDBRANCH   2   3
ENDBRANCH   1   2
BRANCH   1   7
ATOM      7  C   UNL     1      -7.564  -6.309  -5.785  1.00  0.00     0.000 C 
BRANCH   7   8
ATOM      8  C   UNL     1      -6.729  -7.387  -6.487  1.00  0.00    -0.000 C 
BRANCH   8   9
ATOM      9  C   UNL     1      -5.751  -6.763  -7.487  1.00  0.00    -0.003 C 
ATOM     10  C   UNL     1      -6.137  -5.323  -7.812  1.00  0.00     0.004 C 
ENDBRANCH   8   9
ENDBRANCH   7   8
ENDBRANCH   1   7
TORSDOF 6
ENDMDL
