MODEL 1
REMARK VINA RESULT:    -7.057      0.000      0.000
REMARK INTER + INTRA:         -11.276
REMARK INTER:                  -9.945
REMARK INTRA:                  -1.331
REMARK UNBOUND:                -1.331
REMARK SMILES COc1c(O[C@H]2O[C@@H](C(=O)[O-])[C@H](O)[C@@H](O)[C@@H]2O)cc(O)c2c(=O)cc(-c3ccccc3)oc12
REMARK SMILES IDX 5 1 6 2 8 3 12 4 7 5 14 6 16 7 9 8 10 9 11 10 13 11 15 13
REMARK SMILES IDX 17 15 4 17 3 18 18 19 33 20 19 21 21 22 32 23 22 24 25 25
REMARK SMILES IDX 24 26 23 27 2 28 1 29 20 30 26 32 27 33 31 34 28 35 30 36
REMARK SMILES IDX 29 37
REMARK H PARENT 13 12 15 14 17 16 20 31
REMARK Flexibility Score: inf
ROOT
ATOM      1  O   UNL     1      44.951  49.708 129.243  1.00  0.00    -0.458 OA
ENDROOT
BRANCH   1   2
ATOM      2  C   UNL     1      45.001  48.717 128.212  1.00  0.00     0.339 C 
ATOM      3  C   UNL     1      45.099  50.226 126.369  1.00  0.00     0.199 C 
ATOM      4  C   UNL     1      46.556  49.822 126.019  1.00  0.00     0.180 C 
ATOM      5  O   UNL     1      44.382  49.185 127.021  1.00  0.00    -0.328 OA
ATOM      6  C   UNL     1      47.305  49.225 127.224  1.00  0.00     0.181 C 
ATOM      7  C   UNL     1      46.437  48.204 127.983  1.00  0.00     0.214 C 
BRANCH   3   8
ATOM      8  C   UNL     1      44.955  51.557 127.070  1.00  0.00     0.073 C 
ATOM      9  O   UNL     1      43.809  52.047 127.260  1.00  0.00    -0.547 OA
ATOM     10  O   UNL     1      46.075  52.309 127.405  1.00  0.00    -0.547 OA
ENDBRANCH   3   8
BRANCH   4  11
ATOM     11  O   UNL     1      46.532  48.865 124.989  1.00  0.00    -0.387 OA
ATOM     12  H   UNL     1      46.665  49.351 124.134  1.00  0.00     0.211 HD
ENDBRANCH   4  11
BRANCH   6  13
ATOM     13  O   UNL     1      47.813  50.223 128.076  1.00  0.00    -0.387 OA
ATOM     14  H   UNL     1      48.402  50.815 127.549  1.00  0.00     0.211 HD
ENDBRANCH   6  13
BRANCH   7  15
ATOM     15  O   UNL     1      46.375  47.006 127.250  1.00  0.00    -0.384 OA
ATOM     16  H   UNL     1      45.531  47.027 126.728  1.00  0.00     0.211 HD
ENDBRANCH   7  15
ENDBRANCH   1   2
BRANCH   1  17
ATOM     17  C   UNL     1      44.503  49.433 130.541  1.00  0.00     0.172 A 
ATOM     18  C   UNL     1      43.136  49.244 130.807  1.00  0.00     0.205 A 
ATOM     19  C   UNL     1      45.439  49.368 131.573  1.00  0.00     0.097 A 
ATOM     20  C   UNL     1      42.725  48.922 132.125  1.00  0.00     0.188 A 
ATOM     21  C   UNL     1      45.049  49.062 132.878  1.00  0.00     0.134 A 
ATOM     22  C   UNL     1      43.686  48.828 133.167  1.00  0.00     0.111 A 
ATOM     23  O   UNL     1      41.438  48.716 132.397  1.00  0.00    -0.452 OA
ATOM     24  C   UNL     1      43.227  48.510 134.462  1.00  0.00     0.197 A 
ATOM     25  C   UNL     1      40.973  48.429 133.610  1.00  0.00     0.138 A 
ATOM     26  C   UNL     1      41.866  48.313 134.683  1.00  0.00     0.100 A 
ATOM     27  O   UNL     1      44.023  48.398 135.433  1.00  0.00    -0.289 OA
BRANCH  18  28
ATOM     28  O   UNL     1      42.242  49.420 129.733  1.00  0.00    -0.490 OA
ATOM     29  C   UNL     1      41.517  50.602 129.418  1.00  0.00     0.278 C 
ENDBRANCH  18  28
BRANCH  21  30
ATOM     30  O   UNL     1      46.019  48.988 133.880  1.00  0.00    -0.507 OA
ATOM     31  H   UNL     1      46.180  49.755 134.522  1.00  0.00     0.293 HD
ENDBRANCH  21  30
BRANCH  25  32
ATOM     32  C   UNL     1      39.515  48.231 133.792  1.00  0.00     0.017 A 
ATOM     33  C   UNL     1      38.753  49.088 134.612  1.00  0.00     0.012 A 
ATOM     34  C   UNL     1      38.864  47.189 133.107  1.00  0.00     0.012 A 
ATOM     35  C   UNL     1      37.375  48.894 134.750  1.00  0.00     0.001 A 
ATOM     36  C   UNL     1      37.485  47.000 133.250  1.00  0.00     0.001 A 
ATOM     37  C   UNL     1      36.741  47.851 134.071  1.00  0.00     0.000 A 
ENDBRANCH  25  32
ENDBRANCH   1  17
TORSDOF 9
ENDMDL
MODEL 2
REMARK VINA RESULT:    -6.821      4.009      7.481
REMARK INTER + INTRA:         -10.944
REMARK INTER:                  -9.302
REMARK INTRA:                  -1.642
REMARK UNBOUND:                -1.331
REMARK SMILES COc1c(O[C@H]2O[C@@H](C(=O)[O-])[C@H](O)[C@@H](O)[C@@H]2O)cc(O)c2c(=O)cc(-c3ccccc3)oc12
REMARK SMILES IDX 5 1 6 2 8 3 12 4 7 5 14 6 16 7 9 8 10 9 11 10 13 11 15 13
REMARK SMILES IDX 17 15 4 17 3 18 18 19 33 20 19 21 21 22 32 23 22 24 25 25
REMARK SMILES IDX 24 26 23 27 2 28 1 29 20 30 26 32 27 33 31 34 28 35 30 36
REMARK SMILES IDX 29 37
REMARK H PARENT 13 12 15 14 17 16 20 31
REMARK Flexibility Score: inf
ROOT
ATOM      1  O   UNL     1      41.861  49.923 134.337  1.00  0.00    -0.458 OA
ENDROOT
BRANCH   1   2
ATOM      2  C   UNL     1      40.715  49.656 133.523  1.00  0.00     0.339 C 
ATOM      3  C   UNL     1      41.182  51.272 131.833  1.00  0.00     0.199 C 
ATOM      4  C   UNL     1      41.466  50.183 130.765  1.00  0.00     0.180 C 
ATOM      5  O   UNL     1      40.285  50.829 132.844  1.00  0.00    -0.328 OA
ATOM      6  C   UNL     1      41.869  48.835 131.392  1.00  0.00     0.181 C 
ATOM      7  C   UNL     1      40.953  48.464 132.575  1.00  0.00     0.214 C 
BRANCH   3   8
ATOM      8  C   UNL     1      42.410  51.946 132.401  1.00  0.00     0.073 C 
ATOM      9  O   UNL     1      42.289  52.803 133.318  1.00  0.00    -0.547 OA
ATOM     10  O   UNL     1      43.665  51.721 131.848  1.00  0.00    -0.547 OA
ENDBRANCH   3   8
BRANCH   4  11
ATOM     11  O   UNL     1      40.309  49.986 129.991  1.00  0.00    -0.387 OA
ATOM     12  H   UNL     1      40.582  50.038 129.037  1.00  0.00     0.211 HD
ENDBRANCH   4  11
BRANCH   6  13
ATOM     13  O   UNL     1      43.229  48.806 131.749  1.00  0.00    -0.387 OA
ATOM     14  H   UNL     1      43.489  49.703 132.067  1.00  0.00     0.211 HD
ENDBRANCH   6  13
BRANCH   7  15
ATOM     15  O   UNL     1      39.711  48.024 132.084  1.00  0.00    -0.384 OA
ATOM     16  H   UNL     1      39.877  47.180 131.588  1.00  0.00     0.211 HD
ENDBRANCH   7  15
ENDBRANCH   1   2
BRANCH   1  17
ATOM     17  C   UNL     1      42.450  48.955 135.161  1.00  0.00     0.172 A 
ATOM     18  C   UNL     1      43.848  48.850 135.264  1.00  0.00     0.205 A 
ATOM     19  C   UNL     1      41.623  48.081 135.865  1.00  0.00     0.097 A 
ATOM     20  C   UNL     1      44.407  47.889 136.142  1.00  0.00     0.188 A 
ATOM     21  C   UNL     1      42.158  47.122 136.726  1.00  0.00     0.134 A 
ATOM     22  C   UNL     1      43.559  47.020 136.880  1.00  0.00     0.111 A 
ATOM     23  O   UNL     1      45.728  47.786 136.274  1.00  0.00    -0.452 OA
ATOM     24  C   UNL     1      44.163  46.077 137.737  1.00  0.00     0.197 A 
ATOM     25  C   UNL     1      46.328  46.898 137.063  1.00  0.00     0.138 A 
ATOM     26  C   UNL     1      45.552  46.015 137.825  1.00  0.00     0.100 A 
ATOM     27  O   UNL     1      43.474  45.282 138.431  1.00  0.00    -0.289 OA
BRANCH  18  28
ATOM     28  O   UNL     1      44.618  49.704 134.450  1.00  0.00    -0.490 OA
ATOM     29  C   UNL     1      45.243  50.918 134.846  1.00  0.00     0.278 C 
ENDBRANCH  18  28
BRANCH  21  30
ATOM     30  O   UNL     1      41.295  46.277 137.427  1.00  0.00    -0.507 OA
ATOM     31  H   UNL     1      41.124  46.396 138.419  1.00  0.00     0.293 HD
ENDBRANCH  21  30
BRANCH  25  32
ATOM     32  C   UNL     1      47.810  46.872 137.119  1.00  0.00     0.017 A 
ATOM     33  C   UNL     1      48.497  46.025 138.012  1.00  0.00     0.012 A 
ATOM     34  C   UNL     1      48.553  47.682 136.241  1.00  0.00     0.012 A 
ATOM     35  C   UNL     1      49.895  46.003 138.031  1.00  0.00     0.001 A 
ATOM     36  C   UNL     1      49.951  47.655 136.266  1.00  0.00     0.001 A 
ATOM     37  C   UNL     1      50.622  46.818 137.160  1.00  0.00     0.000 A 
ENDBRANCH  25  32
ENDBRANCH   1  17
TORSDOF 9
ENDMDL
MODEL 3
REMARK VINA RESULT:    -6.748      4.596      6.073
REMARK INTER + INTRA:         -10.840
REMARK INTER:                  -9.431
REMARK INTRA:                  -1.409
REMARK UNBOUND:                -1.331
REMARK SMILES COc1c(O[C@H]2O[C@@H](C(=O)[O-])[C@H](O)[C@@H](O)[C@@H]2O)cc(O)c2c(=O)cc(-c3ccccc3)oc12
REMARK SMILES IDX 5 1 6 2 8 3 12 4 7 5 14 6 16 7 9 8 10 9 11 10 13 11 15 13
REMARK SMILES IDX 17 15 4 17 3 18 18 19 33 20 19 21 21 22 32 23 22 24 25 25
REMARK SMILES IDX 24 26 23 27 2 28 1 29 20 30 26 32 27 33 31 34 28 35 30 36
REMARK SMILES IDX 29 37
REMARK H PARENT 13 12 15 14 17 16 20 31
REMARK Flexibility Score: inf
ROOT
ATOM      1  O   UNL     1      44.567  53.163 134.326  1.00  0.00    -0.458 OA
ENDROOT
BRANCH   1   2
ATOM      2  C   UNL     1      45.822  53.710 134.744  1.00  0.00     0.339 C 
ATOM      3  C   UNL     1      46.108  55.207 132.911  1.00  0.00     0.199 C 
ATOM      4  C   UNL     1      45.927  56.460 133.808  1.00  0.00     0.180 C 
ATOM      5  O   UNL     1      46.615  54.087 133.626  1.00  0.00    -0.328 OA
ATOM      6  C   UNL     1      45.143  56.151 135.097  1.00  0.00     0.181 C 
ATOM      7  C   UNL     1      45.635  54.852 135.763  1.00  0.00     0.214 C 
BRANCH   3   8
ATOM      8  C   UNL     1      44.913  54.856 132.055  1.00  0.00     0.073 C 
ATOM      9  O   UNL     1      45.012  53.961 131.173  1.00  0.00    -0.547 OA
ATOM     10  O   UNL     1      43.734  55.588 132.145  1.00  0.00    -0.547 OA
ENDBRANCH   3   8
BRANCH   4  11
ATOM     11  O   UNL     1      47.193  56.956 134.165  1.00  0.00    -0.387 OA
ATOM     12  H   UNL     1      47.482  56.465 134.979  1.00  0.00     0.211 HD
ENDBRANCH   4  11
BRANCH   6  13
ATOM     13  O   UNL     1      43.753  56.138 134.878  1.00  0.00    -0.387 OA
ATOM     14  H   UNL     1      43.569  55.604 134.069  1.00  0.00     0.211 HD
ENDBRANCH   6  13
BRANCH   7  15
ATOM     15  O   UNL     1      46.865  55.091 136.402  1.00  0.00    -0.384 OA
ATOM     16  H   UNL     1      47.129  56.023 136.186  1.00  0.00     0.211 HD
ENDBRANCH   7  15
ENDBRANCH   1   2
BRANCH   1  17
ATOM     17  C   UNL     1      44.083  51.933 134.787  1.00  0.00     0.172 A 
ATOM     18  C   UNL     1      42.826  51.454 134.378  1.00  0.00     0.205 A 
ATOM     19  C   UNL     1      44.862  51.197 135.678  1.00  0.00     0.097 A 
ATOM     20  C   UNL     1      42.388  50.184 134.830  1.00  0.00     0.188 A 
ATOM     21  C   UNL     1      44.441  49.949 136.141  1.00  0.00     0.134 A 
ATOM     22  C   UNL     1      43.200  49.425 135.714  1.00  0.00     0.111 A 
ATOM     23  O   UNL     1      41.212  49.699 134.438  1.00  0.00    -0.452 OA
ATOM     24  C   UNL     1      42.719  48.169 136.140  1.00  0.00     0.197 A 
ATOM     25  C   UNL     1      40.724  48.526 134.833  1.00  0.00     0.138 A 
ATOM     26  C   UNL     1      41.476  47.722 135.699  1.00  0.00     0.100 A 
ATOM     27  O   UNL     1      43.389  47.436 136.914  1.00  0.00    -0.289 OA
BRANCH  18  28
ATOM     28  O   UNL     1      42.055  52.297 133.554  1.00  0.00    -0.490 OA
ATOM     29  C   UNL     1      41.983  52.260 132.134  1.00  0.00     0.278 C 
ENDBRANCH  18  28
BRANCH  21  30
ATOM     30  O   UNL     1      45.259  49.235 137.018  1.00  0.00    -0.507 OA
ATOM     31  H   UNL     1      46.105  49.637 137.403  1.00  0.00     0.293 HD
ENDBRANCH  21  30
BRANCH  25  32
ATOM     32  C   UNL     1      39.395  48.097 134.335  1.00  0.00     0.017 A 
ATOM     33  C   UNL     1      38.211  48.733 134.760  1.00  0.00     0.012 A 
ATOM     34  C   UNL     1      39.307  47.056 133.393  1.00  0.00     0.012 A 
ATOM     35  C   UNL     1      36.970  48.325 134.260  1.00  0.00     0.001 A 
ATOM     36  C   UNL     1      38.064  46.652 132.897  1.00  0.00     0.001 A 
ATOM     37  C   UNL     1      36.896  47.285 133.330  1.00  0.00     0.000 A 
ENDBRANCH  25  32
ENDBRANCH   1  17
TORSDOF 9
ENDMDL
MODEL 4
REMARK VINA RESULT:    -6.730      3.165      6.482
REMARK INTER + INTRA:         -10.816
REMARK INTER:                  -9.025
REMARK INTRA:                  -1.791
REMARK UNBOUND:                -1.331
REMARK SMILES COc1c(O[C@H]2O[C@@H](C(=O)[O-])[C@H](O)[C@@H](O)[C@@H]2O)cc(O)c2c(=O)cc(-c3ccccc3)oc12
REMARK SMILES IDX 5 1 6 2 8 3 12 4 7 5 14 6 16 7 9 8 10 9 11 10 13 11 15 13
REMARK SMILES IDX 17 15 4 17 3 18 18 19 33 20 19 21 21 22 32 23 22 24 25 25
REMARK SMILES IDX 24 26 23 27 2 28 1 29 20 30 26 32 27 33 31 34 28 35 30 36
REMARK SMILES IDX 29 37
REMARK H PARENT 13 12 15 14 17 16 20 31
REMARK Flexibility Score: inf
ROOT
ATOM      1  O   UNL     1      45.535  52.091 134.325  1.00  0.00    -0.458 OA
ENDROOT
BRANCH   1   2
ATOM      2  C   UNL     1      46.918  51.730 134.396  1.00  0.00     0.339 C 
ATOM      3  C   UNL     1      47.388  52.803 136.472  1.00  0.00     0.199 C 
ATOM      4  C   UNL     1      47.601  51.453 137.208  1.00  0.00     0.180 C 
ATOM      5  O   UNL     1      47.671  52.721 135.080  1.00  0.00    -0.328 OA
ATOM      6  C   UNL     1      46.888  50.283 136.505  1.00  0.00     0.181 C 
ATOM      7  C   UNL     1      47.109  50.316 134.981  1.00  0.00     0.214 C 
BRANCH   3   8
ATOM      8  C   UNL     1      46.070  53.485 136.757  1.00  0.00     0.073 C 
ATOM      9  O   UNL     1      45.780  54.563 136.171  1.00  0.00    -0.547 OA
ATOM     10  O   UNL     1      45.219  53.003 137.745  1.00  0.00    -0.547 OA
ENDBRANCH   3   8
BRANCH   4  11
ATOM     11  O   UNL     1      48.978  51.170 137.258  1.00  0.00    -0.387 OA
ATOM     12  H   UNL     1      49.403  51.646 136.497  1.00  0.00     0.211 HD
ENDBRANCH   4  11
BRANCH   6  13
ATOM     13  O   UNL     1      45.523  50.221 136.840  1.00  0.00    -0.387 OA
ATOM     14  H   UNL     1      45.172  49.342 136.561  1.00  0.00     0.211 HD
ENDBRANCH   6  13
BRANCH   7  15
ATOM     15  O   UNL     1      48.413  49.880 134.688  1.00  0.00    -0.384 OA
ATOM     16  H   UNL     1      48.329  49.042 134.163  1.00  0.00     0.211 HD
ENDBRANCH   7  15
ENDBRANCH   1   2
BRANCH   1  17
ATOM     17  C   UNL     1      44.628  51.462 133.463  1.00  0.00     0.172 A 
ATOM     18  C   UNL     1      43.435  50.904 133.955  1.00  0.00     0.205 A 
ATOM     19  C   UNL     1      44.939  51.381 132.107  1.00  0.00     0.097 A 
ATOM     20  C   UNL     1      42.520  50.315 133.046  1.00  0.00     0.188 A 
ATOM     21  C   UNL     1      44.053  50.796 131.200  1.00  0.00     0.134 A 
ATOM     22  C   UNL     1      42.828  50.262 131.660  1.00  0.00     0.111 A 
ATOM     23  O   UNL     1      41.373  49.800 133.484  1.00  0.00    -0.452 OA
ATOM     24  C   UNL     1      41.889  49.662 130.796  1.00  0.00     0.197 A 
ATOM     25  C   UNL     1      40.474  49.215 132.697  1.00  0.00     0.138 A 
ATOM     26  C   UNL     1      40.710  49.135 131.319  1.00  0.00     0.100 A 
ATOM     27  O   UNL     1      42.088  49.590 129.554  1.00  0.00    -0.289 OA
BRANCH  18  28
ATOM     28  O   UNL     1      43.236  50.939 135.348  1.00  0.00    -0.490 OA
ATOM     29  C   UNL     1      42.438  51.871 136.068  1.00  0.00     0.278 C 
ENDBRANCH  18  28
BRANCH  21  30
ATOM     30  O   UNL     1      44.393  50.751 129.846  1.00  0.00    -0.507 OA
ATOM     31  H   UNL     1      44.508  51.595 129.299  1.00  0.00     0.293 HD
ENDBRANCH  21  30
BRANCH  25  32
ATOM     32  C   UNL     1      39.236  48.669 133.304  1.00  0.00     0.017 A 
ATOM     33  C   UNL     1      38.548  49.362 134.320  1.00  0.00     0.012 A 
ATOM     34  C   UNL     1      38.712  47.450 132.837  1.00  0.00     0.012 A 
ATOM     35  C   UNL     1      37.371  48.836 134.862  1.00  0.00     0.001 A 
ATOM     36  C   UNL     1      37.534  46.930 133.383  1.00  0.00     0.001 A 
ATOM     37  C   UNL     1      36.864  47.621 134.395  1.00  0.00     0.000 A 
ENDBRANCH  25  32
ENDBRANCH   1  17
TORSDOF 9
ENDMDL
MODEL 5
REMARK VINA RESULT:    -6.703      5.227      8.341
REMARK INTER + INTRA:         -10.778
REMARK INTER:                  -9.320
REMARK INTRA:                  -1.458
REMARK UNBOUND:                -1.331
REMARK SMILES COc1c(O[C@H]2O[C@@H](C(=O)[O-])[C@H](O)[C@@H](O)[C@@H]2O)cc(O)c2c(=O)cc(-c3ccccc3)oc12
REMARK SMILES IDX 5 1 6 2 8 3 12 4 7 5 14 6 16 7 9 8 10 9 11 10 13 11 15 13
REMARK SMILES IDX 17 15 4 17 3 18 18 19 33 20 19 21 21 22 32 23 22 24 25 25
REMARK SMILES IDX 24 26 23 27 2 28 1 29 20 30 26 32 27 33 31 34 28 35 30 36
REMARK SMILES IDX 29 37
REMARK H PARENT 13 12 15 14 17 16 20 31
REMARK Flexibility Score: inf
ROOT
ATOM      1  O   UNL     1      44.097  49.411 135.947  1.00  0.00    -0.458 OA
ENDROOT
BRANCH   1   2
ATOM      2  C   UNL     1      44.610  50.529 135.217  1.00  0.00     0.339 C 
ATOM      3  C   UNL     1      42.854  50.652 133.609  1.00  0.00     0.199 C 
ATOM      4  C   UNL     1      42.333  52.001 134.169  1.00  0.00     0.180 C 
ATOM      5  O   UNL     1      44.243  50.458 133.846  1.00  0.00    -0.328 OA
ATOM      6  C   UNL     1      42.740  52.224 135.637  1.00  0.00     0.181 C 
ATOM      7  C   UNL     1      44.220  51.868 135.876  1.00  0.00     0.214 C 
BRANCH   3   8
ATOM      8  C   UNL     1      42.028  49.443 133.982  1.00  0.00     0.073 C 
ATOM      9  O   UNL     1      42.269  48.327 133.447  1.00  0.00    -0.547 OA
ATOM     10  O   UNL     1      40.927  49.565 134.821  1.00  0.00    -0.547 OA
ENDBRANCH   3   8
BRANCH   4  11
ATOM     11  O   UNL     1      42.857  53.053 133.396  1.00  0.00    -0.387 OA
ATOM     12  H   UNL     1      43.846  53.009 133.476  1.00  0.00     0.211 HD
ENDBRANCH   4  11
BRANCH   6  13
ATOM     13  O   UNL     1      41.884  51.552 136.529  1.00  0.00    -0.387 OA
ATOM     14  H   UNL     1      42.378  51.379 137.366  1.00  0.00     0.211 HD
ENDBRANCH   6  13
BRANCH   7  15
ATOM     15  O   UNL     1      45.036  52.884 135.349  1.00  0.00    -0.384 OA
ATOM     16  H   UNL     1      45.395  52.551 134.486  1.00  0.00     0.211 HD
ENDBRANCH   7  15
ENDBRANCH   1   2
BRANCH   1  17
ATOM     17  C   UNL     1      44.922  48.440 136.530  1.00  0.00     0.172 A 
ATOM     18  C   UNL     1      44.372  47.373 137.262  1.00  0.00     0.205 A 
ATOM     19  C   UNL     1      46.303  48.561 136.386  1.00  0.00     0.097 A 
ATOM     20  C   UNL     1      45.236  46.386 137.799  1.00  0.00     0.188 A 
ATOM     21  C   UNL     1      47.167  47.602 136.918  1.00  0.00     0.134 A 
ATOM     22  C   UNL     1      46.641  46.498 137.625  1.00  0.00     0.111 A 
ATOM     23  O   UNL     1      44.738  45.354 138.478  1.00  0.00    -0.452 OA
ATOM     24  C   UNL     1      47.459  45.493 138.182  1.00  0.00     0.197 A 
ATOM     25  C   UNL     1      45.483  44.398 139.026  1.00  0.00     0.138 A 
ATOM     26  C   UNL     1      46.876  44.442 138.887  1.00  0.00     0.100 A 
ATOM     27  O   UNL     1      48.712  45.520 138.057  1.00  0.00    -0.289 OA
BRANCH  18  28
ATOM     28  O   UNL     1      42.976  47.371 137.445  1.00  0.00    -0.490 OA
ATOM     29  C   UNL     1      42.016  46.700 136.639  1.00  0.00     0.278 C 
ENDBRANCH  18  28
BRANCH  21  30
ATOM     30  O   UNL     1      48.544  47.750 136.737  1.00  0.00    -0.507 OA
ATOM     31  H   UNL     1      48.933  48.079 135.862  1.00  0.00     0.293 HD
ENDBRANCH  21  30
BRANCH  25  32
ATOM     32  C   UNL     1      44.814  43.303 139.769  1.00  0.00     0.017 A 
ATOM     33  C   UNL     1      43.563  43.493 140.390  1.00  0.00     0.012 A 
ATOM     34  C   UNL     1      45.416  42.033 139.828  1.00  0.00     0.012 A 
ATOM     35  C   UNL     1      42.941  42.439 141.066  1.00  0.00     0.001 A 
ATOM     36  C   UNL     1      44.789  40.983 140.506  1.00  0.00     0.001 A 
ATOM     37  C   UNL     1      43.553  41.185 141.125  1.00  0.00     0.000 A 
ENDBRANCH  25  32
ENDBRANCH   1  17
TORSDOF 9
ENDMDL
MODEL 6
REMARK VINA RESULT:    -6.600      3.190      5.625
REMARK INTER + INTRA:         -10.632
REMARK INTER:                  -8.894
REMARK INTRA:                  -1.737
REMARK UNBOUND:                -1.331
REMARK SMILES COc1c(O[C@H]2O[C@@H](C(=O)[O-])[C@H](O)[C@@H](O)[C@@H]2O)cc(O)c2c(=O)cc(-c3ccccc3)oc12
REMARK SMILES IDX 5 1 6 2 8 3 12 4 7 5 14 6 16 7 9 8 10 9 11 10 13 11 15 13
REMARK SMILES IDX 17 15 4 17 3 18 18 19 33 20 19 21 21 22 32 23 22 24 25 25
REMARK SMILES IDX 24 26 23 27 2 28 1 29 20 30 26 32 27 33 31 34 28 35 30 36
REMARK SMILES IDX 29 37
REMARK H PARENT 13 12 15 14 17 16 20 31
REMARK Flexibility Score: inf
ROOT
ATOM      1  O   UNL     1      43.171  51.650 131.284  1.00  0.00    -0.458 OA
ENDROOT
BRANCH   1   2
ATOM      2  C   UNL     1      42.014  52.255 130.698  1.00  0.00     0.339 C 
ATOM      3  C   UNL     1      42.252  51.288 128.531  1.00  0.00     0.199 C 
ATOM      4  C   UNL     1      40.985  50.408 128.702  1.00  0.00     0.180 C 
ATOM      5  O   UNL     1      42.203  52.479 129.307  1.00  0.00    -0.328 OA
ATOM      6  C   UNL     1      40.636  50.162 130.181  1.00  0.00     0.181 C 
ATOM      7  C   UNL     1      40.732  51.457 131.010  1.00  0.00     0.214 C 
BRANCH   3   8
ATOM      8  C   UNL     1      43.565  50.554 128.679  1.00  0.00     0.073 C 
ATOM      9  O   UNL     1      44.652  51.181 128.566  1.00  0.00    -0.547 OA
ATOM     10  O   UNL     1      43.594  49.172 128.822  1.00  0.00    -0.547 OA
ENDBRANCH   3   8
BRANCH   4  11
ATOM     11  O   UNL     1      39.895  51.050 128.088  1.00  0.00    -0.387 OA
ATOM     12  H   UNL     1      39.354  51.464 128.810  1.00  0.00     0.211 HD
ENDBRANCH   4  11
BRANCH   6  13
ATOM     13  O   UNL     1      41.403  49.121 130.736  1.00  0.00    -0.387 OA
ATOM     14  H   UNL     1      42.341  49.422 130.799  1.00  0.00     0.211 HD
ENDBRANCH   6  13
BRANCH   7  15
ATOM     15  O   UNL     1      39.617  52.270 130.739  1.00  0.00    -0.384 OA
ATOM     16  H   UNL     1      39.149  51.871 129.960  1.00  0.00     0.211 HD
ENDBRANCH   7  15
ENDBRANCH   1   2
BRANCH   1  17
ATOM     17  C   UNL     1      43.338  51.513 132.668  1.00  0.00     0.172 A 
ATOM     18  C   UNL     1      43.582  50.253 133.243  1.00  0.00     0.205 A 
ATOM     19  C   UNL     1      43.238  52.648 133.471  1.00  0.00     0.097 A 
ATOM     20  C   UNL     1      43.791  50.160 134.641  1.00  0.00     0.188 A 
ATOM     21  C   UNL     1      43.431  52.571 134.851  1.00  0.00     0.134 A 
ATOM     22  C   UNL     1      43.717  51.324 135.451  1.00  0.00     0.111 A 
ATOM     23  O   UNL     1      44.046  48.981 135.206  1.00  0.00    -0.452 OA
ATOM     24  C   UNL     1      43.928  51.179 136.838  1.00  0.00     0.197 A 
ATOM     25  C   UNL     1      44.235  48.810 136.512  1.00  0.00     0.138 A 
ATOM     26  C   UNL     1      44.184  49.917 137.368  1.00  0.00     0.100 A 
ATOM     27  O   UNL     1      43.890  52.169 137.617  1.00  0.00    -0.289 OA
BRANCH  18  28
ATOM     28  O   UNL     1      43.573  49.141 132.379  1.00  0.00    -0.490 OA
ATOM     29  C   UNL     1      44.703  48.393 131.947  1.00  0.00     0.278 C 
ENDBRANCH  18  28
BRANCH  21  30
ATOM     30  O   UNL     1      43.341  53.734 135.618  1.00  0.00    -0.507 OA
ATOM     31  H   UNL     1      44.031  54.472 135.549  1.00  0.00     0.293 HD
ENDBRANCH  21  30
BRANCH  25  32
ATOM     32  C   UNL     1      44.503  47.445 137.026  1.00  0.00     0.017 A 
ATOM     33  C   UNL     1      45.818  46.972 137.204  1.00  0.00     0.012 A 
ATOM     34  C   UNL     1      43.427  46.610 137.377  1.00  0.00     0.012 A 
ATOM     35  C   UNL     1      46.046  45.689 137.711  1.00  0.00     0.001 A 
ATOM     36  C   UNL     1      43.661  45.328 137.883  1.00  0.00     0.001 A 
ATOM     37  C   UNL     1      44.969  44.866 138.049  1.00  0.00     0.000 A 
ENDBRANCH  25  32
ENDBRANCH   1  17
TORSDOF 9
ENDMDL
MODEL 7
REMARK VINA RESULT:    -6.539      1.099      2.497
REMARK INTER + INTRA:         -10.546
REMARK INTER:                  -9.142
REMARK INTRA:                  -1.404
REMARK UNBOUND:                -1.331
REMARK SMILES COc1c(O[C@H]2O[C@@H](C(=O)[O-])[C@H](O)[C@@H](O)[C@@H]2O)cc(O)c2c(=O)cc(-c3ccccc3)oc12
REMARK SMILES IDX 5 1 6 2 8 3 12 4 7 5 14 6 16 7 9 8 10 9 11 10 13 11 15 13
REMARK SMILES IDX 17 15 4 17 3 18 18 19 33 20 19 21 21 22 32 23 22 24 25 25
REMARK SMILES IDX 24 26 23 27 2 28 1 29 20 30 26 32 27 33 31 34 28 35 30 36
REMARK SMILES IDX 29 37
REMARK H PARENT 13 12 15 14 17 16 20 31
REMARK Flexibility Score: inf
ROOT
ATOM      1  O   UNL     1      44.987  49.717 129.679  1.00  0.00    -0.458 OA
ENDROOT
BRANCH   1   2
ATOM      2  C   UNL     1      45.147  50.877 128.856  1.00  0.00     0.339 C 
ATOM      3  C   UNL     1      47.079  50.128 127.678  1.00  0.00     0.199 C 
ATOM      4  C   UNL     1      46.306  50.003 126.338  1.00  0.00     0.180 C 
ATOM      5  O   UNL     1      46.516  51.102 128.548  1.00  0.00    -0.328 OA
ATOM      6  C   UNL     1      44.790  49.832 126.549  1.00  0.00     0.181 C 
ATOM      7  C   UNL     1      44.249  50.816 127.603  1.00  0.00     0.214 C 
BRANCH   3   8
ATOM      8  C   UNL     1      47.362  48.819 128.378  1.00  0.00     0.073 C 
ATOM      9  O   UNL     1      48.059  48.805 129.428  1.00  0.00    -0.547 OA
ATOM     10  O   UNL     1      46.963  47.612 127.816  1.00  0.00    -0.547 OA
ENDBRANCH   3   8
BRANCH   4  11
ATOM     11  O   UNL     1      46.522  51.163 125.573  1.00  0.00    -0.387 OA
ATOM     12  H   UNL     1      46.048  51.037 124.710  1.00  0.00     0.211 HD
ENDBRANCH   4  11
BRANCH   6  13
ATOM     13  O   UNL     1      44.447  48.500 126.843  1.00  0.00    -0.387 OA
ATOM     14  H   UNL     1      45.268  47.953 126.823  1.00  0.00     0.211 HD
ENDBRANCH   6  13
BRANCH   7  15
ATOM     15  O   UNL     1      44.168  52.103 127.044  1.00  0.00    -0.384 OA
ATOM     16  H   UNL     1      44.164  52.748 127.798  1.00  0.00     0.211 HD
ENDBRANCH   7  15
ENDBRANCH   1   2
BRANCH   1  17
ATOM     17  C   UNL     1      44.393  49.761 130.947  1.00  0.00     0.172 A 
ATOM     18  C   UNL     1      43.057  49.365 131.131  1.00  0.00     0.205 A 
ATOM     19  C   UNL     1      45.147  50.223 132.024  1.00  0.00     0.097 A 
ATOM     20  C   UNL     1      42.504  49.380 132.436  1.00  0.00     0.188 A 
ATOM     21  C   UNL     1      44.614  50.254 133.314  1.00  0.00     0.134 A 
ATOM     22  C   UNL     1      43.286  49.824 133.535  1.00  0.00     0.111 A 
ATOM     23  O   UNL     1      41.248  48.988 132.639  1.00  0.00    -0.452 OA
ATOM     24  C   UNL     1      42.690  49.825 134.813  1.00  0.00     0.197 A 
ATOM     25  C   UNL     1      40.653  48.991 133.829  1.00  0.00     0.138 A 
ATOM     26  C   UNL     1      41.369  49.409 134.958  1.00  0.00     0.100 A 
ATOM     27  O   UNL     1      43.327  50.194 135.836  1.00  0.00    -0.289 OA
BRANCH  18  28
ATOM     28  O   UNL     1      42.331  49.002 129.981  1.00  0.00    -0.490 OA
ATOM     29  C   UNL     1      41.289  49.748 129.364  1.00  0.00     0.278 C 
ENDBRANCH  18  28
BRANCH  21  30
ATOM     30  O   UNL     1      45.408  50.707 134.370  1.00  0.00    -0.507 OA
ATOM     31  H   UNL     1      45.236  51.597 134.821  1.00  0.00     0.293 HD
ENDBRANCH  21  30
BRANCH  25  32
ATOM     32  C   UNL     1      39.244  48.540 133.929  1.00  0.00     0.017 A 
ATOM     33  C   UNL     1      38.782  47.410 133.225  1.00  0.00     0.012 A 
ATOM     34  C   UNL     1      38.351  49.230 134.768  1.00  0.00     0.012 A 
ATOM     35  C   UNL     1      37.454  46.992 133.352  1.00  0.00     0.001 A 
ATOM     36  C   UNL     1      37.023  48.807 134.890  1.00  0.00     0.001 A 
ATOM     37  C   UNL     1      36.574  47.690 134.182  1.00  0.00     0.000 A 
ENDBRANCH  25  32
ENDBRANCH   1  17
TORSDOF 9
ENDMDL
MODEL 8
REMARK VINA RESULT:    -6.522      4.674      8.159
REMARK INTER + INTRA:         -10.522
REMARK INTER:                  -8.722
REMARK INTRA:                  -1.800
REMARK UNBOUND:                -1.331
REMARK SMILES COc1c(O[C@H]2O[C@@H](C(=O)[O-])[C@H](O)[C@@H](O)[C@@H]2O)cc(O)c2c(=O)cc(-c3ccccc3)oc12
REMARK SMILES IDX 5 1 6 2 8 3 12 4 7 5 14 6 16 7 9 8 10 9 11 10 13 11 15 13
REMARK SMILES IDX 17 15 4 17 3 18 18 19 33 20 19 21 21 22 32 23 22 24 25 25
REMARK SMILES IDX 24 26 23 27 2 28 1 29 20 30 26 32 27 33 31 34 28 35 30 36
REMARK SMILES IDX 29 37
REMARK H PARENT 13 12 15 14 17 16 20 31
REMARK Flexibility Score: inf
ROOT
ATOM      1  O   UNL     1      43.159  49.631 135.259  1.00  0.00    -0.458 OA
ENDROOT
BRANCH   1   2
ATOM      2  C   UNL     1      42.264  49.553 134.145  1.00  0.00     0.339 C 
ATOM      3  C   UNL     1      42.649  51.753 133.312  1.00  0.00     0.199 C 
ATOM      4  C   UNL     1      43.354  51.227 132.034  1.00  0.00     0.180 C 
ATOM      5  O   UNL     1      41.709  50.826 133.842  1.00  0.00    -0.328 OA
ATOM      6  C   UNL     1      43.930  49.811 132.222  1.00  0.00     0.181 C 
ATOM      7  C   UNL     1      42.927  48.879 132.927  1.00  0.00     0.214 C 
BRANCH   3   8
ATOM      8  C   UNL     1      43.574  52.310 134.369  1.00  0.00     0.073 C 
ATOM      9  O   UNL     1      43.096  52.795 135.430  1.00  0.00    -0.547 OA
ATOM     10  O   UNL     1      44.941  52.405 134.139  1.00  0.00    -0.547 OA
ENDBRANCH   3   8
BRANCH   4  11
ATOM     11  O   UNL     1      42.426  51.194 130.978  1.00  0.00    -0.387 OA
ATOM     12  H   UNL     1      42.247  52.135 130.716  1.00  0.00     0.211 HD
ENDBRANCH   4  11
BRANCH   6  13
ATOM     13  O   UNL     1      45.178  49.832 132.871  1.00  0.00    -0.387 OA
ATOM     14  H   UNL     1      45.809  49.276 132.355  1.00  0.00     0.211 HD
ENDBRANCH   6  13
BRANCH   7  15
ATOM     15  O   UNL     1      41.922  48.501 132.019  1.00  0.00    -0.384 OA
ATOM     16  H   UNL     1      41.935  49.161 131.278  1.00  0.00     0.211 HD
ENDBRANCH   7  15
ENDBRANCH   1   2
BRANCH   1  17
ATOM     17  C   UNL     1      43.492  48.522 136.046  1.00  0.00     0.172 A 
ATOM     18  C   UNL     1      44.835  48.199 136.305  1.00  0.00     0.205 A 
ATOM     19  C   UNL     1      42.464  47.729 136.556  1.00  0.00     0.097 A 
ATOM     20  C   UNL     1      45.133  47.096 137.143  1.00  0.00     0.188 A 
ATOM     21  C   UNL     1      42.741  46.633 137.375  1.00  0.00     0.134 A 
ATOM     22  C   UNL     1      44.081  46.309 137.684  1.00  0.00     0.111 A 
ATOM     23  O   UNL     1      46.397  46.783 137.421  1.00  0.00    -0.452 OA
ATOM     24  C   UNL     1      44.428  45.218 138.509  1.00  0.00     0.197 A 
ATOM     25  C   UNL     1      46.756  45.754 138.183  1.00  0.00     0.138 A 
ATOM     26  C   UNL     1      45.770  44.941 138.756  1.00  0.00     0.100 A 
ATOM     27  O   UNL     1      43.549  44.484 139.033  1.00  0.00    -0.289 OA
BRANCH  18  28
ATOM     28  O   UNL     1      45.818  48.989 135.677  1.00  0.00    -0.490 OA
ATOM     29  C   UNL     1      46.535  50.071 136.258  1.00  0.00     0.278 C 
ENDBRANCH  18  28
BRANCH  21  30
ATOM     30  O   UNL     1      41.683  45.875 137.881  1.00  0.00    -0.507 OA
ATOM     31  H   UNL     1      41.713  45.473 138.810  1.00  0.00     0.293 HD
ENDBRANCH  21  30
BRANCH  25  32
ATOM     32  C   UNL     1      48.200  45.500 138.413  1.00  0.00     0.017 A 
ATOM     33  C   UNL     1      49.192  46.250 137.750  1.00  0.00     0.012 A 
ATOM     34  C   UNL     1      48.594  44.516 139.337  1.00  0.00     0.012 A 
ATOM     35  C   UNL     1      50.546  46.007 138.000  1.00  0.00     0.001 A 
ATOM     36  C   UNL     1      49.950  44.277 139.582  1.00  0.00     0.001 A 
ATOM     37  C   UNL     1      50.926  45.020 138.914  1.00  0.00     0.000 A 
ENDBRANCH  25  32
ENDBRANCH   1  17
TORSDOF 9
ENDMDL
MODEL 9
REMARK VINA RESULT:    -6.490      2.762      4.575
REMARK INTER + INTRA:         -10.478
REMARK INTER:                  -8.909
REMARK INTRA:                  -1.569
REMARK UNBOUND:                -1.331
REMARK SMILES COc1c(O[C@H]2O[C@@H](C(=O)[O-])[C@H](O)[C@@H](O)[C@@H]2O)cc(O)c2c(=O)cc(-c3ccccc3)oc12
REMARK SMILES IDX 5 1 6 2 8 3 12 4 7 5 14 6 16 7 9 8 10 9 11 10 13 11 15 13
REMARK SMILES IDX 17 15 4 17 3 18 18 19 33 20 19 21 21 22 32 23 22 24 25 25
REMARK SMILES IDX 24 26 23 27 2 28 1 29 20 30 26 32 27 33 31 34 28 35 30 36
REMARK SMILES IDX 29 37
REMARK H PARENT 13 12 15 14 17 16 20 31
REMARK Flexibility Score: inf
ROOT
ATOM      1  O   UNL     1      41.780  50.043 128.738  1.00  0.00    -0.458 OA
ENDROOT
BRANCH   1   2
ATOM      2  C   UNL     1      42.392  49.099 127.855  1.00  0.00     0.339 C 
ATOM      3  C   UNL     1      42.118  50.360 125.851  1.00  0.00     0.199 C 
ATOM      4  C   UNL     1      43.643  50.604 125.705  1.00  0.00     0.180 C 
ATOM      5  O   UNL     1      41.816  49.163 126.557  1.00  0.00    -0.328 OA
ATOM      6  C   UNL     1      44.388  50.481 127.047  1.00  0.00     0.181 C 
ATOM      7  C   UNL     1      43.927  49.243 127.841  1.00  0.00     0.214 C 
BRANCH   3   8
ATOM      8  C   UNL     1      41.327  51.546 126.355  1.00  0.00     0.073 C 
ATOM      9  O   UNL     1      40.068  51.490 126.398  1.00  0.00    -0.547 OA
ATOM     10  O   UNL     1      41.960  52.744 126.663  1.00  0.00    -0.547 OA
ENDBRANCH   3   8
BRANCH   4  11
ATOM     11  O   UNL     1      44.176  49.657 124.812  1.00  0.00    -0.387 OA
ATOM     12  H   UNL     1      44.380  48.840 125.338  1.00  0.00     0.211 HD
ENDBRANCH   4  11
BRANCH   6  13
ATOM     13  O   UNL     1      44.298  51.660 127.809  1.00  0.00    -0.387 OA
ATOM     14  H   UNL     1      43.420  52.077 127.638  1.00  0.00     0.211 HD
ENDBRANCH   6  13
BRANCH   7  15
ATOM     15  O   UNL     1      44.483  48.086 127.267  1.00  0.00    -0.384 OA
ATOM     16  H   UNL     1      43.747  47.609 126.802  1.00  0.00     0.211 HD
ENDBRANCH   7  15
ENDBRANCH   1   2
BRANCH   1  17
ATOM     17  C   UNL     1      41.542  49.775 130.092  1.00  0.00     0.172 A 
ATOM     18  C   UNL     1      42.228  50.479 131.097  1.00  0.00     0.205 A 
ATOM     19  C   UNL     1      40.624  48.781 130.427  1.00  0.00     0.097 A 
ATOM     20  C   UNL     1      41.929  50.211 132.457  1.00  0.00     0.188 A 
ATOM     21  C   UNL     1      40.325  48.499 131.761  1.00  0.00     0.134 A 
ATOM     22  C   UNL     1      40.971  49.218 132.792  1.00  0.00     0.111 A 
ATOM     23  O   UNL     1      42.549  50.880 133.426  1.00  0.00    -0.452 OA
ATOM     24  C   UNL     1      40.711  48.985 134.159  1.00  0.00     0.197 A 
ATOM     25  C   UNL     1      42.336  50.674 134.723  1.00  0.00     0.138 A 
ATOM     26  C   UNL     1      41.398  49.714 135.125  1.00  0.00     0.100 A 
ATOM     27  O   UNL     1      39.865  48.128 134.531  1.00  0.00    -0.289 OA
BRANCH  18  28
ATOM     28  O   UNL     1      43.209  51.399 130.681  1.00  0.00    -0.490 OA
ATOM     29  C   UNL     1      43.110  52.818 130.714  1.00  0.00     0.278 C 
ENDBRANCH  18  28
BRANCH  21  30
ATOM     30  O   UNL     1      39.386  47.508 132.055  1.00  0.00    -0.507 OA
ATOM     31  H   UNL     1      38.968  46.940 131.329  1.00  0.00     0.293 HD
ENDBRANCH  21  30
BRANCH  25  32
ATOM     32  C   UNL     1      43.096  51.476 135.712  1.00  0.00     0.017 A 
ATOM     33  C   UNL     1      44.411  51.131 136.083  1.00  0.00     0.012 A 
ATOM     34  C   UNL     1      42.512  52.627 136.270  1.00  0.00     0.012 A 
ATOM     35  C   UNL     1      45.116  51.915 137.002  1.00  0.00     0.001 A 
ATOM     36  C   UNL     1      43.222  53.408 137.189  1.00  0.00     0.001 A 
ATOM     37  C   UNL     1      44.522  53.052 137.555  1.00  0.00     0.000 A 
ENDBRANCH  25  32
ENDBRANCH   1  17
TORSDOF 9
ENDMDL
