MODEL 1
REMARK VINA RESULT:    -5.404      0.000      0.000
REMARK INTER + INTRA:          -8.156
REMARK INTER:                  -7.458
REMARK INTRA:                  -0.698
REMARK UNBOUND:                -0.698
REMARK SMILES CCCCc1cccc(O)c1CCCC
REMARK SMILES IDX 5 1 11 2 9 3 8 4 7 5 6 6 4 7 3 8 2 9 1 10 12 11 13 12 14 13
REMARK SMILES IDX 15 14 10 15
REMARK H PARENT 10 16
REMARK Flexibility Score: inf
ROOT
ATOM      1  C   UNL     1       7.000   6.527  -2.081  1.00  0.00    -0.041 A 
ATOM      2  C   UNL     1       7.260   7.257  -3.277  1.00  0.00    -0.003 A 
ATOM      3  C   UNL     1       6.909   8.626  -3.335  1.00  0.00     0.119 A 
ATOM      4  C   UNL     1       6.325   9.252  -2.228  1.00  0.00     0.046 A 
ATOM      5  C   UNL     1       6.074   8.535  -1.063  1.00  0.00     0.004 A 
ATOM      6  C   UNL     1       6.401   7.182  -0.992  1.00  0.00     0.004 A 
ENDROOT
BRANCH   1   7
ATOM      7  C   UNL     1       7.259   5.041  -1.953  1.00  0.00     0.036 C 
BRANCH   7   8
ATOM      8  C   UNL     1       6.078   4.346  -1.258  1.00  0.00     0.004 C 
BRANCH   8   9
ATOM      9  C   UNL     1       6.522   3.454  -0.090  1.00  0.00    -0.003 C 
ATOM     10  C   UNL     1       6.746   4.241   1.201  1.00  0.00     0.004 C 
ENDBRANCH   8   9
ENDBRANCH   7   8
ENDBRANCH   1   7
BRANCH   2  11
ATOM     11  C   UNL     1       7.928   6.610  -4.480  1.00  0.00     0.040 C 
BRANCH  11  12
ATOM     12  C   UNL     1       9.455   6.819  -4.490  1.00  0.00     0.005 C 
BRANCH  12  13
ATOM     13  C   UNL     1      10.090   6.785  -5.891  1.00  0.00    -0.003 C 
ATOM     14  C   UNL     1       9.281   5.955  -6.889  1.00  0.00     0.004 C 
ENDBRANCH  12  13
ENDBRANCH  11  12
ENDBRANCH   2  11
BRANCH   3  15
ATOM     15  O   UNL     1       7.137   9.364  -4.497  1.00  0.00    -0.508 OA
ATOM     16  H   UNL     1       7.903   9.149  -5.124  1.00  0.00     0.293 HD
ENDBRANCH   3  15
TORSDOF 7
ENDMDL
MODEL 2
REMARK VINA RESULT:    -4.943      3.180      7.608
REMARK INTER + INTRA:          -7.519
REMARK INTER:                  -6.431
REMARK INTRA:                  -1.088
REMARK UNBOUND:                -0.698
REMARK SMILES CCCCc1cccc(O)c1CCCC
REMARK SMILES IDX 5 1 11 2 9 3 8 4 7 5 6 6 4 7 3 8 2 9 1 10 12 11 13 12 14 13
REMARK SMILES IDX 15 14 10 15
REMARK H PARENT 10 16
REMARK Flexibility Score: inf
ROOT
ATOM      1  C   UNL     1       9.511   6.348  -9.114  1.00  0.00    -0.041 A 
ATOM      2  C   UNL     1       9.278   5.466  -8.020  1.00  0.00    -0.003 A 
ATOM      3  C   UNL     1       8.767   4.173  -8.279  1.00  0.00     0.119 A 
ATOM      4  C   UNL     1       8.503   3.768  -9.593  1.00  0.00     0.046 A 
ATOM      5  C   UNL     1       8.734   4.634 -10.657  1.00  0.00     0.004 A 
ATOM      6  C   UNL     1       9.225   5.916 -10.421  1.00  0.00     0.004 A 
ENDROOT
BRANCH   1   7
ATOM      7  C   UNL     1       9.974   7.778  -8.932  1.00  0.00     0.036 C 
BRANCH   7   8
ATOM      8  C   UNL     1       8.774   8.738  -8.941  1.00  0.00     0.004 C 
BRANCH   8   9
ATOM      9  C   UNL     1       8.745   9.657  -7.711  1.00  0.00    -0.003 C 
ATOM     10  C   UNL     1      10.049   9.618  -6.915  1.00  0.00     0.004 C 
ENDBRANCH   8   9
ENDBRANCH   7   8
ENDBRANCH   1   7
BRANCH   2  11
ATOM     11  C   UNL     1       9.591   5.867  -6.587  1.00  0.00     0.040 C 
BRANCH  11  12
ATOM     12  C   UNL     1       8.359   6.430  -5.851  1.00  0.00     0.005 C 
BRANCH  12  13
ATOM     13  C   UNL     1       8.636   6.885  -4.408  1.00  0.00    -0.003 C 
ATOM     14  C   UNL     1       7.552   6.438  -3.426  1.00  0.00     0.004 C 
ENDBRANCH  12  13
ENDBRANCH  11  12
ENDBRANCH   2  11
BRANCH   3  15
ATOM     15  O   UNL     1       8.513   3.290  -7.229  1.00  0.00    -0.508 OA
ATOM     16  H   UNL     1       9.264   2.879  -6.686  1.00  0.00     0.293 HD
ENDBRANCH   3  15
TORSDOF 7
ENDMDL
MODEL 3
REMARK VINA RESULT:    -4.816      1.540      5.141
REMARK INTER + INTRA:          -7.344
REMARK INTER:                  -6.758
REMARK INTRA:                  -0.585
REMARK UNBOUND:                -0.698
REMARK SMILES CCCCc1cccc(O)c1CCCC
REMARK SMILES IDX 5 1 11 2 9 3 8 4 7 5 6 6 4 7 3 8 2 9 1 10 12 11 13 12 14 13
REMARK SMILES IDX 15 14 10 15
REMARK H PARENT 10 16
REMARK Flexibility Score: inf
ROOT
ATOM      1  C   UNL     1       8.187   7.079  -4.249  1.00  0.00    -0.041 A 
ATOM      2  C   UNL     1       7.364   6.829  -3.112  1.00  0.00    -0.003 A 
ATOM      3  C   UNL     1       7.251   7.827  -2.116  1.00  0.00     0.119 A 
ATOM      4  C   UNL     1       7.931   9.043  -2.254  1.00  0.00     0.046 A 
ATOM      5  C   UNL     1       8.731   9.280  -3.366  1.00  0.00     0.004 A 
ATOM      6  C   UNL     1       8.866   8.305  -4.351  1.00  0.00     0.004 A 
ENDROOT
BRANCH   1   7
ATOM      7  C   UNL     1       8.439   6.042  -5.323  1.00  0.00     0.036 C 
BRANCH   7   8
ATOM      8  C   UNL     1       8.933   6.714  -6.614  1.00  0.00     0.004 C 
BRANCH   8   9
ATOM      9  C   UNL     1       9.261   5.699  -7.719  1.00  0.00    -0.003 C 
ATOM     10  C   UNL     1       8.808   4.282  -7.371  1.00  0.00     0.004 C 
ENDBRANCH   8   9
ENDBRANCH   7   8
ENDBRANCH   1   7
BRANCH   2  11
ATOM     11  C   UNL     1       6.585   5.532  -2.957  1.00  0.00     0.040 C 
BRANCH  11  12
ATOM     12  C   UNL     1       7.238   4.571  -1.945  1.00  0.00     0.005 C 
BRANCH  12  13
ATOM     13  C   UNL     1       6.304   4.112  -0.813  1.00  0.00    -0.003 C 
ATOM     14  C   UNL     1       6.840   4.461   0.576  1.00  0.00     0.004 C 
ENDBRANCH  12  13
ENDBRANCH  11  12
ENDBRANCH   2  11
BRANCH   3  15
ATOM     15  O   UNL     1       6.465   7.607  -0.984  1.00  0.00    -0.508 OA
ATOM     16  H   UNL     1       6.696   6.890  -0.306  1.00  0.00     0.293 HD
ENDBRANCH   3  15
TORSDOF 7
ENDMDL
MODEL 4
REMARK VINA RESULT:    -4.814      1.770      5.275
REMARK INTER + INTRA:          -7.342
REMARK INTER:                  -6.533
REMARK INTRA:                  -0.809
REMARK UNBOUND:                -0.698
REMARK SMILES CCCCc1cccc(O)c1CCCC
REMARK SMILES IDX 5 1 11 2 9 3 8 4 7 5 6 6 4 7 3 8 2 9 1 10 12 11 13 12 14 13
REMARK SMILES IDX 15 14 10 15
REMARK H PARENT 10 16
REMARK Flexibility Score: inf
ROOT
ATOM      1  C   UNL     1       7.325   6.123  -3.675  1.00  0.00    -0.041 A 
ATOM      2  C   UNL     1       7.300   6.815  -2.429  1.00  0.00    -0.003 A 
ATOM      3  C   UNL     1       6.882   6.121  -1.269  1.00  0.00     0.119 A 
ATOM      4  C   UNL     1       6.509   4.774  -1.347  1.00  0.00     0.046 A 
ATOM      5  C   UNL     1       6.538   4.104  -2.565  1.00  0.00     0.004 A 
ATOM      6  C   UNL     1       6.934   4.774  -3.721  1.00  0.00     0.004 A 
ENDROOT
BRANCH   1   7
ATOM      7  C   UNL     1       7.674   6.800  -4.983  1.00  0.00     0.036 C 
BRANCH   7   8
ATOM      8  C   UNL     1       9.071   6.369  -5.457  1.00  0.00     0.004 C 
BRANCH   8   9
ATOM      9  C   UNL     1       9.122   6.091  -6.966  1.00  0.00    -0.003 C 
ATOM     10  C   UNL     1       8.894   4.617  -7.303  1.00  0.00     0.004 C 
ENDBRANCH   8   9
ENDBRANCH   7   8
ENDBRANCH   1   7
BRANCH   2  11
ATOM     11  C   UNL     1       7.734   8.267  -2.310  1.00  0.00     0.040 C 
BRANCH  11  12
ATOM     12  C   UNL     1       6.592   9.251  -2.630  1.00  0.00     0.005 C 
BRANCH  12  13
ATOM     13  C   UNL     1       5.885   9.825  -1.390  1.00  0.00    -0.003 C 
ATOM     14  C   UNL     1       4.460   9.296  -1.223  1.00  0.00     0.004 C 
ENDBRANCH  12  13
ENDBRANCH  11  12
ENDBRANCH   2  11
BRANCH   3  15
ATOM     15  O   UNL     1       6.830   6.774  -0.037  1.00  0.00    -0.508 OA
ATOM     16  H   UNL     1       7.233   6.367   0.799  1.00  0.00     0.293 HD
ENDBRANCH   3  15
TORSDOF 7
ENDMDL
MODEL 5
REMARK VINA RESULT:    -4.750      1.696      2.769
REMARK INTER + INTRA:          -7.254
REMARK INTER:                  -6.659
REMARK INTRA:                  -0.595
REMARK UNBOUND:                -0.698
REMARK SMILES CCCCc1cccc(O)c1CCCC
REMARK SMILES IDX 5 1 11 2 9 3 8 4 7 5 6 6 4 7 3 8 2 9 1 10 12 11 13 12 14 13
REMARK SMILES IDX 15 14 10 15
REMARK H PARENT 10 16
REMARK Flexibility Score: inf
ROOT
ATOM      1  C   UNL     1       8.014   7.138  -4.209  1.00  0.00    -0.041 A 
ATOM      2  C   UNL     1       8.948   7.444  -5.241  1.00  0.00    -0.003 A 
ATOM      3  C   UNL     1       9.149   8.797  -5.602  1.00  0.00     0.119 A 
ATOM      4  C   UNL     1       8.448   9.816  -4.947  1.00  0.00     0.046 A 
ATOM      5  C   UNL     1       7.539   9.510  -3.939  1.00  0.00     0.004 A 
ATOM      6  C   UNL     1       7.317   8.183  -3.578  1.00  0.00     0.004 A 
ENDROOT
BRANCH   1   7
ATOM      7  C   UNL     1       7.666   5.719  -3.811  1.00  0.00     0.036 C 
BRANCH   7   8
ATOM      8  C   UNL     1       6.926   5.703  -2.464  1.00  0.00     0.004 C 
BRANCH   8   9
ATOM      9  C   UNL     1       6.595   4.281  -1.989  1.00  0.00    -0.003 C 
ATOM     10  C   UNL     1       6.510   4.172  -0.467  1.00  0.00     0.004 C 
ENDBRANCH   8   9
ENDBRANCH   7   8
ENDBRANCH   1   7
BRANCH   2  11
ATOM     11  C   UNL     1       9.749   6.360  -5.943  1.00  0.00     0.040 C 
BRANCH  11  12
ATOM     12  C   UNL     1       9.074   5.875  -7.240  1.00  0.00     0.005 C 
BRANCH  12  13
ATOM     13  C   UNL     1       8.835   4.356  -7.301  1.00  0.00    -0.003 C 
ATOM     14  C   UNL     1       8.823   3.814  -8.730  1.00  0.00     0.004 C 
ENDBRANCH  12  13
ENDBRANCH  11  12
ENDBRANCH   2  11
BRANCH   3  15
ATOM     15  O   UNL     1      10.045   9.129  -6.619  1.00  0.00    -0.508 OA
ATOM     16  H   UNL     1      10.991   9.434  -6.418  1.00  0.00     0.293 HD
ENDBRANCH   3  15
TORSDOF 7
ENDMDL
MODEL 6
REMARK VINA RESULT:    -4.622      1.427      3.862
REMARK INTER + INTRA:          -7.077
REMARK INTER:                  -6.416
REMARK INTRA:                  -0.661
REMARK UNBOUND:                -0.698
REMARK SMILES CCCCc1cccc(O)c1CCCC
REMARK SMILES IDX 5 1 11 2 9 3 8 4 7 5 6 6 4 7 3 8 2 9 1 10 12 11 13 12 14 13
REMARK SMILES IDX 15 14 10 15
REMARK H PARENT 10 16
REMARK Flexibility Score: inf
ROOT
ATOM      1  C   UNL     1       7.160   6.813  -2.228  1.00  0.00    -0.041 A 
ATOM      2  C   UNL     1       7.563   8.176  -2.124  1.00  0.00    -0.003 A 
ATOM      3  C   UNL     1       8.176   8.796  -3.237  1.00  0.00     0.119 A 
ATOM      4  C   UNL     1       8.372   8.081  -4.425  1.00  0.00     0.046 A 
ATOM      5  C   UNL     1       7.975   6.751  -4.521  1.00  0.00     0.004 A 
ATOM      6  C   UNL     1       7.382   6.119  -3.430  1.00  0.00     0.004 A 
ENDROOT
BRANCH   1   7
ATOM      7  C   UNL     1       6.576   6.038  -1.066  1.00  0.00     0.036 C 
BRANCH   7   8
ATOM      8  C   UNL     1       6.502   4.540  -1.401  1.00  0.00     0.004 C 
BRANCH   8   9
ATOM      9  C   UNL     1       6.328   3.664  -0.151  1.00  0.00    -0.003 C 
ATOM     10  C   UNL     1       6.785   4.365   1.128  1.00  0.00     0.004 C 
ENDBRANCH   8   9
ENDBRANCH   7   8
ENDBRANCH   1   7
BRANCH   2  11
ATOM     11  C   UNL     1       7.328   8.985  -0.858  1.00  0.00     0.040 C 
BRANCH  11  12
ATOM     12  C   UNL     1       6.132   9.948  -0.988  1.00  0.00     0.005 C 
BRANCH  12  13
ATOM     13  C   UNL     1       5.024   9.457  -1.936  1.00  0.00    -0.003 C 
ATOM     14  C   UNL     1       3.668   9.320  -1.243  1.00  0.00     0.004 C 
ENDBRANCH  12  13
ENDBRANCH  11  12
ENDBRANCH   2  11
BRANCH   3  15
ATOM     15  O   UNL     1       8.596  10.124  -3.162  1.00  0.00    -0.508 OA
ATOM     16  H   UNL     1       8.572  10.643  -2.292  1.00  0.00     0.293 HD
ENDBRANCH   3  15
TORSDOF 7
ENDMDL
MODEL 7
REMARK VINA RESULT:    -4.513      1.568      4.248
REMARK INTER + INTRA:          -6.926
REMARK INTER:                  -6.029
REMARK INTRA:                  -0.897
REMARK UNBOUND:                -0.698
REMARK SMILES CCCCc1cccc(O)c1CCCC
REMARK SMILES IDX 5 1 11 2 9 3 8 4 7 5 6 6 4 7 3 8 2 9 1 10 12 11 13 12 14 13
REMARK SMILES IDX 15 14 10 15
REMARK H PARENT 10 16
REMARK Flexibility Score: inf
ROOT
ATOM      1  C   UNL     1       8.271   6.853  -4.313  1.00  0.00    -0.041 A 
ATOM      2  C   UNL     1       9.048   8.036  -4.151  1.00  0.00    -0.003 A 
ATOM      3  C   UNL     1       9.923   8.429  -5.190  1.00  0.00     0.119 A 
ATOM      4  C   UNL     1      10.014   7.669  -6.362  1.00  0.00     0.046 A 
ATOM      5  C   UNL     1       9.252   6.516  -6.515  1.00  0.00     0.004 A 
ATOM      6  C   UNL     1       8.394   6.105  -5.497  1.00  0.00     0.004 A 
ENDROOT
BRANCH   1   7
ATOM      7  C   UNL     1       7.372   6.305  -3.225  1.00  0.00     0.036 C 
BRANCH   7   8
ATOM      8  C   UNL     1       6.889   4.891  -3.587  1.00  0.00     0.004 C 
BRANCH   8   9
ATOM      9  C   UNL     1       6.405   4.102  -2.362  1.00  0.00    -0.003 C 
ATOM     10  C   UNL     1       6.539   4.892  -1.061  1.00  0.00     0.004 C 
ENDBRANCH   8   9
ENDBRANCH   7   8
ENDBRANCH   1   7
BRANCH   2  11
ATOM     11  C   UNL     1       8.940   8.900  -2.904  1.00  0.00     0.040 C 
BRANCH  11  12
ATOM     12  C   UNL     1       7.796   9.928  -2.996  1.00  0.00     0.005 C 
BRANCH  12  13
ATOM     13  C   UNL     1       6.600   9.629  -2.076  1.00  0.00    -0.003 C 
ATOM     14  C   UNL     1       7.017   8.999  -0.747  1.00  0.00     0.004 C 
ENDBRANCH  12  13
ENDBRANCH  11  12
ENDBRANCH   2  11
BRANCH   3  15
ATOM     15  O   UNL     1      10.709   9.575  -5.055  1.00  0.00    -0.508 OA
ATOM     16  H   UNL     1      10.302  10.478  -4.842  1.00  0.00     0.293 HD
ENDBRANCH   3  15
TORSDOF 7
ENDMDL
MODEL 8
REMARK VINA RESULT:    -4.395      1.894      5.121
REMARK INTER + INTRA:          -6.763
REMARK INTER:                  -5.857
REMARK INTRA:                  -0.905
REMARK UNBOUND:                -0.698
REMARK SMILES CCCCc1cccc(O)c1CCCC
REMARK SMILES IDX 5 1 11 2 9 3 8 4 7 5 6 6 4 7 3 8 2 9 1 10 12 11 13 12 14 13
REMARK SMILES IDX 15 14 10 15
REMARK H PARENT 10 16
REMARK Flexibility Score: inf
ROOT
ATOM      1  C   UNL     1       7.246   8.228  -1.674  1.00  0.00    -0.041 A 
ATOM      2  C   UNL     1       6.897   6.886  -2.006  1.00  0.00    -0.003 A 
ATOM      3  C   UNL     1       7.300   6.363  -3.257  1.00  0.00     0.119 A 
ATOM      4  C   UNL     1       8.038   7.151  -4.148  1.00  0.00     0.046 A 
ATOM      5  C   UNL     1       8.376   8.459  -3.818  1.00  0.00     0.004 A 
ATOM      6  C   UNL     1       7.977   8.997  -2.596  1.00  0.00     0.004 A 
ENDROOT
BRANCH   1   7
ATOM      7  C   UNL     1       6.788   8.904  -0.400  1.00  0.00     0.036 C 
BRANCH   7   8
ATOM      8  C   UNL     1       5.912  10.125  -0.723  1.00  0.00     0.004 C 
BRANCH   8   9
ATOM      9  C   UNL     1       4.440   9.751  -0.950  1.00  0.00    -0.003 C 
ATOM     10  C   UNL     1       4.023   9.862  -2.417  1.00  0.00     0.004 C 
ENDBRANCH   8   9
ENDBRANCH   7   8
ENDBRANCH   1   7
BRANCH   2  11
ATOM     11  C   UNL     1       6.129   5.997  -1.041  1.00  0.00     0.040 C 
BRANCH  11  12
ATOM     12  C   UNL     1       7.058   5.125  -0.175  1.00  0.00     0.005 C 
BRANCH  12  13
ATOM     13  C   UNL     1       6.618   3.656  -0.054  1.00  0.00    -0.003 C 
ATOM     14  C   UNL     1       6.235   3.268   1.374  1.00  0.00     0.004 C 
ENDBRANCH  12  13
ENDBRANCH  11  12
ENDBRANCH   2  11
BRANCH   3  15
ATOM     15  O   UNL     1       6.961   5.058  -3.618  1.00  0.00    -0.508 OA
ATOM     16  H   UNL     1       7.656   4.399  -3.949  1.00  0.00     0.293 HD
ENDBRANCH   3  15
TORSDOF 7
ENDMDL
MODEL 9
REMARK VINA RESULT:    -4.193      1.815      4.710
REMARK INTER + INTRA:          -6.484
REMARK INTER:                  -5.584
REMARK INTRA:                  -0.901
REMARK UNBOUND:                -0.698
REMARK SMILES CCCCc1cccc(O)c1CCCC
REMARK SMILES IDX 5 1 11 2 9 3 8 4 7 5 6 6 4 7 3 8 2 9 1 10 12 11 13 12 14 13
REMARK SMILES IDX 15 14 10 15
REMARK H PARENT 10 16
REMARK Flexibility Score: inf
ROOT
ATOM      1  C   UNL     1       8.574   8.545  -4.130  1.00  0.00    -0.041 A 
ATOM      2  C   UNL     1       8.453   7.264  -4.742  1.00  0.00    -0.003 A 
ATOM      3  C   UNL     1       9.419   6.867  -5.696  1.00  0.00     0.119 A 
ATOM      4  C   UNL     1      10.481   7.718  -6.023  1.00  0.00     0.046 A 
ATOM      5  C   UNL     1      10.594   8.967  -5.421  1.00  0.00     0.004 A 
ATOM      6  C   UNL     1       9.646   9.381  -4.489  1.00  0.00     0.004 A 
ENDROOT
BRANCH   1   7
ATOM      7  C   UNL     1       7.546   9.094  -3.164  1.00  0.00     0.036 C 
BRANCH   7   8
ATOM      8  C   UNL     1       8.187   9.372  -1.796  1.00  0.00     0.004 C 
BRANCH   8   9
ATOM      9  C   UNL     1       7.274   8.976  -0.626  1.00  0.00    -0.003 C 
ATOM     10  C   UNL     1       6.029   8.215  -1.081  1.00  0.00     0.004 C 
ENDBRANCH   8   9
ENDBRANCH   7   8
ENDBRANCH   1   7
BRANCH   2  11
ATOM     11  C   UNL     1       7.331   6.305  -4.378  1.00  0.00     0.040 C 
BRANCH  11  12
ATOM     12  C   UNL     1       7.550   5.635  -3.008  1.00  0.00     0.005 C 
BRANCH  12  13
ATOM     13  C   UNL     1       6.540   4.522  -2.679  1.00  0.00    -0.003 C 
ATOM     14  C   UNL     1       6.472   4.206  -1.184  1.00  0.00     0.004 C 
ENDBRANCH  12  13
ENDBRANCH  11  12
ENDBRANCH   2  11
BRANCH   3  15
ATOM     15  O   UNL     1       9.320   5.625  -6.325  1.00  0.00    -0.508 OA
ATOM     16  H   UNL     1      10.103   4.982  -6.362  1.00  0.00     0.293 HD
ENDBRANCH   3  15
TORSDOF 7
ENDMDL
