MODEL 1
REMARK VINA RESULT:    -4.542      0.000      0.000
REMARK INTER + INTRA:          -4.675
REMARK INTER:                  -4.675
REMARK INTRA:                   0.000
REMARK UNBOUND:                 0.000
REMARK SMILES Cc1cccc(O)c1C
REMARK SMILES IDX 1 1 2 2 8 3 6 4 5 5 4 6 3 7 9 8 7 9
REMARK H PARENT 7 10
REMARK Flexibility Score: inf
ROOT
ATOM      1  C   UNL     1       7.874   7.055  18.230  1.00  0.00     0.045 C 
ATOM      2  C   UNL     1       8.158   5.576  18.259  1.00  0.00    -0.045 A 
ATOM      3  C   UNL     1       7.177   4.626  18.661  1.00  0.00    -0.006 A 
ATOM      4  C   UNL     1       7.514   3.248  18.663  1.00  0.00     0.118 A 
ATOM      5  C   UNL     1       8.793   2.839  18.276  1.00  0.00     0.046 A 
ATOM      6  C   UNL     1       9.747   3.773  17.884  1.00  0.00     0.004 A 
ATOM      7  C   UNL     1       9.434   5.130  17.875  1.00  0.00     0.004 A 
ATOM      8  C   UNL     1       5.788   5.047  19.084  1.00  0.00     0.048 C 
ENDROOT
BRANCH   4   9
ATOM      9  O   UNL     1       6.603   2.260  19.045  1.00  0.00    -0.508 OA
ATOM     10  H   UNL     1       5.644   2.455  19.306  1.00  0.00     0.293 HD
ENDBRANCH   4   9
TORSDOF 1
ENDMDL
MODEL 2
REMARK VINA RESULT:    -4.133      1.733      2.799
REMARK INTER + INTRA:          -4.254
REMARK INTER:                  -4.254
REMARK INTRA:                   0.000
REMARK UNBOUND:                 0.000
REMARK SMILES Cc1cccc(O)c1C
REMARK SMILES IDX 1 1 2 2 8 3 6 4 5 5 4 6 3 7 9 8 7 9
REMARK H PARENT 7 10
REMARK Flexibility Score: inf
ROOT
ATOM      1  C   UNL     1       6.377   5.542  18.651  1.00  0.00     0.045 C 
ATOM      2  C   UNL     1       7.141   4.252  18.504  1.00  0.00    -0.045 A 
ATOM      3  C   UNL     1       8.541   4.228  18.251  1.00  0.00    -0.006 A 
ATOM      4  C   UNL     1       9.196   2.976  18.125  1.00  0.00     0.118 A 
ATOM      5  C   UNL     1       8.469   1.789  18.250  1.00  0.00     0.046 A 
ATOM      6  C   UNL     1       7.100   1.820  18.498  1.00  0.00     0.004 A 
ATOM      7  C   UNL     1       6.440   3.040  18.624  1.00  0.00     0.004 A 
ATOM      8  C   UNL     1       9.348   5.500  18.113  1.00  0.00     0.048 C 
ENDROOT
BRANCH   4   9
ATOM      9  O   UNL     1      10.568   2.876  17.876  1.00  0.00    -0.508 OA
ATOM     10  H   UNL     1      11.118   2.059  18.107  1.00  0.00     0.293 HD
ENDBRANCH   4   9
TORSDOF 1
ENDMDL
MODEL 3
REMARK VINA RESULT:    -4.124      1.744      2.881
REMARK INTER + INTRA:          -4.244
REMARK INTER:                  -4.244
REMARK INTRA:                   0.000
REMARK UNBOUND:                 0.000
REMARK SMILES Cc1cccc(O)c1C
REMARK SMILES IDX 1 1 2 2 8 3 6 4 5 5 4 6 3 7 9 8 7 9
REMARK H PARENT 7 10
REMARK Flexibility Score: inf
ROOT
ATOM      1  C   UNL     1       6.380   2.120  18.989  1.00  0.00     0.045 C 
ATOM      2  C   UNL     1       7.489   3.066  18.607  1.00  0.00    -0.045 A 
ATOM      3  C   UNL     1       7.314   4.478  18.612  1.00  0.00    -0.006 A 
ATOM      4  C   UNL     1       8.403   5.308  18.241  1.00  0.00     0.118 A 
ATOM      5  C   UNL     1       9.626   4.738  17.877  1.00  0.00     0.046 A 
ATOM      6  C   UNL     1       9.790   3.356  17.875  1.00  0.00     0.004 A 
ATOM      7  C   UNL     1       8.733   2.526  18.236  1.00  0.00     0.004 A 
ATOM      8  C   UNL     1       5.999   5.116  19.002  1.00  0.00     0.048 C 
ENDROOT
BRANCH   4   9
ATOM      9  O   UNL     1       8.303   6.702  18.223  1.00  0.00    -0.508 OA
ATOM     10  H   UNL     1       7.460   7.198  17.964  1.00  0.00     0.293 HD
ENDBRANCH   4   9
TORSDOF 1
ENDMDL
MODEL 4
REMARK VINA RESULT:    -3.841      1.810      3.619
REMARK INTER + INTRA:          -3.953
REMARK INTER:                  -3.953
REMARK INTRA:                   0.000
REMARK UNBOUND:                 0.000
REMARK SMILES Cc1cccc(O)c1C
REMARK SMILES IDX 1 1 2 2 8 3 6 4 5 5 4 6 3 7 9 8 7 9
REMARK H PARENT 7 10
REMARK Flexibility Score: inf
ROOT
ATOM      1  C   UNL     1       6.369   2.058  18.819  1.00  0.00     0.045 C 
ATOM      2  C   UNL     1       7.104   3.357  18.612  1.00  0.00    -0.045 A 
ATOM      3  C   UNL     1       8.499   3.399  18.335  1.00  0.00    -0.006 A 
ATOM      4  C   UNL     1       9.126   4.658  18.150  1.00  0.00     0.118 A 
ATOM      5  C   UNL     1       8.376   5.834  18.242  1.00  0.00     0.046 A 
ATOM      6  C   UNL     1       7.012   5.785  18.513  1.00  0.00     0.004 A 
ATOM      7  C   UNL     1       6.380   4.558  18.697  1.00  0.00     0.004 A 
ATOM      8  C   UNL     1       9.330   2.140  18.231  1.00  0.00     0.048 C 
ENDROOT
BRANCH   4   9
ATOM      9  O   UNL     1      10.491   4.777  17.875  1.00  0.00    -0.508 OA
ATOM     10  H   UNL     1      11.186   4.982  18.581  1.00  0.00     0.293 HD
ENDBRANCH   4   9
TORSDOF 1
ENDMDL
MODEL 5
REMARK VINA RESULT:    -3.692      1.527      3.115
REMARK INTER + INTRA:          -3.800
REMARK INTER:                  -3.800
REMARK INTRA:                   0.000
REMARK UNBOUND:                 0.000
REMARK SMILES Cc1cccc(O)c1C
REMARK SMILES IDX 1 1 2 2 8 3 6 4 5 5 4 6 3 7 9 8 7 9
REMARK H PARENT 7 10
REMARK Flexibility Score: inf
ROOT
ATOM      1  C   UNL     1      10.622   2.972  17.875  1.00  0.00     0.045 C 
ATOM      2  C   UNL     1       9.148   3.056  18.177  1.00  0.00    -0.045 A 
ATOM      3  C   UNL     1       8.488   4.301  18.377  1.00  0.00    -0.006 A 
ATOM      4  C   UNL     1       7.097   4.305  18.656  1.00  0.00     0.118 A 
ATOM      5  C   UNL     1       6.394   3.099  18.733  1.00  0.00     0.046 A 
ATOM      6  C   UNL     1       7.047   1.886  18.536  1.00  0.00     0.004 A 
ATOM      7  C   UNL     1       8.411   1.862  18.260  1.00  0.00     0.004 A 
ATOM      8  C   UNL     1       9.228   5.617  18.299  1.00  0.00     0.048 C 
ENDROOT
BRANCH   4   9
ATOM      9  O   UNL     1       6.383   5.488  18.864  1.00  0.00    -0.508 OA
ATOM     10  H   UNL     1       5.531   5.720  18.370  1.00  0.00     0.293 HD
ENDBRANCH   4   9
TORSDOF 1
ENDMDL
MODEL 6
REMARK VINA RESULT:    -2.783      1.370      2.792
REMARK INTER + INTRA:          -2.864
REMARK INTER:                  -2.864
REMARK INTRA:                   0.000
REMARK UNBOUND:                 0.000
REMARK SMILES Cc1cccc(O)c1C
REMARK SMILES IDX 1 1 2 2 8 3 6 4 5 5 4 6 3 7 9 8 7 9
REMARK H PARENT 7 10
REMARK Flexibility Score: inf
ROOT
ATOM      1  C   UNL     1       9.426   2.807  18.084  1.00  0.00     0.045 C 
ATOM      2  C   UNL     1       8.561   4.031  18.243  1.00  0.00    -0.045 A 
ATOM      3  C   UNL     1       7.232   3.957  18.747  1.00  0.00    -0.006 A 
ATOM      4  C   UNL     1       6.477   5.151  18.870  1.00  0.00     0.118 A 
ATOM      5  C   UNL     1       7.036   6.377  18.499  1.00  0.00     0.046 A 
ATOM      6  C   UNL     1       8.336   6.441  18.008  1.00  0.00     0.004 A 
ATOM      7  C   UNL     1       9.094   5.280  17.880  1.00  0.00     0.004 A 
ATOM      8  C   UNL     1       6.607   2.642  19.154  1.00  0.00     0.048 C 
ENDROOT
BRANCH   4   9
ATOM      9  O   UNL     1       5.166   5.155  19.357  1.00  0.00    -0.508 OA
ATOM     10  H   UNL     1       4.874   4.639  20.176  1.00  0.00     0.293 HD
ENDBRANCH   4   9
TORSDOF 1
ENDMDL
MODEL 7
REMARK VINA RESULT:    -2.425      1.067      2.056
REMARK INTER + INTRA:          -2.496
REMARK INTER:                  -2.496
REMARK INTRA:                   0.000
REMARK UNBOUND:                 0.000
REMARK SMILES Cc1cccc(O)c1C
REMARK SMILES IDX 1 1 2 2 8 3 6 4 5 5 4 6 3 7 9 8 7 9
REMARK H PARENT 7 10
REMARK Flexibility Score: inf
ROOT
ATOM      1  C   UNL     1       5.467   5.168  19.008  1.00  0.00     0.045 C 
ATOM      2  C   UNL     1       6.850   4.711  18.619  1.00  0.00    -0.045 A 
ATOM      3  C   UNL     1       7.217   3.336  18.613  1.00  0.00    -0.006 A 
ATOM      4  C   UNL     1       8.537   2.979  18.234  1.00  0.00     0.118 A 
ATOM      5  C   UNL     1       9.455   3.969  17.875  1.00  0.00     0.046 A 
ATOM      6  C   UNL     1       9.089   5.311  17.884  1.00  0.00     0.004 A 
ATOM      7  C   UNL     1       7.798   5.681  18.252  1.00  0.00     0.004 A 
ATOM      8  C   UNL     1       6.240   2.249  18.997  1.00  0.00     0.048 C 
ENDROOT
BRANCH   4   9
ATOM      9  O   UNL     1       8.968   1.650  18.205  1.00  0.00    -0.508 OA
ATOM     10  H   UNL     1       9.410   1.224  17.400  1.00  0.00     0.293 HD
ENDBRANCH   4   9
TORSDOF 1
ENDMDL
