MODEL 1
REMARK VINA RESULT:    14.208      0.000      0.000
REMARK INTER + INTRA:          18.265
REMARK INTER:                  17.531
REMARK INTRA:                   0.735
REMARK UNBOUND:                 0.735
REMARK SMILES CC1=CC=CC(C)(C)CC1=O
REMARK SMILES IDX 1 1 2 2 3 3 10 4 11 5 9 6 4 8 5 9 6 10 7 11 8 12
REMARK H PARENT
REMARK Flexibility Score: 80.00
ROOT
ATOM      1  C   UNL     1       2.780  78.080  19.322  1.00  0.00     0.048 C 
ATOM      2  C   UNL     1       2.729  76.584  19.118  1.00  0.00    -0.008 C 
ATOM      3  C   UNL     1       1.524  75.980  19.207  1.00  0.00     0.007 C 
ENDROOT
BRANCH   2   4
ATOM      4  C   UNL     1       4.002  75.908  18.760  1.00  0.00     0.159 C 
ATOM      5  O   UNL     1       4.996  76.613  18.437  1.00  0.00    -0.295 OA
BRANCH   4   6
ATOM      6  C   UNL     1       4.179  74.420  18.772  1.00  0.00     0.091 CG0
ATOM      7  G   UNL     1       3.215  73.684  17.814  1.00  0.00     0.000 G0
ENDBRANCH   4   6
ENDBRANCH   2   4
BRANCH   3   8
ATOM      8  C   UNL     1       1.159  74.555  19.031  1.00  0.00    -0.003 C 
ATOM      9  C   UNL     1       1.851  73.573  18.439  1.00  0.00    -0.020 C 
BRANCH   9  10
ATOM     10  C   UNL     1       3.222  73.690  17.816  1.00  0.00    -0.010 CG0
ATOM     11  C   UNL     1       3.788  72.265  17.618  1.00  0.00     0.016 C 
ATOM     12  C   UNL     1       3.116  74.358  16.427  1.00  0.00     0.016 C 
ATOM     13  G   UNL     1       4.165  74.453  18.773  1.00  0.00     0.000 G0
ENDBRANCH   9  10
ENDBRANCH   3   8
TORSDOF 0
ENDMDL
MODEL 2
REMARK VINA RESULT:    15.142      1.418      3.460
REMARK INTER + INTRA:          19.418
REMARK INTER:                  18.691
REMARK INTRA:                   0.727
REMARK UNBOUND:                 0.735
REMARK SMILES CC1=CC=CC(C)(C)CC1=O
REMARK SMILES IDX 1 1 2 2 3 3 10 4 11 5 9 6 4 8 5 9 6 10 7 11 8 12
REMARK H PARENT
REMARK Flexibility Score: 80.00
ROOT
ATOM      1  C   UNL     1       4.619  72.094  18.303  1.00  0.00     0.048 C 
ATOM      2  C   UNL     1       3.765  73.340  18.349  1.00  0.00    -0.008 C 
ATOM      3  C   UNL     1       2.542  73.282  17.780  1.00  0.00     0.007 C 
ENDROOT
BRANCH   2   4
ATOM      4  C   UNL     1       4.312  74.507  19.086  1.00  0.00     0.159 C 
ATOM      5  O   UNL     1       5.344  74.350  19.796  1.00  0.00    -0.295 OA
BRANCH   4   6
ATOM      6  C   UNL     1       3.712  75.878  19.026  1.00  0.00     0.091 CG0
ATOM      7  G   UNL     1       2.246  75.923  19.513  1.00  0.00     0.000 G0
ENDBRANCH   4   6
ENDBRANCH   2   4
BRANCH   3   8
ATOM      8  C   UNL     1       1.484  74.315  17.692  1.00  0.00    -0.003 C 
ATOM      9  C   UNL     1       1.333  75.433  18.414  1.00  0.00    -0.020 C 
BRANCH   9  10
ATOM     10  C   UNL     1       2.253  75.928  19.505  1.00  0.00    -0.010 CG0
ATOM     11  C   UNL     1       1.929  77.416  19.775  1.00  0.00     0.016 C 
ATOM     12  C   UNL     1       1.999  75.140  20.809  1.00  0.00     0.016 C 
ATOM     13  G   UNL     1       3.721  75.836  19.029  1.00  0.00     0.000 G0
ENDBRANCH   9  10
ENDBRANCH   3   8
TORSDOF 0
ENDMDL
MODEL 3
REMARK VINA RESULT:    16.417      1.663      3.231
REMARK INTER + INTRA:          20.991
REMARK INTER:                  20.245
REMARK INTRA:                   0.746
REMARK UNBOUND:                 0.735
REMARK SMILES CC1=CC=CC(C)(C)CC1=O
REMARK SMILES IDX 1 1 2 2 3 3 10 4 11 5 9 6 4 8 5 9 6 10 7 11 8 12
REMARK H PARENT
REMARK Flexibility Score: 80.00
ROOT
ATOM      1  C   UNL     1       0.336  72.827  18.340  1.00  0.00     0.048 C 
ATOM      2  C   UNL     1       1.343  73.950  18.432  1.00  0.00    -0.008 C 
ATOM      3  C   UNL     1       1.075  74.962  19.285  1.00  0.00     0.007 C 
ENDROOT
BRANCH   2   4
ATOM      4  C   UNL     1       2.584  73.810  17.629  1.00  0.00     0.159 C 
ATOM      5  O   UNL     1       2.828  72.705  17.072  1.00  0.00    -0.295 OA
BRANCH   4   6
ATOM      6  C   UNL     1       3.568  74.922  17.430  1.00  0.00     0.091 CG0
ATOM      7  G   UNL     1       4.172  75.445  18.753  1.00  0.00     0.000 G0
ENDBRANCH   4   6
ENDBRANCH   2   4
BRANCH   3   8
ATOM      8  C   UNL     1       1.872  76.169  19.607  1.00  0.00    -0.003 C 
ATOM      9  C   UNL     1       3.175  76.400  19.402  1.00  0.00    -0.020 C 
BRANCH   9  10
ATOM     10  C   UNL     1       4.162  75.462  18.748  1.00  0.00    -0.010 CG0
ATOM     11  C   UNL     1       5.432  76.266  18.390  1.00  0.00     0.016 C 
ATOM     12  C   UNL     1       4.567  74.347  19.739  1.00  0.00     0.016 C 
ATOM     13  G   UNL     1       3.560  74.905  17.438  1.00  0.00     0.000 G0
ENDBRANCH   9  10
ENDBRANCH   3   8
TORSDOF 0
ENDMDL
MODEL 4
REMARK VINA RESULT:    16.716      1.673      2.577
REMARK INTER + INTRA:          21.360
REMARK INTER:                  20.359
REMARK INTRA:                   1.001
REMARK UNBOUND:                 0.735
REMARK SMILES CC1=CC=CC(C)(C)CC1=O
REMARK SMILES IDX 1 1 2 2 3 3 10 4 11 5 9 6 4 8 5 9 6 10 7 11 8 12
REMARK H PARENT
REMARK Flexibility Score: 80.00
ROOT
ATOM      1  C   UNL     1       2.694  77.556  19.556  1.00  0.00     0.048 C 
ATOM      2  C   UNL     1       2.719  76.121  19.086  1.00  0.00    -0.008 C 
ATOM      3  C   UNL     1       3.922  75.517  18.981  1.00  0.00     0.007 C 
ENDROOT
BRANCH   2   4
ATOM      4  C   UNL     1       1.408  75.466  18.848  1.00  0.00     0.159 C 
ATOM      5  O   UNL     1       0.374  76.184  18.764  1.00  0.00    -0.295 OA
BRANCH   4   6
ATOM      6  C   UNL     1       1.241  73.985  18.688  1.00  0.00     0.091 CG0
ATOM      7  G   UNL     1       2.085  73.398  17.535  1.00  0.00     0.000 G0
ENDBRANCH   4   6
ENDBRANCH   2   4
BRANCH   3   8
ATOM      8  C   UNL     1       4.259  74.132  18.579  1.00  0.00    -0.003 C 
ATOM      9  C   UNL     1       3.488  73.214  17.983  1.00  0.00    -0.020 C 
BRANCH   9  10
ATOM     10  C   UNL     1       2.054  73.395  17.542  1.00  0.00    -0.010 CG0
ATOM     11  C   UNL     1       2.034  74.379  16.349  1.00  0.00     0.016 C 
ATOM     12  C   UNL     1       1.476  72.047  17.058  1.00  0.00     0.016 C 
ATOM     13  G   UNL     1       1.231  74.018  18.692  1.00  0.00     0.000 G0
ENDBRANCH   9  10
ENDBRANCH   3   8
TORSDOF 0
ENDMDL
MODEL 5
REMARK VINA RESULT:    16.764      1.728      2.918
REMARK INTER + INTRA:          21.419
REMARK INTER:                  20.652
REMARK INTRA:                   0.767
REMARK UNBOUND:                 0.735
REMARK SMILES CC1=CC=CC(C)(C)CC1=O
REMARK SMILES IDX 1 1 2 2 3 3 10 4 11 5 9 6 4 8 5 9 6 10 7 11 8 12
REMARK H PARENT
REMARK Flexibility Score: 80.00
ROOT
ATOM      1  C   UNL     1      -0.190  75.165  17.657  1.00  0.00     0.048 C 
ATOM      2  C   UNL     1       1.191  74.717  18.077  1.00  0.00    -0.008 C 
ATOM      3  C   UNL     1       1.861  73.890  17.245  1.00  0.00     0.007 C 
ENDROOT
BRANCH   2   4
ATOM      4  C   UNL     1       1.730  75.285  19.339  1.00  0.00     0.159 C 
ATOM      5  O   UNL     1       1.110  76.234  19.893  1.00  0.00    -0.295 OA
BRANCH   4   6
ATOM      6  C   UNL     1       2.973  74.782  20.006  1.00  0.00     0.091 CG0
ATOM      7  G   UNL     1       4.226  74.870  19.105  1.00  0.00     0.000 G0
ENDBRANCH   4   6
ENDBRANCH   2   4
BRANCH   3   8
ATOM      8  C   UNL     1       3.219  73.313  17.370  1.00  0.00    -0.003 C 
ATOM      9  C   UNL     1       4.237  73.708  18.146  1.00  0.00    -0.020 C 
BRANCH   9  10
ATOM     10  C   UNL     1       4.225  74.857  19.127  1.00  0.00    -0.010 CG0
ATOM     11  C   UNL     1       5.467  74.730  20.039  1.00  0.00     0.016 C 
ATOM     12  C   UNL     1       4.326  76.199  18.369  1.00  0.00     0.016 C 
ATOM     13  G   UNL     1       2.964  74.769  20.017  1.00  0.00     0.000 G0
ENDBRANCH   9  10
ENDBRANCH   3   8
TORSDOF 0
ENDMDL
