MODEL 1
REMARK VINA RESULT:    -5.997      0.000      0.000
REMARK INTER + INTRA:          -7.184
REMARK INTER:                  -6.873
REMARK INTRA:                  -0.311
REMARK UNBOUND:                -0.311
REMARK SMILES O=C1C[C@H](c2ccc(O)cc2)Oc2cc(O)cc(O)c21
REMARK SMILES IDX 3 1 4 2 12 3 13 4 14 5 15 6 17 7 18 8 20 9 2 10 1 11 5 12
REMARK SMILES IDX 6 13 11 14 7 15 10 16 8 17 9 18 19 20 16 22
REMARK H PARENT 9 19 19 21 16 23
REMARK Flexibility Score: inf
ROOT
ATOM      1  C   UNL     1      -1.204  -0.368  -4.750  1.00  0.00     0.131 C 
ATOM      2  C   UNL     1       0.060  -0.164  -3.902  1.00  0.00     0.211 C 
ATOM      3  O   UNL     1       0.964  -1.260  -4.078  1.00  0.00    -0.484 OA
ATOM      4  C   UNL     1       0.531  -2.588  -4.183  1.00  0.00     0.138 A 
ATOM      5  C   UNL     1       1.469  -3.617  -4.072  1.00  0.00     0.093 A 
ATOM      6  C   UNL     1       1.065  -4.953  -4.158  1.00  0.00     0.123 A 
ATOM      7  C   UNL     1      -0.279  -5.257  -4.386  1.00  0.00     0.093 A 
ATOM      8  C   UNL     1      -1.229  -4.241  -4.540  1.00  0.00     0.133 A 
ATOM      9  C   UNL     1      -0.832  -2.885  -4.406  1.00  0.00     0.102 A 
ATOM     10  C   UNL     1      -1.764  -1.732  -4.479  1.00  0.00     0.174 C 
ATOM     11  O   UNL     1      -2.998  -1.863  -4.266  1.00  0.00    -0.294 OA
ENDROOT
BRANCH   2  12
ATOM     12  C   UNL     1       0.742   1.132  -4.263  1.00  0.00    -0.007 A 
ATOM     13  C   UNL     1       2.123   1.287  -4.049  1.00  0.00     0.011 A 
ATOM     14  C   UNL     1       0.001   2.216  -4.764  1.00  0.00     0.011 A 
ATOM     15  C   UNL     1       2.753   2.497  -4.355  1.00  0.00     0.046 A 
ATOM     16  C   UNL     1       0.634   3.425  -5.067  1.00  0.00     0.046 A 
ATOM     17  C   UNL     1       2.013   3.569  -4.866  1.00  0.00     0.115 A 
BRANCH  17  18
ATOM     18  O   UNL     1       2.655   4.768  -5.166  1.00  0.00    -0.508 OA
ATOM     19  H   UNL     1       2.181   5.511  -5.666  1.00  0.00     0.293 HD
ENDBRANCH  17  18
ENDBRANCH   2  12
BRANCH   8  20
ATOM     20  O   UNL     1      -2.534  -4.625  -4.858  1.00  0.00    -0.507 OA
ATOM     21  H   UNL     1      -2.898  -4.663  -5.798  1.00  0.00     0.293 HD
ENDBRANCH   8  20
BRANCH   6  22
ATOM     22  O   UNL     1       1.991  -5.984  -4.027  1.00  0.00    -0.508 OA
ATOM     23  H   UNL     1       2.851  -5.996  -4.564  1.00  0.00     0.293 HD
ENDBRANCH   6  22
TORSDOF 4
ENDMDL
MODEL 2
REMARK VINA RESULT:    -5.885      1.191      1.663
REMARK INTER + INTRA:          -7.056
REMARK INTER:                  -6.744
REMARK INTRA:                  -0.312
REMARK UNBOUND:                -0.311
REMARK SMILES O=C1C[C@H](c2ccc(O)cc2)Oc2cc(O)cc(O)c21
REMARK SMILES IDX 3 1 4 2 12 3 13 4 14 5 15 6 17 7 18 8 20 9 2 10 1 11 5 12
REMARK SMILES IDX 6 13 11 14 7 15 10 16 8 17 9 18 19 20 16 22
REMARK H PARENT 9 19 19 21 16 23
REMARK Flexibility Score: inf
ROOT
ATOM      1  C   UNL     1      -1.090   1.365  -5.057  1.00  0.00     0.131 C 
ATOM      2  C   UNL     1       0.122   1.442  -4.117  1.00  0.00     0.211 C 
ATOM      3  O   UNL     1       0.883   0.232  -4.179  1.00  0.00    -0.484 OA
ATOM      4  C   UNL     1       0.286  -1.032  -4.271  1.00  0.00     0.138 A 
ATOM      5  C   UNL     1       1.068  -2.169  -4.048  1.00  0.00     0.093 A 
ATOM      6  C   UNL     1       0.498  -3.443  -4.118  1.00  0.00     0.123 A 
ATOM      7  C   UNL     1      -0.853  -3.580  -4.443  1.00  0.00     0.093 A 
ATOM      8  C   UNL     1      -1.646  -2.458  -4.710  1.00  0.00     0.133 A 
ATOM      9  C   UNL     1      -1.082  -1.160  -4.593  1.00  0.00     0.102 A 
ATOM     10  C   UNL     1      -1.845   0.099  -4.783  1.00  0.00     0.174 C 
ATOM     11  O   UNL     1      -3.098   0.140  -4.666  1.00  0.00    -0.294 OA
ENDROOT
BRANCH   2  12
ATOM     12  C   UNL     1       0.997   2.621  -4.468  1.00  0.00    -0.007 A 
ATOM     13  C   UNL     1       2.360   2.429  -4.751  1.00  0.00     0.011 A 
ATOM     14  C   UNL     1       0.475   3.926  -4.462  1.00  0.00     0.011 A 
ATOM     15  C   UNL     1       3.180   3.522  -5.048  1.00  0.00     0.046 A 
ATOM     16  C   UNL     1       1.297   5.017  -4.758  1.00  0.00     0.046 A 
ATOM     17  C   UNL     1       2.652   4.818  -5.054  1.00  0.00     0.115 A 
BRANCH  17  18
ATOM     18  O   UNL     1       3.481   5.897  -5.351  1.00  0.00    -0.508 OA
ATOM     19  H   UNL     1       3.587   6.675  -4.710  1.00  0.00     0.293 HD
ENDBRANCH  17  18
ENDBRANCH   2  12
BRANCH   8  20
ATOM     20  O   UNL     1      -2.962  -2.684  -5.118  1.00  0.00    -0.507 OA
ATOM     21  H   UNL     1      -3.374  -2.280  -5.946  1.00  0.00     0.293 HD
ENDBRANCH   8  20
BRANCH   6  22
ATOM     22  O   UNL     1       1.266  -4.579  -3.876  1.00  0.00    -0.508 OA
ATOM     23  H   UNL     1       1.994  -4.873  -4.516  1.00  0.00     0.293 HD
ENDBRANCH   6  22
TORSDOF 4
ENDMDL
MODEL 3
REMARK VINA RESULT:    -5.783      2.119      6.987
REMARK INTER + INTRA:          -6.939
REMARK INTER:                  -6.656
REMARK INTRA:                  -0.283
REMARK UNBOUND:                -0.311
REMARK SMILES O=C1C[C@H](c2ccc(O)cc2)Oc2cc(O)cc(O)c21
REMARK SMILES IDX 3 1 4 2 12 3 13 4 14 5 15 6 17 7 18 8 20 9 2 10 1 11 5 12
REMARK SMILES IDX 6 13 11 14 7 15 10 16 8 17 9 18 19 20 16 22
REMARK H PARENT 9 19 19 21 16 23
REMARK Flexibility Score: inf
ROOT
ATOM      1  C   UNL     1       1.956  -2.221  -3.970  1.00  0.00     0.131 C 
ATOM      2  C   UNL     1       0.789  -3.132  -3.558  1.00  0.00     0.211 C 
ATOM      3  O   UNL     1      -0.414  -2.737  -4.223  1.00  0.00    -0.484 OA
ATOM      4  C   UNL     1      -0.758  -1.395  -4.431  1.00  0.00     0.138 A 
ATOM      5  C   UNL     1      -2.060  -1.083  -4.830  1.00  0.00     0.093 A 
ATOM      6  C   UNL     1      -2.437   0.248  -5.030  1.00  0.00     0.123 A 
ATOM      7  C   UNL     1      -1.498   1.267  -4.861  1.00  0.00     0.093 A 
ATOM      8  C   UNL     1      -0.177   0.975  -4.501  1.00  0.00     0.133 A 
ATOM      9  C   UNL     1       0.197  -0.372  -4.249  1.00  0.00     0.102 A 
ATOM     10  C   UNL     1       1.547  -0.789  -3.795  1.00  0.00     0.174 C 
ATOM     11  O   UNL     1       2.331   0.011  -3.220  1.00  0.00    -0.294 OA
ENDROOT
BRANCH   2  12
ATOM     12  C   UNL     1       1.103  -4.575  -3.870  1.00  0.00    -0.007 A 
ATOM     13  C   UNL     1       0.355  -5.605  -3.273  1.00  0.00     0.011 A 
ATOM     14  C   UNL     1       2.177  -4.908  -4.712  1.00  0.00     0.011 A 
ATOM     15  C   UNL     1       0.662  -6.943  -3.536  1.00  0.00     0.046 A 
ATOM     16  C   UNL     1       2.482  -6.247  -4.973  1.00  0.00     0.046 A 
ATOM     17  C   UNL     1       1.724  -7.269  -4.387  1.00  0.00     0.115 A 
BRANCH  17  18
ATOM     18  O   UNL     1       2.018  -8.607  -4.639  1.00  0.00    -0.508 OA
ATOM     19  H   UNL     1       2.973  -8.943  -4.665  1.00  0.00     0.293 HD
ENDBRANCH  17  18
ENDBRANCH   2  12
BRANCH   8  20
ATOM     20  O   UNL     1       0.723   2.041  -4.442  1.00  0.00    -0.507 OA
ATOM     21  H   UNL     1       0.681   2.778  -3.755  1.00  0.00     0.293 HD
ENDBRANCH   8  20
BRANCH   6  22
ATOM     22  O   UNL     1      -3.739   0.568  -5.407  1.00  0.00    -0.508 OA
ATOM     23  H   UNL     1      -4.166   0.166  -6.234  1.00  0.00     0.293 HD
ENDBRANCH   6  22
TORSDOF 4
ENDMDL
MODEL 4
REMARK VINA RESULT:    -5.737      2.872      4.991
REMARK INTER + INTRA:          -6.886
REMARK INTER:                  -6.585
REMARK INTRA:                  -0.302
REMARK UNBOUND:                -0.311
REMARK SMILES O=C1C[C@H](c2ccc(O)cc2)Oc2cc(O)cc(O)c21
REMARK SMILES IDX 3 1 4 2 12 3 13 4 14 5 15 6 17 7 18 8 20 9 2 10 1 11 5 12
REMARK SMILES IDX 6 13 11 14 7 15 10 16 8 17 9 18 19 20 16 22
REMARK H PARENT 9 19 19 21 16 23
REMARK Flexibility Score: inf
ROOT
ATOM      1  C   UNL     1      -0.069  -5.402  -4.355  1.00  0.00     0.131 C 
ATOM      2  C   UNL     1       0.655  -4.132  -3.885  1.00  0.00     0.211 C 
ATOM      3  O   UNL     1       1.962  -4.057  -4.463  1.00  0.00    -0.484 OA
ATOM      4  C   UNL     1       2.783  -5.180  -4.624  1.00  0.00     0.138 A 
ATOM      5  C   UNL     1       4.133  -4.994  -4.931  1.00  0.00     0.093 A 
ATOM      6  C   UNL     1       4.981  -6.095  -5.083  1.00  0.00     0.123 A 
ATOM      7  C   UNL     1       4.468  -7.387  -4.956  1.00  0.00     0.093 A 
ATOM      8  C   UNL     1       3.111  -7.599  -4.689  1.00  0.00     0.133 A 
ATOM      9  C   UNL     1       2.256  -6.483  -4.486  1.00  0.00     0.102 A 
ATOM     10  C   UNL     1       0.820  -6.588  -4.128  1.00  0.00     0.174 C 
ATOM     11  O   UNL     1       0.344  -7.623  -3.591  1.00  0.00    -0.294 OA
ENDROOT
BRANCH   2  12
ATOM     12  C   UNL     1      -0.140  -2.901  -4.242  1.00  0.00    -0.007 A 
ATOM     13  C   UNL     1       0.422  -1.623  -4.073  1.00  0.00     0.011 A 
ATOM     14  C   UNL     1      -1.467  -3.011  -4.692  1.00  0.00     0.011 A 
ATOM     15  C   UNL     1      -0.322  -0.479  -4.376  1.00  0.00     0.046 A 
ATOM     16  C   UNL     1      -2.209  -1.865  -4.992  1.00  0.00     0.046 A 
ATOM     17  C   UNL     1      -1.638  -0.595  -4.836  1.00  0.00     0.115 A 
BRANCH  17  18
ATOM     18  O   UNL     1      -2.367   0.554  -5.133  1.00  0.00    -0.508 OA
ATOM     19  H   UNL     1      -2.055   1.211  -5.839  1.00  0.00     0.293 HD
ENDBRANCH  17  18
ENDBRANCH   2  12
BRANCH   8  20
ATOM     20  O   UNL     1       2.658  -8.920  -4.670  1.00  0.00    -0.507 OA
ATOM     21  H   UNL     1       1.759  -9.203  -4.308  1.00  0.00     0.293 HD
ENDBRANCH   8  20
BRANCH   6  22
ATOM     22  O   UNL     1       6.333  -5.916  -5.369  1.00  0.00    -0.508 OA
ATOM     23  H   UNL     1       6.651  -5.682  -6.302  1.00  0.00     0.293 HD
ENDBRANCH   6  22
TORSDOF 4
ENDMDL
MODEL 5
REMARK VINA RESULT:    -5.708      2.391      7.944
REMARK INTER + INTRA:          -6.853
REMARK INTER:                  -6.534
REMARK INTRA:                  -0.319
REMARK UNBOUND:                -0.311
REMARK SMILES O=C1C[C@H](c2ccc(O)cc2)Oc2cc(O)cc(O)c21
REMARK SMILES IDX 3 1 4 2 12 3 13 4 14 5 15 6 17 7 18 8 20 9 2 10 1 11 5 12
REMARK SMILES IDX 6 13 11 14 7 15 10 16 8 17 9 18 19 20 16 22
REMARK H PARENT 9 19 19 21 16 23
REMARK Flexibility Score: inf
ROOT
ATOM      1  C   UNL     1       2.301   1.544  -4.436  1.00  0.00     0.131 C 
ATOM      2  C   UNL     1       0.871   1.909  -4.008  1.00  0.00     0.211 C 
ATOM      3  O   UNL     1       0.429   3.086  -4.691  1.00  0.00    -0.484 OA
ATOM      4  C   UNL     1       1.269   4.179  -4.936  1.00  0.00     0.138 A 
ATOM      5  C   UNL     1       0.705   5.388  -5.351  1.00  0.00     0.093 A 
ATOM      6  C   UNL     1       1.516   6.501  -5.589  1.00  0.00     0.123 A 
ATOM      7  C   UNL     1       2.901   6.393  -5.440  1.00  0.00     0.093 A 
ATOM      8  C   UNL     1       3.491   5.182  -5.064  1.00  0.00     0.133 A 
ATOM      9  C   UNL     1       2.667   4.062  -4.775  1.00  0.00     0.102 A 
ATOM     10  C   UNL     1       3.178   2.752  -4.301  1.00  0.00     0.174 C 
ATOM     11  O   UNL     1       4.301   2.641  -3.742  1.00  0.00    -0.294 OA
ENDROOT
BRANCH   2  12
ATOM     12  C   UNL     1      -0.076   0.766  -4.279  1.00  0.00    -0.007 A 
ATOM     13  C   UNL     1       0.363  -0.563  -4.142  1.00  0.00     0.011 A 
ATOM     14  C   UNL     1      -1.386   1.012  -4.726  1.00  0.00     0.011 A 
ATOM     15  C   UNL     1      -0.503  -1.624  -4.422  1.00  0.00     0.046 A 
ATOM     16  C   UNL     1      -2.249  -0.051  -5.005  1.00  0.00     0.046 A 
ATOM     17  C   UNL     1      -1.811  -1.373  -4.853  1.00  0.00     0.115 A 
BRANCH  17  18
ATOM     18  O   UNL     1      -2.662  -2.441  -5.127  1.00  0.00    -0.508 OA
ATOM     19  H   UNL     1      -2.503  -3.053  -5.919  1.00  0.00     0.293 HD
ENDBRANCH  17  18
ENDBRANCH   2  12
BRANCH   8  20
ATOM     20  O   UNL     1       4.886   5.131  -5.028  1.00  0.00    -0.507 OA
ATOM     21  H   UNL     1       5.434   5.242  -4.187  1.00  0.00     0.293 HD
ENDBRANCH   8  20
BRANCH   6  22
ATOM     22  O   UNL     1       0.959   7.715  -5.983  1.00  0.00    -0.508 OA
ATOM     23  H   UNL     1       0.121   8.081  -5.545  1.00  0.00     0.293 HD
ENDBRANCH   6  22
TORSDOF 4
ENDMDL
MODEL 6
REMARK VINA RESULT:    -5.699      1.393      2.390
REMARK INTER + INTRA:          -6.843
REMARK INTER:                  -6.525
REMARK INTRA:                  -0.318
REMARK UNBOUND:                -0.311
REMARK SMILES O=C1C[C@H](c2ccc(O)cc2)Oc2cc(O)cc(O)c21
REMARK SMILES IDX 3 1 4 2 12 3 13 4 14 5 15 6 17 7 18 8 20 9 2 10 1 11 5 12
REMARK SMILES IDX 6 13 11 14 7 15 10 16 8 17 9 18 19 20 16 22
REMARK H PARENT 9 19 19 21 16 23
REMARK Flexibility Score: inf
ROOT
ATOM      1  C   UNL     1      -0.769  -2.397  -4.666  1.00  0.00     0.131 C 
ATOM      2  C   UNL     1       0.250  -1.651  -3.792  1.00  0.00     0.211 C 
ATOM      3  O   UNL     1       1.550  -2.233  -3.929  1.00  0.00    -0.484 OA
ATOM      4  C   UNL     1       1.754  -3.615  -4.023  1.00  0.00     0.138 A 
ATOM      5  C   UNL     1       3.047  -4.122  -3.874  1.00  0.00     0.093 A 
ATOM      6  C   UNL     1       3.279  -5.498  -3.947  1.00  0.00     0.123 A 
ATOM      7  C   UNL     1       2.216  -6.367  -4.202  1.00  0.00     0.093 A 
ATOM      8  C   UNL     1       0.919  -5.879  -4.395  1.00  0.00     0.133 A 
ATOM      9  C   UNL     1       0.671  -4.486  -4.273  1.00  0.00     0.102 A 
ATOM     10  C   UNL     1      -0.673  -3.867  -4.387  1.00  0.00     0.174 C 
ATOM     11  O   UNL     1      -1.727  -4.530  -4.201  1.00  0.00    -0.294 OA
ENDROOT
BRANCH   2  12
ATOM     12  C   UNL     1       0.297  -0.188  -4.158  1.00  0.00    -0.007 A 
ATOM     13  C   UNL     1      -0.847   0.451  -4.667  1.00  0.00     0.011 A 
ATOM     14  C   UNL     1       1.495   0.539  -4.048  1.00  0.00     0.011 A 
ATOM     15  C   UNL     1      -0.799   1.799  -5.034  1.00  0.00     0.046 A 
ATOM     16  C   UNL     1       1.541   1.887  -4.418  1.00  0.00     0.046 A 
ATOM     17  C   UNL     1       0.393   2.521  -4.911  1.00  0.00     0.115 A 
BRANCH  17  18
ATOM     18  O   UNL     1       0.426   3.863  -5.281  1.00  0.00    -0.508 OA
ATOM     19  H   UNL     1      -0.145   4.217  -6.040  1.00  0.00     0.293 HD
ENDBRANCH  17  18
ENDBRANCH   2  12
BRANCH   8  20
ATOM     20  O   UNL     1      -0.071  -6.803  -4.737  1.00  0.00    -0.507 OA
ATOM     21  H   UNL     1      -0.188  -7.188  -5.663  1.00  0.00     0.293 HD
ENDBRANCH   8  20
BRANCH   6  22
ATOM     22  O   UNL     1       4.563  -6.012  -3.779  1.00  0.00    -0.508 OA
ATOM     23  H   UNL     1       5.300  -5.827  -4.449  1.00  0.00     0.293 HD
ENDBRANCH   6  22
TORSDOF 4
ENDMDL
MODEL 7
REMARK VINA RESULT:    -5.639      2.047      6.763
REMARK INTER + INTRA:          -6.774
REMARK INTER:                  -6.487
REMARK INTRA:                  -0.287
REMARK UNBOUND:                -0.311
REMARK SMILES O=C1C[C@H](c2ccc(O)cc2)Oc2cc(O)cc(O)c21
REMARK SMILES IDX 3 1 4 2 12 3 13 4 14 5 15 6 17 7 18 8 20 9 2 10 1 11 5 12
REMARK SMILES IDX 6 13 11 14 7 15 10 16 8 17 9 18 19 20 16 22
REMARK H PARENT 9 19 19 21 16 23
REMARK Flexibility Score: inf
ROOT
ATOM      1  C   UNL     1      -1.613  -3.974  -3.682  1.00  0.00     0.131 C 
ATOM      2  C   UNL     1      -0.500  -3.956  -4.741  1.00  0.00     0.211 C 
ATOM      3  O   UNL     1       0.413  -2.883  -4.490  1.00  0.00    -0.484 OA
ATOM      4  C   UNL     1      -0.005  -1.620  -4.051  1.00  0.00     0.138 A 
ATOM      5  C   UNL     1       0.896  -0.554  -4.096  1.00  0.00     0.093 A 
ATOM      6  C   UNL     1       0.503   0.721  -3.680  1.00  0.00     0.123 A 
ATOM      7  C   UNL     1      -0.788   0.921  -3.188  1.00  0.00     0.093 A 
ATOM      8  C   UNL     1      -1.695  -0.140  -3.096  1.00  0.00     0.133 A 
ATOM      9  C   UNL     1      -1.316  -1.427  -3.563  1.00  0.00     0.102 A 
ATOM     10  C   UNL     1      -2.217  -2.606  -3.580  1.00  0.00     0.174 C 
ATOM     11  O   UNL     1      -3.470  -2.483  -3.566  1.00  0.00    -0.294 OA
ENDROOT
BRANCH   2  12
ATOM     12  C   UNL     1       0.239  -5.271  -4.761  1.00  0.00    -0.007 A 
ATOM     13  C   UNL     1       0.349  -6.037  -3.588  1.00  0.00     0.011 A 
ATOM     14  C   UNL     1       0.874  -5.717  -5.933  1.00  0.00     0.011 A 
ATOM     15  C   UNL     1       1.059  -7.242  -3.596  1.00  0.00     0.046 A 
ATOM     16  C   UNL     1       1.584  -6.921  -5.938  1.00  0.00     0.046 A 
ATOM     17  C   UNL     1       1.677  -7.688  -4.769  1.00  0.00     0.115 A 
BRANCH  17  18
ATOM     18  O   UNL     1       2.381  -8.890  -4.762  1.00  0.00    -0.508 OA
ATOM     19  H   UNL     1       3.145  -9.052  -4.116  1.00  0.00     0.293 HD
ENDBRANCH  17  18
ENDBRANCH   2  12
BRANCH   8  20
ATOM     20  O   UNL     1      -2.934   0.122  -2.507  1.00  0.00    -0.507 OA
ATOM     21  H   UNL     1      -3.087   0.170  -1.510  1.00  0.00     0.293 HD
ENDBRANCH   8  20
BRANCH   6  22
ATOM     22  O   UNL     1       1.390   1.793  -3.741  1.00  0.00    -0.508 OA
ATOM     23  H   UNL     1       2.387   1.665  -3.610  1.00  0.00     0.293 HD
ENDBRANCH   6  22
TORSDOF 4
ENDMDL
MODEL 8
REMARK VINA RESULT:    -5.634      1.863      7.418
REMARK INTER + INTRA:          -6.768
REMARK INTER:                  -6.457
REMARK INTRA:                  -0.311
REMARK UNBOUND:                -0.311
REMARK SMILES O=C1C[C@H](c2ccc(O)cc2)Oc2cc(O)cc(O)c21
REMARK SMILES IDX 3 1 4 2 12 3 13 4 14 5 15 6 17 7 18 8 20 9 2 10 1 11 5 12
REMARK SMILES IDX 6 13 11 14 7 15 10 16 8 17 9 18 19 20 16 22
REMARK H PARENT 9 19 19 21 16 23
REMARK Flexibility Score: inf
ROOT
ATOM      1  C   UNL     1       2.101   0.024  -3.985  1.00  0.00     0.131 C 
ATOM      2  C   UNL     1       0.607   0.344  -3.824  1.00  0.00     0.211 C 
ATOM      3  O   UNL     1       0.258   1.504  -4.587  1.00  0.00    -0.484 OA
ATOM      4  C   UNL     1       1.094   2.623  -4.688  1.00  0.00     0.138 A 
ATOM      5  C   UNL     1       0.577   3.811  -5.210  1.00  0.00     0.093 A 
ATOM      6  C   UNL     1       1.383   4.949  -5.309  1.00  0.00     0.123 A 
ATOM      7  C   UNL     1       2.720   4.887  -4.912  1.00  0.00     0.093 A 
ATOM      8  C   UNL     1       3.271   3.696  -4.425  1.00  0.00     0.133 A 
ATOM      9  C   UNL     1       2.443   2.552  -4.277  1.00  0.00     0.102 A 
ATOM     10  C   UNL     1       2.902   1.261  -3.706  1.00  0.00     0.174 C 
ATOM     11  O   UNL     1       3.908   1.188  -2.954  1.00  0.00    -0.294 OA
ENDROOT
BRANCH   2  12
ATOM     12  C   UNL     1      -0.240  -0.829  -4.251  1.00  0.00    -0.007 A 
ATOM     13  C   UNL     1      -1.546  -0.622  -4.726  1.00  0.00     0.011 A 
ATOM     14  C   UNL     1       0.243  -2.143  -4.125  1.00  0.00     0.011 A 
ATOM     15  C   UNL     1      -2.344  -1.710  -5.094  1.00  0.00     0.046 A 
ATOM     16  C   UNL     1      -0.557  -3.229  -4.493  1.00  0.00     0.046 A 
ATOM     17  C   UNL     1      -1.853  -3.015  -4.980  1.00  0.00     0.115 A 
BRANCH  17  18
ATOM     18  O   UNL     1      -2.660  -4.088  -5.350  1.00  0.00    -0.508 OA
ATOM     19  H   UNL     1      -3.622  -3.952  -5.639  1.00  0.00     0.293 HD
ENDBRANCH  17  18
ENDBRANCH   2  12
BRANCH   8  20
ATOM     20  O   UNL     1       4.638   3.691  -4.138  1.00  0.00    -0.507 OA
ATOM     21  H   UNL     1       5.020   3.792  -3.209  1.00  0.00     0.293 HD
ENDBRANCH   8  20
BRANCH   6  22
ATOM     22  O   UNL     1       0.867   6.142  -5.808  1.00  0.00    -0.508 OA
ATOM     23  H   UNL     1       1.473   6.892  -6.121  1.00  0.00     0.293 HD
ENDBRANCH   6  22
TORSDOF 4
ENDMDL
MODEL 9
REMARK VINA RESULT:    -5.590      2.329      2.949
REMARK INTER + INTRA:          -6.718
REMARK INTER:                  -6.415
REMARK INTRA:                  -0.303
REMARK UNBOUND:                -0.311
REMARK SMILES O=C1C[C@H](c2ccc(O)cc2)Oc2cc(O)cc(O)c21
REMARK SMILES IDX 3 1 4 2 12 3 13 4 14 5 15 6 17 7 18 8 20 9 2 10 1 11 5 12
REMARK SMILES IDX 6 13 11 14 7 15 10 16 8 17 9 18 19 20 16 22
REMARK H PARENT 9 19 19 21 16 23
REMARK Flexibility Score: inf
ROOT
ATOM      1  C   UNL     1      -0.533  -2.777  -4.705  1.00  0.00     0.131 C 
ATOM      2  C   UNL     1      -0.832  -1.714  -3.638  1.00  0.00     0.211 C 
ATOM      3  O   UNL     1      -0.088  -1.977  -2.444  1.00  0.00    -0.484 OA
ATOM      4  C   UNL     1       0.113  -3.272  -1.948  1.00  0.00     0.138 A 
ATOM      5  C   UNL     1       0.601  -3.432  -0.649  1.00  0.00     0.093 A 
ATOM      6  C   UNL     1       0.797  -4.711  -0.121  1.00  0.00     0.123 A 
ATOM      7  C   UNL     1       0.532  -5.834  -0.908  1.00  0.00     0.093 A 
ATOM      8  C   UNL     1       0.080  -5.697  -2.226  1.00  0.00     0.133 A 
ATOM      9  C   UNL     1      -0.166  -4.400  -2.750  1.00  0.00     0.102 A 
ATOM     10  C   UNL     1      -0.711  -4.140  -4.105  1.00  0.00     0.174 C 
ATOM     11  O   UNL     1      -1.363  -5.012  -4.737  1.00  0.00    -0.294 OA
ENDROOT
BRANCH   2  12
ATOM     12  C   UNL     1      -0.510  -0.333  -4.154  1.00  0.00    -0.007 A 
ATOM     13  C   UNL     1       0.765   0.219  -3.945  1.00  0.00     0.011 A 
ATOM     14  C   UNL     1      -1.493   0.438  -4.798  1.00  0.00     0.011 A 
ATOM     15  C   UNL     1       1.058   1.510  -4.396  1.00  0.00     0.046 A 
ATOM     16  C   UNL     1      -1.198   1.728  -5.247  1.00  0.00     0.046 A 
ATOM     17  C   UNL     1       0.080   2.268  -5.049  1.00  0.00     0.115 A 
BRANCH  17  18
ATOM     18  O   UNL     1       0.386   3.552  -5.492  1.00  0.00    -0.508 OA
ATOM     19  H   UNL     1       0.683   4.277  -4.849  1.00  0.00     0.293 HD
ENDBRANCH  17  18
ENDBRANCH   2  12
BRANCH   8  20
ATOM     20  O   UNL     1      -0.073  -6.865  -2.977  1.00  0.00    -0.507 OA
ATOM     21  H   UNL     1       0.571  -7.642  -2.949  1.00  0.00     0.293 HD
ENDBRANCH   8  20
BRANCH   6  22
ATOM     22  O   UNL     1       1.264  -4.878   1.180  1.00  0.00    -0.508 OA
ATOM     23  H   UNL     1       1.203  -5.771   1.655  1.00  0.00     0.293 HD
ENDBRANCH   6  22
TORSDOF 4
ENDMDL
