MODEL 1
REMARK VINA RESULT:    -5.278      0.000      0.000
REMARK INTER + INTRA:          -7.534
REMARK INTER:                  -7.129
REMARK INTRA:                  -0.405
REMARK UNBOUND:                -0.405
REMARK SMILES COc1ccc(-c2cc(=O)c3c(OC)c(OC)c(OC)cc3o2)cc1OC
REMARK SMILES IDX 7 1 8 2 9 3 10 4 11 5 12 6 15 7 18 8 21 9 22 10 23 11 6 12
REMARK SMILES IDX 3 13 25 14 4 15 24 16 5 17 2 18 1 19 26 20 27 21 13 22 14 23
REMARK SMILES IDX 19 24 20 25 16 26 17 27
REMARK H PARENT
REMARK Flexibility Score: inf
ROOT
ATOM      1  C   UNL     1     139.034 149.925 120.422  1.00  0.00     0.138 A 
ATOM      2  C   UNL     1     137.947 150.763 120.711  1.00  0.00     0.100 A 
ATOM      3  C   UNL     1     138.162 152.130 120.882  1.00  0.00     0.197 A 
ATOM      4  O   UNL     1     137.172 152.868 121.139  1.00  0.00    -0.289 OA
ATOM      5  C   UNL     1     139.468 152.658 120.757  1.00  0.00     0.111 A 
ATOM      6  C   UNL     1     139.767 154.036 120.918  1.00  0.00     0.179 A 
ATOM      7  C   UNL     1     141.111 154.488 120.770  1.00  0.00     0.204 A 
ATOM      8  C   UNL     1     142.135 153.552 120.461  1.00  0.00     0.168 A 
ATOM      9  C   UNL     1     141.810 152.196 120.309  1.00  0.00     0.098 A 
ATOM     10  C   UNL     1     140.503 151.750 120.454  1.00  0.00     0.146 A 
ATOM     11  O   UNL     1     140.248 150.453 120.302  1.00  0.00    -0.456 OA
ENDROOT
BRANCH   1  12
ATOM     12  C   UNL     1     138.869 148.462 120.228  1.00  0.00     0.021 A 
ATOM     13  C   UNL     1     138.497 145.684 119.882  1.00  0.00     0.160 A 
ATOM     14  C   UNL     1     137.772 146.370 120.867  1.00  0.00     0.161 A 
ATOM     15  C   UNL     1     139.397 146.391 119.066  1.00  0.00     0.051 A 
ATOM     16  C   UNL     1     137.958 147.757 121.033  1.00  0.00     0.062 A 
ATOM     17  C   UNL     1     139.577 147.765 119.234  1.00  0.00     0.016 A 
BRANCH  13  18
ATOM     18  O   UNL     1     138.292 144.302 119.744  1.00  0.00    -0.493 OA
ATOM     19  C   UNL     1     137.265 143.715 118.950  1.00  0.00     0.278 C 
ENDBRANCH  13  18
BRANCH  14  20
ATOM     20  O   UNL     1     136.875 145.639 121.664  1.00  0.00    -0.493 OA
ATOM     21  C   UNL     1     137.252 144.834 122.776  1.00  0.00     0.278 C 
ENDBRANCH  14  20
ENDBRANCH   1  12
BRANCH   6  22
ATOM     22  O   UNL     1     138.698 154.907 121.221  1.00  0.00    -0.492 OA
ATOM     23  C   UNL     1     138.469 155.615 122.435  1.00  0.00     0.278 C 
ENDBRANCH   6  22
BRANCH   8  24
ATOM     24  O   UNL     1     143.462 153.985 120.310  1.00  0.00    -0.493 OA
ATOM     25  C   UNL     1     144.336 153.604 119.252  1.00  0.00     0.278 C 
ENDBRANCH   8  24
BRANCH   7  26
ATOM     26  O   UNL     1     141.376 155.861 120.936  1.00  0.00    -0.490 OA
ATOM     27  C   UNL     1     141.203 156.900 119.980  1.00  0.00     0.278 C 
ENDBRANCH   7  26
TORSDOF 6
ENDMDL
MODEL 2
REMARK VINA RESULT:    -4.642      1.087      1.845
REMARK INTER + INTRA:          -6.675
REMARK INTER:                  -6.418
REMARK INTRA:                  -0.257
REMARK UNBOUND:                -0.405
REMARK SMILES COc1ccc(-c2cc(=O)c3c(OC)c(OC)c(OC)cc3o2)cc1OC
REMARK SMILES IDX 7 1 8 2 9 3 10 4 11 5 12 6 15 7 18 8 21 9 22 10 23 11 6 12
REMARK SMILES IDX 3 13 25 14 4 15 24 16 5 17 2 18 1 19 26 20 27 21 13 22 14 23
REMARK SMILES IDX 19 24 20 25 16 26 17 27
REMARK H PARENT
REMARK Flexibility Score: inf
ROOT
ATOM      1  C   UNL     1     138.405 150.737 121.033  1.00  0.00     0.138 A 
ATOM      2  C   UNL     1     137.446 151.714 121.340  1.00  0.00     0.100 A 
ATOM      3  C   UNL     1     137.820 153.057 121.364  1.00  0.00     0.197 A 
ATOM      4  O   UNL     1     136.944 153.922 121.640  1.00  0.00    -0.289 OA
ATOM      5  C   UNL     1     139.156 153.421 121.076  1.00  0.00     0.111 A 
ATOM      6  C   UNL     1     139.613 154.765 121.082  1.00  0.00     0.179 A 
ATOM      7  C   UNL     1     140.976 155.047 120.774  1.00  0.00     0.204 A 
ATOM      8  C   UNL     1     141.860 153.978 120.463  1.00  0.00     0.168 A 
ATOM      9  C   UNL     1     141.380 152.660 120.466  1.00  0.00     0.098 A 
ATOM     10  C   UNL     1     140.054 152.379 120.767  1.00  0.00     0.146 A 
ATOM     11  O   UNL     1     139.650 151.112 120.758  1.00  0.00    -0.456 OA
ENDROOT
BRANCH   1  12
ATOM     12  C   UNL     1     138.068 149.292 120.990  1.00  0.00     0.021 A 
ATOM     13  C   UNL     1     137.480 146.531 120.883  1.00  0.00     0.160 A 
ATOM     14  C   UNL     1     138.389 147.089 119.973  1.00  0.00     0.161 A 
ATOM     15  C   UNL     1     136.876 147.353 121.851  1.00  0.00     0.051 A 
ATOM     16  C   UNL     1     138.682 148.466 120.033  1.00  0.00     0.062 A 
ATOM     17  C   UNL     1     137.170 148.717 121.906  1.00  0.00     0.016 A 
BRANCH  13  18
ATOM     18  O   UNL     1     137.207 145.157 120.796  1.00  0.00    -0.493 OA
ATOM     19  C   UNL     1     137.614 144.191 121.760  1.00  0.00     0.278 C 
ENDBRANCH  13  18
BRANCH  14  20
ATOM     20  O   UNL     1     138.982 146.243 119.021  1.00  0.00    -0.493 OA
ATOM     21  C   UNL     1     139.936 145.230 119.323  1.00  0.00     0.278 C 
ENDBRANCH  14  20
ENDBRANCH   1  12
BRANCH   6  22
ATOM     22  O   UNL     1     138.677 155.773 121.398  1.00  0.00    -0.492 OA
ATOM     23  C   UNL     1     138.619 156.569 122.576  1.00  0.00     0.278 C 
ENDBRANCH   6  22
BRANCH   8  24
ATOM     24  O   UNL     1     143.204 154.244 120.155  1.00  0.00    -0.493 OA
ATOM     25  C   UNL     1     144.057 153.394 119.394  1.00  0.00     0.278 C 
ENDBRANCH   8  24
BRANCH   7  26
ATOM     26  O   UNL     1     141.399 156.390 120.789  1.00  0.00    -0.490 OA
ATOM     27  C   UNL     1     141.125 157.397 119.822  1.00  0.00     0.278 C 
ENDBRANCH   7  26
TORSDOF 6
ENDMDL
MODEL 3
REMARK VINA RESULT:    -4.622      1.658      3.483
REMARK INTER + INTRA:          -6.648
REMARK INTER:                  -6.282
REMARK INTRA:                  -0.366
REMARK UNBOUND:                -0.405
REMARK SMILES COc1ccc(-c2cc(=O)c3c(OC)c(OC)c(OC)cc3o2)cc1OC
REMARK SMILES IDX 7 1 8 2 9 3 10 4 11 5 12 6 15 7 18 8 21 9 22 10 23 11 6 12
REMARK SMILES IDX 3 13 25 14 4 15 24 16 5 17 2 18 1 19 26 20 27 21 13 22 14 23
REMARK SMILES IDX 19 24 20 25 16 26 17 27
REMARK H PARENT
REMARK Flexibility Score: inf
ROOT
ATOM      1  C   UNL     1     139.216 150.693 120.336  1.00  0.00     0.138 A 
ATOM      2  C   UNL     1     140.592 150.891 120.522  1.00  0.00     0.100 A 
ATOM      3  C   UNL     1     141.129 152.167 120.358  1.00  0.00     0.197 A 
ATOM      4  O   UNL     1     142.369 152.326 120.531  1.00  0.00    -0.289 OA
ATOM      5  C   UNL     1     140.285 153.248 120.012  1.00  0.00     0.111 A 
ATOM      6  C   UNL     1     140.756 154.573 119.828  1.00  0.00     0.179 A 
ATOM      7  C   UNL     1     139.835 155.607 119.485  1.00  0.00     0.204 A 
ATOM      8  C   UNL     1     138.456 155.297 119.336  1.00  0.00     0.168 A 
ATOM      9  C   UNL     1     138.020 153.977 119.524  1.00  0.00     0.098 A 
ATOM     10  C   UNL     1     138.912 152.965 119.856  1.00  0.00     0.146 A 
ATOM     11  O   UNL     1     138.447 151.731 120.021  1.00  0.00    -0.456 OA
ENDROOT
BRANCH   1  12
ATOM     12  C   UNL     1     138.585 149.359 120.497  1.00  0.00     0.021 A 
ATOM     13  C   UNL     1     137.435 146.794 120.779  1.00  0.00     0.160 A 
ATOM     14  C   UNL     1     138.389 147.028 119.777  1.00  0.00     0.161 A 
ATOM     15  C   UNL     1     137.068 147.841 121.643  1.00  0.00     0.051 A 
ATOM     16  C   UNL     1     138.962 148.308 119.644  1.00  0.00     0.062 A 
ATOM     17  C   UNL     1     137.640 149.107 121.506  1.00  0.00     0.016 A 
BRANCH  13  18
ATOM     18  O   UNL     1     136.880 145.510 120.885  1.00  0.00    -0.493 OA
ATOM     19  C   UNL     1     137.185 144.582 121.922  1.00  0.00     0.278 C 
ENDBRANCH  13  18
BRANCH  14  20
ATOM     20  O   UNL     1     138.742 145.963 118.933  1.00  0.00    -0.493 OA
ATOM     21  C   UNL     1     139.700 144.959 119.253  1.00  0.00     0.278 C 
ENDBRANCH  14  20
ENDBRANCH   1  12
BRANCH   6  22
ATOM     22  O   UNL     1     142.138 154.806 119.995  1.00  0.00    -0.492 OA
ATOM     23  C   UNL     1     142.802 155.318 121.146  1.00  0.00     0.278 C 
ENDBRANCH   6  22
BRANCH   8  24
ATOM     24  O   UNL     1     137.540 156.307 119.001  1.00  0.00    -0.493 OA
ATOM     25  C   UNL     1     136.895 157.173 119.931  1.00  0.00     0.278 C 
ENDBRANCH   8  24
BRANCH   7  26
ATOM     26  O   UNL     1     140.333 156.912 119.307  1.00  0.00    -0.490 OA
ATOM     27  C   UNL     1     140.498 157.921 120.297  1.00  0.00     0.278 C 
ENDBRANCH   7  26
TORSDOF 6
ENDMDL
MODEL 4
REMARK VINA RESULT:    -3.951      1.479      3.158
REMARK INTER + INTRA:          -5.742
REMARK INTER:                  -5.776
REMARK INTRA:                   0.034
REMARK UNBOUND:                -0.405
REMARK SMILES COc1ccc(-c2cc(=O)c3c(OC)c(OC)c(OC)cc3o2)cc1OC
REMARK SMILES IDX 7 1 8 2 9 3 10 4 11 5 12 6 15 7 18 8 21 9 22 10 23 11 6 12
REMARK SMILES IDX 3 13 25 14 4 15 24 16 5 17 2 18 1 19 26 20 27 21 13 22 14 23
REMARK SMILES IDX 19 24 20 25 16 26 17 27
REMARK H PARENT
REMARK Flexibility Score: inf
ROOT
ATOM      1  C   UNL     1     138.992 149.552 120.159  1.00  0.00     0.138 A 
ATOM      2  C   UNL     1     140.331 149.845 119.859  1.00  0.00     0.100 A 
ATOM      3  C   UNL     1     140.805 151.144 120.040  1.00  0.00     0.197 A 
ATOM      4  O   UNL     1     142.012 151.389 119.768  1.00  0.00    -0.289 OA
ATOM      5  C   UNL     1     139.936 152.149 120.526  1.00  0.00     0.111 A 
ATOM      6  C   UNL     1     140.343 153.493 120.735  1.00  0.00     0.179 A 
ATOM      7  C   UNL     1     139.404 154.443 121.233  1.00  0.00     0.204 A 
ATOM      8  C   UNL     1     138.074 154.033 121.517  1.00  0.00     0.168 A 
ATOM      9  C   UNL     1     137.700 152.698 121.299  1.00  0.00     0.098 A 
ATOM     10  C   UNL     1     138.609 151.768 120.813  1.00  0.00     0.146 A 
ATOM     11  O   UNL     1     138.203 150.516 120.622  1.00  0.00    -0.456 OA
ENDROOT
BRANCH   1  12
ATOM     12  C   UNL     1     138.430 148.188 119.988  1.00  0.00     0.021 A 
ATOM     13  C   UNL     1     137.373 145.583 119.723  1.00  0.00     0.160 A 
ATOM     14  C   UNL     1     138.328 145.853 120.714  1.00  0.00     0.161 A 
ATOM     15  C   UNL     1     136.942 146.618 118.875  1.00  0.00     0.051 A 
ATOM     16  C   UNL     1     138.849 147.156 120.845  1.00  0.00     0.062 A 
ATOM     17  C   UNL     1     137.462 147.907 119.009  1.00  0.00     0.016 A 
BRANCH  13  18
ATOM     18  O   UNL     1     136.875 144.275 119.616  1.00  0.00    -0.493 OA
ATOM     19  C   UNL     1     137.518 143.223 118.902  1.00  0.00     0.278 C 
ENDBRANCH  13  18
BRANCH  14  20
ATOM     20  O   UNL     1     138.735 144.802 121.551  1.00  0.00    -0.493 OA
ATOM     21  C   UNL     1     138.046 144.392 122.729  1.00  0.00     0.278 C 
ENDBRANCH  14  20
ENDBRANCH   1  12
BRANCH   6  22
ATOM     22  O   UNL     1     141.681 153.826 120.433  1.00  0.00    -0.492 OA
ATOM     23  C   UNL     1     142.559 154.664 121.176  1.00  0.00     0.278 C 
ENDBRANCH   6  22
BRANCH   8  24
ATOM     24  O   UNL     1     137.141 154.960 122.011  1.00  0.00    -0.493 OA
ATOM     25  C   UNL     1     136.939 155.269 123.387  1.00  0.00     0.278 C 
ENDBRANCH   8  24
BRANCH   7  26
ATOM     26  O   UNL     1     139.838 155.769 121.429  1.00  0.00    -0.490 OA
ATOM     27  C   UNL     1     139.208 156.963 120.979  1.00  0.00     0.278 C 
ENDBRANCH   7  26
TORSDOF 6
ENDMDL
MODEL 5
REMARK VINA RESULT:    -3.934      2.246      8.920
REMARK INTER + INTRA:          -5.719
REMARK INTER:                  -5.199
REMARK INTRA:                  -0.520
REMARK UNBOUND:                -0.405
REMARK SMILES COc1ccc(-c2cc(=O)c3c(OC)c(OC)c(OC)cc3o2)cc1OC
REMARK SMILES IDX 7 1 8 2 9 3 10 4 11 5 12 6 15 7 18 8 21 9 22 10 23 11 6 12
REMARK SMILES IDX 3 13 25 14 4 15 24 16 5 17 2 18 1 19 26 20 27 21 13 22 14 23
REMARK SMILES IDX 19 24 20 25 16 26 17 27
REMARK H PARENT
REMARK Flexibility Score: inf
ROOT
ATOM      1  C   UNL     1     138.985 154.102 121.584  1.00  0.00     0.138 A 
ATOM      2  C   UNL     1     140.245 154.036 120.971  1.00  0.00     0.100 A 
ATOM      3  C   UNL     1     140.647 152.850 120.358  1.00  0.00     0.197 A 
ATOM      4  O   UNL     1     141.782 152.809 119.810  1.00  0.00    -0.289 OA
ATOM      5  C   UNL     1     139.782 151.731 120.355  1.00  0.00     0.111 A 
ATOM      6  C   UNL     1     140.119 150.490 119.753  1.00  0.00     0.179 A 
ATOM      7  C   UNL     1     139.186 149.413 119.790  1.00  0.00     0.204 A 
ATOM      8  C   UNL     1     137.929 149.595 120.427  1.00  0.00     0.168 A 
ATOM      9  C   UNL     1     137.624 150.832 121.014  1.00  0.00     0.098 A 
ATOM     10  C   UNL     1     138.529 151.885 120.983  1.00  0.00     0.146 A 
ATOM     11  O   UNL     1     138.191 153.036 121.556  1.00  0.00    -0.456 OA
ENDROOT
BRANCH   1  12
ATOM     12  C   UNL     1     138.501 155.337 122.252  1.00  0.00     0.021 A 
ATOM     13  C   UNL     1     137.604 157.719 123.477  1.00  0.00     0.160 A 
ATOM     14  C   UNL     1     138.711 157.748 122.617  1.00  0.00     0.161 A 
ATOM     15  C   UNL     1     136.942 156.501 123.713  1.00  0.00     0.051 A 
ATOM     16  C   UNL     1     139.152 156.557 122.005  1.00  0.00     0.062 A 
ATOM     17  C   UNL     1     137.383 155.325 123.104  1.00  0.00     0.016 A 
BRANCH  13  18
ATOM     18  O   UNL     1     137.190 158.920 124.073  1.00  0.00    -0.493 OA
ATOM     19  C   UNL     1     136.976 159.095 125.470  1.00  0.00     0.278 C 
ENDBRANCH  13  18
BRANCH  14  20
ATOM     20  O   UNL     1     139.349 158.979 122.394  1.00  0.00    -0.493 OA
ATOM     21  C   UNL     1     140.688 159.125 121.931  1.00  0.00     0.278 C 
ENDBRANCH  14  20
ENDBRANCH   1  12
BRANCH   6  22
ATOM     22  O   UNL     1     141.385 150.384 119.137  1.00  0.00    -0.492 OA
ATOM     23  C   UNL     1     142.534 149.699 119.622  1.00  0.00     0.278 C 
ENDBRANCH   6  22
BRANCH   8  24
ATOM     24  O   UNL     1     137.000 148.542 120.467  1.00  0.00    -0.493 OA
ATOM     25  C   UNL     1     136.906 147.567 121.501  1.00  0.00     0.278 C 
ENDBRANCH   8  24
BRANCH   7  26
ATOM     26  O   UNL     1     139.550 148.194 119.185  1.00  0.00    -0.490 OA
ATOM     27  C   UNL     1     140.021 147.014 119.826  1.00  0.00     0.278 C 
ENDBRANCH   7  26
TORSDOF 6
ENDMDL
MODEL 6
REMARK VINA RESULT:    -3.759      2.036      2.730
REMARK INTER + INTRA:          -5.483
REMARK INTER:                  -5.076
REMARK INTRA:                  -0.407
REMARK UNBOUND:                -0.405
REMARK SMILES COc1ccc(-c2cc(=O)c3c(OC)c(OC)c(OC)cc3o2)cc1OC
REMARK SMILES IDX 7 1 8 2 9 3 10 4 11 5 12 6 15 7 18 8 21 9 22 10 23 11 6 12
REMARK SMILES IDX 3 13 25 14 4 15 24 16 5 17 2 18 1 19 26 20 27 21 13 22 14 23
REMARK SMILES IDX 19 24 20 25 16 26 17 27
REMARK H PARENT
REMARK Flexibility Score: inf
ROOT
ATOM      1  C   UNL     1     139.315 152.088 119.742  1.00  0.00     0.138 A 
ATOM      2  C   UNL     1     138.179 152.770 119.282  1.00  0.00     0.100 A 
ATOM      3  C   UNL     1     138.134 154.161 119.367  1.00  0.00     0.197 A 
ATOM      4  O   UNL     1     137.105 154.758 118.947  1.00  0.00    -0.289 OA
ATOM      5  C   UNL     1     139.231 154.869 119.910  1.00  0.00     0.111 A 
ATOM      6  C   UNL     1     139.260 156.283 120.032  1.00  0.00     0.179 A 
ATOM      7  C   UNL     1     140.409 156.920 120.586  1.00  0.00     0.204 A 
ATOM      8  C   UNL     1     141.513 156.130 121.007  1.00  0.00     0.168 A 
ATOM      9  C   UNL     1     141.456 154.735 120.876  1.00  0.00     0.098 A 
ATOM     10  C   UNL     1     140.338 154.109 120.338  1.00  0.00     0.146 A 
ATOM     11  O   UNL     1     140.334 152.783 120.238  1.00  0.00    -0.456 OA
ENDROOT
BRANCH   1  12
ATOM     12  C   UNL     1     139.423 150.609 119.676  1.00  0.00     0.021 A 
ATOM     13  C   UNL     1     139.568 147.791 119.542  1.00  0.00     0.160 A 
ATOM     14  C   UNL     1     138.374 148.413 119.935  1.00  0.00     0.161 A 
ATOM     15  C   UNL     1     140.682 148.580 119.206  1.00  0.00     0.051 A 
ATOM     16  C   UNL     1     138.306 149.819 119.997  1.00  0.00     0.062 A 
ATOM     17  C   UNL     1     140.609 149.973 119.268  1.00  0.00     0.016 A 
BRANCH  13  18
ATOM     18  O   UNL     1     139.605 146.389 119.493  1.00  0.00    -0.493 OA
ATOM     19  C   UNL     1     139.817 145.548 120.624  1.00  0.00     0.278 C 
ENDBRANCH  13  18
BRANCH  14  20
ATOM     20  O   UNL     1     137.275 147.600 120.259  1.00  0.00    -0.493 OA
ATOM     21  C   UNL     1     136.875 147.270 121.585  1.00  0.00     0.278 C 
ENDBRANCH  14  20
ENDBRANCH   1  12
BRANCH   6  22
ATOM     22  O   UNL     1     138.128 157.001 119.589  1.00  0.00    -0.492 OA
ATOM     23  C   UNL     1     137.175 157.700 120.383  1.00  0.00     0.278 C 
ENDBRANCH   6  22
BRANCH   8  24
ATOM     24  O   UNL     1     142.652 156.746 121.552  1.00  0.00    -0.493 OA
ATOM     25  C   UNL     1     143.269 156.389 122.785  1.00  0.00     0.278 C 
ENDBRANCH   8  24
BRANCH   7  26
ATOM     26  O   UNL     1     140.407 158.324 120.694  1.00  0.00    -0.490 OA
ATOM     27  C   UNL     1     140.312 159.102 121.882  1.00  0.00     0.278 C 
ENDBRANCH   7  26
TORSDOF 6
ENDMDL
MODEL 7
REMARK VINA RESULT:    -3.425      1.783      4.071
REMARK INTER + INTRA:          -5.032
REMARK INTER:                  -5.168
REMARK INTRA:                   0.136
REMARK UNBOUND:                -0.405
REMARK SMILES COc1ccc(-c2cc(=O)c3c(OC)c(OC)c(OC)cc3o2)cc1OC
REMARK SMILES IDX 7 1 8 2 9 3 10 4 11 5 12 6 15 7 18 8 21 9 22 10 23 11 6 12
REMARK SMILES IDX 3 13 25 14 4 15 24 16 5 17 2 18 1 19 26 20 27 21 13 22 14 23
REMARK SMILES IDX 19 24 20 25 16 26 17 27
REMARK H PARENT
REMARK Flexibility Score: inf
ROOT
ATOM      1  C   UNL     1     138.688 151.755 121.220  1.00  0.00     0.138 A 
ATOM      2  C   UNL     1     139.866 152.062 120.524  1.00  0.00     0.100 A 
ATOM      3  C   UNL     1     140.274 153.391 120.421  1.00  0.00     0.197 A 
ATOM      4  O   UNL     1     141.338 153.648 119.793  1.00  0.00    -0.289 OA
ATOM      5  C   UNL     1     139.502 154.413 121.020  1.00  0.00     0.111 A 
ATOM      6  C   UNL     1     139.851 155.788 120.957  1.00  0.00     0.179 A 
ATOM      7  C   UNL     1     139.019 156.755 121.594  1.00  0.00     0.204 A 
ATOM      8  C   UNL     1     137.853 156.331 122.286  1.00  0.00     0.168 A 
ATOM      9  C   UNL     1     137.533 154.965 122.330  1.00  0.00     0.098 A 
ATOM     10  C   UNL     1     138.338 154.019 121.710  1.00  0.00     0.146 A 
ATOM     11  O   UNL     1     137.989 152.737 121.780  1.00  0.00    -0.456 OA
ENDROOT
BRANCH   1  12
ATOM     12  C   UNL     1     138.203 150.359 121.366  1.00  0.00     0.021 A 
ATOM     13  C   UNL     1     137.331 147.684 121.615  1.00  0.00     0.160 A 
ATOM     14  C   UNL     1     138.221 148.038 120.591  1.00  0.00     0.161 A 
ATOM     15  C   UNL     1     136.888 148.667 122.518  1.00  0.00     0.051 A 
ATOM     16  C   UNL     1     138.656 149.373 120.474  1.00  0.00     0.062 A 
ATOM     17  C   UNL     1     137.322 149.989 122.397  1.00  0.00     0.016 A 
BRANCH  13  18
ATOM     18  O   UNL     1     136.913 146.348 121.705  1.00  0.00    -0.493 OA
ATOM     19  C   UNL     1     137.095 145.521 122.850  1.00  0.00     0.278 C 
ENDBRANCH  13  18
BRANCH  14  20
ATOM     20  O   UNL     1     138.652 147.035 119.708  1.00  0.00    -0.493 OA
ATOM     21  C   UNL     1     139.617 146.037 120.026  1.00  0.00     0.278 C 
ENDBRANCH  14  20
ENDBRANCH   1  12
BRANCH   6  22
ATOM     22  O   UNL     1     141.025 156.134 120.254  1.00  0.00    -0.492 OA
ATOM     23  C   UNL     1     141.168 157.104 119.223  1.00  0.00     0.278 C 
ENDBRANCH   6  22
BRANCH   8  24
ATOM     24  O   UNL     1     137.028 157.274 122.920  1.00  0.00    -0.493 OA
ATOM     25  C   UNL     1     137.468 158.260 123.849  1.00  0.00     0.278 C 
ENDBRANCH   8  24
BRANCH   7  26
ATOM     26  O   UNL     1     139.391 158.111 121.513  1.00  0.00    -0.490 OA
ATOM     27  C   UNL     1     138.909 159.090 120.599  1.00  0.00     0.278 C 
ENDBRANCH   7  26
TORSDOF 6
ENDMDL
MODEL 8
REMARK VINA RESULT:    -2.853      1.961      3.217
REMARK INTER + INTRA:          -4.259
REMARK INTER:                  -4.038
REMARK INTRA:                  -0.221
REMARK UNBOUND:                -0.405
REMARK SMILES COc1ccc(-c2cc(=O)c3c(OC)c(OC)c(OC)cc3o2)cc1OC
REMARK SMILES IDX 7 1 8 2 9 3 10 4 11 5 12 6 15 7 18 8 21 9 22 10 23 11 6 12
REMARK SMILES IDX 3 13 25 14 4 15 24 16 5 17 2 18 1 19 26 20 27 21 13 22 14 23
REMARK SMILES IDX 19 24 20 25 16 26 17 27
REMARK H PARENT
REMARK Flexibility Score: inf
ROOT
ATOM      1  C   UNL     1     138.526 152.391 120.949  1.00  0.00     0.138 A 
ATOM      2  C   UNL     1     137.507 153.325 120.706  1.00  0.00     0.100 A 
ATOM      3  C   UNL     1     137.803 154.687 120.747  1.00  0.00     0.197 A 
ATOM      4  O   UNL     1     136.876 155.513 120.525  1.00  0.00    -0.289 OA
ATOM      5  C   UNL     1     139.123 155.113 121.028  1.00  0.00     0.111 A 
ATOM      6  C   UNL     1     139.502 156.479 121.088  1.00  0.00     0.179 A 
ATOM      7  C   UNL     1     140.856 156.823 121.371  1.00  0.00     0.204 A 
ATOM      8  C   UNL     1     141.810 155.793 121.587  1.00  0.00     0.168 A 
ATOM      9  C   UNL     1     141.407 154.451 121.522  1.00  0.00     0.098 A 
ATOM     10  C   UNL     1     140.089 154.110 121.248  1.00  0.00     0.146 A 
ATOM     11  O   UNL     1     139.758 152.823 121.200  1.00  0.00    -0.456 OA
ENDROOT
BRANCH   1  12
ATOM     12  C   UNL     1     138.273 150.928 120.917  1.00  0.00     0.021 A 
ATOM     13  C   UNL     1     137.852 148.136 120.847  1.00  0.00     0.160 A 
ATOM     14  C   UNL     1     138.937 148.698 120.159  1.00  0.00     0.161 A 
ATOM     15  C   UNL     1     136.987 148.971 121.576  1.00  0.00     0.051 A 
ATOM     16  C   UNL     1     139.145 150.091 120.201  1.00  0.00     0.062 A 
ATOM     17  C   UNL     1     137.198 150.351 121.614  1.00  0.00     0.016 A 
BRANCH  13  18
ATOM     18  O   UNL     1     137.669 146.746 120.784  1.00  0.00    -0.493 OA
ATOM     19  C   UNL     1     137.909 145.851 121.866  1.00  0.00     0.278 C 
ENDBRANCH  13  18
BRANCH  14  20
ATOM     20  O   UNL     1     139.789 147.840 119.444  1.00  0.00    -0.493 OA
ATOM     21  C   UNL     1     141.177 148.073 119.228  1.00  0.00     0.278 C 
ENDBRANCH  14  20
ENDBRANCH   1  12
BRANCH   6  22
ATOM     22  O   UNL     1     138.499 157.447 120.861  1.00  0.00    -0.492 OA
ATOM     23  C   UNL     1     138.497 158.486 119.888  1.00  0.00     0.278 C 
ENDBRANCH   6  22
BRANCH   8  24
ATOM     24  O   UNL     1     143.148 156.119 121.864  1.00  0.00    -0.493 OA
ATOM     25  C   UNL     1     143.597 156.864 122.993  1.00  0.00     0.278 C 
ENDBRANCH   8  24
BRANCH   7  26
ATOM     26  O   UNL     1     141.201 158.188 121.426  1.00  0.00    -0.490 OA
ATOM     27  C   UNL     1     141.833 158.964 120.415  1.00  0.00     0.278 C 
ENDBRANCH   7  26
TORSDOF 6
ENDMDL
