MODEL 1
REMARK VINA RESULT:    -5.339      0.000      0.000
REMARK INTER + INTRA:          -5.942
REMARK INTER:                  -5.807
REMARK INTRA:                  -0.135
REMARK UNBOUND:                -0.135
REMARK SMILES CC(=O)[C@H]1CC[C@H]2[C@H]3CC=C4C[C@@H](O)CC[C@@]4(C)[C@H]3CC[C@@]12C
REMARK SMILES IDX 4 1 5 2 6 3 7 4 22 5 21 6 20 7 19 8 8 9 9 10 10 11 11 12
REMARK SMILES IDX 17 13 16 14 15 15 13 16 12 17 18 18 23 19 2 20 1 21 3 22
REMARK SMILES IDX 14 23
REMARK H PARENT 14 24
REMARK Flexibility Score: inf
ROOT
ATOM      1  C   UNL     1      -2.043  28.608  51.854  1.00  0.00     0.062 C 
ATOM      2  C   UNL     1      -2.927  29.756  51.380  1.00  0.00     0.012 C 
ATOM      3  C   UNL     1      -2.321  30.986  52.027  1.00  0.00     0.005 C 
ATOM      4  C   UNL     1      -1.764  30.518  53.385  1.00  0.00    -0.001 C 
ATOM      5  C   UNL     1      -1.679  28.955  53.330  1.00  0.00    -0.020 C 
ATOM      6  C   UNL     1      -2.663  28.296  54.335  1.00  0.00     0.008 C 
ATOM      7  C   UNL     1      -2.552  28.833  55.775  1.00  0.00     0.005 C 
ATOM      8  C   UNL     1      -2.126  30.328  55.906  1.00  0.00     0.003 C 
ATOM      9  C   UNL     1      -2.502  31.118  54.631  1.00  0.00     0.000 C 
ATOM     10  C   UNL     1      -4.041  31.280  54.505  1.00  0.00     0.031 C 
ATOM     11  C   UNL     1      -4.771  31.422  55.823  1.00  0.00    -0.027 C 
ATOM     12  C   UNL     1      -4.209  31.237  57.039  1.00  0.00    -0.065 C 
ATOM     13  C   UNL     1      -2.702  31.029  57.195  1.00  0.00    -0.008 C 
ATOM     14  C   UNL     1      -2.383  30.173  58.469  1.00  0.00     0.014 C 
ATOM     15  C   UNL     1      -3.199  30.571  59.709  1.00  0.00     0.033 C 
ATOM     16  C   UNL     1      -4.706  30.548  59.414  1.00  0.00     0.118 C 
ATOM     17  C   UNL     1      -5.047  31.510  58.273  1.00  0.00     0.063 C 
ATOM     18  C   UNL     1      -2.043  32.424  57.382  1.00  0.00     0.016 C 
ATOM     19  C   UNL     1      -0.240  28.467  53.635  1.00  0.00     0.012 C 
ENDROOT
BRANCH   1  20
ATOM     20  C   UNL     1      -2.621  27.216  51.632  1.00  0.00     0.133 C 
ATOM     21  C   UNL     1      -1.763  25.985  51.551  1.00  0.00     0.088 C 
ATOM     22  O   UNL     1      -3.832  27.092  51.533  1.00  0.00    -0.300 OA
ENDBRANCH   1  20
BRANCH  16  23
ATOM     23  O   UNL     1      -5.125  29.250  59.076  1.00  0.00    -0.393 OA
ATOM     24  H   UNL     1      -6.114  29.236  59.167  1.00  0.00     0.210 HD
ENDBRANCH  16  23
TORSDOF 2
ENDMDL
MODEL 2
REMARK VINA RESULT:    -5.249      2.950      7.228
REMARK INTER + INTRA:          -5.844
REMARK INTER:                  -5.798
REMARK INTRA:                  -0.046
REMARK UNBOUND:                -0.135
REMARK SMILES CC(=O)[C@H]1CC[C@H]2[C@H]3CC=C4C[C@@H](O)CC[C@@]4(C)[C@H]3CC[C@@]12C
REMARK SMILES IDX 4 1 5 2 6 3 7 4 22 5 21 6 20 7 19 8 8 9 9 10 10 11 11 12
REMARK SMILES IDX 17 13 16 14 15 15 13 16 12 17 18 18 23 19 2 20 1 21 3 22
REMARK SMILES IDX 14 23
REMARK H PARENT 14 24
REMARK Flexibility Score: inf
ROOT
ATOM      1  C   UNL     1      -1.873  33.602  60.979  1.00  0.00     0.062 C 
ATOM      2  C   UNL     1      -3.349  33.985  61.011  1.00  0.00     0.012 C 
ATOM      3  C   UNL     1      -4.081  32.669  60.837  1.00  0.00     0.005 C 
ATOM      4  C   UNL     1      -3.190  31.808  59.922  1.00  0.00    -0.001 C 
ATOM      5  C   UNL     1      -1.769  32.467  59.915  1.00  0.00    -0.020 C 
ATOM      6  C   UNL     1      -1.407  33.026  58.512  1.00  0.00     0.008 C 
ATOM      7  C   UNL     1      -1.583  32.015  57.363  1.00  0.00     0.005 C 
ATOM      8  C   UNL     1      -2.719  30.963  57.558  1.00  0.00     0.003 C 
ATOM      9  C   UNL     1      -3.808  31.505  58.514  1.00  0.00     0.000 C 
ATOM     10  C   UNL     1      -4.611  32.657  57.853  1.00  0.00     0.031 C 
ATOM     11  C   UNL     1      -4.804  32.517  56.359  1.00  0.00    -0.027 C 
ATOM     12  C   UNL     1      -4.189  31.593  55.586  1.00  0.00    -0.065 C 
ATOM     13  C   UNL     1      -3.352  30.471  56.202  1.00  0.00    -0.008 C 
ATOM     14  C   UNL     1      -2.228  30.004  55.214  1.00  0.00     0.014 C 
ATOM     15  C   UNL     1      -2.699  29.851  53.758  1.00  0.00     0.033 C 
ATOM     16  C   UNL     1      -3.354  31.143  53.248  1.00  0.00     0.118 C 
ATOM     17  C   UNL     1      -4.558  31.517  54.117  1.00  0.00     0.063 C 
ATOM     18  C   UNL     1      -4.291  29.261  56.460  1.00  0.00     0.016 C 
ATOM     19  C   UNL     1      -0.684  31.449  60.351  1.00  0.00     0.012 C 
ENDROOT
BRANCH   1  20
ATOM     20  C   UNL     1      -0.910  34.766  60.792  1.00  0.00     0.133 C 
ATOM     21  C   UNL     1       0.444  34.812  61.444  1.00  0.00     0.088 C 
ATOM     22  O   UNL     1      -1.242  35.693  60.069  1.00  0.00    -0.300 OA
ENDBRANCH   1  20
BRANCH  16  23
ATOM     23  O   UNL     1      -2.429  32.201  53.246  1.00  0.00    -0.393 OA
ATOM     24  H   UNL     1      -1.721  31.964  53.902  1.00  0.00     0.210 HD
ENDBRANCH  16  23
TORSDOF 2
ENDMDL
MODEL 3
REMARK VINA RESULT:    -4.998      1.989      3.246
REMARK INTER + INTRA:          -5.571
REMARK INTER:                  -5.406
REMARK INTRA:                  -0.165
REMARK UNBOUND:                -0.135
REMARK SMILES CC(=O)[C@H]1CC[C@H]2[C@H]3CC=C4C[C@@H](O)CC[C@@]4(C)[C@H]3CC[C@@]12C
REMARK SMILES IDX 4 1 5 2 6 3 7 4 22 5 21 6 20 7 19 8 8 9 9 10 10 11 11 12
REMARK SMILES IDX 17 13 16 14 15 15 13 16 12 17 18 18 23 19 2 20 1 21 3 22
REMARK SMILES IDX 14 23
REMARK H PARENT 14 24
REMARK Flexibility Score: inf
ROOT
ATOM      1  C   UNL     1      -3.863  28.967  51.560  1.00  0.00     0.062 C 
ATOM      2  C   UNL     1      -3.781  27.605  52.241  1.00  0.00     0.012 C 
ATOM      3  C   UNL     1      -4.843  27.663  53.321  1.00  0.00     0.005 C 
ATOM      4  C   UNL     1      -4.882  29.128  53.797  1.00  0.00    -0.001 C 
ATOM      5  C   UNL     1      -4.148  29.982  52.709  1.00  0.00    -0.020 C 
ATOM      6  C   UNL     1      -2.837  30.606  53.262  1.00  0.00     0.008 C 
ATOM      7  C   UNL     1      -3.012  31.377  54.584  1.00  0.00     0.005 C 
ATOM      8  C   UNL     1      -4.132  30.845  55.532  1.00  0.00     0.003 C 
ATOM      9  C   UNL     1      -4.401  29.344  55.273  1.00  0.00     0.000 C 
ATOM     10  C   UNL     1      -3.205  28.471  55.741  1.00  0.00     0.031 C 
ATOM     11  C   UNL     1      -2.483  28.992  56.964  1.00  0.00    -0.027 C 
ATOM     12  C   UNL     1      -2.693  30.205  57.525  1.00  0.00    -0.065 C 
ATOM     13  C   UNL     1      -3.834  31.110  57.057  1.00  0.00    -0.008 C 
ATOM     14  C   UNL     1      -3.482  32.620  57.289  1.00  0.00     0.014 C 
ATOM     15  C   UNL     1      -2.831  32.908  58.651  1.00  0.00     0.033 C 
ATOM     16  C   UNL     1      -1.590  32.031  58.871  1.00  0.00     0.118 C 
ATOM     17  C   UNL     1      -1.959  30.546  58.807  1.00  0.00     0.063 C 
ATOM     18  C   UNL     1      -5.089  30.778  57.910  1.00  0.00     0.016 C 
ATOM     19  C   UNL     1      -5.065  31.115  52.181  1.00  0.00     0.012 C 
ENDROOT
BRANCH   1  20
ATOM     20  C   UNL     1      -2.683  29.309  50.660  1.00  0.00     0.133 C 
ATOM     21  C   UNL     1      -1.405  28.517  50.663  1.00  0.00     0.088 C 
ATOM     22  O   UNL     1      -2.784  30.254  49.893  1.00  0.00    -0.300 OA
ENDBRANCH   1  20
BRANCH  16  23
ATOM     23  O   UNL     1      -0.607  32.312  57.906  1.00  0.00    -0.393 OA
ATOM     24  H   UNL     1       0.149  31.692  58.079  1.00  0.00     0.210 HD
ENDBRANCH  16  23
TORSDOF 2
ENDMDL
MODEL 4
REMARK VINA RESULT:    -4.971      3.237      5.680
REMARK INTER + INTRA:          -5.542
REMARK INTER:                  -5.361
REMARK INTRA:                  -0.181
REMARK UNBOUND:                -0.135
REMARK SMILES CC(=O)[C@H]1CC[C@H]2[C@H]3CC=C4C[C@@H](O)CC[C@@]4(C)[C@H]3CC[C@@]12C
REMARK SMILES IDX 4 1 5 2 6 3 7 4 22 5 21 6 20 7 19 8 8 9 9 10 10 11 11 12
REMARK SMILES IDX 17 13 16 14 15 15 13 16 12 17 18 18 23 19 2 20 1 21 3 22
REMARK SMILES IDX 14 23
REMARK H PARENT 14 24
REMARK Flexibility Score: inf
ROOT
ATOM      1  C   UNL     1      -4.329  30.714  56.047  1.00  0.00     0.062 C 
ATOM      2  C   UNL     1      -4.341  29.437  56.879  1.00  0.00     0.012 C 
ATOM      3  C   UNL     1      -5.125  29.808  58.122  1.00  0.00     0.005 C 
ATOM      4  C   UNL     1      -4.811  31.292  58.393  1.00  0.00    -0.001 C 
ATOM      5  C   UNL     1      -4.186  31.873  57.079  1.00  0.00    -0.020 C 
ATOM      6  C   UNL     1      -2.701  32.280  57.286  1.00  0.00     0.008 C 
ATOM      7  C   UNL     1      -2.459  33.198  58.499  1.00  0.00     0.005 C 
ATOM      8  C   UNL     1      -3.428  32.992  59.705  1.00  0.00     0.003 C 
ATOM      9  C   UNL     1      -4.000  31.554  59.708  1.00  0.00     0.000 C 
ATOM     10  C   UNL     1      -2.901  30.515  60.057  1.00  0.00     0.031 C 
ATOM     11  C   UNL     1      -1.859  31.002  61.040  1.00  0.00    -0.027 C 
ATOM     12  C   UNL     1      -1.735  32.282  61.460  1.00  0.00    -0.065 C 
ATOM     13  C   UNL     1      -2.775  33.342  61.096  1.00  0.00    -0.008 C 
ATOM     14  C   UNL     1      -2.127  34.769  61.049  1.00  0.00     0.014 C 
ATOM     15  C   UNL     1      -1.165  35.057  62.212  1.00  0.00     0.033 C 
ATOM     16  C   UNL     1      -0.075  33.980  62.312  1.00  0.00     0.118 C 
ATOM     17  C   UNL     1      -0.700  32.598  62.522  1.00  0.00     0.063 C 
ATOM     18  C   UNL     1      -3.861  33.349  62.207  1.00  0.00     0.016 C 
ATOM     19  C   UNL     1      -4.985  33.106  56.584  1.00  0.00     0.012 C 
ENDROOT
BRANCH   1  20
ATOM     20  C   UNL     1      -3.323  30.727  54.903  1.00  0.00     0.133 C 
ATOM     21  C   UNL     1      -2.129  29.815  54.862  1.00  0.00     0.088 C 
ATOM     22  O   UNL     1      -3.502  31.498  53.972  1.00  0.00    -0.300 OA
ENDBRANCH   1  20
BRANCH  16  23
ATOM     23  O   UNL     1       0.716  33.966  61.150  1.00  0.00    -0.393 OA
ATOM     24  H   UNL     1       1.648  34.153  61.436  1.00  0.00     0.210 HD
ENDBRANCH  16  23
TORSDOF 2
ENDMDL
MODEL 5
REMARK VINA RESULT:    -4.967      2.047      3.420
REMARK INTER + INTRA:          -5.538
REMARK INTER:                  -6.077
REMARK INTRA:                   0.539
REMARK UNBOUND:                -0.135
REMARK SMILES CC(=O)[C@H]1CC[C@H]2[C@H]3CC=C4C[C@@H](O)CC[C@@]4(C)[C@H]3CC[C@@]12C
REMARK SMILES IDX 4 1 5 2 6 3 7 4 22 5 21 6 20 7 19 8 8 9 9 10 10 11 11 12
REMARK SMILES IDX 17 13 16 14 15 15 13 16 12 17 18 18 23 19 2 20 1 21 3 22
REMARK SMILES IDX 14 23
REMARK H PARENT 14 24
REMARK Flexibility Score: inf
ROOT
ATOM      1  C   UNL     1      -1.885  28.974  50.410  1.00  0.00     0.062 C 
ATOM      2  C   UNL     1      -1.753  27.570  50.991  1.00  0.00     0.012 C 
ATOM      3  C   UNL     1      -3.064  27.340  51.715  1.00  0.00     0.005 C 
ATOM      4  C   UNL     1      -3.494  28.716  52.258  1.00  0.00    -0.001 C 
ATOM      5  C   UNL     1      -2.653  29.793  51.493  1.00  0.00    -0.020 C 
ATOM      6  C   UNL     1      -1.680  30.539  52.447  1.00  0.00     0.008 C 
ATOM      7  C   UNL     1      -2.348  31.115  53.709  1.00  0.00     0.005 C 
ATOM      8  C   UNL     1      -3.573  30.312  54.250  1.00  0.00     0.003 C 
ATOM      9  C   UNL     1      -3.487  28.829  53.821  1.00  0.00     0.000 C 
ATOM     10  C   UNL     1      -2.331  28.098  54.557  1.00  0.00     0.031 C 
ATOM     11  C   UNL     1      -2.081  28.575  55.971  1.00  0.00    -0.027 C 
ATOM     12  C   UNL     1      -2.652  29.668  56.527  1.00  0.00    -0.065 C 
ATOM     13  C   UNL     1      -3.761  30.438  55.810  1.00  0.00    -0.008 C 
ATOM     14  C   UNL     1      -3.762  31.947  56.238  1.00  0.00     0.014 C 
ATOM     15  C   UNL     1      -3.576  32.168  57.747  1.00  0.00     0.033 C 
ATOM     16  C   UNL     1      -2.308  31.470  58.259  1.00  0.00     0.118 C 
ATOM     17  C   UNL     1      -2.374  29.965  57.989  1.00  0.00     0.063 C 
ATOM     18  C   UNL     1      -5.123  29.823  56.234  1.00  0.00     0.016 C 
ATOM     19  C   UNL     1      -3.575  30.828  50.799  1.00  0.00     0.012 C 
ENDROOT
BRANCH   1  20
ATOM     20  C   UNL     1      -0.582  29.594  49.922  1.00  0.00     0.133 C 
ATOM     21  C   UNL     1      -0.279  29.800  48.464  1.00  0.00     0.088 C 
ATOM     22  O   UNL     1       0.242  29.956  50.747  1.00  0.00    -0.300 OA
ENDBRANCH   1  20
BRANCH  16  23
ATOM     23  O   UNL     1      -1.164  32.008  57.646  1.00  0.00    -0.393 OA
ATOM     24  H   UNL     1      -0.792  32.682  58.273  1.00  0.00     0.210 HD
ENDBRANCH  16  23
TORSDOF 2
ENDMDL
MODEL 6
REMARK VINA RESULT:    -4.954      2.073      3.612
REMARK INTER + INTRA:          -5.524
REMARK INTER:                  -5.340
REMARK INTRA:                  -0.184
REMARK UNBOUND:                -0.135
REMARK SMILES CC(=O)[C@H]1CC[C@H]2[C@H]3CC=C4C[C@@H](O)CC[C@@]4(C)[C@H]3CC[C@@]12C
REMARK SMILES IDX 4 1 5 2 6 3 7 4 22 5 21 6 20 7 19 8 8 9 9 10 10 11 11 12
REMARK SMILES IDX 17 13 16 14 15 15 13 16 12 17 18 18 23 19 2 20 1 21 3 22
REMARK SMILES IDX 14 23
REMARK H PARENT 14 24
REMARK Flexibility Score: inf
ROOT
ATOM      1  C   UNL     1      -3.318  29.118  49.551  1.00  0.00     0.062 C 
ATOM      2  C   UNL     1      -1.823  29.342  49.747  1.00  0.00     0.012 C 
ATOM      3  C   UNL     1      -1.451  28.417  50.888  1.00  0.00     0.005 C 
ATOM      4  C   UNL     1      -2.684  28.369  51.811  1.00  0.00    -0.001 C 
ATOM      5  C   UNL     1      -3.894  28.927  50.988  1.00  0.00    -0.020 C 
ATOM      6  C   UNL     1      -4.416  30.265  51.579  1.00  0.00     0.008 C 
ATOM      7  C   UNL     1      -4.716  30.216  53.090  1.00  0.00     0.005 C 
ATOM      8  C   UNL     1      -3.824  29.244  53.923  1.00  0.00     0.003 C 
ATOM      9  C   UNL     1      -2.464  29.014  53.223  1.00  0.00     0.000 C 
ATOM     10  C   UNL     1      -1.589  30.296  53.264  1.00  0.00     0.031 C 
ATOM     11  C   UNL     1      -1.755  31.135  54.511  1.00  0.00    -0.027 C 
ATOM     12  C   UNL     1      -2.708  30.939  55.450  1.00  0.00    -0.065 C 
ATOM     13  C   UNL     1      -3.619  29.711  55.414  1.00  0.00    -0.008 C 
ATOM     14  C   UNL     1      -5.002  30.019  56.083  1.00  0.00     0.014 C 
ATOM     15  C   UNL     1      -4.900  30.816  57.394  1.00  0.00     0.033 C 
ATOM     16  C   UNL     1      -4.102  32.112  57.195  1.00  0.00     0.118 C 
ATOM     17  C   UNL     1      -2.688  31.806  56.694  1.00  0.00     0.063 C 
ATOM     18  C   UNL     1      -2.934  28.583  56.236  1.00  0.00     0.016 C 
ATOM     19  C   UNL     1      -5.056  27.902  50.946  1.00  0.00     0.012 C 
ENDROOT
BRANCH   1  20
ATOM     20  C   UNL     1      -4.021  30.165  48.697  1.00  0.00     0.133 C 
ATOM     21  C   UNL     1      -3.423  31.514  48.414  1.00  0.00     0.088 C 
ATOM     22  O   UNL     1      -5.105  29.891  48.207  1.00  0.00    -0.300 OA
ENDBRANCH   1  20
BRANCH  16  23
ATOM     23  O   UNL     1      -4.752  32.958  56.279  1.00  0.00    -0.393 OA
ATOM     24  H   UNL     1      -5.266  33.619  56.814  1.00  0.00     0.210 HD
ENDBRANCH  16  23
TORSDOF 2
ENDMDL
MODEL 7
REMARK VINA RESULT:    -4.920      3.298      7.901
REMARK INTER + INTRA:          -5.487
REMARK INTER:                  -5.323
REMARK INTRA:                  -0.164
REMARK UNBOUND:                -0.135
REMARK SMILES CC(=O)[C@H]1CC[C@H]2[C@H]3CC=C4C[C@@H](O)CC[C@@]4(C)[C@H]3CC[C@@]12C
REMARK SMILES IDX 4 1 5 2 6 3 7 4 22 5 21 6 20 7 19 8 8 9 9 10 10 11 11 12
REMARK SMILES IDX 17 13 16 14 15 15 13 16 12 17 18 18 23 19 2 20 1 21 3 22
REMARK SMILES IDX 14 23
REMARK H PARENT 14 24
REMARK Flexibility Score: inf
ROOT
ATOM      1  C   UNL     1      -1.923  34.404  62.276  1.00  0.00     0.062 C 
ATOM      2  C   UNL     1      -0.993  35.120  61.303  1.00  0.00     0.012 C 
ATOM      3  C   UNL     1      -1.910  35.608  60.199  1.00  0.00     0.005 C 
ATOM      4  C   UNL     1      -3.023  34.550  60.077  1.00  0.00    -0.001 C 
ATOM      5  C   UNL     1      -2.975  33.682  61.379  1.00  0.00    -0.020 C 
ATOM      6  C   UNL     1      -2.560  32.217  61.073  1.00  0.00     0.008 C 
ATOM      7  C   UNL     1      -3.385  31.545  59.959  1.00  0.00     0.005 C 
ATOM      8  C   UNL     1      -3.912  32.499  58.842  1.00  0.00     0.003 C 
ATOM      9  C   UNL     1      -3.017  33.754  58.726  1.00  0.00     0.000 C 
ATOM     10  C   UNL     1      -1.622  33.396  58.147  1.00  0.00     0.031 C 
ATOM     11  C   UNL     1      -1.628  32.278  57.128  1.00  0.00    -0.027 C 
ATOM     12  C   UNL     1      -2.695  31.493  56.853  1.00  0.00    -0.065 C 
ATOM     13  C   UNL     1      -4.074  31.790  57.443  1.00  0.00    -0.008 C 
ATOM     14  C   UNL     1      -4.915  30.475  57.593  1.00  0.00     0.014 C 
ATOM     15  C   UNL     1      -4.825  29.535  56.381  1.00  0.00     0.033 C 
ATOM     16  C   UNL     1      -3.366  29.199  56.044  1.00  0.00     0.118 C 
ATOM     17  C   UNL     1      -2.576  30.474  55.736  1.00  0.00     0.063 C 
ATOM     18  C   UNL     1      -4.827  32.725  56.457  1.00  0.00     0.016 C 
ATOM     19  C   UNL     1      -4.349  33.680  62.096  1.00  0.00     0.012 C 
ENDROOT
BRANCH   1  20
ATOM     20  C   UNL     1      -1.225  33.524  63.305  1.00  0.00     0.133 C 
ATOM     21  C   UNL     1       0.127  32.913  63.066  1.00  0.00     0.088 C 
ATOM     22  O   UNL     1      -1.778  33.321  64.376  1.00  0.00    -0.300 OA
ENDBRANCH   1  20
BRANCH  16  23
ATOM     23  O   UNL     1      -2.756  28.515  57.110  1.00  0.00    -0.393 OA
ATOM     24  H   UNL     1      -2.165  27.825  56.707  1.00  0.00     0.210 HD
ENDBRANCH  16  23
TORSDOF 2
ENDMDL
MODEL 8
REMARK VINA RESULT:    -4.877      3.982      8.735
REMARK INTER + INTRA:          -5.440
REMARK INTER:                  -5.303
REMARK INTRA:                  -0.137
REMARK UNBOUND:                -0.135
REMARK SMILES CC(=O)[C@H]1CC[C@H]2[C@H]3CC=C4C[C@@H](O)CC[C@@]4(C)[C@H]3CC[C@@]12C
REMARK SMILES IDX 4 1 5 2 6 3 7 4 22 5 21 6 20 7 19 8 8 9 9 10 10 11 11 12
REMARK SMILES IDX 17 13 16 14 15 15 13 16 12 17 18 18 23 19 2 20 1 21 3 22
REMARK SMILES IDX 14 23
REMARK H PARENT 14 24
REMARK Flexibility Score: inf
ROOT
ATOM      1  C   UNL     1      -1.322  34.674  63.319  1.00  0.00     0.062 C 
ATOM      2  C   UNL     1      -0.112  33.746  63.326  1.00  0.00     0.012 C 
ATOM      3  C   UNL     1       0.478  33.890  61.937  1.00  0.00     0.005 C 
ATOM      4  C   UNL     1      -0.716  34.130  60.993  1.00  0.00    -0.001 C 
ATOM      5  C   UNL     1      -1.933  34.538  61.890  1.00  0.00    -0.020 C 
ATOM      6  C   UNL     1      -3.057  33.466  61.847  1.00  0.00     0.008 C 
ATOM      7  C   UNL     1      -3.494  33.064  60.425  1.00  0.00     0.005 C 
ATOM      8  C   UNL     1      -2.380  33.129  59.334  1.00  0.00     0.003 C 
ATOM      9  C   UNL     1      -0.980  32.971  59.971  1.00  0.00     0.000 C 
ATOM     10  C   UNL     1      -0.764  31.527  60.500  1.00  0.00     0.031 C 
ATOM     11  C   UNL     1      -1.436  30.447  59.681  1.00  0.00    -0.027 C 
ATOM     12  C   UNL     1      -2.318  30.676  58.681  1.00  0.00    -0.065 C 
ATOM     13  C   UNL     1      -2.589  32.090  58.167  1.00  0.00    -0.008 C 
ATOM     14  C   UNL     1      -4.041  32.208  57.588  1.00  0.00     0.014 C 
ATOM     15  C   UNL     1      -4.462  31.018  56.711  1.00  0.00     0.033 C 
ATOM     16  C   UNL     1      -4.293  29.688  57.460  1.00  0.00     0.118 C 
ATOM     17  C   UNL     1      -2.836  29.491  57.888  1.00  0.00     0.063 C 
ATOM     18  C   UNL     1      -1.591  32.379  57.012  1.00  0.00     0.016 C 
ATOM     19  C   UNL     1      -2.517  35.903  61.446  1.00  0.00     0.012 C 
ENDROOT
BRANCH   1  20
ATOM     20  C   UNL     1      -2.297  34.471  64.471  1.00  0.00     0.133 C 
ATOM     21  C   UNL     1      -3.322  35.500  64.857  1.00  0.00     0.088 C 
ATOM     22  O   UNL     1      -2.257  33.422  65.096  1.00  0.00    -0.300 OA
ENDBRANCH   1  20
BRANCH  16  23
ATOM     23  O   UNL     1      -5.124  29.647  58.592  1.00  0.00    -0.393 OA
ATOM     24  H   UNL     1      -6.043  29.861  58.280  1.00  0.00     0.210 HD
ENDBRANCH  16  23
TORSDOF 2
ENDMDL
MODEL 9
REMARK VINA RESULT:    -4.641      1.595      6.370
REMARK INTER + INTRA:          -5.183
REMARK INTER:                  -5.000
REMARK INTRA:                  -0.183
REMARK UNBOUND:                -0.135
REMARK SMILES CC(=O)[C@H]1CC[C@H]2[C@H]3CC=C4C[C@@H](O)CC[C@@]4(C)[C@H]3CC[C@@]12C
REMARK SMILES IDX 4 1 5 2 6 3 7 4 22 5 21 6 20 7 19 8 8 9 9 10 10 11 11 12
REMARK SMILES IDX 17 13 16 14 15 15 13 16 12 17 18 18 23 19 2 20 1 21 3 22
REMARK SMILES IDX 14 23
REMARK H PARENT 14 24
REMARK Flexibility Score: inf
ROOT
ATOM      1  C   UNL     1      -3.088  31.615  59.255  1.00  0.00     0.062 C 
ATOM      2  C   UNL     1      -2.531  32.821  58.507  1.00  0.00     0.012 C 
ATOM      3  C   UNL     1      -3.515  33.049  57.377  1.00  0.00     0.005 C 
ATOM      4  C   UNL     1      -4.031  31.654  56.979  1.00  0.00    -0.001 C 
ATOM      5  C   UNL     1      -3.663  30.679  58.148  1.00  0.00    -0.020 C 
ATOM      6  C   UNL     1      -2.623  29.616  57.697  1.00  0.00     0.008 C 
ATOM      7  C   UNL     1      -3.006  28.860  56.411  1.00  0.00     0.005 C 
ATOM      8  C   UNL     1      -3.851  29.671  55.379  1.00  0.00     0.003 C 
ATOM      9  C   UNL     1      -3.606  31.189  55.544  1.00  0.00     0.000 C 
ATOM     10  C   UNL     1      -2.172  31.578  55.093  1.00  0.00     0.031 C 
ATOM     11  C   UNL     1      -1.629  30.764  53.939  1.00  0.00    -0.027 C 
ATOM     12  C   UNL     1      -2.219  29.657  53.433  1.00  0.00    -0.065 C 
ATOM     13  C   UNL     1      -3.612  29.220  53.888  1.00  0.00    -0.008 C 
ATOM     14  C   UNL     1      -3.783  27.667  53.755  1.00  0.00     0.014 C 
ATOM     15  C   UNL     1      -3.225  27.086  52.446  1.00  0.00     0.033 C 
ATOM     16  C   UNL     1      -1.755  27.480  52.245  1.00  0.00     0.118 C 
ATOM     17  C   UNL     1      -1.603  29.003  52.210  1.00  0.00     0.063 C 
ATOM     18  C   UNL     1      -4.655  29.894  52.954  1.00  0.00     0.016 C 
ATOM     19  C   UNL     1      -4.925  29.957  58.687  1.00  0.00     0.012 C 
ENDROOT
BRANCH   1  20
ATOM     20  C   UNL     1      -2.121  30.959  60.231  1.00  0.00     0.133 C 
ATOM     21  C   UNL     1      -0.633  31.161  60.158  1.00  0.00     0.088 C 
ATOM     22  O   UNL     1      -2.573  30.255  61.121  1.00  0.00    -0.300 OA
ENDBRANCH   1  20
BRANCH  16  23
ATOM     23  O   UNL     1      -0.955  26.952  53.274  1.00  0.00    -0.393 OA
ATOM     24  H   UNL     1      -0.034  26.878  52.910  1.00  0.00     0.210 HD
ENDBRANCH  16  23
TORSDOF 2
ENDMDL
