MODEL 1
REMARK VINA RESULT:    -5.625      0.000      0.000
REMARK INTER + INTRA:         -11.716
REMARK INTER:                 -10.229
REMARK INTRA:                  -1.487
REMARK UNBOUND:                -1.487
REMARK SMILES CCCCCCCCCCCCCCCC(=O)[O-]
REMARK SMILES IDX 9 1 10 2 11 3 12 4 13 5 14 6 15 7 16 8 17 9 18 10 8 11 7 12
REMARK SMILES IDX 6 13 5 14 4 15 3 16 2 17 1 18
REMARK H PARENT
REMARK Flexibility Score: inf
ROOT
ATOM      1  C   UNL     1      60.830 151.830   2.396  1.00  0.00     0.000 C 
ENDROOT
BRANCH   1   2
ATOM      2  C   UNL     1      61.760 151.688   3.615  1.00  0.00     0.000 C 
BRANCH   2   3
ATOM      3  C   UNL     1      63.264 151.631   3.279  1.00  0.00     0.000 C 
BRANCH   3   4
ATOM      4  C   UNL     1      64.209 151.892   4.468  1.00  0.00     0.000 C 
BRANCH   4   5
ATOM      5  C   UNL     1      65.109 150.702   4.859  1.00  0.00     0.000 C 
BRANCH   5   6
ATOM      6  C   UNL     1      64.403 149.334   4.880  1.00  0.00     0.006 C 
BRANCH   6   7
ATOM      7  C   UNL     1      63.418 149.189   6.046  1.00  0.00     0.053 C 
BRANCH   7   8
ATOM      8  C   UNL     1      62.238 148.365   5.634  1.00  0.00     0.041 C 
ATOM      9  O   UNL     1      61.071 148.821   5.765  1.00  0.00    -0.550 OA
ATOM     10  O   UNL     1      62.429 147.116   5.058  1.00  0.00    -0.550 OA
ENDBRANCH   7   8
ENDBRANCH   6   7
ENDBRANCH   5   6
ENDBRANCH   4   5
ENDBRANCH   3   4
ENDBRANCH   2   3
ENDBRANCH   1   2
BRANCH   1  11
ATOM     11  C   UNL     1      61.214 153.010   1.488  1.00  0.00     0.000 C 
BRANCH  11  12
ATOM     12  C   UNL     1      59.988 153.728   0.904  1.00  0.00    -0.000 C 
BRANCH  12  13
ATOM     13  C   UNL     1      58.766 153.661   1.838  1.00  0.00    -0.000 C 
BRANCH  13  14
ATOM     14  C   UNL     1      58.093 155.029   2.030  1.00  0.00    -0.000 C 
BRANCH  14  15
ATOM     15  C   UNL     1      58.063 155.471   3.502  1.00  0.00    -0.000 C 
BRANCH  15  16
ATOM     16  C   UNL     1      58.936 154.553   4.366  1.00  0.00    -0.000 C 
BRANCH  16  17
ATOM     17  C   UNL     1      58.141 154.001   5.556  1.00  0.00    -0.003 C 
ATOM     18  C   UNL     1      58.265 152.482   5.644  1.00  0.00     0.004 C 
ENDBRANCH  16  17
ENDBRANCH  15  16
ENDBRANCH  14  15
ENDBRANCH  13  14
ENDBRANCH  12  13
ENDBRANCH  11  12
ENDBRANCH   1  11
TORSDOF 14
ENDMDL
MODEL 2
REMARK VINA RESULT:    -5.504      0.907      2.802
REMARK INTER + INTRA:         -11.496
REMARK INTER:                  -9.731
REMARK INTRA:                  -1.765
REMARK UNBOUND:                -1.487
REMARK SMILES CCCCCCCCCCCCCCCC(=O)[O-]
REMARK SMILES IDX 9 1 10 2 11 3 12 4 13 5 14 6 15 7 16 8 17 9 18 10 8 11 7 12
REMARK SMILES IDX 6 13 5 14 4 15 3 16 2 17 1 18
REMARK H PARENT
REMARK Flexibility Score: inf
ROOT
ATOM      1  C   UNL     1      61.361 151.749   3.554  1.00  0.00     0.000 C 
ENDROOT
BRANCH   1   2
ATOM      2  C   UNL     1      62.767 151.549   2.960  1.00  0.00     0.000 C 
BRANCH   2   3
ATOM      3  C   UNL     1      63.923 152.046   3.851  1.00  0.00     0.000 C 
BRANCH   3   4
ATOM      4  C   UNL     1      64.984 150.984   4.197  1.00  0.00     0.000 C 
BRANCH   4   5
ATOM      5  C   UNL     1      65.003 150.537   5.673  1.00  0.00     0.000 C 
BRANCH   5   6
ATOM      6  C   UNL     1      63.807 149.668   6.103  1.00  0.00     0.006 C 
BRANCH   6   7
ATOM      7  C   UNL     1      63.556 148.490   5.155  1.00  0.00     0.053 C 
BRANCH   7   8
ATOM      8  C   UNL     1      62.203 147.899   5.403  1.00  0.00     0.041 C 
ATOM      9  O   UNL     1      62.051 146.649   5.421  1.00  0.00    -0.550 OA
ATOM     10  O   UNL     1      61.120 148.727   5.664  1.00  0.00    -0.550 OA
ENDBRANCH   7   8
ENDBRANCH   6   7
ENDBRANCH   5   6
ENDBRANCH   4   5
ENDBRANCH   3   4
ENDBRANCH   2   3
ENDBRANCH   1   2
BRANCH   1  11
ATOM     11  C   UNL     1      61.392 152.127   5.045  1.00  0.00     0.000 C 
BRANCH  11  12
ATOM     12  C   UNL     1      60.003 152.497   5.588  1.00  0.00    -0.000 C 
BRANCH  12  13
ATOM     13  C   UNL     1      59.007 152.846   4.468  1.00  0.00    -0.000 C 
BRANCH  13  14
ATOM     14  C   UNL     1      58.831 154.362   4.284  1.00  0.00    -0.000 C 
BRANCH  14  15
ATOM     15  C   UNL     1      58.473 154.744   2.840  1.00  0.00    -0.000 C 
BRANCH  15  16
ATOM     16  C   UNL     1      58.836 153.614   1.869  1.00  0.00    -0.000 C 
BRANCH  16  17
ATOM     17  C   UNL     1      59.441 154.173   0.576  1.00  0.00    -0.003 C 
ATOM     18  C   UNL     1      60.927 153.840   0.474  1.00  0.00     0.004 C 
ENDBRANCH  16  17
ENDBRANCH  15  16
ENDBRANCH  14  15
ENDBRANCH  13  14
ENDBRANCH  12  13
ENDBRANCH  11  12
ENDBRANCH   1  11
TORSDOF 14
ENDMDL
MODEL 3
REMARK VINA RESULT:    -5.455      2.574      6.552
REMARK INTER + INTRA:         -11.407
REMARK INTER:                  -9.972
REMARK INTRA:                  -1.434
REMARK UNBOUND:                -1.487
REMARK SMILES CCCCCCCCCCCCCCCC(=O)[O-]
REMARK SMILES IDX 9 1 10 2 11 3 12 4 13 5 14 6 15 7 16 8 17 9 18 10 8 11 7 12
REMARK SMILES IDX 6 13 5 14 4 15 3 16 2 17 1 18
REMARK H PARENT
REMARK Flexibility Score: inf
ROOT
ATOM      1  C   UNL     1      62.044 151.928   3.370  1.00  0.00     0.000 C 
ENDROOT
BRANCH   1   2
ATOM      2  C   UNL     1      61.273 151.847   2.041  1.00  0.00     0.000 C 
BRANCH   2   3
ATOM      3  C   UNL     1      61.196 153.171   1.255  1.00  0.00     0.000 C 
BRANCH   3   4
ATOM      4  C   UNL     1      59.777 153.747   1.081  1.00  0.00     0.000 C 
BRANCH   4   5
ATOM      5  C   UNL     1      58.795 153.417   2.223  1.00  0.00     0.000 C 
BRANCH   5   6
ATOM      6  C   UNL     1      58.662 154.509   3.300  1.00  0.00     0.006 C 
BRANCH   6   7
ATOM      7  C   UNL     1      58.969 153.996   4.712  1.00  0.00     0.053 C 
BRANCH   7   8
ATOM      8  C   UNL     1      59.378 155.127   5.602  1.00  0.00     0.041 C 
ATOM      9  O   UNL     1      58.684 156.177   5.649  1.00  0.00    -0.550 OA
ATOM     10  O   UNL     1      60.496 155.003   6.416  1.00  0.00    -0.550 OA
ENDBRANCH   7   8
ENDBRANCH   6   7
ENDBRANCH   5   6
ENDBRANCH   4   5
ENDBRANCH   3   4
ENDBRANCH   2   3
ENDBRANCH   1   2
BRANCH   1  11
ATOM     11  C   UNL     1      63.516 151.500   3.233  1.00  0.00     0.000 C 
BRANCH  11  12
ATOM     12  C   UNL     1      64.432 152.208   4.242  1.00  0.00    -0.000 C 
BRANCH  12  13
ATOM     13  C   UNL     1      64.972 151.251   5.320  1.00  0.00    -0.000 C 
BRANCH  13  14
ATOM     14  C   UNL     1      65.003 149.788   4.849  1.00  0.00    -0.000 C 
BRANCH  14  15
ATOM     15  C   UNL     1      64.214 148.852   5.778  1.00  0.00    -0.000 C 
BRANCH  15  16
ATOM     16  C   UNL     1      62.979 149.560   6.347  1.00  0.00    -0.000 C 
BRANCH  16  17
ATOM     17  C   UNL     1      61.698 149.059   5.670  1.00  0.00    -0.003 C 
ATOM     18  C   UNL     1      60.932 148.101   6.577  1.00  0.00     0.004 C 
ENDBRANCH  16  17
ENDBRANCH  15  16
ENDBRANCH  14  15
ENDBRANCH  13  14
ENDBRANCH  12  13
ENDBRANCH  11  12
ENDBRANCH   1  11
TORSDOF 14
ENDMDL
MODEL 4
REMARK VINA RESULT:    -5.432      2.664      6.663
REMARK INTER + INTRA:         -11.365
REMARK INTER:                  -9.443
REMARK INTRA:                  -1.922
REMARK UNBOUND:                -1.487
REMARK SMILES CCCCCCCCCCCCCCCC(=O)[O-]
REMARK SMILES IDX 9 1 10 2 11 3 12 4 13 5 14 6 15 7 16 8 17 9 18 10 8 11 7 12
REMARK SMILES IDX 6 13 5 14 4 15 3 16 2 17 1 18
REMARK H PARENT
REMARK Flexibility Score: inf
ROOT
ATOM      1  C   UNL     1      61.660 152.004   5.268  1.00  0.00     0.000 C 
ENDROOT
BRANCH   1   2
ATOM      2  C   UNL     1      60.359 151.528   5.940  1.00  0.00     0.000 C 
BRANCH   2   3
ATOM      3  C   UNL     1      59.494 152.652   6.545  1.00  0.00     0.000 C 
BRANCH   3   4
ATOM      4  C   UNL     1      58.464 153.274   5.581  1.00  0.00     0.000 C 
BRANCH   4   5
ATOM      5  C   UNL     1      58.976 154.479   4.768  1.00  0.00     0.000 C 
BRANCH   5   6
ATOM      6  C   UNL     1      58.577 154.475   3.281  1.00  0.00     0.006 C 
BRANCH   6   7
ATOM      7  C   UNL     1      59.179 153.297   2.505  1.00  0.00     0.053 C 
BRANCH   7   8
ATOM      8  C   UNL     1      59.731 153.763   1.194  1.00  0.00     0.041 C 
ATOM      9  O   UNL     1      59.011 154.432   0.406  1.00  0.00    -0.550 OA
ATOM     10  O   UNL     1      61.054 153.502   0.863  1.00  0.00    -0.550 OA
ENDBRANCH   7   8
ENDBRANCH   6   7
ENDBRANCH   5   6
ENDBRANCH   4   5
ENDBRANCH   3   4
ENDBRANCH   2   3
ENDBRANCH   1   2
BRANCH   1  11
ATOM     11  C   UNL     1      61.833 151.447   3.844  1.00  0.00     0.000 C 
BRANCH  11  12
ATOM     12  C   UNL     1      63.193 151.812   3.230  1.00  0.00    -0.000 C 
BRANCH  12  13
ATOM     13  C   UNL     1      64.366 151.520   4.181  1.00  0.00    -0.000 C 
BRANCH  13  14
ATOM     14  C   UNL     1      64.904 150.088   4.034  1.00  0.00    -0.000 C 
BRANCH  14  15
ATOM     15  C   UNL     1      65.118 149.395   5.389  1.00  0.00    -0.000 C 
BRANCH  15  16
ATOM     16  C   UNL     1      63.778 149.123   6.082  1.00  0.00    -0.000 C 
BRANCH  16  17
ATOM     17  C   UNL     1      62.979 148.051   5.332  1.00  0.00    -0.003 C 
ATOM     18  C   UNL     1      61.502 148.096   5.713  1.00  0.00     0.004 C 
ENDBRANCH  16  17
ENDBRANCH  15  16
ENDBRANCH  14  15
ENDBRANCH  13  14
ENDBRANCH  12  13
ENDBRANCH  11  12
ENDBRANCH   1  11
TORSDOF 14
ENDMDL
MODEL 5
REMARK VINA RESULT:    -5.387      1.897      3.745
REMARK INTER + INTRA:         -11.283
REMARK INTER:                  -9.454
REMARK INTRA:                  -1.828
REMARK UNBOUND:                -1.487
REMARK SMILES CCCCCCCCCCCCCCCC(=O)[O-]
REMARK SMILES IDX 9 1 10 2 11 3 12 4 13 5 14 6 15 7 16 8 17 9 18 10 8 11 7 12
REMARK SMILES IDX 6 13 5 14 4 15 3 16 2 17 1 18
REMARK H PARENT
REMARK Flexibility Score: inf
ROOT
ATOM      1  C   UNL     1      64.837 151.595   4.249  1.00  0.00     0.000 C 
ENDROOT
BRANCH   1   2
ATOM      2  C   UNL     1      64.987 150.080   4.021  1.00  0.00     0.000 C 
BRANCH   2   3
ATOM      3  C   UNL     1      65.208 149.251   5.302  1.00  0.00     0.000 C 
BRANCH   3   4
ATOM      4  C   UNL     1      63.934 148.954   6.115  1.00  0.00     0.000 C 
BRANCH   4   5
ATOM      5  C   UNL     1      62.839 148.182   5.353  1.00  0.00     0.000 C 
BRANCH   5   6
ATOM      6  C   UNL     1      61.422 148.771   5.478  1.00  0.00     0.006 C 
BRANCH   6   7
ATOM      7  C   UNL     1      60.943 148.868   6.932  1.00  0.00     0.053 C 
BRANCH   7   8
ATOM      8  C   UNL     1      60.599 150.284   7.275  1.00  0.00     0.041 C 
ATOM      9  O   UNL     1      59.406 150.602   7.525  1.00  0.00    -0.550 OA
ATOM     10  O   UNL     1      61.600 151.241   7.367  1.00  0.00    -0.550 OA
ENDBRANCH   7   8
ENDBRANCH   6   7
ENDBRANCH   5   6
ENDBRANCH   4   5
ENDBRANCH   3   4
ENDBRANCH   2   3
ENDBRANCH   1   2
BRANCH   1  11
ATOM     11  C   UNL     1      63.368 152.054   4.253  1.00  0.00     0.000 C 
BRANCH  11  12
ATOM     12  C   UNL     1      62.683 151.849   2.894  1.00  0.00    -0.000 C 
BRANCH  12  13
ATOM     13  C   UNL     1      61.185 151.524   3.033  1.00  0.00    -0.000 C 
BRANCH  13  14
ATOM     14  C   UNL     1      60.504 152.339   4.144  1.00  0.00    -0.000 C 
BRANCH  14  15
ATOM     15  C   UNL     1      59.493 153.357   3.595  1.00  0.00    -0.000 C 
BRANCH  15  16
ATOM     16  C   UNL     1      58.978 152.927   2.215  1.00  0.00    -0.000 C 
BRANCH  16  17
ATOM     17  C   UNL     1      59.120 154.065   1.197  1.00  0.00    -0.003 C 
ATOM     18  C   UNL     1      60.417 153.935   0.403  1.00  0.00     0.004 C 
ENDBRANCH  16  17
ENDBRANCH  15  16
ENDBRANCH  14  15
ENDBRANCH  13  14
ENDBRANCH  12  13
ENDBRANCH  11  12
ENDBRANCH   1  11
TORSDOF 14
ENDMDL
MODEL 6
REMARK VINA RESULT:    -5.372      2.241      4.787
REMARK INTER + INTRA:         -11.255
REMARK INTER:                  -9.314
REMARK INTRA:                  -1.942
REMARK UNBOUND:                -1.487
REMARK SMILES CCCCCCCCCCCCCCCC(=O)[O-]
REMARK SMILES IDX 9 1 10 2 11 3 12 4 13 5 14 6 15 7 16 8 17 9 18 10 8 11 7 12
REMARK SMILES IDX 6 13 5 14 4 15 3 16 2 17 1 18
REMARK H PARENT
REMARK Flexibility Score: inf
ROOT
ATOM      1  C   UNL     1      65.006 149.887   4.331  1.00  0.00     0.000 C 
ENDROOT
BRANCH   1   2
ATOM      2  C   UNL     1      64.510 149.103   5.560  1.00  0.00     0.000 C 
BRANCH   2   3
ATOM      3  C   UNL     1      63.118 148.461   5.399  1.00  0.00     0.000 C 
BRANCH   3   4
ATOM      4  C   UNL     1      61.955 149.259   6.021  1.00  0.00     0.000 C 
BRANCH   4   5
ATOM      5  C   UNL     1      62.372 150.313   7.065  1.00  0.00     0.000 C 
BRANCH   5   6
ATOM      6  C   UNL     1      61.285 151.344   7.417  1.00  0.00     0.006 C 
BRANCH   6   7
ATOM      7  C   UNL     1      61.563 152.730   6.823  1.00  0.00     0.053 C 
BRANCH   7   8
ATOM      8  C   UNL     1      60.311 153.309   6.239  1.00  0.00     0.041 C 
ATOM      9  O   UNL     1      60.198 154.555   6.095  1.00  0.00    -0.550 OA
ATOM     10  O   UNL     1      59.293 152.470   5.808  1.00  0.00    -0.550 OA
ENDBRANCH   7   8
ENDBRANCH   6   7
ENDBRANCH   5   6
ENDBRANCH   4   5
ENDBRANCH   3   4
ENDBRANCH   2   3
ENDBRANCH   1   2
BRANCH   1  11
ATOM     11  C   UNL     1      65.169 151.391   4.609  1.00  0.00     0.000 C 
BRANCH  11  12
ATOM     12  C   UNL     1      63.938 152.206   4.183  1.00  0.00    -0.000 C 
BRANCH  12  13
ATOM     13  C   UNL     1      63.126 151.510   3.076  1.00  0.00    -0.000 C 
BRANCH  13  14
ATOM     14  C   UNL     1      61.613 151.747   3.216  1.00  0.00    -0.000 C 
BRANCH  14  15
ATOM     15  C   UNL     1      61.011 152.449   1.990  1.00  0.00    -0.000 C 
BRANCH  15  16
ATOM     16  C   UNL     1      59.557 152.860   2.253  1.00  0.00    -0.000 C 
BRANCH  16  17
ATOM     17  C   UNL     1      59.111 153.957   1.279  1.00  0.00    -0.003 C 
ATOM     18  C   UNL     1      60.104 154.112   0.131  1.00  0.00     0.004 C 
ENDBRANCH  16  17
ENDBRANCH  15  16
ENDBRANCH  14  15
ENDBRANCH  13  14
ENDBRANCH  12  13
ENDBRANCH  11  12
ENDBRANCH   1  11
TORSDOF 14
ENDMDL
MODEL 7
REMARK VINA RESULT:    -5.281      1.173      2.367
REMARK INTER + INTRA:         -11.090
REMARK INTER:                  -9.610
REMARK INTRA:                  -1.480
REMARK UNBOUND:                -1.487
REMARK SMILES CCCCCCCCCCCCCCCC(=O)[O-]
REMARK SMILES IDX 9 1 10 2 11 3 12 4 13 5 14 6 15 7 16 8 17 9 18 10 8 11 7 12
REMARK SMILES IDX 6 13 5 14 4 15 3 16 2 17 1 18
REMARK H PARENT
REMARK Flexibility Score: inf
ROOT
ATOM      1  C   UNL     1      63.280 151.507   3.130  1.00  0.00     0.000 C 
ENDROOT
BRANCH   1   2
ATOM      2  C   UNL     1      64.333 152.207   4.009  1.00  0.00     0.000 C 
BRANCH   2   3
ATOM      3  C   UNL     1      65.061 151.284   5.007  1.00  0.00     0.000 C 
BRANCH   3   4
ATOM      4  C   UNL     1      64.705 149.789   4.893  1.00  0.00     0.000 C 
BRANCH   4   5
ATOM      5  C   UNL     1      63.917 149.214   6.087  1.00  0.00     0.000 C 
BRANCH   5   6
ATOM      6  C   UNL     1      62.812 150.133   6.639  1.00  0.00     0.006 C 
BRANCH   6   7
ATOM      7  C   UNL     1      61.854 149.407   7.592  1.00  0.00     0.053 C 
BRANCH   7   8
ATOM      8  C   UNL     1      60.473 149.372   7.017  1.00  0.00     0.041 C 
ATOM      9  O   UNL     1      59.929 150.433   6.612  1.00  0.00    -0.550 OA
ATOM     10  O   UNL     1      59.807 148.161   6.882  1.00  0.00    -0.550 OA
ENDBRANCH   7   8
ENDBRANCH   6   7
ENDBRANCH   5   6
ENDBRANCH   4   5
ENDBRANCH   3   4
ENDBRANCH   2   3
ENDBRANCH   1   2
BRANCH   1  11
ATOM     11  C   UNL     1      61.838 151.878   3.517  1.00  0.00     0.000 C 
BRANCH  11  12
ATOM     12  C   UNL     1      60.887 151.879   2.311  1.00  0.00    -0.000 C 
BRANCH  12  13
ATOM     13  C   UNL     1      61.104 153.094   1.391  1.00  0.00    -0.000 C 
BRANCH  13  14
ATOM     14  C   UNL     1      59.786 153.786   1.005  1.00  0.00    -0.000 C 
BRANCH  14  15
ATOM     15  C   UNL     1      58.683 153.580   2.055  1.00  0.00    -0.000 C 
BRANCH  15  16
ATOM     16  C   UNL     1      58.286 154.913   2.701  1.00  0.00    -0.000 C 
BRANCH  16  17
ATOM     17  C   UNL     1      58.617 154.919   4.198  1.00  0.00    -0.003 C 
ATOM     18  C   UNL     1      58.691 153.499   4.752  1.00  0.00     0.004 C 
ENDBRANCH  16  17
ENDBRANCH  15  16
ENDBRANCH  14  15
ENDBRANCH  13  14
ENDBRANCH  12  13
ENDBRANCH  11  12
ENDBRANCH   1  11
TORSDOF 14
ENDMDL
MODEL 8
REMARK VINA RESULT:    -5.272      3.158      6.221
REMARK INTER + INTRA:         -11.075
REMARK INTER:                  -9.327
REMARK INTRA:                  -1.748
REMARK UNBOUND:                -1.487
REMARK SMILES CCCCCCCCCCCCCCCC(=O)[O-]
REMARK SMILES IDX 9 1 10 2 11 3 12 4 13 5 14 6 15 7 16 8 17 9 18 10 8 11 7 12
REMARK SMILES IDX 6 13 5 14 4 15 3 16 2 17 1 18
REMARK H PARENT
REMARK Flexibility Score: inf
ROOT
ATOM      1  C   UNL     1      65.070 149.938   4.192  1.00  0.00     0.000 C 
ENDROOT
BRANCH   1   2
ATOM      2  C   UNL     1      65.013 151.406   4.653  1.00  0.00     0.000 C 
BRANCH   2   3
ATOM      3  C   UNL     1      63.889 152.243   4.009  1.00  0.00     0.000 C 
BRANCH   3   4
ATOM      4  C   UNL     1      62.987 151.476   3.021  1.00  0.00     0.000 C 
BRANCH   4   5
ATOM      5  C   UNL     1      61.479 151.767   3.154  1.00  0.00     0.000 C 
BRANCH   5   6
ATOM      6  C   UNL     1      60.865 152.556   1.984  1.00  0.00     0.006 C 
BRANCH   6   7
ATOM      7  C   UNL     1      59.496 153.158   2.324  1.00  0.00     0.053 C 
BRANCH   7   8
ATOM      8  C   UNL     1      59.073 154.127   1.265  1.00  0.00     0.041 C 
ATOM      9  O   UNL     1      59.628 154.110   0.134  1.00  0.00    -0.550 OA
ATOM     10  O   UNL     1      58.034 155.015   1.508  1.00  0.00    -0.550 OA
ENDBRANCH   7   8
ENDBRANCH   6   7
ENDBRANCH   5   6
ENDBRANCH   4   5
ENDBRANCH   3   4
ENDBRANCH   2   3
ENDBRANCH   1   2
BRANCH   1  11
ATOM     11  C   UNL     1      64.848 148.943   5.344  1.00  0.00     0.000 C 
BRANCH  11  12
ATOM     12  C   UNL     1      63.517 149.176   6.075  1.00  0.00    -0.000 C 
BRANCH  12  13
ATOM     13  C   UNL     1      62.364 148.350   5.478  1.00  0.00    -0.000 C 
BRANCH  13  14
ATOM     14  C   UNL     1      61.184 148.193   6.450  1.00  0.00    -0.000 C 
BRANCH  14  15
ATOM     15  C   UNL     1      60.984 149.430   7.339  1.00  0.00    -0.000 C 
BRANCH  15  16
ATOM     16  C   UNL     1      59.726 150.203   6.926  1.00  0.00    -0.000 C 
BRANCH  16  17
ATOM     17  C   UNL     1      60.072 151.642   6.526  1.00  0.00    -0.003 C 
ATOM     18  C   UNL     1      61.483 152.015   6.973  1.00  0.00     0.004 C 
ENDBRANCH  16  17
ENDBRANCH  15  16
ENDBRANCH  14  15
ENDBRANCH  13  14
ENDBRANCH  12  13
ENDBRANCH  11  12
ENDBRANCH   1  11
TORSDOF 14
ENDMDL
MODEL 9
REMARK VINA RESULT:    -5.259      2.942      6.974
REMARK INTER + INTRA:         -11.051
REMARK INTER:                  -9.287
REMARK INTRA:                  -1.763
REMARK UNBOUND:                -1.487
REMARK SMILES CCCCCCCCCCCCCCCC(=O)[O-]
REMARK SMILES IDX 9 1 10 2 11 3 12 4 13 5 14 6 15 7 16 8 17 9 18 10 8 11 7 12
REMARK SMILES IDX 6 13 5 14 4 15 3 16 2 17 1 18
REMARK H PARENT
REMARK Flexibility Score: inf
ROOT
ATOM      1  C   UNL     1      61.674 150.991   7.796  1.00  0.00     0.000 C 
ENDROOT
BRANCH   1   2
ATOM      2  C   UNL     1      61.696 151.940   6.584  1.00  0.00     0.000 C 
BRANCH   2   3
ATOM      3  C   UNL     1      60.408 152.764   6.384  1.00  0.00     0.000 C 
BRANCH   3   4
ATOM      4  C   UNL     1      59.836 152.745   4.953  1.00  0.00     0.000 C 
BRANCH   4   5
ATOM      5  C   UNL     1      58.948 153.952   4.589  1.00  0.00     0.000 C 
BRANCH   5   6
ATOM      6  C   UNL     1      58.683 154.132   3.084  1.00  0.00     0.006 C 
BRANCH   6   7
ATOM      7  C   UNL     1      59.471 153.142   2.217  1.00  0.00     0.053 C 
BRANCH   7   8
ATOM      8  C   UNL     1      59.899 153.793   0.939  1.00  0.00     0.041 C 
ATOM      9  O   UNL     1      59.054 154.385   0.217  1.00  0.00    -0.550 OA
ATOM     10  O   UNL     1      61.237 153.789   0.570  1.00  0.00    -0.550 OA
ENDBRANCH   7   8
ENDBRANCH   6   7
ENDBRANCH   5   6
ENDBRANCH   4   5
ENDBRANCH   3   4
ENDBRANCH   2   3
ENDBRANCH   1   2
BRANCH   1  11
ATOM     11  C   UNL     1      61.719 149.507   7.392  1.00  0.00     0.000 C 
BRANCH  11  12
ATOM     12  C   UNL     1      61.695 149.310   5.869  1.00  0.00    -0.000 C 
BRANCH  12  13
ATOM     13  C   UNL     1      62.877 148.461   5.366  1.00  0.00    -0.000 C 
BRANCH  13  14
ATOM     14  C   UNL     1      64.222 148.912   5.957  1.00  0.00    -0.000 C 
BRANCH  14  15
ATOM     15  C   UNL     1      65.052 149.745   4.968  1.00  0.00    -0.000 C 
BRANCH  15  16
ATOM     16  C   UNL     1      65.001 151.234   5.329  1.00  0.00    -0.000 C 
BRANCH  16  17
ATOM     17  C   UNL     1      64.703 152.089   4.091  1.00  0.00    -0.003 C 
ATOM     18  C   UNL     1      63.392 151.669   3.433  1.00  0.00     0.004 C 
ENDBRANCH  16  17
ENDBRANCH  15  16
ENDBRANCH  14  15
ENDBRANCH  13  14
ENDBRANCH  12  13
ENDBRANCH  11  12
ENDBRANCH   1  11
TORSDOF 14
ENDMDL
