MODEL 1
REMARK VINA RESULT:    -4.840      0.000      0.000
REMARK INTER + INTRA:          -5.901
REMARK INTER:                  -5.547
REMARK INTRA:                  -0.354
REMARK UNBOUND:                -0.354
REMARK SMILES COC(=O)c1ccccc1O
REMARK SMILES IDX 5 1 6 2 7 3 8 4 9 5 10 6 3 7 4 8 2 9 1 10 11 11
REMARK H PARENT 11 12
REMARK Flexibility Score: inf
ROOT
ATOM      1  C   UNL     1       8.206  -8.240  42.498  1.00  0.00     0.101 A 
ATOM      2  C   UNL     1       7.456  -8.991  41.572  1.00  0.00     0.019 A 
ATOM      3  C   UNL     1       6.755 -10.129  41.977  1.00  0.00     0.001 A 
ATOM      4  C   UNL     1       6.792 -10.537  43.310  1.00  0.00     0.004 A 
ATOM      5  C   UNL     1       7.530  -9.806  44.243  1.00  0.00     0.047 A 
ATOM      6  C   UNL     1       8.238  -8.660  43.850  1.00  0.00     0.130 A 
ENDROOT
BRANCH   1   7
ATOM      7  C   UNL     1       8.939  -7.035  42.031  1.00  0.00     0.341 C 
ATOM      8  O   UNL     1       9.721  -7.101  41.045  1.00  0.00    -0.246 OA
BRANCH   7   9
ATOM      9  O   UNL     1       8.760  -5.815  42.695  1.00  0.00    -0.465 OA
ATOM     10  C   UNL     1       7.494  -5.176  42.803  1.00  0.00     0.282 C 
ENDBRANCH   7   9
ENDBRANCH   1   7
BRANCH   6  11
ATOM     11  O   UNL     1       8.968  -7.948  44.803  1.00  0.00    -0.507 OA
ATOM     12  H   UNL     1       9.742  -7.349  44.543  1.00  0.00     0.293 HD
ENDBRANCH   6  11
TORSDOF 3
ENDMDL
MODEL 2
REMARK VINA RESULT:    -4.684      1.569      2.426
REMARK INTER + INTRA:          -5.722
REMARK INTER:                  -5.581
REMARK INTRA:                  -0.141
REMARK UNBOUND:                -0.354
REMARK SMILES COC(=O)c1ccccc1O
REMARK SMILES IDX 5 1 6 2 7 3 8 4 9 5 10 6 3 7 4 8 2 9 1 10 11 11
REMARK H PARENT 11 12
REMARK Flexibility Score: inf
ROOT
ATOM      1  C   UNL     1       7.592  -8.989  42.246  1.00  0.00     0.101 A 
ATOM      2  C   UNL     1       7.803  -9.209  43.621  1.00  0.00     0.019 A 
ATOM      3  C   UNL     1       7.211 -10.295  44.269  1.00  0.00     0.001 A 
ATOM      4  C   UNL     1       6.399 -11.177  43.557  1.00  0.00     0.004 A 
ATOM      5  C   UNL     1       6.178 -10.977  42.194  1.00  0.00     0.047 A 
ATOM      6  C   UNL     1       6.767  -9.890  41.530  1.00  0.00     0.130 A 
ENDROOT
BRANCH   1   7
ATOM      7  C   UNL     1       8.238  -7.824  41.590  1.00  0.00     0.341 C 
ATOM      8  O   UNL     1       9.434  -7.890  41.194  1.00  0.00    -0.246 OA
BRANCH   7   9
ATOM      9  O   UNL     1       7.513  -6.639  41.411  1.00  0.00    -0.465 OA
ATOM     10  C   UNL     1       7.481  -5.603  42.384  1.00  0.00     0.282 C 
ENDBRANCH   7   9
ENDBRANCH   1   7
BRANCH   6  11
ATOM     11  O   UNL     1       6.529  -9.713  40.167  1.00  0.00    -0.507 OA
ATOM     12  H   UNL     1       5.976  -8.939  39.819  1.00  0.00     0.293 HD
ENDBRANCH   6  11
TORSDOF 3
ENDMDL
MODEL 3
REMARK VINA RESULT:    -4.591      1.295      1.866
REMARK INTER + INTRA:          -5.616
REMARK INTER:                  -5.313
REMARK INTRA:                  -0.303
REMARK UNBOUND:                -0.354
REMARK SMILES COC(=O)c1ccccc1O
REMARK SMILES IDX 5 1 6 2 7 3 8 4 9 5 10 6 3 7 4 8 2 9 1 10 11 11
REMARK H PARENT 11 12
REMARK Flexibility Score: inf
ROOT
ATOM      1  C   UNL     1       7.861  -8.894  42.928  1.00  0.00     0.101 A 
ATOM      2  C   UNL     1       7.619  -8.831  41.542  1.00  0.00     0.019 A 
ATOM      3  C   UNL     1       6.793  -9.769  40.920  1.00  0.00     0.001 A 
ATOM      4  C   UNL     1       6.196 -10.783  41.668  1.00  0.00     0.004 A 
ATOM      5  C   UNL     1       6.424 -10.862  43.042  1.00  0.00     0.047 A 
ATOM      6  C   UNL     1       7.252  -9.926  43.681  1.00  0.00     0.130 A 
ENDROOT
BRANCH   1   7
ATOM      7  C   UNL     1       8.746  -7.879  43.557  1.00  0.00     0.341 C 
ATOM      8  O   UNL     1       9.692  -8.231  44.314  1.00  0.00    -0.246 OA
BRANCH   7   9
ATOM      9  O   UNL     1       8.526  -6.519  43.309  1.00  0.00    -0.465 OA
ATOM     10  C   UNL     1       9.449  -5.710  42.589  1.00  0.00     0.282 C 
ENDBRANCH   7   9
ENDBRANCH   1   7
BRANCH   6  11
ATOM     11  O   UNL     1       7.463 -10.028  45.057  1.00  0.00    -0.507 OA
ATOM     12  H   UNL     1       6.862 -10.591  45.648  1.00  0.00     0.293 HD
ENDBRANCH   6  11
TORSDOF 3
ENDMDL
MODEL 4
REMARK VINA RESULT:    -4.295      2.533      4.033
REMARK INTER + INTRA:          -5.277
REMARK INTER:                  -4.978
REMARK INTRA:                  -0.299
REMARK UNBOUND:                -0.354
REMARK SMILES COC(=O)c1ccccc1O
REMARK SMILES IDX 5 1 6 2 7 3 8 4 9 5 10 6 3 7 4 8 2 9 1 10 11 11
REMARK H PARENT 11 12
REMARK Flexibility Score: inf
ROOT
ATOM      1  C   UNL     1       7.524  -9.549  42.594  1.00  0.00     0.101 A 
ATOM      2  C   UNL     1       8.092  -8.877  41.495  1.00  0.00     0.019 A 
ATOM      3  C   UNL     1       8.948  -7.790  41.688  1.00  0.00     0.001 A 
ATOM      4  C   UNL     1       9.250  -7.358  42.979  1.00  0.00     0.004 A 
ATOM      5  C   UNL     1       8.698  -8.011  44.081  1.00  0.00     0.047 A 
ATOM      6  C   UNL     1       7.836  -9.105  43.902  1.00  0.00     0.130 A 
ENDROOT
BRANCH   1   7
ATOM      7  C   UNL     1       6.617 -10.701  42.351  1.00  0.00     0.341 C 
ATOM      8  O   UNL     1       6.680 -11.732  43.074  1.00  0.00    -0.246 OA
BRANCH   7   9
ATOM      9  O   UNL     1       5.686 -10.641  41.307  1.00  0.00    -0.465 OA
ATOM     10  C   UNL     1       5.722 -11.525  40.193  1.00  0.00     0.282 C 
ENDBRANCH   7   9
ENDBRANCH   1   7
BRANCH   6  11
ATOM     11  O   UNL     1       7.297  -9.740  45.021  1.00  0.00    -0.507 OA
ATOM     12  H   UNL     1       6.307  -9.702  45.230  1.00  0.00     0.293 HD
ENDBRANCH   6  11
TORSDOF 3
ENDMDL
MODEL 5
REMARK VINA RESULT:    -4.276     16.840     17.832
REMARK INTER + INTRA:          -5.255
REMARK INTER:                  -4.978
REMARK INTRA:                  -0.277
REMARK UNBOUND:                -0.354
REMARK SMILES COC(=O)c1ccccc1O
REMARK SMILES IDX 5 1 6 2 7 3 8 4 9 5 10 6 3 7 4 8 2 9 1 10 11 11
REMARK H PARENT 11 12
REMARK Flexibility Score: inf
ROOT
ATOM      1  C   UNL     1      23.858 -14.294  46.864  1.00  0.00     0.101 A 
ATOM      2  C   UNL     1      24.933 -13.385  46.825  1.00  0.00     0.019 A 
ATOM      3  C   UNL     1      24.706 -12.008  46.887  1.00  0.00     0.001 A 
ATOM      4  C   UNL     1      23.405 -11.517  46.987  1.00  0.00     0.004 A 
ATOM      5  C   UNL     1      22.327 -12.401  47.027  1.00  0.00     0.047 A 
ATOM      6  C   UNL     1      22.540 -13.787  46.967  1.00  0.00     0.130 A 
ENDROOT
BRANCH   1   7
ATOM      7  C   UNL     1      24.137 -15.751  46.797  1.00  0.00     0.341 C 
ATOM      8  O   UNL     1      23.513 -16.488  45.985  1.00  0.00    -0.246 OA
BRANCH   7   9
ATOM      9  O   UNL     1      25.101 -16.313  47.643  1.00  0.00    -0.465 OA
ATOM     10  C   UNL     1      25.016 -17.648  48.125  1.00  0.00     0.282 C 
ENDBRANCH   7   9
ENDBRANCH   1   7
BRANCH   6  11
ATOM     11  O   UNL     1      21.443 -14.649  47.009  1.00  0.00    -0.507 OA
ATOM     12  H   UNL     1      20.515 -14.318  47.241  1.00  0.00     0.293 HD
ENDBRANCH   6  11
TORSDOF 3
ENDMDL
MODEL 6
REMARK VINA RESULT:    -4.250      3.354      5.199
REMARK INTER + INTRA:          -5.225
REMARK INTER:                  -4.895
REMARK INTRA:                  -0.330
REMARK UNBOUND:                -0.354
REMARK SMILES COC(=O)c1ccccc1O
REMARK SMILES IDX 5 1 6 2 7 3 8 4 9 5 10 6 3 7 4 8 2 9 1 10 11 11
REMARK H PARENT 11 12
REMARK Flexibility Score: inf
ROOT
ATOM      1  C   UNL     1       6.603 -10.628  42.352  1.00  0.00     0.101 A 
ATOM      2  C   UNL     1       7.118 -10.405  43.643  1.00  0.00     0.019 A 
ATOM      3  C   UNL     1       7.877  -9.265  43.922  1.00  0.00     0.001 A 
ATOM      4  C   UNL     1       8.133  -8.332  42.918  1.00  0.00     0.004 A 
ATOM      5  C   UNL     1       7.632  -8.535  41.632  1.00  0.00     0.047 A 
ATOM      6  C   UNL     1       6.868  -9.675  41.338  1.00  0.00     0.130 A 
ENDROOT
BRANCH   1   7
ATOM      7  C   UNL     1       5.801 -11.851  42.092  1.00  0.00     0.341 C 
ATOM      8  O   UNL     1       4.875 -12.191  42.877  1.00  0.00    -0.246 OA
BRANCH   7   9
ATOM      9  O   UNL     1       6.078 -12.634  40.964  1.00  0.00    -0.465 OA
ATOM     10  C   UNL     1       5.058 -13.165  40.128  1.00  0.00     0.282 C 
ENDBRANCH   7   9
ENDBRANCH   1   7
BRANCH   6  11
ATOM     11  O   UNL     1       6.378  -9.854  40.043  1.00  0.00    -0.507 OA
ATOM     12  H   UNL     1       6.979 -10.148  39.283  1.00  0.00     0.293 HD
ENDBRANCH   6  11
TORSDOF 3
ENDMDL
MODEL 7
REMARK VINA RESULT:    -4.229      7.886      9.383
REMARK INTER + INTRA:          -5.201
REMARK INTER:                  -4.903
REMARK INTRA:                  -0.297
REMARK UNBOUND:                -0.354
REMARK SMILES COC(=O)c1ccccc1O
REMARK SMILES IDX 5 1 6 2 7 3 8 4 9 5 10 6 3 7 4 8 2 9 1 10 11 11
REMARK H PARENT 11 12
REMARK Flexibility Score: inf
ROOT
ATOM      1  C   UNL     1       7.021  -2.491  36.232  1.00  0.00     0.101 A 
ATOM      2  C   UNL     1       6.965  -1.758  35.031  1.00  0.00     0.019 A 
ATOM      3  C   UNL     1       6.171  -0.613  34.930  1.00  0.00     0.001 A 
ATOM      4  C   UNL     1       5.421  -0.183  36.024  1.00  0.00     0.004 A 
ATOM      5  C   UNL     1       5.463  -0.896  37.223  1.00  0.00     0.047 A 
ATOM      6  C   UNL     1       6.257  -2.048  37.338  1.00  0.00     0.130 A 
ENDROOT
BRANCH   1   7
ATOM      7  C   UNL     1       7.876  -3.704  36.302  1.00  0.00     0.341 C 
ATOM      8  O   UNL     1       8.548  -3.957  37.338  1.00  0.00    -0.246 OA
BRANCH   7   9
ATOM      9  O   UNL     1       7.937  -4.573  35.206  1.00  0.00    -0.465 OA
ATOM     10  C   UNL     1       9.140  -4.825  34.491  1.00  0.00     0.282 C 
ENDBRANCH   7   9
ENDBRANCH   1   7
BRANCH   6  11
ATOM     11  O   UNL     1       6.280  -2.742  38.548  1.00  0.00    -0.507 OA
ATOM     12  H   UNL     1       6.552  -3.716  38.598  1.00  0.00     0.293 HD
ENDBRANCH   6  11
TORSDOF 3
ENDMDL
MODEL 8
REMARK VINA RESULT:    -4.199      1.764      4.000
REMARK INTER + INTRA:          -5.166
REMARK INTER:                  -4.885
REMARK INTRA:                  -0.281
REMARK UNBOUND:                -0.354
REMARK SMILES COC(=O)c1ccccc1O
REMARK SMILES IDX 5 1 6 2 7 3 8 4 9 5 10 6 3 7 4 8 2 9 1 10 11 11
REMARK H PARENT 11 12
REMARK Flexibility Score: inf
ROOT
ATOM      1  C   UNL     1       8.128  -7.041  42.160  1.00  0.00     0.101 A 
ATOM      2  C   UNL     1       7.457  -6.136  41.314  1.00  0.00     0.019 A 
ATOM      3  C   UNL     1       7.916  -4.826  41.163  1.00  0.00     0.001 A 
ATOM      4  C   UNL     1       9.050  -4.397  41.852  1.00  0.00     0.004 A 
ATOM      5  C   UNL     1       9.728  -5.278  42.695  1.00  0.00     0.047 A 
ATOM      6  C   UNL     1       9.279  -6.598  42.856  1.00  0.00     0.130 A 
ENDROOT
BRANCH   1   7
ATOM      7  C   UNL     1       7.611  -8.427  42.296  1.00  0.00     0.341 C 
ATOM      8  O   UNL     1       7.105  -9.024  41.308  1.00  0.00    -0.246 OA
BRANCH   7   9
ATOM      9  O   UNL     1       7.684  -9.074  43.536  1.00  0.00    -0.465 OA
ATOM     10  C   UNL     1       7.073 -10.335  43.781  1.00  0.00     0.282 C 
ENDBRANCH   7   9
ENDBRANCH   1   7
BRANCH   6  11
ATOM     11  O   UNL     1       9.976  -7.458  43.705  1.00  0.00    -0.507 OA
ATOM     12  H   UNL     1       9.965  -8.462  43.572  1.00  0.00     0.293 HD
ENDBRANCH   6  11
TORSDOF 3
ENDMDL
MODEL 9
REMARK VINA RESULT:    -4.164      3.131      4.446
REMARK INTER + INTRA:          -5.126
REMARK INTER:                  -4.857
REMARK INTRA:                  -0.270
REMARK UNBOUND:                -0.354
REMARK SMILES COC(=O)c1ccccc1O
REMARK SMILES IDX 5 1 6 2 7 3 8 4 9 5 10 6 3 7 4 8 2 9 1 10 11 11
REMARK H PARENT 11 12
REMARK Flexibility Score: inf
ROOT
ATOM      1  C   UNL     1       6.734 -10.121  41.943  1.00  0.00     0.101 A 
ATOM      2  C   UNL     1       7.508  -9.006  41.565  1.00  0.00     0.019 A 
ATOM      3  C   UNL     1       8.258  -8.304  42.511  1.00  0.00     0.001 A 
ATOM      4  C   UNL     1       8.247  -8.701  43.848  1.00  0.00     0.004 A 
ATOM      5  C   UNL     1       7.487  -9.802  44.242  1.00  0.00     0.047 A 
ATOM      6  C   UNL     1       6.729 -10.518  43.302  1.00  0.00     0.130 A 
ENDROOT
BRANCH   1   7
ATOM      7  C   UNL     1       5.948 -10.843  40.910  1.00  0.00     0.341 C 
ATOM      8  O   UNL     1       4.875 -11.432  41.213  1.00  0.00    -0.246 OA
BRANCH   7   9
ATOM      9  O   UNL     1       6.406 -10.873  39.587  1.00  0.00    -0.465 OA
ATOM     10  C   UNL     1       6.886 -12.059  38.966  1.00  0.00     0.282 C 
ENDBRANCH   7   9
ENDBRANCH   1   7
BRANCH   6  11
ATOM     11  O   UNL     1       5.977 -11.615  43.724  1.00  0.00    -0.507 OA
ATOM     12  H   UNL     1       6.116 -12.037  44.634  1.00  0.00     0.293 HD
ENDBRANCH   6  11
TORSDOF 3
ENDMDL
