MODEL 1
REMARK VINA RESULT:    -3.977      0.000      0.000
REMARK INTER + INTRA:          -4.274
REMARK INTER:                  -4.907
REMARK INTRA:                   0.632
REMARK UNBOUND:                 0.632
REMARK SMILES C=C1[C@@H]2CC[C@H]3[C@@H]2C(C)(C)CCC[C@@]13C
REMARK SMILES IDX 14 1 6 2 7 3 3 4 2 5 1 6 4 7 5 8 15 9 8 10 9 11 10 12 11 13
REMARK SMILES IDX 13 15 12 16
REMARK H PARENT
REMARK Flexibility Score: 80.00
ROOT
ATOM      1  C   UNL     1     139.916 139.018 132.583  1.00  0.00    -0.008 C 
ATOM      2  C   UNL     1     139.536 139.280 131.072  1.00  0.00     0.003 C 
ATOM      3  C   UNL     1     138.523 140.443 131.121  1.00  0.00     0.006 C 
ATOM      4  C   UNL     1     137.627 139.750 132.148  1.00  0.00     0.019 C 
ATOM      5  C   UNL     1     138.607 139.393 133.231  1.00  0.00    -0.068 C 
ATOM      6  C   UNL     1     138.322 139.334 134.537  1.00  0.00     0.009 C 
ATOM      7  C   UNL     1     137.293 138.434 131.406  1.00  0.00     0.008 C 
ATOM      8  C   UNL     1     138.575 138.164 130.578  1.00  0.00     0.005 C 
ATOM      9  C   UNL     1     140.272 137.537 132.885  1.00  0.00     0.016 C 
ENDROOT
BRANCH   3  10
ATOM     10  C   UNL     1     139.031 141.925 131.386  1.00  0.00    -0.032 C 
ATOM     11  C   UNL     1     138.983 142.693 130.036  1.00  0.00     0.011 C 
ATOM     12  C   UNL     1     138.083 142.687 132.348  1.00  0.00     0.011 C 
BRANCH  10  13
ATOM     13  C   UNL     1     140.505 142.037 131.870  1.00  0.00     0.007 CG0
ATOM     14  G   UNL     1     140.818 141.375 133.208  1.00  0.00     0.000 G0
ENDBRANCH  10  13
ENDBRANCH   3  10
BRANCH   1  15
ATOM     15  C   UNL     1     141.109 139.888 133.061  1.00  0.00     0.011 C 
BRANCH  15  16
ATOM     16  C   UNL     1     140.830 141.381 133.207  1.00  0.00     0.001 CG0
ATOM     17  G   UNL     1     140.502 142.045 131.873  1.00  0.00     0.000 G0
ENDBRANCH  15  16
ENDBRANCH   1  15
TORSDOF 0
ENDMDL
MODEL 2
REMARK VINA RESULT:    -3.952      2.225      3.847
REMARK INTER + INTRA:          -4.244
REMARK INTER:                  -4.884
REMARK INTRA:                   0.640
REMARK UNBOUND:                 0.632
REMARK SMILES C=C1[C@@H]2CC[C@H]3[C@@H]2C(C)(C)CCC[C@@]13C
REMARK SMILES IDX 14 1 6 2 7 3 3 4 2 5 1 6 4 7 5 8 15 9 8 10 9 11 10 12 11 13
REMARK SMILES IDX 13 15 12 16
REMARK H PARENT
REMARK Flexibility Score: 80.00
ROOT
ATOM      1  C   UNL     1     143.158 139.929 132.654  1.00  0.00    -0.008 C 
ATOM      2  C   UNL     1     142.820 139.535 131.162  1.00  0.00     0.003 C 
ATOM      3  C   UNL     1     141.636 138.553 131.278  1.00  0.00     0.006 C 
ATOM      4  C   UNL     1     142.351 137.653 132.286  1.00  0.00     0.019 C 
ATOM      5  C   UNL     1     142.781 138.639 133.338  1.00  0.00    -0.068 C 
ATOM      6  C   UNL     1     142.891 138.370 134.644  1.00  0.00     0.009 C 
ATOM      7  C   UNL     1     143.625 137.276 131.492  1.00  0.00     0.008 C 
ATOM      8  C   UNL     1     143.889 138.539 130.634  1.00  0.00     0.005 C 
ATOM      9  C   UNL     1     144.660 140.251 132.885  1.00  0.00     0.016 C 
ENDROOT
BRANCH   3  10
ATOM     10  C   UNL     1     140.180 139.101 131.601  1.00  0.00    -0.032 C 
ATOM     11  C   UNL     1     139.348 139.044 130.289  1.00  0.00     0.011 C 
ATOM     12  C   UNL     1     139.443 138.193 132.618  1.00  0.00     0.011 C 
BRANCH  10  13
ATOM     13  C   UNL     1     140.125 140.587 132.056  1.00  0.00     0.007 CG0
ATOM     14  G   UNL     1     140.844 140.910 133.363  1.00  0.00     0.000 G0
ENDBRANCH  10  13
ENDBRANCH   3  10
BRANCH   1  15
ATOM     15  C   UNL     1     142.340 141.150 133.153  1.00  0.00     0.011 C 
BRANCH  15  16
ATOM     16  C   UNL     1     140.846 140.915 133.357  1.00  0.00     0.001 CG0
ATOM     17  G   UNL     1     140.124 140.593 132.052  1.00  0.00     0.000 G0
ENDBRANCH  15  16
ENDBRANCH   1  15
TORSDOF 0
ENDMDL
MODEL 3
REMARK VINA RESULT:    -3.902      2.940      5.432
REMARK INTER + INTRA:          -4.182
REMARK INTER:                  -4.814
REMARK INTRA:                   0.632
REMARK UNBOUND:                 0.632
REMARK SMILES C=C1[C@@H]2CC[C@H]3[C@@H]2C(C)(C)CCC[C@@]13C
REMARK SMILES IDX 14 1 6 2 7 3 3 4 2 5 1 6 4 7 5 8 15 9 8 10 9 11 10 12 11 13
REMARK SMILES IDX 13 15 12 16
REMARK H PARENT
REMARK Flexibility Score: 80.00
ROOT
ATOM      1  C   UNL     1     142.067 143.116 132.946  1.00  0.00    -0.008 C 
ATOM      2  C   UNL     1     142.482 142.639 131.498  1.00  0.00     0.003 C 
ATOM      3  C   UNL     1     143.509 141.513 131.737  1.00  0.00     0.006 C 
ATOM      4  C   UNL     1     144.375 142.364 132.666  1.00  0.00     0.019 C 
ATOM      5  C   UNL     1     143.368 142.861 133.667  1.00  0.00    -0.068 C 
ATOM      6  C   UNL     1     143.626 143.117 134.955  1.00  0.00     0.009 C 
ATOM      7  C   UNL     1     144.707 143.561 131.744  1.00  0.00     0.008 C 
ATOM      8  C   UNL     1     143.438 143.686 130.862  1.00  0.00     0.005 C 
ATOM      9  C   UNL     1     141.686 144.619 133.019  1.00  0.00     0.016 C 
ENDROOT
BRANCH   3  10
ATOM     10  C   UNL     1     143.015 140.078 132.210  1.00  0.00    -0.032 C 
ATOM     11  C   UNL     1     143.107 139.118 130.991  1.00  0.00     0.011 C 
ATOM     12  C   UNL     1     143.949 139.485 133.295  1.00  0.00     0.011 C 
BRANCH  10  13
ATOM     13  C   UNL     1     141.532 140.014 132.671  1.00  0.00     0.007 CG0
ATOM     14  G   UNL     1     141.175 140.863 133.887  1.00  0.00     0.000 G0
ENDBRANCH  10  13
ENDBRANCH   3  10
BRANCH   1  15
ATOM     15  C   UNL     1     140.877 142.306 133.527  1.00  0.00     0.011 C 
BRANCH  15  16
ATOM     16  C   UNL     1     141.169 140.852 133.885  1.00  0.00     0.001 CG0
ATOM     17  G   UNL     1     141.531 140.013 132.664  1.00  0.00     0.000 G0
ENDBRANCH  15  16
ENDBRANCH   1  15
TORSDOF 0
ENDMDL
MODEL 4
REMARK VINA RESULT:    -3.880      2.195      3.784
REMARK INTER + INTRA:          -4.156
REMARK INTER:                  -4.791
REMARK INTRA:                   0.635
REMARK UNBOUND:                 0.632
REMARK SMILES C=C1[C@@H]2CC[C@H]3[C@@H]2C(C)(C)CCC[C@@]13C
REMARK SMILES IDX 14 1 6 2 7 3 3 4 2 5 1 6 4 7 5 8 15 9 8 10 9 11 10 12 11 13
REMARK SMILES IDX 13 15 12 16
REMARK H PARENT
REMARK Flexibility Score: 80.00
ROOT
ATOM      1  C   UNL     1     139.053 142.059 132.632  1.00  0.00    -0.008 C 
ATOM      2  C   UNL     1     139.375 142.501 131.150  1.00  0.00     0.003 C 
ATOM      3  C   UNL     1     140.469 143.579 131.292  1.00  0.00     0.006 C 
ATOM      4  C   UNL     1     139.667 144.401 132.302  1.00  0.00     0.019 C 
ATOM      5  C   UNL     1     139.311 143.369 133.336  1.00  0.00    -0.068 C 
ATOM      6  C   UNL     1     139.163 143.610 134.644  1.00  0.00     0.009 C 
ATOM      7  C   UNL     1     138.376 144.678 131.495  1.00  0.00     0.008 C 
ATOM      8  C   UNL     1     138.230 143.408 130.619  1.00  0.00     0.005 C 
ATOM      9  C   UNL     1     137.583 141.607 132.839  1.00  0.00     0.016 C 
ENDROOT
BRANCH   3  10
ATOM     10  C   UNL     1     141.963 143.153 131.627  1.00  0.00    -0.032 C 
ATOM     11  C   UNL     1     142.803 143.300 130.328  1.00  0.00     0.011 C 
ATOM     12  C   UNL     1     142.606 144.106 132.666  1.00  0.00     0.011 C 
BRANCH  10  13
ATOM     13  C   UNL     1     142.139 141.670 132.063  1.00  0.00     0.007 CG0
ATOM     14  G   UNL     1     141.432 141.267 133.354  1.00  0.00     0.000 G0
ENDBRANCH  10  13
ENDBRANCH   3  10
BRANCH   1  15
ATOM     15  C   UNL     1     139.968 140.906 133.127  1.00  0.00     0.011 C 
BRANCH  15  16
ATOM     16  C   UNL     1     141.433 141.266 133.351  1.00  0.00     0.001 CG0
ATOM     17  G   UNL     1     142.139 141.667 132.059  1.00  0.00     0.000 G0
ENDBRANCH  15  16
ENDBRANCH   1  15
TORSDOF 0
ENDMDL
MODEL 5
REMARK VINA RESULT:    -3.837      1.388      2.136
REMARK INTER + INTRA:          -4.102
REMARK INTER:                  -4.740
REMARK INTRA:                   0.638
REMARK UNBOUND:                 0.632
REMARK SMILES C=C1[C@@H]2CC[C@H]3[C@@H]2C(C)(C)CCC[C@@]13C
REMARK SMILES IDX 14 1 6 2 7 3 3 4 2 5 1 6 4 7 5 8 15 9 8 10 9 11 10 12 11 13
REMARK SMILES IDX 13 15 12 16
REMARK H PARENT
REMARK Flexibility Score: 80.00
ROOT
ATOM      1  C   UNL     1     140.823 139.305 131.686  1.00  0.00    -0.008 C 
ATOM      2  C   UNL     1     139.591 140.061 131.048  1.00  0.00     0.003 C 
ATOM      3  C   UNL     1     138.458 139.901 132.082  1.00  0.00     0.006 C 
ATOM      4  C   UNL     1     138.612 138.383 132.164  1.00  0.00     0.019 C 
ATOM      5  C   UNL     1     140.082 138.231 132.443  1.00  0.00    -0.068 C 
ATOM      6  C   UNL     1     140.630 137.248 133.167  1.00  0.00     0.009 C 
ATOM      7  C   UNL     1     138.402 137.985 130.684  1.00  0.00     0.008 C 
ATOM      8  C   UNL     1     138.984 139.195 129.910  1.00  0.00     0.005 C 
ATOM      9  C   UNL     1     141.776 138.675 130.635  1.00  0.00     0.016 C 
ENDROOT
BRANCH   3  10
ATOM     10  C   UNL     1     138.469 140.771 133.412  1.00  0.00    -0.032 C 
ATOM     11  C   UNL     1     137.392 141.882 133.264  1.00  0.00     0.011 C 
ATOM     12  C   UNL     1     138.052 139.930 134.645  1.00  0.00     0.011 C 
BRANCH  10  13
ATOM     13  C   UNL     1     139.800 141.525 133.690  1.00  0.00     0.007 CG0
ATOM     14  G   UNL     1     141.027 140.648 133.923  1.00  0.00     0.000 G0
ENDBRANCH  10  13
ENDBRANCH   3  10
BRANCH   1  15
ATOM     15  C   UNL     1     141.681 140.220 132.602  1.00  0.00     0.011 C 
BRANCH  15  16
ATOM     16  C   UNL     1     141.032 140.647 133.915  1.00  0.00     0.001 CG0
ATOM     17  G   UNL     1     139.800 141.521 133.699  1.00  0.00     0.000 G0
ENDBRANCH  15  16
ENDBRANCH   1  15
TORSDOF 0
ENDMDL
MODEL 6
REMARK VINA RESULT:    -3.802      1.645      2.928
REMARK INTER + INTRA:          -4.059
REMARK INTER:                  -4.694
REMARK INTRA:                   0.635
REMARK UNBOUND:                 0.632
REMARK SMILES C=C1[C@@H]2CC[C@H]3[C@@H]2C(C)(C)CCC[C@@]13C
REMARK SMILES IDX 14 1 6 2 7 3 3 4 2 5 1 6 4 7 5 8 15 9 8 10 9 11 10 12 11 13
REMARK SMILES IDX 13 15 12 16
REMARK H PARENT
REMARK Flexibility Score: 80.00
ROOT
ATOM      1  C   UNL     1     139.161 140.488 132.853  1.00  0.00    -0.008 C 
ATOM      2  C   UNL     1     137.963 141.513 132.752  1.00  0.00     0.003 C 
ATOM      3  C   UNL     1     138.596 142.885 133.062  1.00  0.00     0.006 C 
ATOM      4  C   UNL     1     139.239 142.406 134.364  1.00  0.00     0.019 C 
ATOM      5  C   UNL     1     139.981 141.178 133.915  1.00  0.00    -0.068 C 
ATOM      6  C   UNL     1     141.128 140.736 134.444  1.00  0.00     0.009 C 
ATOM      7  C   UNL     1     137.996 141.909 135.140  1.00  0.00     0.008 C 
ATOM      8  C   UNL     1     137.067 141.387 134.015  1.00  0.00     0.005 C 
ATOM      9  C   UNL     1     138.730 139.074 133.326  1.00  0.00     0.016 C 
ENDROOT
BRANCH   3  10
ATOM     10  C   UNL     1     139.483 143.615 131.964  1.00  0.00    -0.032 C 
ATOM     11  C   UNL     1     138.646 144.785 131.377  1.00  0.00     0.011 C 
ATOM     12  C   UNL     1     140.746 144.261 132.591  1.00  0.00     0.011 C 
BRANCH  10  13
ATOM     13  C   UNL     1     139.870 142.734 130.742  1.00  0.00     0.007 CG0
ATOM     14  G   UNL     1     140.740 141.518 131.047  1.00  0.00     0.000 G0
ENDBRANCH  10  13
ENDBRANCH   3  10
BRANCH   1  15
ATOM     15  C   UNL     1     139.919 140.317 131.509  1.00  0.00     0.011 C 
BRANCH  15  16
ATOM     16  C   UNL     1     140.736 141.519 131.044  1.00  0.00     0.001 CG0
ATOM     17  G   UNL     1     139.863 142.733 130.740  1.00  0.00     0.000 G0
ENDBRANCH  15  16
ENDBRANCH   1  15
TORSDOF 0
ENDMDL
MODEL 7
REMARK VINA RESULT:    -3.778      1.679      2.159
REMARK INTER + INTRA:          -4.030
REMARK INTER:                  -4.657
REMARK INTRA:                   0.627
REMARK UNBOUND:                 0.632
REMARK SMILES C=C1[C@@H]2CC[C@H]3[C@@H]2C(C)(C)CCC[C@@]13C
REMARK SMILES IDX 14 1 6 2 7 3 3 4 2 5 1 6 4 7 5 8 15 9 8 10 9 11 10 12 11 13
REMARK SMILES IDX 13 15 12 16
REMARK H PARENT
REMARK Flexibility Score: 80.00
ROOT
ATOM      1  C   UNL     1     140.361 139.125 134.013  1.00  0.00    -0.008 C 
ATOM      2  C   UNL     1     139.974 139.945 132.719  1.00  0.00     0.003 C 
ATOM      3  C   UNL     1     138.987 141.019 133.219  1.00  0.00     0.006 C 
ATOM      4  C   UNL     1     138.084 140.006 133.922  1.00  0.00     0.019 C 
ATOM      5  C   UNL     1     139.065 139.250 134.775  1.00  0.00    -0.068 C 
ATOM      6  C   UNL     1     138.790 138.707 135.967  1.00  0.00     0.009 C 
ATOM      7  C   UNL     1     137.716 139.073 132.744  1.00  0.00     0.008 C 
ATOM      8  C   UNL     1     138.985 139.113 131.856  1.00  0.00     0.005 C 
ATOM      9  C   UNL     1     140.687 137.634 133.728  1.00  0.00     0.016 C 
ENDROOT
BRANCH   3  10
ATOM     10  C   UNL     1     139.529 142.283 134.016  1.00  0.00    -0.032 C 
ATOM     11  C   UNL     1     139.480 143.507 133.058  1.00  0.00     0.011 C 
ATOM     12  C   UNL     1     138.609 142.638 135.212  1.00  0.00     0.011 C 
BRANCH  10  13
ATOM     13  C   UNL     1     141.010 142.182 134.477  1.00  0.00     0.007 CG0
ATOM     14  G   UNL     1     141.323 141.069 135.472  1.00  0.00     0.000 G0
ENDBRANCH  10  13
ENDBRANCH   3  10
BRANCH   1  15
ATOM     15  C   UNL     1     141.576 139.731 134.766  1.00  0.00     0.011 C 
BRANCH  15  16
ATOM     16  C   UNL     1     141.333 141.066 135.462  1.00  0.00     0.001 CG0
ATOM     17  G   UNL     1     141.005 142.185 134.478  1.00  0.00     0.000 G0
ENDBRANCH  15  16
ENDBRANCH   1  15
TORSDOF 0
ENDMDL
MODEL 8
REMARK VINA RESULT:    -3.777      3.661      6.170
REMARK INTER + INTRA:          -4.028
REMARK INTER:                  -4.658
REMARK INTRA:                   0.630
REMARK UNBOUND:                 0.632
REMARK SMILES C=C1[C@@H]2CC[C@H]3[C@@H]2C(C)(C)CCC[C@@]13C
REMARK SMILES IDX 14 1 6 2 7 3 3 4 2 5 1 6 4 7 5 8 15 9 8 10 9 11 10 12 11 13
REMARK SMILES IDX 13 15 12 16
REMARK H PARENT
REMARK Flexibility Score: 80.00
ROOT
ATOM      1  C   UNL     1     142.179 141.137 134.166  1.00  0.00    -0.008 C 
ATOM      2  C   UNL     1     142.757 139.673 134.301  1.00  0.00     0.003 C 
ATOM      3  C   UNL     1     143.962 139.816 135.253  1.00  0.00     0.006 C 
ATOM      4  C   UNL     1     144.599 140.941 134.437  1.00  0.00     0.019 C 
ATOM      5  C   UNL     1     143.463 141.917 134.307  1.00  0.00    -0.068 C 
ATOM      6  C   UNL     1     143.595 143.247 134.239  1.00  0.00     0.009 C 
ATOM      7  C   UNL     1     144.750 140.256 133.058  1.00  0.00     0.008 C 
ATOM      8  C   UNL     1     143.532 139.299 133.008  1.00  0.00     0.005 C 
ATOM      9  C   UNL     1     141.518 141.418 132.789  1.00  0.00     0.016 C 
ENDROOT
BRANCH   3  10
ATOM     10  C   UNL     1     143.723 140.006 136.812  1.00  0.00    -0.032 C 
ATOM     11  C   UNL     1     144.063 138.661 137.514  1.00  0.00     0.011 C 
ATOM     12  C   UNL     1     144.690 141.060 137.411  1.00  0.00     0.011 C 
BRANCH  10  13
ATOM     13  C   UNL     1     142.255 140.319 137.217  1.00  0.00     0.007 CG0
ATOM     14  G   UNL     1     141.683 141.630 136.685  1.00  0.00     0.000 G0
ENDBRANCH  10  13
ENDBRANCH   3  10
BRANCH   1  15
ATOM     15  C   UNL     1     141.132 141.474 135.261  1.00  0.00     0.011 C 
BRANCH  15  16
ATOM     16  C   UNL     1     141.674 141.622 136.680  1.00  0.00     0.001 CG0
ATOM     17  G   UNL     1     142.256 140.319 137.219  1.00  0.00     0.000 G0
ENDBRANCH  15  16
ENDBRANCH   1  15
TORSDOF 0
ENDMDL
MODEL 9
REMARK VINA RESULT:    -3.742      2.922      5.489
REMARK INTER + INTRA:          -3.985
REMARK INTER:                  -4.621
REMARK INTRA:                   0.635
REMARK UNBOUND:                 0.632
REMARK SMILES C=C1[C@@H]2CC[C@H]3[C@@H]2C(C)(C)CCC[C@@]13C
REMARK SMILES IDX 14 1 6 2 7 3 3 4 2 5 1 6 4 7 5 8 15 9 8 10 9 11 10 12 11 13
REMARK SMILES IDX 13 15 12 16
REMARK H PARENT
REMARK Flexibility Score: 80.00
ROOT
ATOM      1  C   UNL     1     141.602 142.647 131.523  1.00  0.00    -0.008 C 
ATOM      2  C   UNL     1     143.002 142.062 131.085  1.00  0.00     0.003 C 
ATOM      3  C   UNL     1     143.951 142.406 132.252  1.00  0.00     0.006 C 
ATOM      4  C   UNL     1     143.576 143.888 132.251  1.00  0.00     0.019 C 
ATOM      5  C   UNL     1     142.076 143.833 132.327  1.00  0.00    -0.068 C 
ATOM      6  C   UNL     1     141.302 144.742 132.931  1.00  0.00     0.009 C 
ATOM      7  C   UNL     1     143.929 144.280 130.796  1.00  0.00     0.008 C 
ATOM      8  C   UNL     1     143.632 142.982 130.003  1.00  0.00     0.005 C 
ATOM      9  C   UNL     1     140.722 143.110 130.331  1.00  0.00     0.016 C 
ENDROOT
BRANCH   3  10
ATOM     10  C   UNL     1     143.879 141.572 133.603  1.00  0.00    -0.032 C 
ATOM     11  C   UNL     1     145.111 140.625 133.644  1.00  0.00     0.011 C 
ATOM     12  C   UNL     1     144.003 142.491 134.845  1.00  0.00     0.011 C 
BRANCH  10  13
ATOM     13  C   UNL     1     142.641 140.640 133.734  1.00  0.00     0.007 CG0
ATOM     14  G   UNL     1     141.284 141.336 133.755  1.00  0.00     0.000 G0
ENDBRANCH  10  13
ENDBRANCH   3  10
BRANCH   1  15
ATOM     15  C   UNL     1     140.763 141.639 132.354  1.00  0.00     0.011 C 
BRANCH  15  16
ATOM     16  C   UNL     1     141.282 141.335 133.757  1.00  0.00     0.001 CG0
ATOM     17  G   UNL     1     142.637 140.635 133.737  1.00  0.00     0.000 G0
ENDBRANCH  15  16
ENDBRANCH   1  15
TORSDOF 0
ENDMDL
