MODEL 1
REMARK VINA RESULT:    -3.246      0.000      0.000
REMARK INTER + INTRA:          -5.891
REMARK INTER:                  -4.954
REMARK INTRA:                  -0.937
REMARK UNBOUND:                -0.937
REMARK SMILES O=C([O-])CCCCCCCCC(=O)[O-]
REMARK SMILES IDX 7 1 6 2 5 3 4 4 2 5 1 6 3 7 8 8 9 9 10 10 11 11 12 12 13 13
REMARK SMILES IDX 14 14
REMARK H PARENT
REMARK Flexibility Score: inf
ROOT
ATOM      1  C   UNL     1      61.199  32.349  59.571  1.00  0.00     0.000 C 
ENDROOT
BRANCH   1   2
ATOM      2  C   UNL     1      61.828  33.733  59.352  1.00  0.00     0.000 C 
BRANCH   2   3
ATOM      3  C   UNL     1      62.101  34.430  60.695  1.00  0.00     0.006 C 
BRANCH   3   4
ATOM      4  C   UNL     1      63.596  34.467  61.037  1.00  0.00     0.053 C 
BRANCH   4   5
ATOM      5  C   UNL     1      64.011  35.807  61.562  1.00  0.00     0.041 C 
ATOM      6  O   UNL     1      65.223  36.046  61.806  1.00  0.00    -0.550 OA
ATOM      7  O   UNL     1      63.062  36.804  61.751  1.00  0.00    -0.550 OA
ENDBRANCH   4   5
ENDBRANCH   3   4
ENDBRANCH   2   3
ENDBRANCH   1   2
BRANCH   1   8
ATOM      8  C   UNL     1      60.663  32.164  60.999  1.00  0.00     0.000 C 
BRANCH   8   9
ATOM      9  C   UNL     1      61.266  30.935  61.702  1.00  0.00     0.000 C 
BRANCH   9  10
ATOM     10  C   UNL     1      62.410  30.296  60.899  1.00  0.00     0.006 C 
BRANCH  10  11
ATOM     11  C   UNL     1      63.783  30.524  61.545  1.00  0.00     0.053 C 
BRANCH  11  12
ATOM     12  C   UNL     1      64.834  30.687  60.492  1.00  0.00     0.041 C 
ATOM     13  O   UNL     1      64.627  31.433  59.499  1.00  0.00    -0.550 OA
ATOM     14  O   UNL     1      66.062  30.053  60.633  1.00  0.00    -0.550 OA
ENDBRANCH  11  12
ENDBRANCH  10  11
ENDBRANCH   9  10
ENDBRANCH   8   9
ENDBRANCH   1   8
TORSDOF 9
ENDMDL
MODEL 2
REMARK VINA RESULT:    -3.235     12.314     14.341
REMARK INTER + INTRA:          -5.874
REMARK INTER:                  -5.196
REMARK INTRA:                  -0.679
REMARK UNBOUND:                -0.937
REMARK SMILES O=C([O-])CCCCCCCCC(=O)[O-]
REMARK SMILES IDX 7 1 6 2 5 3 4 4 2 5 1 6 3 7 8 8 9 9 10 10 11 11 12 12 13 13
REMARK SMILES IDX 14 14
REMARK H PARENT
REMARK Flexibility Score: inf
ROOT
ATOM      1  C   UNL     1      57.859  29.204  51.149  1.00  0.00     0.000 C 
ENDROOT
BRANCH   1   2
ATOM      2  C   UNL     1      58.064  29.333  49.632  1.00  0.00     0.000 C 
BRANCH   2   3
ATOM      3  C   UNL     1      59.257  28.484  49.166  1.00  0.00     0.006 C 
BRANCH   3   4
ATOM      4  C   UNL     1      59.013  26.982  49.360  1.00  0.00     0.053 C 
BRANCH   4   5
ATOM      5  C   UNL     1      60.264  26.266  49.768  1.00  0.00     0.041 C 
ATOM      6  O   UNL     1      60.202  25.099  50.239  1.00  0.00    -0.550 OA
ATOM      7  O   UNL     1      61.501  26.875  49.598  1.00  0.00    -0.550 OA
ENDBRANCH   4   5
ENDBRANCH   3   4
ENDBRANCH   2   3
ENDBRANCH   1   2
BRANCH   1   8
ATOM      8  C   UNL     1      56.510  28.562  51.509  1.00  0.00     0.000 C 
BRANCH   8   9
ATOM      9  C   UNL     1      55.319  29.279  50.849  1.00  0.00     0.000 C 
BRANCH   9  10
ATOM     10  C   UNL     1      54.420  28.320  50.052  1.00  0.00     0.006 C 
BRANCH  10  11
ATOM     11  C   UNL     1      54.992  26.898  49.981  1.00  0.00     0.053 C 
BRANCH  11  12
ATOM     12  C   UNL     1      53.892  25.902  49.795  1.00  0.00     0.041 C 
ATOM     13  O   UNL     1      53.387  25.720  48.656  1.00  0.00    -0.550 OA
ATOM     14  O   UNL     1      53.456  25.138  50.871  1.00  0.00    -0.550 OA
ENDBRANCH  11  12
ENDBRANCH  10  11
ENDBRANCH   9  10
ENDBRANCH   8   9
ENDBRANCH   1   8
TORSDOF 9
ENDMDL
MODEL 3
REMARK VINA RESULT:    -3.221      1.774      2.517
REMARK INTER + INTRA:          -5.853
REMARK INTER:                  -5.335
REMARK INTRA:                  -0.517
REMARK UNBOUND:                -0.937
REMARK SMILES O=C([O-])CCCCCCCCC(=O)[O-]
REMARK SMILES IDX 7 1 6 2 5 3 4 4 2 5 1 6 3 7 8 8 9 9 10 10 11 11 12 12 13 13
REMARK SMILES IDX 14 14
REMARK H PARENT
REMARK Flexibility Score: inf
ROOT
ATOM      1  C   UNL     1      60.930  34.815  59.655  1.00  0.00     0.000 C 
ENDROOT
BRANCH   1   2
ATOM      2  C   UNL     1      61.048  36.089  60.504  1.00  0.00     0.000 C 
BRANCH   2   3
ATOM      3  C   UNL     1      62.449  36.708  60.373  1.00  0.00     0.006 C 
BRANCH   3   4
ATOM      4  C   UNL     1      63.204  36.726  61.708  1.00  0.00     0.053 C 
BRANCH   4   5
ATOM      5  C   UNL     1      64.431  35.868  61.662  1.00  0.00     0.041 C 
ATOM      6  O   UNL     1      64.329  34.613  61.676  1.00  0.00    -0.550 OA
ATOM      7  O   UNL     1      65.687  36.455  61.571  1.00  0.00    -0.550 OA
ENDBRANCH   4   5
ENDBRANCH   3   4
ENDBRANCH   2   3
ENDBRANCH   1   2
BRANCH   1   8
ATOM      8  C   UNL     1      61.355  33.553  60.422  1.00  0.00     0.000 C 
BRANCH   8   9
ATOM      9  C   UNL     1      61.135  32.265  59.611  1.00  0.00     0.000 C 
BRANCH   9  10
ATOM     10  C   UNL     1      60.491  31.145  60.444  1.00  0.00     0.006 C 
BRANCH  10  11
ATOM     11  C   UNL     1      61.119  31.012  61.838  1.00  0.00     0.053 C 
BRANCH  11  12
ATOM     12  C   UNL     1      62.345  30.157  61.779  1.00  0.00     0.041 C 
ATOM     13  O   UNL     1      63.488  30.684  61.800  1.00  0.00    -0.550 OA
ATOM     14  O   UNL     1      62.226  28.773  61.750  1.00  0.00    -0.550 OA
ENDBRANCH  11  12
ENDBRANCH  10  11
ENDBRANCH   9  10
ENDBRANCH   8   9
ENDBRANCH   1   8
TORSDOF 9
ENDMDL
MODEL 4
REMARK VINA RESULT:    -3.207     12.964     14.329
REMARK INTER + INTRA:          -5.832
REMARK INTER:                  -5.272
REMARK INTRA:                  -0.560
REMARK UNBOUND:                -0.937
REMARK SMILES O=C([O-])CCCCCCCCC(=O)[O-]
REMARK SMILES IDX 7 1 6 2 5 3 4 4 2 5 1 6 3 7 8 8 9 9 10 10 11 11 12 12 13 13
REMARK SMILES IDX 14 14
REMARK H PARENT
REMARK Flexibility Score: inf
ROOT
ATOM      1  C   UNL     1      57.409  28.809  50.743  1.00  0.00     0.000 C 
ENDROOT
BRANCH   1   2
ATOM      2  C   UNL     1      56.205  28.014  50.215  1.00  0.00     0.000 C 
BRANCH   2   3
ATOM      3  C   UNL     1      54.889  28.750  50.511  1.00  0.00     0.006 C 
BRANCH   3   4
ATOM      4  C   UNL     1      53.704  28.155  49.741  1.00  0.00     0.053 C 
BRANCH   4   5
ATOM      5  C   UNL     1      53.611  26.671  49.926  1.00  0.00     0.041 C 
ATOM      6  O   UNL     1      53.310  26.189  51.050  1.00  0.00    -0.550 OA
ATOM      7  O   UNL     1      53.826  25.821  48.848  1.00  0.00    -0.550 OA
ENDBRANCH   4   5
ENDBRANCH   3   4
ENDBRANCH   2   3
ENDBRANCH   1   2
BRANCH   1   8
ATOM      8  C   UNL     1      58.258  29.413  49.614  1.00  0.00     0.000 C 
BRANCH   8   9
ATOM      9  C   UNL     1      59.390  28.475  49.158  1.00  0.00     0.000 C 
BRANCH   9  10
ATOM     10  C   UNL     1      59.924  27.595  50.300  1.00  0.00     0.006 C 
BRANCH  10  11
ATOM     11  C   UNL     1      60.548  26.288  49.793  1.00  0.00     0.053 C 
BRANCH  11  12
ATOM     12  C   UNL     1      59.648  25.130  50.089  1.00  0.00     0.041 C 
ATOM     13  O   UNL     1      58.455  25.329  50.440  1.00  0.00    -0.550 OA
ATOM     14  O   UNL     1      60.111  23.831  49.929  1.00  0.00    -0.550 OA
ENDBRANCH  11  12
ENDBRANCH  10  11
ENDBRANCH   9  10
ENDBRANCH   8   9
ENDBRANCH   1   8
TORSDOF 9
ENDMDL
MODEL 5
REMARK VINA RESULT:    -3.166      2.007      3.155
REMARK INTER + INTRA:          -5.769
REMARK INTER:                  -4.768
REMARK INTRA:                  -1.001
REMARK UNBOUND:                -0.937
REMARK SMILES O=C([O-])CCCCCCCCC(=O)[O-]
REMARK SMILES IDX 7 1 6 2 5 3 4 4 2 5 1 6 3 7 8 8 9 9 10 10 11 11 12 12 13 13
REMARK SMILES IDX 14 14
REMARK H PARENT
REMARK Flexibility Score: inf
ROOT
ATOM      1  C   UNL     1      64.406  31.403  60.063  1.00  0.00     0.000 C 
ENDROOT
BRANCH   1   2
ATOM      2  C   UNL     1      64.424  32.922  59.831  1.00  0.00     0.000 C 
BRANCH   2   3
ATOM      3  C   UNL     1      63.942  33.674  61.082  1.00  0.00     0.006 C 
BRANCH   3   4
ATOM      4  C   UNL     1      63.000  34.833  60.736  1.00  0.00     0.053 C 
BRANCH   4   5
ATOM      5  C   UNL     1      63.330  36.067  61.520  1.00  0.00     0.041 C 
ATOM      6  O   UNL     1      62.503  37.014  61.589  1.00  0.00    -0.550 OA
ATOM      7  O   UNL     1      64.538  36.156  62.201  1.00  0.00    -0.550 OA
ENDBRANCH   4   5
ENDBRANCH   3   4
ENDBRANCH   2   3
ENDBRANCH   1   2
BRANCH   1   8
ATOM      8  C   UNL     1      63.776  31.020  61.411  1.00  0.00     0.000 C 
BRANCH   8   9
ATOM      9  C   UNL     1      62.550  30.104  61.253  1.00  0.00     0.000 C 
BRANCH   9  10
ATOM     10  C   UNL     1      61.286  30.689  61.903  1.00  0.00     0.006 C 
BRANCH  10  11
ATOM     11  C   UNL     1      60.753  31.916  61.152  1.00  0.00     0.053 C 
BRANCH  11  12
ATOM     12  C   UNL     1      60.507  31.583  59.715  1.00  0.00     0.041 C 
ATOM     13  O   UNL     1      61.101  32.220  58.805  1.00  0.00    -0.550 OA
ATOM     14  O   UNL     1      59.659  30.534  59.380  1.00  0.00    -0.550 OA
ENDBRANCH  11  12
ENDBRANCH  10  11
ENDBRANCH   9  10
ENDBRANCH   8   9
ENDBRANCH   1   8
TORSDOF 9
ENDMDL
MODEL 6
REMARK VINA RESULT:    -3.163      1.310      5.190
REMARK INTER + INTRA:          -5.764
REMARK INTER:                  -5.148
REMARK INTRA:                  -0.616
REMARK UNBOUND:                -0.937
REMARK SMILES O=C([O-])CCCCCCCCC(=O)[O-]
REMARK SMILES IDX 7 1 6 2 5 3 4 4 2 5 1 6 3 7 8 8 9 9 10 10 11 11 12 12 13 13
REMARK SMILES IDX 14 14
REMARK H PARENT
REMARK Flexibility Score: inf
ROOT
ATOM      1  C   UNL     1      60.782  32.045  60.392  1.00  0.00     0.000 C 
ENDROOT
BRANCH   1   2
ATOM      2  C   UNL     1      60.821  31.388  61.781  1.00  0.00     0.000 C 
BRANCH   2   3
ATOM      3  C   UNL     1      61.780  30.187  61.794  1.00  0.00     0.006 C 
BRANCH   3   4
ATOM      4  C   UNL     1      63.252  30.619  61.802  1.00  0.00     0.053 C 
BRANCH   4   5
ATOM      5  C   UNL     1      64.135  29.587  61.169  1.00  0.00     0.041 C 
ATOM      6  O   UNL     1      65.308  29.883  60.822  1.00  0.00    -0.550 OA
ATOM      7  O   UNL     1      63.672  28.289  60.993  1.00  0.00    -0.550 OA
ENDBRANCH   4   5
ENDBRANCH   3   4
ENDBRANCH   2   3
ENDBRANCH   1   2
BRANCH   1   8
ATOM      8  C   UNL     1      61.195  33.525  60.428  1.00  0.00     0.000 C 
BRANCH   8   9
ATOM      9  C   UNL     1      62.621  33.755  59.899  1.00  0.00     0.000 C 
BRANCH   9  10
ATOM     10  C   UNL     1      63.589  34.228  60.995  1.00  0.00     0.006 C 
BRANCH  10  11
ATOM     11  C   UNL     1      63.421  35.717  61.327  1.00  0.00     0.053 C 
BRANCH  11  12
ATOM     12  C   UNL     1      64.603  36.495  60.843  1.00  0.00     0.041 C 
ATOM     13  O   UNL     1      65.613  36.638  61.581  1.00  0.00    -0.550 OA
ATOM     14  O   UNL     1      64.609  37.023  59.557  1.00  0.00    -0.550 OA
ENDBRANCH  11  12
ENDBRANCH  10  11
ENDBRANCH   9  10
ENDBRANCH   8   9
ENDBRANCH   1   8
TORSDOF 9
ENDMDL
MODEL 7
REMARK VINA RESULT:    -3.141      1.069      4.810
REMARK INTER + INTRA:          -5.731
REMARK INTER:                  -5.070
REMARK INTRA:                  -0.661
REMARK UNBOUND:                -0.937
REMARK SMILES O=C([O-])CCCCCCCCC(=O)[O-]
REMARK SMILES IDX 7 1 6 2 5 3 4 4 2 5 1 6 3 7 8 8 9 9 10 10 11 11 12 12 13 13
REMARK SMILES IDX 14 14
REMARK H PARENT
REMARK Flexibility Score: inf
ROOT
ATOM      1  C   UNL     1      60.762  31.729  59.959  1.00  0.00     0.000 C 
ENDROOT
BRANCH   1   2
ATOM      2  C   UNL     1      60.842  31.565  61.484  1.00  0.00     0.000 C 
BRANCH   2   3
ATOM      3  C   UNL     1      61.830  30.452  61.866  1.00  0.00     0.006 C 
BRANCH   3   4
ATOM      4  C   UNL     1      62.730  30.046  60.692  1.00  0.00     0.053 C 
BRANCH   4   5
ATOM      5  C   UNL     1      64.155  30.449  60.920  1.00  0.00     0.041 C 
ATOM      6  O   UNL     1      64.478  31.666  60.918  1.00  0.00    -0.550 OA
ATOM      7  O   UNL     1      65.120  29.480  61.168  1.00  0.00    -0.550 OA
ENDBRANCH   4   5
ENDBRANCH   3   4
ENDBRANCH   2   3
ENDBRANCH   1   2
BRANCH   1   8
ATOM      8  C   UNL     1      61.237  33.113  59.489  1.00  0.00     0.000 C 
BRANCH   8   9
ATOM      9  C   UNL     1      61.742  33.990  60.647  1.00  0.00     0.000 C 
BRANCH   9  10
ATOM     10  C   UNL     1      61.655  35.492  60.333  1.00  0.00     0.006 C 
BRANCH  10  11
ATOM     11  C   UNL     1      62.486  36.345  61.300  1.00  0.00     0.053 C 
BRANCH  11  12
ATOM     12  C   UNL     1      63.945  36.068  61.119  1.00  0.00     0.041 C 
ATOM     13  O   UNL     1      64.457  36.095  59.969  1.00  0.00    -0.550 OA
ATOM     14  O   UNL     1      64.750  35.829  62.226  1.00  0.00    -0.550 OA
ENDBRANCH  11  12
ENDBRANCH  10  11
ENDBRANCH   9  10
ENDBRANCH   8   9
ENDBRANCH   1   8
TORSDOF 9
ENDMDL
MODEL 8
REMARK VINA RESULT:    -3.077     12.972     13.993
REMARK INTER + INTRA:          -5.634
REMARK INTER:                  -5.031
REMARK INTRA:                  -0.603
REMARK UNBOUND:                -0.937
REMARK SMILES O=C([O-])CCCCCCCCC(=O)[O-]
REMARK SMILES IDX 7 1 6 2 5 3 4 4 2 5 1 6 3 7 8 8 9 9 10 10 11 11 12 12 13 13
REMARK SMILES IDX 14 14
REMARK H PARENT
REMARK Flexibility Score: inf
ROOT
ATOM      1  C   UNL     1      58.628  29.230  49.302  1.00  0.00     0.000 C 
ENDROOT
BRANCH   1   2
ATOM      2  C   UNL     1      57.429  28.906  50.204  1.00  0.00     0.000 C 
BRANCH   2   3
ATOM      3  C   UNL     1      57.128  27.399  50.197  1.00  0.00     0.006 C 
BRANCH   3   4
ATOM      4  C   UNL     1      55.772  27.073  50.836  1.00  0.00     0.053 C 
BRANCH   4   5
ATOM      5  C   UNL     1      54.666  27.087  49.826  1.00  0.00     0.041 C 
ATOM      6  O   UNL     1      54.411  26.057  49.149  1.00  0.00    -0.550 OA
ATOM      7  O   UNL     1      53.894  28.231  49.656  1.00  0.00    -0.550 OA
ENDBRANCH   4   5
ENDBRANCH   3   4
ENDBRANCH   2   3
ENDBRANCH   1   2
BRANCH   1   8
ATOM      8  C   UNL     1      59.504  27.999  49.020  1.00  0.00     0.000 C 
BRANCH   8   9
ATOM      9  C   UNL     1      60.907  28.117  49.641  1.00  0.00     0.000 C 
BRANCH   9  10
ATOM     10  C   UNL     1      61.448  26.767  50.138  1.00  0.00     0.006 C 
BRANCH  10  11
ATOM     11  C   UNL     1      60.369  25.676  50.170  1.00  0.00     0.053 C 
BRANCH  11  12
ATOM     12  C   UNL     1      60.996  24.320  50.080  1.00  0.00     0.041 C 
ATOM     13  O   UNL     1      60.325  23.339  49.663  1.00  0.00    -0.550 OA
ATOM     14  O   UNL     1      62.335  24.150  50.408  1.00  0.00    -0.550 OA
ENDBRANCH  11  12
ENDBRANCH  10  11
ENDBRANCH   9  10
ENDBRANCH   8   9
ENDBRANCH   1   8
TORSDOF 9
ENDMDL
MODEL 9
REMARK VINA RESULT:    -3.017     12.033     13.976
REMARK INTER + INTRA:          -5.542
REMARK INTER:                  -4.861
REMARK INTRA:                  -0.681
REMARK UNBOUND:                -0.937
REMARK SMILES O=C([O-])CCCCCCCCC(=O)[O-]
REMARK SMILES IDX 7 1 6 2 5 3 4 4 2 5 1 6 3 7 8 8 9 9 10 10 11 11 12 12 13 13
REMARK SMILES IDX 14 14
REMARK H PARENT
REMARK Flexibility Score: inf
ROOT
ATOM      1  C   UNL     1      56.768  28.990  50.575  1.00  0.00     0.000 C 
ENDROOT
BRANCH   1   2
ATOM      2  C   UNL     1      56.721  27.579  51.180  1.00  0.00     0.000 C 
BRANCH   2   3
ATOM      3  C   UNL     1      56.256  26.550  50.137  1.00  0.00     0.006 C 
BRANCH   3   4
ATOM      4  C   UNL     1      54.846  26.022  50.430  1.00  0.00     0.053 C 
BRANCH   4   5
ATOM      5  C   UNL     1      53.840  26.562  49.459  1.00  0.00     0.041 C 
ATOM      6  O   UNL     1      53.279  25.794  48.634  1.00  0.00    -0.550 OA
ATOM      7  O   UNL     1      53.498  27.908  49.489  1.00  0.00    -0.550 OA
ENDBRANCH   4   5
ENDBRANCH   3   4
ENDBRANCH   2   3
ENDBRANCH   1   2
BRANCH   1   8
ATOM      8  C   UNL     1      58.197  29.549  50.490  1.00  0.00     0.000 C 
BRANCH   8   9
ATOM      9  C   UNL     1      58.838  29.327  49.109  1.00  0.00     0.000 C 
BRANCH   9  10
ATOM     10  C   UNL     1      59.664  28.032  49.042  1.00  0.00     0.006 C 
BRANCH  10  11
ATOM     11  C   UNL     1      60.449  27.767  50.334  1.00  0.00     0.053 C 
BRANCH  11  12
ATOM     12  C   UNL     1      61.918  27.904  50.089  1.00  0.00     0.041 C 
ATOM     13  O   UNL     1      62.361  27.976  48.912  1.00  0.00    -0.550 OA
ATOM     14  O   UNL     1      62.796  28.001  51.162  1.00  0.00    -0.550 OA
ENDBRANCH  11  12
ENDBRANCH  10  11
ENDBRANCH   9  10
ENDBRANCH   8   9
ENDBRANCH   1   8
TORSDOF 9
ENDMDL
