MODEL 1
REMARK VINA RESULT:    -3.272      0.000      0.000
REMARK INTER + INTRA:         -11.108
REMARK INTER:                  -7.480
REMARK INTRA:                  -3.628
REMARK UNBOUND:                -3.628
REMARK SMILES CCCCCCCCCCCCCCCCCCCCCCCC(=O)[O-]
REMARK SMILES IDX 13 1 14 2 15 3 16 4 17 5 18 6 19 7 20 8 21 9 22 10 23 11
REMARK SMILES IDX 24 12 25 13 26 14 12 15 11 16 10 17 9 18 8 19 7 20 6 21 5 22
REMARK SMILES IDX 4 23 3 24 2 25 1 26
REMARK H PARENT
REMARK Flexibility Score: inf
ROOT
ATOM      1  C   UNL     1      -8.173  -6.764   5.672  1.00  0.00     0.000 C 
ENDROOT
BRANCH   1   2
ATOM      2  C   UNL     1      -8.738  -5.488   6.317  1.00  0.00     0.000 C 
BRANCH   2   3
ATOM      3  C   UNL     1      -8.815  -5.561   7.858  1.00  0.00     0.000 C 
BRANCH   3   4
ATOM      4  C   UNL     1      -9.112  -4.186   8.489  1.00  0.00     0.000 C 
BRANCH   4   5
ATOM      5  C   UNL     1      -9.734  -3.202   7.488  1.00  0.00     0.000 C 
BRANCH   5   6
ATOM      6  C   UNL     1      -9.014  -1.847   7.455  1.00  0.00     0.000 C 
BRANCH   6   7
ATOM      7  C   UNL     1      -8.721  -1.362   8.884  1.00  0.00     0.000 C 
BRANCH   7   8
ATOM      8  C   UNL     1      -9.908  -0.619   9.518  1.00  0.00     0.000 C 
BRANCH   8   9
ATOM      9  C   UNL     1      -9.585   0.848   9.881  1.00  0.00     0.000 C 
BRANCH   9  10
ATOM     10  C   UNL     1      -8.157   1.237   9.466  1.00  0.00     0.006 C 
BRANCH  10  11
ATOM     11  C   UNL     1      -7.755   2.587  10.066  1.00  0.00     0.053 C 
BRANCH  11  12
ATOM     12  C   UNL     1      -7.516   3.595   8.987  1.00  0.00     0.041 C 
ATOM     13  O   UNL     1      -8.209   3.580   7.933  1.00  0.00    -0.550 OA
ATOM     14  O   UNL     1      -6.623   4.641   9.203  1.00  0.00    -0.550 OA
ENDBRANCH  11  12
ENDBRANCH  10  11
ENDBRANCH   9  10
ENDBRANCH   8   9
ENDBRANCH   7   8
ENDBRANCH   6   7
ENDBRANCH   5   6
ENDBRANCH   4   5
ENDBRANCH   3   4
ENDBRANCH   2   3
ENDBRANCH   1   2
BRANCH   1  15
ATOM     15  C   UNL     1      -6.697  -7.010   6.034  1.00  0.00     0.000 C 
BRANCH  15  16
ATOM     16  C   UNL     1      -5.731  -6.181   5.176  1.00  0.00     0.000 C 
BRANCH  16  17
ATOM     17  C   UNL     1      -4.505  -5.684   5.966  1.00  0.00     0.000 C 
BRANCH  17  18
ATOM     18  C   UNL     1      -4.446  -4.144   6.076  1.00  0.00    -0.000 C 
BRANCH  18  19
ATOM     19  C   UNL     1      -5.704  -3.513   6.700  1.00  0.00    -0.000 C 
BRANCH  19  20
ATOM     20  C   UNL     1      -5.537  -3.009   8.146  1.00  0.00    -0.000 C 
BRANCH  20  21
ATOM     21  C   UNL     1      -4.805  -4.002   9.078  1.00  0.00    -0.000 C 
BRANCH  21  22
ATOM     22  C   UNL     1      -5.738  -5.081   9.660  1.00  0.00    -0.000 C 
BRANCH  22  23
ATOM     23  C   UNL     1      -5.126  -6.497   9.569  1.00  0.00    -0.000 C 
BRANCH  23  24
ATOM     24  C   UNL     1      -6.176  -7.627   9.626  1.00  0.00    -0.000 C 
BRANCH  24  25
ATOM     25  C   UNL     1      -5.719  -8.958   9.002  1.00  0.00    -0.003 C 
ATOM     26  C   UNL     1      -6.885  -9.803   8.494  1.00  0.00     0.004 C 
ENDBRANCH  24  25
ENDBRANCH  23  24
ENDBRANCH  22  23
ENDBRANCH  21  22
ENDBRANCH  20  21
ENDBRANCH  19  20
ENDBRANCH  18  19
ENDBRANCH  17  18
ENDBRANCH  16  17
ENDBRANCH  15  16
ENDBRANCH   1  15
TORSDOF 22
ENDMDL
MODEL 2
REMARK VINA RESULT:    -3.272      1.457      4.270
REMARK INTER + INTRA:         -11.108
REMARK INTER:                  -7.658
REMARK INTRA:                  -3.450
REMARK UNBOUND:                -3.628
REMARK SMILES CCCCCCCCCCCCCCCCCCCCCCCC(=O)[O-]
REMARK SMILES IDX 13 1 14 2 15 3 16 4 17 5 18 6 19 7 20 8 21 9 22 10 23 11
REMARK SMILES IDX 24 12 25 13 26 14 12 15 11 16 10 17 9 18 8 19 7 20 6 21 5 22
REMARK SMILES IDX 4 23 3 24 2 25 1 26
REMARK H PARENT
REMARK Flexibility Score: inf
ROOT
ATOM      1  C   UNL     1      -6.070  -6.136   9.624  1.00  0.00     0.000 C 
ENDROOT
BRANCH   1   2
ATOM      2  C   UNL     1      -6.383  -4.648   9.848  1.00  0.00     0.000 C 
BRANCH   2   3
ATOM      3  C   UNL     1      -5.338  -3.700   9.218  1.00  0.00     0.000 C 
BRANCH   3   4
ATOM      4  C   UNL     1      -5.998  -2.500   8.509  1.00  0.00     0.000 C 
BRANCH   4   5
ATOM      5  C   UNL     1      -7.253  -2.902   7.720  1.00  0.00     0.000 C 
BRANCH   5   6
ATOM      6  C   UNL     1      -8.249  -1.747   7.552  1.00  0.00     0.000 C 
BRANCH   6   7
ATOM      7  C   UNL     1      -9.573  -2.074   8.262  1.00  0.00     0.000 C 
BRANCH   7   8
ATOM      8  C   UNL     1      -9.888  -1.104   9.413  1.00  0.00     0.000 C 
BRANCH   8   9
ATOM      9  C   UNL     1      -9.037   0.185   9.373  1.00  0.00     0.000 C 
BRANCH   9  10
ATOM     10  C   UNL     1      -9.899   1.429   9.102  1.00  0.00     0.006 C 
BRANCH  10  11
ATOM     11  C   UNL     1      -9.723   1.920   7.663  1.00  0.00     0.053 C 
BRANCH  11  12
ATOM     12  C   UNL     1      -9.125   3.291   7.641  1.00  0.00     0.041 C 
ATOM     13  O   UNL     1      -9.786   4.269   7.195  1.00  0.00    -0.550 OA
ATOM     14  O   UNL     1      -7.891   3.517   8.242  1.00  0.00    -0.550 OA
ENDBRANCH  11  12
ENDBRANCH  10  11
ENDBRANCH   9  10
ENDBRANCH   8   9
ENDBRANCH   7   8
ENDBRANCH   6   7
ENDBRANCH   5   6
ENDBRANCH   4   5
ENDBRANCH   3   4
ENDBRANCH   2   3
ENDBRANCH   1   2
BRANCH   1  15
ATOM     15  C   UNL     1      -7.288  -7.045   9.873  1.00  0.00     0.000 C 
BRANCH  15  16
ATOM     16  C   UNL     1      -6.894  -8.507  10.121  1.00  0.00     0.000 C 
BRANCH  16  17
ATOM     17  C   UNL     1      -5.439  -8.813   9.717  1.00  0.00     0.000 C 
BRANCH  17  18
ATOM     18  C   UNL     1      -5.338  -9.811   8.543  1.00  0.00    -0.000 C 
BRANCH  18  19
ATOM     19  C   UNL     1      -6.685 -10.112   7.860  1.00  0.00    -0.000 C 
BRANCH  19  20
ATOM     20  C   UNL     1      -6.734  -9.816   6.348  1.00  0.00    -0.000 C 
BRANCH  20  21
ATOM     21  C   UNL     1      -6.001  -8.519   5.937  1.00  0.00    -0.000 C 
BRANCH  21  22
ATOM     22  C   UNL     1      -6.909  -7.275   5.979  1.00  0.00    -0.000 C 
BRANCH  22  23
ATOM     23  C   UNL     1      -6.100  -5.958   5.963  1.00  0.00    -0.000 C 
BRANCH  23  24
ATOM     24  C   UNL     1      -4.589  -6.159   6.201  1.00  0.00    -0.000 C 
BRANCH  24  25
ATOM     25  C   UNL     1      -3.752  -4.869   6.141  1.00  0.00    -0.003 C 
ATOM     26  C   UNL     1      -4.443  -3.753   5.361  1.00  0.00     0.004 C 
ENDBRANCH  24  25
ENDBRANCH  23  24
ENDBRANCH  22  23
ENDBRANCH  21  22
ENDBRANCH  20  21
ENDBRANCH  19  20
ENDBRANCH  18  19
ENDBRANCH  17  18
ENDBRANCH  16  17
ENDBRANCH  15  16
ENDBRANCH   1  15
TORSDOF 22
ENDMDL
MODEL 3
REMARK VINA RESULT:    -3.243      3.981      8.570
REMARK INTER + INTRA:         -11.041
REMARK INTER:                  -7.813
REMARK INTRA:                  -3.228
REMARK UNBOUND:                -3.628
REMARK SMILES CCCCCCCCCCCCCCCCCCCCCCCC(=O)[O-]
REMARK SMILES IDX 13 1 14 2 15 3 16 4 17 5 18 6 19 7 20 8 21 9 22 10 23 11
REMARK SMILES IDX 24 12 25 13 26 14 12 15 11 16 10 17 9 18 8 19 7 20 6 21 5 22
REMARK SMILES IDX 4 23 3 24 2 25 1 26
REMARK H PARENT
REMARK Flexibility Score: inf
ROOT
ATOM      1  C   UNL     1      -4.892  -4.701   5.845  1.00  0.00     0.000 C 
ENDROOT
BRANCH   1   2
ATOM      2  C   UNL     1      -3.993  -5.646   6.659  1.00  0.00     0.000 C 
BRANCH   2   3
ATOM      3  C   UNL     1      -3.761  -5.173   8.111  1.00  0.00     0.000 C 
BRANCH   3   4
ATOM      4  C   UNL     1      -4.386  -6.136   9.141  1.00  0.00     0.000 C 
BRANCH   4   5
ATOM      5  C   UNL     1      -5.619  -5.536   9.832  1.00  0.00     0.000 C 
BRANCH   5   6
ATOM      6  C   UNL     1      -6.888  -6.376   9.627  1.00  0.00     0.000 C 
BRANCH   6   7
ATOM      7  C   UNL     1      -7.935  -5.580   8.832  1.00  0.00     0.000 C 
BRANCH   7   8
ATOM      8  C   UNL     1      -8.058  -6.047   7.373  1.00  0.00     0.000 C 
BRANCH   8   9
ATOM      9  C   UNL     1      -8.843  -7.369   7.221  1.00  0.00     0.000 C 
BRANCH   9  10
ATOM     10  C   UNL     1      -8.120  -8.358   6.293  1.00  0.00     0.006 C 
BRANCH  10  11
ATOM     11  C   UNL     1      -6.602  -8.167   6.357  1.00  0.00     0.053 C 
BRANCH  11  12
ATOM     12  C   UNL     1      -5.953  -9.320   7.055  1.00  0.00     0.041 C 
ATOM     13  O   UNL     1      -5.220 -10.123   6.415  1.00  0.00    -0.550 OA
ATOM     14  O   UNL     1      -6.041  -9.430   8.439  1.00  0.00    -0.550 OA
ENDBRANCH  11  12
ENDBRANCH  10  11
ENDBRANCH   9  10
ENDBRANCH   8   9
ENDBRANCH   7   8
ENDBRANCH   6   7
ENDBRANCH   5   6
ENDBRANCH   4   5
ENDBRANCH   3   4
ENDBRANCH   2   3
ENDBRANCH   1   2
BRANCH   1  15
ATOM     15  C   UNL     1      -4.924  -3.271   6.415  1.00  0.00     0.000 C 
BRANCH  15  16
ATOM     16  C   UNL     1      -6.268  -2.926   7.069  1.00  0.00     0.000 C 
BRANCH  16  17
ATOM     17  C   UNL     1      -6.111  -2.294   8.465  1.00  0.00     0.000 C 
BRANCH  17  18
ATOM     18  C   UNL     1      -7.457  -1.857   9.083  1.00  0.00    -0.000 C 
BRANCH  18  19
ATOM     19  C   UNL     1      -8.651  -1.954   8.115  1.00  0.00    -0.000 C 
BRANCH  19  20
ATOM     20  C   UNL     1      -9.522  -0.686   8.019  1.00  0.00    -0.000 C 
BRANCH  20  21
ATOM     21  C   UNL     1      -9.647   0.094   9.348  1.00  0.00    -0.000 C 
BRANCH  21  22
ATOM     22  C   UNL     1      -9.553   1.620   9.161  1.00  0.00    -0.000 C 
BRANCH  22  23
ATOM     23  C   UNL     1      -8.099   2.135   9.261  1.00  0.00    -0.000 C 
BRANCH  23  24
ATOM     24  C   UNL     1      -7.932   3.602   8.810  1.00  0.00    -0.000 C 
BRANCH  24  25
ATOM     25  C   UNL     1      -7.193   4.502   9.816  1.00  0.00    -0.003 C 
ATOM     26  C   UNL     1      -5.837   4.976   9.300  1.00  0.00     0.004 C 
ENDBRANCH  24  25
ENDBRANCH  23  24
ENDBRANCH  22  23
ENDBRANCH  21  22
ENDBRANCH  20  21
ENDBRANCH  19  20
ENDBRANCH  18  19
ENDBRANCH  17  18
ENDBRANCH  16  17
ENDBRANCH  15  16
ENDBRANCH   1  15
TORSDOF 22
ENDMDL
MODEL 4
REMARK VINA RESULT:    -3.198      2.570      7.582
REMARK INTER + INTRA:         -10.938
REMARK INTER:                  -8.035
REMARK INTRA:                  -2.903
REMARK UNBOUND:                -3.628
REMARK SMILES CCCCCCCCCCCCCCCCCCCCCCCC(=O)[O-]
REMARK SMILES IDX 13 1 14 2 15 3 16 4 17 5 18 6 19 7 20 8 21 9 22 10 23 11
REMARK SMILES IDX 24 12 25 13 26 14 12 15 11 16 10 17 9 18 8 19 7 20 6 21 5 22
REMARK SMILES IDX 4 23 3 24 2 25 1 26
REMARK H PARENT
REMARK Flexibility Score: inf
ROOT
ATOM      1  C   UNL     1      -5.912  -6.969   9.828  1.00  0.00     0.000 C 
ENDROOT
BRANCH   1   2
ATOM      2  C   UNL     1      -5.640  -8.452   9.525  1.00  0.00     0.000 C 
BRANCH   2   3
ATOM      3  C   UNL     1      -5.893  -8.833   8.049  1.00  0.00     0.000 C 
BRANCH   3   4
ATOM      4  C   UNL     1      -7.145  -9.719   7.887  1.00  0.00     0.000 C 
BRANCH   4   5
ATOM      5  C   UNL     1      -8.012  -9.296   6.693  1.00  0.00     0.000 C 
BRANCH   5   6
ATOM      6  C   UNL     1      -8.691  -7.935   6.898  1.00  0.00     0.000 C 
BRANCH   6   7
ATOM      7  C   UNL     1      -8.513  -7.054   5.651  1.00  0.00     0.000 C 
BRANCH   7   8
ATOM      8  C   UNL     1      -7.515  -5.906   5.869  1.00  0.00     0.000 C 
BRANCH   8   9
ATOM      9  C   UNL     1      -6.086  -6.240   5.384  1.00  0.00     0.000 C 
BRANCH   9  10
ATOM     10  C   UNL     1      -5.016  -5.679   6.333  1.00  0.00     0.006 C 
BRANCH  10  11
ATOM     11  C   UNL     1      -4.159  -4.619   5.635  1.00  0.00     0.053 C 
BRANCH  11  12
ATOM     12  C   UNL     1      -4.716  -3.251   5.868  1.00  0.00     0.041 C 
ATOM     13  O   UNL     1      -5.315  -2.980   6.945  1.00  0.00    -0.550 OA
ATOM     14  O   UNL     1      -4.453  -2.232   4.958  1.00  0.00    -0.550 OA
ENDBRANCH  11  12
ENDBRANCH  10  11
ENDBRANCH   9  10
ENDBRANCH   8   9
ENDBRANCH   7   8
ENDBRANCH   6   7
ENDBRANCH   5   6
ENDBRANCH   4   5
ENDBRANCH   3   4
ENDBRANCH   2   3
ENDBRANCH   1   2
BRANCH   1  15
ATOM     15  C   UNL     1      -7.415  -6.640   9.892  1.00  0.00     0.000 C 
BRANCH  15  16
ATOM     16  C   UNL     1      -7.737  -5.241   9.352  1.00  0.00     0.000 C 
BRANCH  16  17
ATOM     17  C   UNL     1      -9.250  -4.986   9.212  1.00  0.00     0.000 C 
BRANCH  17  18
ATOM     18  C   UNL     1      -9.599  -3.486   9.094  1.00  0.00    -0.000 C 
BRANCH  18  19
ATOM     19  C   UNL     1      -8.380  -2.577   8.848  1.00  0.00    -0.000 C 
BRANCH  19  20
ATOM     20  C   UNL     1      -8.463  -1.694   7.588  1.00  0.00    -0.000 C 
BRANCH  20  21
ATOM     21  C   UNL     1      -9.743  -0.831   7.508  1.00  0.00    -0.000 C 
BRANCH  21  22
ATOM     22  C   UNL     1      -9.619   0.338   6.513  1.00  0.00    -0.000 C 
BRANCH  22  23
ATOM     23  C   UNL     1     -10.022   1.691   7.143  1.00  0.00    -0.000 C 
BRANCH  23  24
ATOM     24  C   UNL     1      -9.011   2.210   8.187  1.00  0.00    -0.000 C 
BRANCH  24  25
ATOM     25  C   UNL     1      -8.690   3.711   8.078  1.00  0.00    -0.003 C 
ATOM     26  C   UNL     1      -8.413   4.356   9.433  1.00  0.00     0.004 C 
ENDBRANCH  24  25
ENDBRANCH  23  24
ENDBRANCH  22  23
ENDBRANCH  21  22
ENDBRANCH  20  21
ENDBRANCH  19  20
ENDBRANCH  18  19
ENDBRANCH  17  18
ENDBRANCH  16  17
ENDBRANCH  15  16
ENDBRANCH   1  15
TORSDOF 22
ENDMDL
MODEL 5
REMARK VINA RESULT:    -3.193      1.812      4.398
REMARK INTER + INTRA:         -10.928
REMARK INTER:                  -7.343
REMARK INTRA:                  -3.585
REMARK UNBOUND:                -3.628
REMARK SMILES CCCCCCCCCCCCCCCCCCCCCCCC(=O)[O-]
REMARK SMILES IDX 13 1 14 2 15 3 16 4 17 5 18 6 19 7 20 8 21 9 22 10 23 11
REMARK SMILES IDX 24 12 25 13 26 14 12 15 11 16 10 17 9 18 8 19 7 20 6 21 5 22
REMARK SMILES IDX 4 23 3 24 2 25 1 26
REMARK H PARENT
REMARK Flexibility Score: inf
ROOT
ATOM      1  C   UNL     1      -5.531  -5.603   5.857  1.00  0.00     0.000 C 
ENDROOT
BRANCH   1   2
ATOM      2  C   UNL     1      -4.102  -5.191   6.245  1.00  0.00     0.000 C 
BRANCH   2   3
ATOM      3  C   UNL     1      -3.814  -5.325   7.757  1.00  0.00     0.000 C 
BRANCH   3   4
ATOM      4  C   UNL     1      -5.070  -5.060   8.611  1.00  0.00     0.000 C 
BRANCH   4   5
ATOM      5  C   UNL     1      -4.787  -4.130   9.800  1.00  0.00     0.000 C 
BRANCH   5   6
ATOM      6  C   UNL     1      -5.536  -2.794   9.706  1.00  0.00     0.000 C 
BRANCH   6   7
ATOM      7  C   UNL     1      -6.160  -2.627   8.311  1.00  0.00     0.000 C 
BRANCH   7   8
ATOM      8  C   UNL     1      -7.643  -2.223   8.366  1.00  0.00     0.000 C 
BRANCH   8   9
ATOM      9  C   UNL     1      -7.986  -1.332   9.582  1.00  0.00     0.000 C 
BRANCH   9  10
ATOM     10  C   UNL     1      -8.591   0.013   9.150  1.00  0.00     0.006 C 
BRANCH  10  11
ATOM     11  C   UNL     1      -9.761  -0.192   8.183  1.00  0.00     0.053 C 
BRANCH  11  12
ATOM     12  C   UNL     1      -9.563   0.610   6.936  1.00  0.00     0.041 C 
ATOM     13  O   UNL     1      -9.487   0.038   5.814  1.00  0.00    -0.550 OA
ATOM     14  O   UNL     1      -9.604   1.999   6.993  1.00  0.00    -0.550 OA
ENDBRANCH  11  12
ENDBRANCH  10  11
ENDBRANCH   9  10
ENDBRANCH   8   9
ENDBRANCH   7   8
ENDBRANCH   6   7
ENDBRANCH   5   6
ENDBRANCH   4   5
ENDBRANCH   3   4
ENDBRANCH   2   3
ENDBRANCH   1   2
BRANCH   1  15
ATOM     15  C   UNL     1      -5.610  -7.042   5.315  1.00  0.00     0.000 C 
BRANCH  15  16
ATOM     16  C   UNL     1      -6.504  -7.948   6.172  1.00  0.00     0.000 C 
BRANCH  16  17
ATOM     17  C   UNL     1      -5.940  -9.374   6.325  1.00  0.00     0.000 C 
BRANCH  17  18
ATOM     18  C   UNL     1      -5.727  -9.781   7.800  1.00  0.00    -0.000 C 
BRANCH  18  19
ATOM     19  C   UNL     1      -5.826  -8.609   8.793  1.00  0.00    -0.000 C 
BRANCH  19  20
ATOM     20  C   UNL     1      -6.927  -8.748   9.863  1.00  0.00    -0.000 C 
BRANCH  20  21
ATOM     21  C   UNL     1      -8.265  -9.301   9.321  1.00  0.00    -0.000 C 
BRANCH  21  22
ATOM     22  C   UNL     1      -9.414  -8.278   9.399  1.00  0.00    -0.000 C 
BRANCH  22  23
ATOM     23  C   UNL     1      -9.512  -7.407   8.125  1.00  0.00    -0.000 C 
BRANCH  23  24
ATOM     24  C   UNL     1      -8.750  -6.070   8.233  1.00  0.00    -0.000 C 
BRANCH  24  25
ATOM     25  C   UNL     1      -9.017  -5.085   7.080  1.00  0.00    -0.003 C 
ATOM     26  C   UNL     1      -9.445  -5.785   5.793  1.00  0.00     0.004 C 
ENDBRANCH  24  25
ENDBRANCH  23  24
ENDBRANCH  22  23
ENDBRANCH  21  22
ENDBRANCH  20  21
ENDBRANCH  19  20
ENDBRANCH  18  19
ENDBRANCH  17  18
ENDBRANCH  16  17
ENDBRANCH  15  16
ENDBRANCH   1  15
TORSDOF 22
ENDMDL
MODEL 6
REMARK VINA RESULT:    -3.175      3.262      8.012
REMARK INTER + INTRA:         -10.886
REMARK INTER:                  -7.969
REMARK INTRA:                  -2.917
REMARK UNBOUND:                -3.628
REMARK SMILES CCCCCCCCCCCCCCCCCCCCCCCC(=O)[O-]
REMARK SMILES IDX 13 1 14 2 15 3 16 4 17 5 18 6 19 7 20 8 21 9 22 10 23 11
REMARK SMILES IDX 24 12 25 13 26 14 12 15 11 16 10 17 9 18 8 19 7 20 6 21 5 22
REMARK SMILES IDX 4 23 3 24 2 25 1 26
REMARK H PARENT
REMARK Flexibility Score: inf
ROOT
ATOM      1  C   UNL     1      -4.660  -4.976   4.867  1.00  0.00     0.000 C 
ENDROOT
BRANCH   1   2
ATOM      2  C   UNL     1      -4.807  -6.153   5.845  1.00  0.00     0.000 C 
BRANCH   2   3
ATOM      3  C   UNL     1      -6.131  -6.931   5.674  1.00  0.00     0.000 C 
BRANCH   3   4
ATOM      4  C   UNL     1      -7.362  -6.050   5.963  1.00  0.00     0.000 C 
BRANCH   4   5
ATOM      5  C   UNL     1      -8.491  -6.827   6.654  1.00  0.00     0.000 C 
BRANCH   5   6
ATOM      6  C   UNL     1      -9.125  -7.893   5.750  1.00  0.00     0.000 C 
BRANCH   6   7
ATOM      7  C   UNL     1      -9.214  -9.238   6.488  1.00  0.00     0.000 C 
BRANCH   7   8
ATOM      8  C   UNL     1      -7.947  -9.561   7.296  1.00  0.00     0.000 C 
BRANCH   8   9
ATOM      9  C   UNL     1      -8.236  -9.883   8.779  1.00  0.00     0.000 C 
BRANCH   9  10
ATOM     10  C   UNL     1      -7.170  -9.285   9.711  1.00  0.00     0.006 C 
BRANCH  10  11
ATOM     11  C   UNL     1      -6.048  -8.618   8.910  1.00  0.00     0.053 C 
BRANCH  11  12
ATOM     12  C   UNL     1      -5.862  -7.198   9.341  1.00  0.00     0.041 C 
ATOM     13  O   UNL     1      -6.836  -6.535   9.793  1.00  0.00    -0.550 OA
ATOM     14  O   UNL     1      -4.585  -6.647   9.376  1.00  0.00    -0.550 OA
ENDBRANCH  11  12
ENDBRANCH  10  11
ENDBRANCH   9  10
ENDBRANCH   8   9
ENDBRANCH   7   8
ENDBRANCH   6   7
ENDBRANCH   5   6
ENDBRANCH   4   5
ENDBRANCH   3   4
ENDBRANCH   2   3
ENDBRANCH   1   2
BRANCH   1  15
ATOM     15  C   UNL     1      -4.137  -3.698   5.547  1.00  0.00     0.000 C 
BRANCH  15  16
ATOM     16  C   UNL     1      -5.219  -2.975   6.359  1.00  0.00     0.000 C 
BRANCH  16  17
ATOM     17  C   UNL     1      -5.296  -3.458   7.820  1.00  0.00     0.000 C 
BRANCH  17  18
ATOM     18  C   UNL     1      -6.700  -3.282   8.439  1.00  0.00    -0.000 C 
BRANCH  18  19
ATOM     19  C   UNL     1      -7.725  -2.633   7.490  1.00  0.00    -0.000 C 
BRANCH  19  20
ATOM     20  C   UNL     1      -9.201  -2.839   7.881  1.00  0.00    -0.000 C 
BRANCH  20  21
ATOM     21  C   UNL     1      -9.990  -1.524   8.079  1.00  0.00    -0.000 C 
BRANCH  21  22
ATOM     22  C   UNL     1      -9.087  -0.276   8.079  1.00  0.00    -0.000 C 
BRANCH  22  23
ATOM     23  C   UNL     1      -9.893   1.031   8.263  1.00  0.00    -0.000 C 
BRANCH  23  24
ATOM     24  C   UNL     1      -9.753   2.013   7.080  1.00  0.00    -0.000 C 
BRANCH  24  25
ATOM     25  C   UNL     1      -9.316   3.435   7.476  1.00  0.00    -0.003 C 
ATOM     26  C   UNL     1      -8.320   3.446   8.633  1.00  0.00     0.004 C 
ENDBRANCH  24  25
ENDBRANCH  23  24
ENDBRANCH  22  23
ENDBRANCH  21  22
ENDBRANCH  20  21
ENDBRANCH  19  20
ENDBRANCH  18  19
ENDBRANCH  17  18
ENDBRANCH  16  17
ENDBRANCH  15  16
ENDBRANCH   1  15
TORSDOF 22
ENDMDL
MODEL 7
REMARK VINA RESULT:    -3.166      1.427      3.903
REMARK INTER + INTRA:         -10.866
REMARK INTER:                  -7.616
REMARK INTRA:                  -3.250
REMARK UNBOUND:                -3.628
REMARK SMILES CCCCCCCCCCCCCCCCCCCCCCCC(=O)[O-]
REMARK SMILES IDX 13 1 14 2 15 3 16 4 17 5 18 6 19 7 20 8 21 9 22 10 23 11
REMARK SMILES IDX 24 12 25 13 26 14 12 15 11 16 10 17 9 18 8 19 7 20 6 21 5 22
REMARK SMILES IDX 4 23 3 24 2 25 1 26
REMARK H PARENT
REMARK Flexibility Score: inf
ROOT
ATOM      1  C   UNL     1      -3.751  -4.892   6.012  1.00  0.00     0.000 C 
ENDROOT
BRANCH   1   2
ATOM      2  C   UNL     1      -4.772  -3.846   5.534  1.00  0.00     0.000 C 
BRANCH   2   3
ATOM      3  C   UNL     1      -5.243  -2.893   6.655  1.00  0.00     0.000 C 
BRANCH   3   4
ATOM      4  C   UNL     1      -6.672  -3.224   7.132  1.00  0.00     0.000 C 
BRANCH   4   5
ATOM      5  C   UNL     1      -6.806  -3.169   8.661  1.00  0.00     0.000 C 
BRANCH   5   6
ATOM      6  C   UNL     1      -5.877  -2.133   9.307  1.00  0.00     0.000 C 
BRANCH   6   7
ATOM      7  C   UNL     1      -6.695  -1.100  10.098  1.00  0.00     0.000 C 
BRANCH   7   8
ATOM      8  C   UNL     1      -8.207  -1.220   9.851  1.00  0.00     0.000 C 
BRANCH   8   9
ATOM      9  C   UNL     1      -8.948   0.134   9.935  1.00  0.00     0.000 C 
BRANCH   9  10
ATOM     10  C   UNL     1      -8.017   1.314   9.616  1.00  0.00     0.006 C 
BRANCH  10  11
ATOM     11  C   UNL     1      -8.782   2.641   9.626  1.00  0.00     0.053 C 
BRANCH  11  12
ATOM     12  C   UNL     1      -8.225   3.580   8.605  1.00  0.00     0.041 C 
ATOM     13  O   UNL     1      -8.992   4.177   7.800  1.00  0.00    -0.550 OA
ATOM     14  O   UNL     1      -6.874   3.909   8.631  1.00  0.00    -0.550 OA
ENDBRANCH  11  12
ENDBRANCH  10  11
ENDBRANCH   9  10
ENDBRANCH   8   9
ENDBRANCH   7   8
ENDBRANCH   6   7
ENDBRANCH   5   6
ENDBRANCH   4   5
ENDBRANCH   3   4
ENDBRANCH   2   3
ENDBRANCH   1   2
BRANCH   1  15
ATOM     15  C   UNL     1      -4.393  -6.013   6.848  1.00  0.00     0.000 C 
BRANCH  15  16
ATOM     16  C   UNL     1      -4.162  -5.834   8.354  1.00  0.00     0.000 C 
BRANCH  16  17
ATOM     17  C   UNL     1      -5.306  -6.410   9.209  1.00  0.00     0.000 C 
BRANCH  17  18
ATOM     18  C   UNL     1      -4.966  -7.787   9.822  1.00  0.00    -0.000 C 
BRANCH  18  19
ATOM     19  C   UNL     1      -6.155  -8.766   9.859  1.00  0.00    -0.000 C 
BRANCH  19  20
ATOM     20  C   UNL     1      -6.127  -9.871   8.786  1.00  0.00    -0.000 C 
BRANCH  20  21
ATOM     21  C   UNL     1      -6.023  -9.340   7.337  1.00  0.00    -0.000 C 
BRANCH  21  22
ATOM     22  C   UNL     1      -7.146  -9.865   6.423  1.00  0.00    -0.000 C 
BRANCH  22  23
ATOM     23  C   UNL     1      -8.223  -8.793   6.142  1.00  0.00    -0.000 C 
BRANCH  23  24
ATOM     24  C   UNL     1      -7.670  -7.352   6.132  1.00  0.00    -0.000 C 
BRANCH  24  25
ATOM     25  C   UNL     1      -8.544  -6.324   6.873  1.00  0.00    -0.003 C 
ATOM     26  C   UNL     1      -8.878  -6.752   8.300  1.00  0.00     0.004 C 
ENDBRANCH  24  25
ENDBRANCH  23  24
ENDBRANCH  22  23
ENDBRANCH  21  22
ENDBRANCH  20  21
ENDBRANCH  19  20
ENDBRANCH  18  19
ENDBRANCH  17  18
ENDBRANCH  16  17
ENDBRANCH  15  16
ENDBRANCH   1  15
TORSDOF 22
ENDMDL
MODEL 8
REMARK VINA RESULT:    -3.161      1.480      4.168
REMARK INTER + INTRA:         -10.855
REMARK INTER:                  -8.555
REMARK INTRA:                  -2.300
REMARK UNBOUND:                -3.628
REMARK SMILES CCCCCCCCCCCCCCCCCCCCCCCC(=O)[O-]
REMARK SMILES IDX 13 1 14 2 15 3 16 4 17 5 18 6 19 7 20 8 21 9 22 10 23 11
REMARK SMILES IDX 24 12 25 13 26 14 12 15 11 16 10 17 9 18 8 19 7 20 6 21 5 22
REMARK SMILES IDX 4 23 3 24 2 25 1 26
REMARK H PARENT
REMARK Flexibility Score: inf
ROOT
ATOM      1  C   UNL     1      -5.273  -3.140  10.005  1.00  0.00     0.000 C 
ENDROOT
BRANCH   1   2
ATOM      2  C   UNL     1      -6.706  -2.823   9.547  1.00  0.00     0.000 C 
BRANCH   2   3
ATOM      3  C   UNL     1      -6.961  -3.153   8.059  1.00  0.00     0.000 C 
BRANCH   3   4
ATOM      4  C   UNL     1      -8.218  -2.443   7.516  1.00  0.00     0.000 C 
BRANCH   4   5
ATOM      5  C   UNL     1      -9.376  -2.448   8.524  1.00  0.00     0.000 C 
BRANCH   5   6
ATOM      6  C   UNL     1      -9.978  -1.054   8.750  1.00  0.00     0.000 C 
BRANCH   6   7
ATOM      7  C   UNL     1      -9.471  -0.460  10.074  1.00  0.00     0.000 C 
BRANCH   7   8
ATOM      8  C   UNL     1      -8.707   0.860   9.882  1.00  0.00     0.000 C 
BRANCH   8   9
ATOM      9  C   UNL     1      -9.366   1.801   8.848  1.00  0.00     0.000 C 
BRANCH   9  10
ATOM     10  C   UNL     1      -8.577   3.109   8.683  1.00  0.00     0.006 C 
BRANCH  10  11
ATOM     11  C   UNL     1      -7.251   3.054   9.448  1.00  0.00     0.053 C 
BRANCH  11  12
ATOM     12  C   UNL     1      -6.558   4.378   9.400  1.00  0.00     0.041 C 
ATOM     13  O   UNL     1      -5.580   4.560   8.624  1.00  0.00    -0.550 OA
ATOM     14  O   UNL     1      -7.078   5.458  10.108  1.00  0.00    -0.550 OA
ENDBRANCH  11  12
ENDBRANCH  10  11
ENDBRANCH   9  10
ENDBRANCH   8   9
ENDBRANCH   7   8
ENDBRANCH   6   7
ENDBRANCH   5   6
ENDBRANCH   4   5
ENDBRANCH   3   4
ENDBRANCH   2   3
ENDBRANCH   1   2
BRANCH   1  15
ATOM     15  C   UNL     1      -4.738  -4.460   9.420  1.00  0.00     0.000 C 
BRANCH  15  16
ATOM     16  C   UNL     1      -5.637  -5.660   9.749  1.00  0.00     0.000 C 
BRANCH  16  17
ATOM     17  C   UNL     1      -4.864  -6.992   9.795  1.00  0.00     0.000 C 
BRANCH  17  18
ATOM     18  C   UNL     1      -5.676  -8.178   9.228  1.00  0.00    -0.000 C 
BRANCH  18  19
ATOM     19  C   UNL     1      -6.892  -7.755   8.382  1.00  0.00    -0.000 C 
BRANCH  19  20
ATOM     20  C   UNL     1      -6.931  -8.337   6.955  1.00  0.00    -0.000 C 
BRANCH  20  21
ATOM     21  C   UNL     1      -5.844  -7.770   6.014  1.00  0.00    -0.000 C 
BRANCH  21  22
ATOM     22  C   UNL     1      -6.289  -6.489   5.283  1.00  0.00    -0.000 C 
BRANCH  22  23
ATOM     23  C   UNL     1      -5.627  -5.220   5.867  1.00  0.00    -0.000 C 
BRANCH  23  24
ATOM     24  C   UNL     1      -4.121  -5.108   5.544  1.00  0.00    -0.000 C 
BRANCH  24  25
ATOM     25  C   UNL     1      -3.705  -3.781   4.884  1.00  0.00    -0.003 C 
ATOM     26  C   UNL     1      -4.510  -2.589   5.395  1.00  0.00     0.004 C 
ENDBRANCH  24  25
ENDBRANCH  23  24
ENDBRANCH  22  23
ENDBRANCH  21  22
ENDBRANCH  20  21
ENDBRANCH  19  20
ENDBRANCH  18  19
ENDBRANCH  17  18
ENDBRANCH  16  17
ENDBRANCH  15  16
ENDBRANCH   1  15
TORSDOF 22
ENDMDL
MODEL 9
REMARK VINA RESULT:    -3.022      1.478      3.454
REMARK INTER + INTRA:         -10.538
REMARK INTER:                  -7.023
REMARK INTRA:                  -3.514
REMARK UNBOUND:                -3.628
REMARK SMILES CCCCCCCCCCCCCCCCCCCCCCCC(=O)[O-]
REMARK SMILES IDX 13 1 14 2 15 3 16 4 17 5 18 6 19 7 20 8 21 9 22 10 23 11
REMARK SMILES IDX 24 12 25 13 26 14 12 15 11 16 10 17 9 18 8 19 7 20 6 21 5 22
REMARK SMILES IDX 4 23 3 24 2 25 1 26
REMARK H PARENT
REMARK Flexibility Score: inf
ROOT
ATOM      1  C   UNL     1      -4.124  -4.657   6.404  1.00  0.00     0.000 C 
ENDROOT
BRANCH   1   2
ATOM      2  C   UNL     1      -5.556  -4.102   6.347  1.00  0.00     0.000 C 
BRANCH   2   3
ATOM      3  C   UNL     1      -5.767  -2.857   7.238  1.00  0.00     0.000 C 
BRANCH   3   4
ATOM      4  C   UNL     1      -7.152  -2.858   7.916  1.00  0.00     0.000 C 
BRANCH   4   5
ATOM      5  C   UNL     1      -7.068  -2.577   9.423  1.00  0.00     0.000 C 
BRANCH   5   6
ATOM      6  C   UNL     1      -6.343  -1.263   9.747  1.00  0.00     0.000 C 
BRANCH   6   7
ATOM      7  C   UNL     1      -7.360  -0.156  10.069  1.00  0.00     0.000 C 
BRANCH   7   8
ATOM      8  C   UNL     1      -8.808  -0.670  10.115  1.00  0.00     0.000 C 
BRANCH   8   9
ATOM      9  C   UNL     1      -9.687  -0.118   8.970  1.00  0.00     0.000 C 
BRANCH   9  10
ATOM     10  C   UNL     1      -9.020   1.072   8.262  1.00  0.00     0.006 C 
BRANCH  10  11
ATOM     11  C   UNL     1      -9.657   2.397   8.691  1.00  0.00     0.053 C 
BRANCH  11  12
ATOM     12  C   UNL     1      -8.605   3.411   9.011  1.00  0.00     0.041 C 
ATOM     13  O   UNL     1      -7.417   3.245   8.620  1.00  0.00    -0.550 OA
ATOM     14  O   UNL     1      -8.962   4.610   9.620  1.00  0.00    -0.550 OA
ENDBRANCH  11  12
ENDBRANCH  10  11
ENDBRANCH   9  10
ENDBRANCH   8   9
ENDBRANCH   7   8
ENDBRANCH   6   7
ENDBRANCH   5   6
ENDBRANCH   4   5
ENDBRANCH   3   4
ENDBRANCH   2   3
ENDBRANCH   1   2
BRANCH   1  15
ATOM     15  C   UNL     1      -3.910  -5.638   7.571  1.00  0.00     0.000 C 
BRANCH  15  16
ATOM     16  C   UNL     1      -3.704  -4.925   8.913  1.00  0.00     0.000 C 
BRANCH  16  17
ATOM     17  C   UNL     1      -4.623  -5.465  10.026  1.00  0.00     0.000 C 
BRANCH  17  18
ATOM     18  C   UNL     1      -4.886  -6.982   9.905  1.00  0.00    -0.000 C 
BRANCH  18  19
ATOM     19  C   UNL     1      -6.377  -7.351   9.788  1.00  0.00    -0.000 C 
BRANCH  19  20
ATOM     20  C   UNL     1      -7.272  -6.267   9.158  1.00  0.00    -0.000 C 
BRANCH  20  21
ATOM     21  C   UNL     1      -8.765  -6.659   9.065  1.00  0.00    -0.000 C 
BRANCH  21  22
ATOM     22  C   UNL     1      -9.242  -6.871   7.615  1.00  0.00    -0.000 C 
BRANCH  22  23
ATOM     23  C   UNL     1      -8.233  -6.323   6.580  1.00  0.00    -0.000 C 
BRANCH  23  24
ATOM     24  C   UNL     1      -7.621  -7.415   5.678  1.00  0.00    -0.000 C 
BRANCH  24  25
ATOM     25  C   UNL     1      -6.146  -7.739   5.974  1.00  0.00    -0.003 C 
ATOM     26  C   UNL     1      -5.926  -9.203   6.344  1.00  0.00     0.004 C 
ENDBRANCH  24  25
ENDBRANCH  23  24
ENDBRANCH  22  23
ENDBRANCH  21  22
ENDBRANCH  20  21
ENDBRANCH  19  20
ENDBRANCH  18  19
ENDBRANCH  17  18
ENDBRANCH  16  17
ENDBRANCH  15  16
ENDBRANCH   1  15
TORSDOF 22
ENDMDL
