MODEL 1
REMARK VINA RESULT:    -2.905      0.000      0.000
REMARK INTER + INTRA:          -3.327
REMARK INTER:                  -3.160
REMARK INTRA:                  -0.168
REMARK UNBOUND:                -0.168
REMARK SMILES CC1=CC[C@](O)(C(C)C)CC1
REMARK SMILES IDX 1 1 2 2 3 3 4 4 5 5 10 6 11 7 7 8 8 9 9 10 6 11
REMARK H PARENT 6 12
REMARK Flexibility Score: inf
ROOT
ATOM      1  C   UNL     1     -32.972  35.485 -12.125  1.00  0.00     0.039 C 
ATOM      2  C   UNL     1     -34.359  35.229 -11.600  1.00  0.00    -0.077 C 
ATOM      3  C   UNL     1     -34.919  36.125 -10.767  1.00  0.00    -0.025 C 
ATOM      4  C   UNL     1     -36.281  35.935 -10.148  1.00  0.00     0.062 C 
ATOM      5  C   UNL     1     -37.201  34.967 -10.939  1.00  0.00     0.071 C 
ATOM      6  C   UNL     1     -36.363  33.701 -11.276  1.00  0.00     0.040 C 
ATOM      7  C   UNL     1     -35.132  34.043 -12.125  1.00  0.00     0.033 C 
ENDROOT
BRANCH   5   8
ATOM      8  C   UNL     1     -38.461  34.603 -10.065  1.00  0.00     0.015 C 
ATOM      9  C   UNL     1     -38.698  35.565  -8.882  1.00  0.00     0.010 C 
ATOM     10  C   UNL     1     -38.400  33.160  -9.524  1.00  0.00     0.010 C 
ENDBRANCH   5   8
BRANCH   5  11
ATOM     11  O   UNL     1     -37.603  35.623 -12.122  1.00  0.00    -0.389 OA
ATOM     12  H   UNL     1     -38.580  35.494 -12.236  1.00  0.00     0.211 HD
ENDBRANCH   5  11
TORSDOF 2
ENDMDL
MODEL 2
REMARK VINA RESULT:    -2.590     19.383     21.329
REMARK INTER + INTRA:          -2.984
REMARK INTER:                  -2.842
REMARK INTRA:                  -0.142
REMARK UNBOUND:                -0.168
REMARK SMILES CC1=CC[C@](O)(C(C)C)CC1
REMARK SMILES IDX 1 1 2 2 3 3 4 4 5 5 10 6 11 7 7 8 8 9 9 10 6 11
REMARK H PARENT 6 12
REMARK Flexibility Score: inf
ROOT
ATOM      1  C   UNL     1     -39.119  25.950   4.178  1.00  0.00     0.039 C 
ATOM      2  C   UNL     1     -38.866  24.850   5.173  1.00  0.00    -0.077 C 
ATOM      3  C   UNL     1     -38.344  23.687   4.744  1.00  0.00    -0.025 C 
ATOM      4  C   UNL     1     -38.101  22.508   5.652  1.00  0.00     0.062 C 
ATOM      5  C   UNL     1     -37.958  22.888   7.150  1.00  0.00     0.071 C 
ATOM      6  C   UNL     1     -39.124  23.857   7.497  1.00  0.00     0.040 C 
ATOM      7  C   UNL     1     -39.081  25.129   6.641  1.00  0.00     0.033 C 
ENDROOT
BRANCH   5   8
ATOM      8  C   UNL     1     -38.015  21.585   8.034  1.00  0.00     0.015 C 
ATOM      9  C   UNL     1     -36.678  20.818   8.100  1.00  0.00     0.010 C 
ATOM     10  C   UNL     1     -39.120  20.613   7.574  1.00  0.00     0.010 C 
ENDBRANCH   5   8
BRANCH   5  11
ATOM     11  O   UNL     1     -36.714  23.534   7.315  1.00  0.00    -0.389 OA
ATOM     12  H   UNL     1     -36.554  23.665   8.285  1.00  0.00     0.211 HD
ENDBRANCH   5  11
TORSDOF 2
ENDMDL
MODEL 3
REMARK VINA RESULT:    -1.946     19.435     21.300
REMARK INTER + INTRA:          -2.284
REMARK INTER:                  -2.154
REMARK INTRA:                  -0.130
REMARK UNBOUND:                -0.168
REMARK SMILES CC1=CC[C@](O)(C(C)C)CC1
REMARK SMILES IDX 1 1 2 2 3 3 4 4 5 5 10 6 11 7 7 8 8 9 9 10 6 11
REMARK H PARENT 6 12
REMARK Flexibility Score: inf
ROOT
ATOM      1  C   UNL     1     -39.125  25.433   3.919  1.00  0.00     0.039 C 
ATOM      2  C   UNL     1     -38.591  24.474   4.948  1.00  0.00    -0.077 C 
ATOM      3  C   UNL     1     -38.876  24.680   6.246  1.00  0.00    -0.025 C 
ATOM      4  C   UNL     1     -38.347  23.806   7.355  1.00  0.00     0.062 C 
ATOM      5  C   UNL     1     -37.942  22.381   6.893  1.00  0.00     0.071 C 
ATOM      6  C   UNL     1     -37.083  22.537   5.605  1.00  0.00     0.040 C 
ATOM      7  C   UNL     1     -37.862  23.235   4.483  1.00  0.00     0.033 C 
ENDROOT
BRANCH   5   8
ATOM      8  C   UNL     1     -37.130  21.664   8.038  1.00  0.00     0.015 C 
ATOM      9  C   UNL     1     -35.604  21.869   7.940  1.00  0.00     0.010 C 
ATOM     10  C   UNL     1     -37.422  20.152   8.104  1.00  0.00     0.010 C 
ENDBRANCH   5   8
BRANCH   5  11
ATOM     11  O   UNL     1     -39.125  21.664   6.613  1.00  0.00    -0.389 OA
ATOM     12  H   UNL     1     -38.991  21.152   5.775  1.00  0.00     0.211 HD
ENDBRANCH   5  11
TORSDOF 2
ENDMDL
MODEL 4
REMARK VINA RESULT:    -0.125     19.281     21.301
REMARK INTER + INTRA:          -0.304
REMARK INTER:                  -0.192
REMARK INTRA:                  -0.112
REMARK UNBOUND:                -0.168
REMARK SMILES CC1=CC[C@](O)(C(C)C)CC1
REMARK SMILES IDX 1 1 2 2 3 3 4 4 5 5 10 6 11 7 7 8 8 9 9 10 6 11
REMARK H PARENT 6 12
REMARK Flexibility Score: inf
ROOT
ATOM      1  C   UNL     1     -37.771  19.664   8.123  1.00  0.00     0.039 C 
ATOM      2  C   UNL     1     -38.137  20.903   7.352  1.00  0.00    -0.077 C 
ATOM      3  C   UNL     1     -38.121  22.093   7.979  1.00  0.00    -0.025 C 
ATOM      4  C   UNL     1     -38.520  23.383   7.308  1.00  0.00     0.062 C 
ATOM      5  C   UNL     1     -38.404  23.349   5.761  1.00  0.00     0.071 C 
ATOM      6  C   UNL     1     -39.071  22.031   5.275  1.00  0.00     0.040 C 
ATOM      7  C   UNL     1     -38.383  20.794   5.866  1.00  0.00     0.033 C 
ENDROOT
BRANCH   5   8
ATOM      8  C   UNL     1     -39.122  24.611   5.149  1.00  0.00     0.015 C 
ATOM      9  C   UNL     1     -38.533  25.068   3.798  1.00  0.00     0.010 C 
ATOM     10  C   UNL     1     -39.125  25.811   6.118  1.00  0.00     0.010 C 
ENDBRANCH   5   8
BRANCH   5  11
ATOM     11  O   UNL     1     -37.033  23.360   5.429  1.00  0.00    -0.389 OA
ATOM     12  H   UNL     1     -36.764  22.440   5.175  1.00  0.00     0.211 HD
ENDBRANCH   5  11
TORSDOF 2
ENDMDL
