MODEL 1
REMARK VINA RESULT:    -2.206      0.000      0.000
REMARK INTER + INTRA:          -2.721
REMARK INTER:                  -4.270
REMARK INTRA:                   1.550
REMARK UNBOUND:                 1.550
REMARK SMILES CCCCCCCCCCCCCCCCCC(=O)[O-]
REMARK SMILES IDX 10 1 11 2 12 3 13 4 14 5 15 6 16 7 17 8 18 9 19 10 20 11
REMARK SMILES IDX 9 12 8 13 7 14 6 15 5 16 4 17 3 18 2 19 1 20
REMARK H PARENT
REMARK Flexibility Score: inf
ROOT
ATOM      1  C   UNL     1      32.909  36.173   2.349  1.00  0.00     0.000 C 
ENDROOT
BRANCH   1   2
ATOM      2  C   UNL     1      32.942  36.693   0.902  1.00  0.00     0.000 C 
BRANCH   2   3
ATOM      3  C   UNL     1      33.509  38.119   0.802  1.00  0.00     0.000 C 
BRANCH   3   4
ATOM      4  C   UNL     1      34.829  38.183   0.013  1.00  0.00     0.000 C 
BRANCH   4   5
ATOM      5  C   UNL     1      34.817  39.124  -1.207  1.00  0.00     0.000 C 
BRANCH   5   6
ATOM      6  C   UNL     1      33.566  39.023  -2.102  1.00  0.00     0.000 C 
BRANCH   6   7
ATOM      7  C   UNL     1      33.786  38.310  -3.448  1.00  0.00     0.006 C 
BRANCH   7   8
ATOM      8  C   UNL     1      32.548  37.541  -3.923  1.00  0.00     0.053 C 
BRANCH   8   9
ATOM      9  C   UNL     1      32.317  36.339  -3.064  1.00  0.00     0.041 C 
ATOM     10  O   UNL     1      33.067  36.110  -2.079  1.00  0.00    -0.550 OA
ATOM     11  O   UNL     1      31.304  35.443  -3.378  1.00  0.00    -0.550 OA
ENDBRANCH   8   9
ENDBRANCH   7   8
ENDBRANCH   6   7
ENDBRANCH   5   6
ENDBRANCH   4   5
ENDBRANCH   3   4
ENDBRANCH   2   3
ENDBRANCH   1   2
BRANCH   1  12
ATOM     12  C   UNL     1      34.286  35.689   2.837  1.00  0.00     0.000 C 
BRANCH  12  13
ATOM     13  C   UNL     1      35.118  36.814   3.473  1.00  0.00    -0.000 C 
BRANCH  13  14
ATOM     14  C   UNL     1      34.634  38.212   3.054  1.00  0.00    -0.000 C 
BRANCH  14  15
ATOM     15  C   UNL     1      34.327  39.122   4.257  1.00  0.00    -0.000 C 
BRANCH  15  16
ATOM     16  C   UNL     1      35.088  38.778   5.555  1.00  0.00    -0.000 C 
BRANCH  16  17
ATOM     17  C   UNL     1      34.249  38.834   6.844  1.00  0.00    -0.000 C 
BRANCH  17  18
ATOM     18  C   UNL     1      34.940  38.153   8.036  1.00  0.00    -0.000 C 
BRANCH  18  19
ATOM     19  C   UNL     1      34.495  38.737   9.387  1.00  0.00    -0.003 C 
ATOM     20  C   UNL     1      32.983  38.662   9.596  1.00  0.00     0.004 C 
ENDBRANCH  18  19
ENDBRANCH  17  18
ENDBRANCH  16  17
ENDBRANCH  15  16
ENDBRANCH  14  15
ENDBRANCH  13  14
ENDBRANCH  12  13
ENDBRANCH   1  12
TORSDOF 16
ENDMDL
MODEL 2
REMARK VINA RESULT:    -1.302      3.770      8.544
REMARK INTER + INTRA:          -0.970
REMARK INTER:                  -1.704
REMARK INTRA:                   0.734
REMARK UNBOUND:                 1.550
REMARK SMILES CCCCCCCCCCCCCCCCCC(=O)[O-]
REMARK SMILES IDX 10 1 11 2 12 3 13 4 14 5 15 6 16 7 17 8 18 9 19 10 20 11
REMARK SMILES IDX 9 12 8 13 7 14 6 15 5 16 4 17 3 18 2 19 1 20
REMARK H PARENT
REMARK Flexibility Score: inf
ROOT
ATOM      1  C   UNL     1      32.043  35.805   1.248  1.00  0.00     0.000 C 
ENDROOT
BRANCH   1   2
ATOM      2  C   UNL     1      33.309  35.992   2.100  1.00  0.00     0.000 C 
BRANCH   2   3
ATOM      3  C   UNL     1      33.586  37.470   2.425  1.00  0.00     0.000 C 
BRANCH   3   4
ATOM      4  C   UNL     1      34.291  37.661   3.780  1.00  0.00     0.000 C 
BRANCH   4   5
ATOM      5  C   UNL     1      34.182  39.075   4.381  1.00  0.00     0.000 C 
BRANCH   5   6
ATOM      6  C   UNL     1      33.877  39.125   5.892  1.00  0.00     0.000 C 
BRANCH   6   7
ATOM      7  C   UNL     1      35.115  39.097   6.805  1.00  0.00     0.006 C 
BRANCH   7   8
ATOM      8  C   UNL     1      34.914  38.234   8.056  1.00  0.00     0.053 C 
BRANCH   8   9
ATOM      9  C   UNL     1      33.607  38.557   8.708  1.00  0.00     0.041 C 
ATOM     10  O   UNL     1      33.579  39.003   9.885  1.00  0.00    -0.550 OA
ATOM     11  O   UNL     1      32.416  38.320   8.035  1.00  0.00    -0.550 OA
ENDBRANCH   8   9
ENDBRANCH   7   8
ENDBRANCH   6   7
ENDBRANCH   5   6
ENDBRANCH   4   5
ENDBRANCH   3   4
ENDBRANCH   2   3
ENDBRANCH   1   2
BRANCH   1  12
ATOM     12  C   UNL     1      32.298  34.963  -0.015  1.00  0.00     0.000 C 
BRANCH  12  13
ATOM     13  C   UNL     1      32.795  35.808  -1.199  1.00  0.00    -0.000 C 
BRANCH  13  14
ATOM     14  C   UNL     1      31.771  35.877  -2.344  1.00  0.00    -0.000 C 
BRANCH  14  15
ATOM     15  C   UNL     1      32.324  36.579  -3.597  1.00  0.00    -0.000 C 
BRANCH  15  16
ATOM     16  C   UNL     1      33.446  37.605  -3.337  1.00  0.00    -0.000 C 
BRANCH  16  17
ATOM     17  C   UNL     1      32.970  39.031  -3.008  1.00  0.00    -0.000 C 
BRANCH  17  18
ATOM     18  C   UNL     1      32.260  39.124  -1.647  1.00  0.00    -0.000 C 
BRANCH  18  19
ATOM     19  C   UNL     1      33.246  39.114  -0.467  1.00  0.00    -0.003 C 
ATOM     20  C   UNL     1      34.538  38.361  -0.780  1.00  0.00     0.004 C 
ENDBRANCH  18  19
ENDBRANCH  17  18
ENDBRANCH  16  17
ENDBRANCH  15  16
ENDBRANCH  14  15
ENDBRANCH  13  14
ENDBRANCH  12  13
ENDBRANCH   1  12
TORSDOF 16
ENDMDL
