MODEL 1
REMARK VINA RESULT:    -1.609      0.000      0.000
REMARK INTER + INTRA:          -3.096
REMARK INTER:                  -2.456
REMARK INTRA:                  -0.641
REMARK UNBOUND:                -0.641
REMARK SMILES CC1=CCC[C@H](C)C(=O)C[C@H](C(C)C)C(=O)C1
REMARK SMILES IDX 8 1 9 2 6 3 7 4 5 5 4 6 3 7 2 8 1 9 10 11 11 12 15 13 16 14
REMARK SMILES IDX 17 15 12 17 13 18 14 19
REMARK H PARENT
REMARK Flexibility Score: 70.00
ROOT
ATOM      1  C   UNL     1     168.525 169.043 140.317  1.00  0.00     0.136 C 
ATOM      2  O   UNL     1     168.944 169.256 139.188  1.00  0.00    -0.299 OA
ENDROOT
BRANCH   1   3
ATOM      3  C   UNL     1     168.123 167.627 140.693  1.00  0.00     0.053 C 
ATOM      4  C   UNL     1     166.939 167.167 139.837  1.00  0.00     0.016 C 
BRANCH   3   5
ATOM      5  C   UNL     1     169.297 166.634 140.584  1.00  0.00     0.015 C 
BRANCH   5   6
ATOM      6  C   UNL     1     170.553 167.145 141.313  1.00  0.00     0.028 C 
BRANCH   6   7
ATOM      7  C   UNL     1     170.562 166.792 142.777  1.00  0.00    -0.028 C 
ATOM      8  C   UNL     1     170.420 167.663 143.807  1.00  0.00    -0.070 CG0
ATOM      9  C   UNL     1     170.354 167.078 145.198  1.00  0.00     0.039 C 
ATOM     10  G   UNL     1     170.386 169.183 143.657  1.00  0.00     0.000 G0
ENDBRANCH   6   7
ENDBRANCH   5   6
ENDBRANCH   3   5
ENDBRANCH   1   3
BRANCH   1  11
ATOM     11  C   UNL     1     168.491 170.183 141.311  1.00  0.00     0.087 C 
BRANCH  11  12
ATOM     12  C   UNL     1     167.967 169.752 142.709  1.00  0.00     0.066 C 
BRANCH  12  13
ATOM     13  C   UNL     1     169.019 169.817 143.815  1.00  0.00     0.140 C 
ATOM     14  O   UNL     1     168.778 170.494 144.805  1.00  0.00    -0.299 OA
BRANCH  13  15
ATOM     15  C   UNL     1     170.391 169.198 143.684  1.00  0.00     0.106 CG0
ATOM     16  G   UNL     1     170.413 167.676 143.809  1.00  0.00     0.000 G0
ENDBRANCH  13  15
ENDBRANCH  12  13
BRANCH  12  17
ATOM     17  C   UNL     1     166.633 170.473 143.081  1.00  0.00    -0.006 C 
ATOM     18  C   UNL     1     166.382 171.702 142.194  1.00  0.00     0.008 C 
ATOM     19  C   UNL     1     165.392 169.564 143.090  1.00  0.00     0.008 C 
ENDBRANCH  12  17
ENDBRANCH  11  12
ENDBRANCH   1  11
TORSDOF 1
ENDMDL
MODEL 2
REMARK VINA RESULT:    -1.606      5.446      7.550
REMARK INTER + INTRA:          -3.091
REMARK INTER:                  -3.042
REMARK INTRA:                  -0.049
REMARK UNBOUND:                -0.641
REMARK SMILES CC1=CCC[C@H](C)C(=O)C[C@H](C(C)C)C(=O)C1
REMARK SMILES IDX 8 1 9 2 6 3 7 4 5 5 4 6 3 7 2 8 1 9 10 11 11 12 15 13 16 14
REMARK SMILES IDX 17 15 12 17 13 18 14 19
REMARK H PARENT
REMARK Flexibility Score: 70.00
ROOT
ATOM      1  C   UNL     1     170.532 169.894 148.075  1.00  0.00     0.136 C 
ATOM      2  O   UNL     1     170.842 168.830 147.558  1.00  0.00    -0.299 OA
ENDROOT
BRANCH   1   3
ATOM      3  C   UNL     1     171.164 170.271 149.404  1.00  0.00     0.053 C 
ATOM      4  C   UNL     1     171.166 171.792 149.578  1.00  0.00     0.016 C 
BRANCH   3   5
ATOM      5  C   UNL     1     170.474 169.583 150.599  1.00  0.00     0.015 C 
BRANCH   5   6
ATOM      6  C   UNL     1     169.602 170.563 151.403  1.00  0.00     0.028 C 
BRANCH   6   7
ATOM      7  C   UNL     1     168.160 170.136 151.477  1.00  0.00    -0.028 C 
ATOM      8  C   UNL     1     167.204 170.394 150.549  1.00  0.00    -0.070 CG0
ATOM      9  C   UNL     1     165.843 169.779 150.774  1.00  0.00     0.039 C 
ATOM     10  G   UNL     1     167.397 171.306 149.339  1.00  0.00     0.000 G0
ENDBRANCH   6   7
ENDBRANCH   5   6
ENDBRANCH   3   5
ENDBRANCH   1   3
BRANCH   1  11
ATOM     11  C   UNL     1     169.589 170.818 147.338  1.00  0.00     0.087 C 
BRANCH  11  12
ATOM     12  C   UNL     1     168.199 170.178 147.071  1.00  0.00     0.066 C 
BRANCH  12  13
ATOM     13  C   UNL     1     167.095 170.676 148.003  1.00  0.00     0.140 C 
ATOM     14  O   UNL     1     165.940 170.648 147.601  1.00  0.00    -0.299 OA
BRANCH  13  15
ATOM     15  C   UNL     1     167.376 171.326 149.338  1.00  0.00     0.106 CG0
ATOM     16  G   UNL     1     167.211 170.398 150.540  1.00  0.00     0.000 G0
ENDBRANCH  13  15
ENDBRANCH  12  13
BRANCH  12  17
ATOM     17  C   UNL     1     167.807 170.239 145.561  1.00  0.00    -0.006 C 
ATOM     18  C   UNL     1     169.045 170.243 144.650  1.00  0.00     0.008 C 
ATOM     19  C   UNL     1     166.820 169.149 145.109  1.00  0.00     0.008 C 
ENDBRANCH  12  17
ENDBRANCH  11  12
ENDBRANCH   1  11
TORSDOF 1
ENDMDL
MODEL 3
REMARK VINA RESULT:    -1.520     18.186     19.893
REMARK INTER + INTRA:          -2.960
REMARK INTER:                  -2.922
REMARK INTRA:                  -0.038
REMARK UNBOUND:                -0.641
REMARK SMILES CC1=CCC[C@H](C)C(=O)C[C@H](C(C)C)C(=O)C1
REMARK SMILES IDX 8 1 9 2 6 3 7 4 5 5 4 6 3 7 2 8 1 9 10 11 11 12 15 13 16 14
REMARK SMILES IDX 17 15 12 17 13 18 14 19
REMARK H PARENT
REMARK Flexibility Score: 70.00
ROOT
ATOM      1  C   UNL     1     154.261 154.970 144.033  1.00  0.00     0.136 C 
ATOM      2  O   UNL     1     153.091 154.637 143.920  1.00  0.00    -0.299 OA
ENDROOT
BRANCH   1   3
ATOM      3  C   UNL     1     155.070 154.416 145.194  1.00  0.00     0.053 C 
ATOM      4  C   UNL     1     154.970 155.351 146.403  1.00  0.00     0.016 C 
BRANCH   3   5
ATOM      5  C   UNL     1     154.649 152.982 145.572  1.00  0.00     0.015 C 
BRANCH   5   6
ATOM      6  C   UNL     1     155.371 151.926 144.717  1.00  0.00     0.028 C 
BRANCH   6   7
ATOM      7  C   UNL     1     156.820 152.260 144.478  1.00  0.00    -0.028 C 
ATOM      8  C   UNL     1     157.366 152.633 143.293  1.00  0.00    -0.070 CG0
ATOM      9  C   UNL     1     158.825 153.023 143.301  1.00  0.00     0.039 C 
ATOM     10  G   UNL     1     156.625 152.622 141.957  1.00  0.00     0.000 G0
ENDBRANCH   6   7
ENDBRANCH   5   6
ENDBRANCH   3   5
ENDBRANCH   1   3
BRANCH   1  11
ATOM     11  C   UNL     1     154.873 155.863 142.976  1.00  0.00     0.087 C 
BRANCH  11  12
ATOM     12  C   UNL     1     156.107 155.222 142.283  1.00  0.00     0.066 C 
BRANCH  12  13
ATOM     13  C   UNL     1     155.825 153.864 141.642  1.00  0.00     0.140 C 
ATOM     14  O   UNL     1     154.834 153.750 140.934  1.00  0.00    -0.299 OA
BRANCH  13  15
ATOM     15  C   UNL     1     156.633 152.625 141.951  1.00  0.00     0.106 CG0
ATOM     16  G   UNL     1     157.358 152.661 143.296  1.00  0.00     0.000 G0
ENDBRANCH  13  15
ENDBRANCH  12  13
BRANCH  12  17
ATOM     17  C   UNL     1     156.822 156.223 141.320  1.00  0.00    -0.006 C 
ATOM     18  C   UNL     1     157.863 155.519 140.437  1.00  0.00     0.008 C 
ATOM     19  C   UNL     1     155.873 157.067 140.452  1.00  0.00     0.008 C 
ENDBRANCH  12  17
ENDBRANCH  11  12
ENDBRANCH   1  11
TORSDOF 1
ENDMDL
MODEL 4
REMARK VINA RESULT:    -1.483     18.708     20.373
REMARK INTER + INTRA:          -2.904
REMARK INTER:                  -2.483
REMARK INTRA:                  -0.421
REMARK UNBOUND:                -0.641
REMARK SMILES CC1=CCC[C@H](C)C(=O)C[C@H](C(C)C)C(=O)C1
REMARK SMILES IDX 8 1 9 2 6 3 7 4 5 5 4 6 3 7 2 8 1 9 10 11 11 12 15 13 16 14
REMARK SMILES IDX 17 15 12 17 13 18 14 19
REMARK H PARENT
REMARK Flexibility Score: 70.00
ROOT
ATOM      1  C   UNL     1     156.788 155.603 146.891  1.00  0.00     0.136 C 
ATOM      2  O   UNL     1     157.161 156.732 147.176  1.00  0.00    -0.299 OA
ENDROOT
BRANCH   1   3
ATOM      3  C   UNL     1     155.307 155.279 146.984  1.00  0.00     0.053 C 
ATOM      4  C   UNL     1     154.695 155.940 148.222  1.00  0.00     0.016 C 
BRANCH   3   5
ATOM      5  C   UNL     1     154.536 155.680 145.710  1.00  0.00     0.015 C 
BRANCH   5   6
ATOM      6  C   UNL     1     153.901 154.464 145.015  1.00  0.00     0.028 C 
BRANCH   6   7
ATOM      7  C   UNL     1     154.399 154.270 143.606  1.00  0.00    -0.028 C 
ATOM      8  C   UNL     1     155.200 153.263 143.176  1.00  0.00    -0.070 CG0
ATOM      9  C   UNL     1     155.494 153.204 141.695  1.00  0.00     0.039 C 
ATOM     10  G   UNL     1     155.866 152.237 144.090  1.00  0.00     0.000 G0
ENDBRANCH   6   7
ENDBRANCH   5   6
ENDBRANCH   3   5
ENDBRANCH   1   3
BRANCH   1  11
ATOM     11  C   UNL     1     157.805 154.600 146.393  1.00  0.00     0.087 C 
BRANCH  11  12
ATOM     12  C   UNL     1     157.211 153.178 146.206  1.00  0.00     0.066 C 
BRANCH  12  13
ATOM     13  C   UNL     1     157.159 152.711 144.752  1.00  0.00     0.140 C 
ATOM     14  O   UNL     1     158.165 152.836 144.066  1.00  0.00    -0.299 OA
BRANCH  13  15
ATOM     15  C   UNL     1     155.890 152.232 144.086  1.00  0.00     0.106 CG0
ATOM     16  G   UNL     1     155.220 153.266 143.183  1.00  0.00     0.000 G0
ENDBRANCH  13  15
ENDBRANCH  12  13
BRANCH  12  17
ATOM     17  C   UNL     1     157.871 152.137 147.166  1.00  0.00    -0.006 C 
ATOM     18  C   UNL     1     159.374 152.399 147.344  1.00  0.00     0.008 C 
ATOM     19  C   UNL     1     157.188 152.007 148.538  1.00  0.00     0.008 C 
ENDBRANCH  12  17
ENDBRANCH  11  12
ENDBRANCH   1  11
TORSDOF 1
ENDMDL
MODEL 5
REMARK VINA RESULT:    -1.459      2.447      5.033
REMARK INTER + INTRA:          -2.867
REMARK INTER:                  -2.791
REMARK INTRA:                  -0.076
REMARK UNBOUND:                -0.641
REMARK SMILES CC1=CCC[C@H](C)C(=O)C[C@H](C(C)C)C(=O)C1
REMARK SMILES IDX 8 1 9 2 6 3 7 4 5 5 4 6 3 7 2 8 1 9 10 11 11 12 15 13 16 14
REMARK SMILES IDX 17 15 12 17 13 18 14 19
REMARK H PARENT
REMARK Flexibility Score: 70.00
ROOT
ATOM      1  C   UNL     1     168.411 168.409 144.472  1.00  0.00     0.136 C 
ATOM      2  O   UNL     1     168.131 167.228 144.333  1.00  0.00    -0.299 OA
ENDROOT
BRANCH   1   3
ATOM      3  C   UNL     1     167.973 169.121 145.740  1.00  0.00     0.053 C 
ATOM      4  C   UNL     1     167.465 168.106 146.769  1.00  0.00     0.016 C 
BRANCH   3   5
ATOM      5  C   UNL     1     169.091 169.997 146.339  1.00  0.00     0.015 C 
BRANCH   5   6
ATOM      6  C   UNL     1     168.845 171.495 146.089  1.00  0.00     0.028 C 
BRANCH   6   7
ATOM      7  C   UNL     1     167.470 171.777 145.544  1.00  0.00    -0.028 C 
ATOM      8  C   UNL     1     167.138 171.872 144.231  1.00  0.00    -0.070 CG0
ATOM      9  C   UNL     1     165.675 172.058 143.904  1.00  0.00     0.039 C 
ATOM     10  G   UNL     1     168.144 171.864 143.081  1.00  0.00     0.000 G0
ENDBRANCH   6   7
ENDBRANCH   5   6
ENDBRANCH   3   5
ENDBRANCH   1   3
BRANCH   1  11
ATOM     11  C   UNL     1     169.242 169.093 143.408  1.00  0.00     0.087 C 
BRANCH  11  12
ATOM     12  C   UNL     1     168.441 169.381 142.108  1.00  0.00     0.066 C 
BRANCH  12  13
ATOM     13  C   UNL     1     167.894 170.805 142.016  1.00  0.00     0.140 C 
ATOM     14  O   UNL     1     167.316 171.140 140.991  1.00  0.00    -0.299 OA
BRANCH  13  15
ATOM     15  C   UNL     1     168.151 171.855 143.072  1.00  0.00     0.106 CG0
ATOM     16  G   UNL     1     167.148 171.851 144.225  1.00  0.00     0.000 G0
ENDBRANCH  13  15
ENDBRANCH  12  13
BRANCH  12  17
ATOM     17  C   UNL     1     169.221 168.936 140.830  1.00  0.00    -0.006 C 
ATOM     18  C   UNL     1     170.523 169.731 140.650  1.00  0.00     0.008 C 
ATOM     19  C   UNL     1     169.506 167.426 140.746  1.00  0.00     0.008 C 
ENDBRANCH  12  17
ENDBRANCH  11  12
ENDBRANCH   1  11
TORSDOF 1
ENDMDL
MODEL 6
REMARK VINA RESULT:    -1.434     21.332     22.843
REMARK INTER + INTRA:          -2.829
REMARK INTER:                  -2.884
REMARK INTRA:                   0.056
REMARK UNBOUND:                -0.641
REMARK SMILES CC1=CCC[C@H](C)C(=O)C[C@H](C(C)C)C(=O)C1
REMARK SMILES IDX 8 1 9 2 6 3 7 4 5 5 4 6 3 7 2 8 1 9 10 11 11 12 15 13 16 14
REMARK SMILES IDX 17 15 12 17 13 18 14 19
REMARK H PARENT
REMARK Flexibility Score: 70.00
ROOT
ATOM      1  C   UNL     1     153.710 153.792 153.591  1.00  0.00     0.136 C 
ATOM      2  O   UNL     1     153.466 153.310 154.688  1.00  0.00    -0.299 OA
ENDROOT
BRANCH   1   3
ATOM      3  C   UNL     1     155.114 154.297 153.311  1.00  0.00     0.053 C 
ATOM      4  C   UNL     1     155.492 155.398 154.306  1.00  0.00     0.016 C 
BRANCH   3   5
ATOM      5  C   UNL     1     156.159 153.163 153.324  1.00  0.00     0.015 C 
BRANCH   5   6
ATOM      6  C   UNL     1     156.414 152.598 151.916  1.00  0.00     0.028 C 
BRANCH   6   7
ATOM      7  C   UNL     1     156.595 153.675 150.878  1.00  0.00    -0.028 C 
ATOM      8  C   UNL     1     155.806 153.876 149.793  1.00  0.00    -0.070 CG0
ATOM      9  C   UNL     1     156.110 155.084 148.937  1.00  0.00     0.039 C 
ATOM     10  G   UNL     1     154.686 152.937 149.351  1.00  0.00     0.000 G0
ENDBRANCH   6   7
ENDBRANCH   5   6
ENDBRANCH   3   5
ENDBRANCH   1   3
BRANCH   1  11
ATOM     11  C   UNL     1     152.622 153.803 152.540  1.00  0.00     0.087 C 
BRANCH  11  12
ATOM     12  C   UNL     1     153.141 154.223 151.137  1.00  0.00     0.066 C 
BRANCH  12  13
ATOM     13  C   UNL     1     153.421 153.049 150.200  1.00  0.00     0.140 C 
ATOM     14  O   UNL     1     152.654 152.096 150.218  1.00  0.00    -0.299 OA
BRANCH  13  15
ATOM     15  C   UNL     1     154.669 152.951 149.354  1.00  0.00     0.106 CG0
ATOM     16  G   UNL     1     155.807 153.869 149.797  1.00  0.00     0.000 G0
ENDBRANCH  13  15
ENDBRANCH  12  13
BRANCH  12  17
ATOM     17  C   UNL     1     152.249 155.331 150.491  1.00  0.00    -0.006 C 
ATOM     18  C   UNL     1     152.861 156.729 150.666  1.00  0.00     0.008 C 
ATOM     19  C   UNL     1     151.893 155.088 149.015  1.00  0.00     0.008 C 
ENDBRANCH  12  17
ENDBRANCH  11  12
ENDBRANCH   1  11
TORSDOF 1
ENDMDL
MODEL 7
REMARK VINA RESULT:    -1.426      3.103      4.404
REMARK INTER + INTRA:          -2.817
REMARK INTER:                  -2.637
REMARK INTRA:                  -0.180
REMARK UNBOUND:                -0.641
REMARK SMILES CC1=CCC[C@H](C)C(=O)C[C@H](C(C)C)C(=O)C1
REMARK SMILES IDX 8 1 9 2 6 3 7 4 5 5 4 6 3 7 2 8 1 9 10 11 11 12 15 13 16 14
REMARK SMILES IDX 17 15 12 17 13 18 14 19
REMARK H PARENT
REMARK Flexibility Score: 70.00
ROOT
ATOM      1  C   UNL     1     166.357 168.930 142.666  1.00  0.00     0.136 C 
ATOM      2  O   UNL     1     166.272 167.715 142.775  1.00  0.00    -0.299 OA
ENDROOT
BRANCH   1   3
ATOM      3  C   UNL     1     167.510 169.513 141.868  1.00  0.00     0.053 C 
ATOM      4  C   UNL     1     167.010 170.642 140.961  1.00  0.00     0.016 C 
BRANCH   3   5
ATOM      5  C   UNL     1     168.660 170.003 142.770  1.00  0.00     0.015 C 
BRANCH   5   6
ATOM      6  C   UNL     1     168.389 171.406 143.339  1.00  0.00     0.028 C 
BRANCH   6   7
ATOM      7  C   UNL     1     168.639 171.493 144.822  1.00  0.00    -0.028 C 
ATOM      8  C   UNL     1     167.692 171.467 145.793  1.00  0.00    -0.070 CG0
ATOM      9  C   UNL     1     168.174 171.462 147.224  1.00  0.00     0.039 C 
ATOM     10  G   UNL     1     166.187 171.506 145.534  1.00  0.00     0.000 G0
ENDBRANCH   6   7
ENDBRANCH   5   6
ENDBRANCH   3   5
ENDBRANCH   1   3
BRANCH   1  11
ATOM     11  C   UNL     1     165.273 169.795 143.270  1.00  0.00     0.087 C 
BRANCH  11  12
ATOM     12  C   UNL     1     164.867 169.346 144.701  1.00  0.00     0.066 C 
BRANCH  12  13
ATOM     13  C   UNL     1     165.464 170.205 145.815  1.00  0.00     0.140 C 
ATOM     14  O   UNL     1     165.256 169.877 146.975  1.00  0.00    -0.299 OA
BRANCH  13  15
ATOM     15  C   UNL     1     166.181 171.509 145.554  1.00  0.00     0.106 CG0
ATOM     16  G   UNL     1     167.688 171.463 145.799  1.00  0.00     0.000 G0
ENDBRANCH  13  15
ENDBRANCH  12  13
BRANCH  12  17
ATOM     17  C   UNL     1     163.325 169.144 144.835  1.00  0.00    -0.006 C 
ATOM     18  C   UNL     1     162.546 170.025 143.846  1.00  0.00     0.008 C 
ATOM     19  C   UNL     1     162.857 167.683 144.727  1.00  0.00     0.008 C 
ENDBRANCH  12  17
ENDBRANCH  11  12
ENDBRANCH   1  11
TORSDOF 1
ENDMDL
MODEL 8
REMARK VINA RESULT:    -1.371      2.321      3.869
REMARK INTER + INTRA:          -2.733
REMARK INTER:                  -2.444
REMARK INTRA:                  -0.289
REMARK UNBOUND:                -0.641
REMARK SMILES CC1=CCC[C@H](C)C(=O)C[C@H](C(C)C)C(=O)C1
REMARK SMILES IDX 8 1 9 2 6 3 7 4 5 5 4 6 3 7 2 8 1 9 10 11 11 12 15 13 16 14
REMARK SMILES IDX 17 15 12 17 13 18 14 19
REMARK H PARENT
REMARK Flexibility Score: 70.00
ROOT
ATOM      1  C   UNL     1     165.024 169.226 143.388  1.00  0.00     0.136 C 
ATOM      2  O   UNL     1     163.801 169.234 143.373  1.00  0.00    -0.299 OA
ENDROOT
BRANCH   1   3
ATOM      3  C   UNL     1     165.744 167.892 143.482  1.00  0.00     0.053 C 
ATOM      4  C   UNL     1     164.922 166.903 144.314  1.00  0.00     0.016 C 
BRANCH   3   5
ATOM      5  C   UNL     1     166.074 167.303 142.096  1.00  0.00     0.015 C 
BRANCH   5   6
ATOM      6  C   UNL     1     167.590 167.191 141.863  1.00  0.00     0.028 C 
BRANCH   6   7
ATOM      7  C   UNL     1     168.041 167.889 140.608  1.00  0.00    -0.028 C 
ATOM      8  C   UNL     1     168.824 168.996 140.549  1.00  0.00    -0.070 CG0
ATOM      9  C   UNL     1     169.242 169.471 139.177  1.00  0.00     0.039 C 
ATOM     10  G   UNL     1     169.252 169.819 141.763  1.00  0.00     0.000 G0
ENDBRANCH   6   7
ENDBRANCH   5   6
ENDBRANCH   3   5
ENDBRANCH   1   3
BRANCH   1  11
ATOM     11  C   UNL     1     165.766 170.537 143.242  1.00  0.00     0.087 C 
BRANCH  11  12
ATOM     12  C   UNL     1     167.293 170.398 143.492  1.00  0.00     0.066 C 
BRANCH  12  13
ATOM     13  C   UNL     1     168.156 170.746 142.280  1.00  0.00     0.140 C 
ATOM     14  O   UNL     1     167.879 171.752 141.640  1.00  0.00    -0.299 OA
BRANCH  13  15
ATOM     15  C   UNL     1     169.244 169.838 141.756  1.00  0.00     0.106 CG0
ATOM     16  G   UNL     1     168.834 168.988 140.555  1.00  0.00     0.000 G0
ENDBRANCH  13  15
ENDBRANCH  12  13
BRANCH  12  17
ATOM     17  C   UNL     1     167.739 171.127 144.799  1.00  0.00    -0.006 C 
ATOM     18  C   UNL     1     166.544 171.732 145.551  1.00  0.00     0.008 C 
ATOM     19  C   UNL     1     168.589 170.271 145.753  1.00  0.00     0.008 C 
ENDBRANCH  12  17
ENDBRANCH  11  12
ENDBRANCH   1  11
TORSDOF 1
ENDMDL
MODEL 9
REMARK VINA RESULT:    -1.366      2.235      4.442
REMARK INTER + INTRA:          -2.726
REMARK INTER:                  -2.179
REMARK INTRA:                  -0.547
REMARK UNBOUND:                -0.641
REMARK SMILES CC1=CCC[C@H](C)C(=O)C[C@H](C(C)C)C(=O)C1
REMARK SMILES IDX 8 1 9 2 6 3 7 4 5 5 4 6 3 7 2 8 1 9 10 11 11 12 15 13 16 14
REMARK SMILES IDX 17 15 12 17 13 18 14 19
REMARK H PARENT
REMARK Flexibility Score: 70.00
ROOT
ATOM      1  C   UNL     1     167.027 170.783 144.852  1.00  0.00     0.136 C 
ATOM      2  O   UNL     1     166.323 171.528 145.518  1.00  0.00    -0.299 OA
ENDROOT
BRANCH   1   3
ATOM      3  C   UNL     1     168.350 170.315 145.432  1.00  0.00     0.053 C 
ATOM      4  C   UNL     1     169.245 171.517 145.750  1.00  0.00     0.016 C 
BRANCH   3   5
ATOM      5  C   UNL     1     168.164 169.425 146.677  1.00  0.00     0.015 C 
BRANCH   5   6
ATOM      6  C   UNL     1     167.580 168.048 146.318  1.00  0.00     0.028 C 
BRANCH   6   7
ATOM      7  C   UNL     1     168.539 167.195 145.530  1.00  0.00    -0.028 C 
ATOM      8  C   UNL     1     168.368 166.780 144.249  1.00  0.00    -0.070 CG0
ATOM      9  C   UNL     1     169.507 166.016 143.617  1.00  0.00     0.039 C 
ATOM     10  G   UNL     1     167.088 166.978 143.439  1.00  0.00     0.000 G0
ENDBRANCH   6   7
ENDBRANCH   5   6
ENDBRANCH   3   5
ENDBRANCH   1   3
BRANCH   1  11
ATOM     11  C   UNL     1     166.519 170.305 143.509  1.00  0.00     0.087 C 
BRANCH  11  12
ATOM     12  C   UNL     1     167.586 169.510 142.707  1.00  0.00     0.066 C 
BRANCH  12  13
ATOM     13  C   UNL     1     167.177 168.074 142.382  1.00  0.00     0.140 C 
ATOM     14  O   UNL     1     166.798 167.821 141.246  1.00  0.00    -0.299 OA
BRANCH  13  15
ATOM     15  C   UNL     1     167.089 166.986 143.427  1.00  0.00     0.106 CG0
ATOM     16  G   UNL     1     168.367 166.785 144.240  1.00  0.00     0.000 G0
ENDBRANCH  13  15
ENDBRANCH  12  13
BRANCH  12  17
ATOM     17  C   UNL     1     168.095 170.304 141.463  1.00  0.00    -0.006 C 
ATOM     18  C   UNL     1     167.178 171.492 141.131  1.00  0.00     0.008 C 
ATOM     19  C   UNL     1     169.557 170.772 141.554  1.00  0.00     0.008 C 
ENDBRANCH  12  17
ENDBRANCH  11  12
ENDBRANCH   1  11
TORSDOF 1
ENDMDL
