MODEL 1
REMARK VINA RESULT:    17.691      0.000      0.000
REMARK INTER + INTRA:          20.568
REMARK INTER:                  20.794
REMARK INTRA:                  -0.226
REMARK UNBOUND:                -0.226
REMARK SMILES CC1(C)CC[C@@]2(C(=O)[O-])CC[C@@]3(C)C(=CC[C@@H]4[C@@]5(C)CC[C@@H](O)[C@](C)(CO)[C@@H]5CC[C@@]43C)[C@H]2C1
REMARK SMILES IDX 6 1 5 2 10 3 33 4 4 5 11 6 14 7 34 8 2 9 12 10 15 11 1 12
REMARK SMILES IDX 3 13 13 14 31 15 16 16 17 17 30 18 32 19 18 20 29 21 28 22
REMARK SMILES IDX 20 23 19 24 24 25 21 26 22 27 25 28 7 29 8 30 9 31 26 32
REMARK SMILES IDX 27 33 23 35
REMARK H PARENT 27 34 23 36
REMARK Flexibility Score: inf
ROOT
ATOM      1  C   UNL     1      20.972  33.297  19.417  1.00  0.00     0.017 C 
ATOM      2  C   UNL     1      19.702  34.210  19.313  1.00  0.00     0.014 C 
ATOM      3  C   UNL     1      20.519  31.909  19.955  1.00  0.00     0.014 C 
ATOM      4  C   UNL     1      21.691  33.230  18.012  1.00  0.00     0.028 C 
ATOM      5  C   UNL     1      19.971  35.447  18.445  1.00  0.00     0.007 C 
ATOM      6  C   UNL     1      21.491  30.745  19.670  1.00  0.00     0.013 C 
ATOM      7  C   UNL     1      22.487  31.929  17.799  1.00  0.00    -0.064 C 
ATOM      8  C   UNL     1      20.795  33.618  16.810  1.00  0.00     0.015 C 
ATOM      9  C   UNL     1      20.224  35.070  16.947  1.00  0.00    -0.035 C 
ATOM     10  C   UNL     1      21.872  30.571  18.155  1.00  0.00    -0.006 C 
ATOM     11  C   UNL     1      23.812  32.072  17.651  1.00  0.00    -0.027 C 
ATOM     12  C   UNL     1      21.214  36.089  16.333  1.00  0.00     0.011 C 
ATOM     13  C   UNL     1      18.893  35.155  16.159  1.00  0.00     0.011 C 
ATOM     14  C   UNL     1      20.579  30.348  17.299  1.00  0.00     0.017 C 
ATOM     15  C   UNL     1      22.875  29.307  17.909  1.00  0.00    -0.020 C 
ATOM     16  C   UNL     1      24.793  30.965  17.662  1.00  0.00     0.032 C 
ATOM     17  C   UNL     1      24.359  29.642  18.369  1.00  0.00     0.006 C 
ATOM     18  C   UNL     1      22.955  28.921  16.375  1.00  0.00     0.008 C 
ATOM     19  C   UNL     1      22.273  28.085  18.709  1.00  0.00     0.012 C 
ATOM     20  C   UNL     1      25.464  28.468  18.133  1.00  0.00    -0.025 C 
ATOM     21  C   UNL     1      24.224  28.136  15.909  1.00  0.00     0.005 C 
ATOM     22  C   UNL     1      24.947  27.430  17.074  1.00  0.00     0.006 C 
ATOM     23  C   UNL     1      25.727  27.668  19.446  1.00  0.00     0.010 C 
ATOM     24  C   UNL     1      26.847  29.088  17.724  1.00  0.00     0.012 C 
ATOM     25  C   UNL     1      25.883  26.198  16.746  1.00  0.00     0.020 C 
ATOM     26  C   UNL     1      26.689  26.468  19.248  1.00  0.00     0.033 C 
ATOM     27  C   UNL     1      26.251  25.498  18.125  1.00  0.00     0.123 C 
ATOM     28  C   UNL     1      25.077  25.152  15.907  1.00  0.00     0.017 C 
ENDROOT
BRANCH   1  29
ATOM     29  C   UNL     1      21.959  33.877  20.433  1.00  0.00     0.048 C 
ATOM     30  O   UNL     1      21.645  34.020  21.646  1.00  0.00    -0.550 OA
ATOM     31  O   UNL     1      23.238  34.240  20.035  1.00  0.00    -0.550 OA
ENDBRANCH   1  29
BRANCH  25  32
ATOM     32  C   UNL     1      27.142  26.566  15.875  1.00  0.00     0.165 C 
BRANCH  32  33
ATOM     33  O   UNL     1      28.185  25.637  16.016  1.00  0.00    -0.396 OA
ATOM     34  H   UNL     1      28.724  25.679  15.186  1.00  0.00     0.210 HD
ENDBRANCH  32  33
ENDBRANCH  25  32
BRANCH  27  35
ATOM     35  O   UNL     1      25.143  24.777  18.619  1.00  0.00    -0.392 OA
ATOM     36  H   UNL     1      25.484  24.069  19.228  1.00  0.00     0.210 HD
ENDBRANCH  27  35
TORSDOF 4
ENDMDL
MODEL 2
REMARK VINA RESULT:    18.701      1.829      2.834
REMARK INTER + INTRA:          21.755
REMARK INTER:                  21.579
REMARK INTRA:                   0.176
REMARK UNBOUND:                -0.226
REMARK SMILES CC1(C)CC[C@@]2(C(=O)[O-])CC[C@@]3(C)C(=CC[C@@H]4[C@@]5(C)CC[C@@H](O)[C@](C)(CO)[C@@H]5CC[C@@]43C)[C@H]2C1
REMARK SMILES IDX 6 1 5 2 10 3 33 4 4 5 11 6 14 7 34 8 2 9 12 10 15 11 1 12
REMARK SMILES IDX 3 13 13 14 31 15 16 16 17 17 30 18 32 19 18 20 29 21 28 22
REMARK SMILES IDX 20 23 19 24 24 25 21 26 22 27 25 28 7 29 8 30 9 31 26 32
REMARK SMILES IDX 27 33 23 35
REMARK H PARENT 27 34 23 36
REMARK Flexibility Score: inf
ROOT
ATOM      1  C   UNL     1      21.160  34.552  17.678  1.00  0.00     0.017 C 
ATOM      2  C   UNL     1      20.081  35.611  18.089  1.00  0.00     0.014 C 
ATOM      3  C   UNL     1      22.134  34.373  18.878  1.00  0.00     0.014 C 
ATOM      4  C   UNL     1      20.446  33.215  17.235  1.00  0.00     0.028 C 
ATOM      5  C   UNL     1      18.873  35.577  17.143  1.00  0.00     0.007 C 
ATOM      6  C   UNL     1      22.945  33.060  18.876  1.00  0.00     0.013 C 
ATOM      7  C   UNL     1      21.313  31.962  17.451  1.00  0.00    -0.064 C 
ATOM      8  C   UNL     1      18.991  33.062  17.743  1.00  0.00     0.015 C 
ATOM      9  C   UNL     1      18.073  34.236  17.260  1.00  0.00    -0.035 C 
ATOM     10  C   UNL     1      22.072  31.757  18.768  1.00  0.00    -0.006 C 
ATOM     11  C   UNL     1      21.653  31.287  16.344  1.00  0.00    -0.027 C 
ATOM     12  C   UNL     1      17.458  33.896  15.881  1.00  0.00     0.011 C 
ATOM     13  C   UNL     1      16.916  34.410  18.275  1.00  0.00     0.011 C 
ATOM     14  C   UNL     1      21.048  31.696  19.951  1.00  0.00     0.017 C 
ATOM     15  C   UNL     1      22.978  30.399  18.802  1.00  0.00    -0.020 C 
ATOM     16  C   UNL     1      22.654  30.199  16.283  1.00  0.00     0.032 C 
ATOM     17  C   UNL     1      23.725  30.160  17.420  1.00  0.00     0.006 C 
ATOM     18  C   UNL     1      22.089  29.115  19.061  1.00  0.00     0.008 C 
ATOM     19  C   UNL     1      23.996  30.560  20.000  1.00  0.00     0.012 C 
ATOM     20  C   UNL     1      24.630  28.809  17.318  1.00  0.00    -0.025 C 
ATOM     21  C   UNL     1      22.676  27.742  18.599  1.00  0.00     0.005 C 
ATOM     22  C   UNL     1      24.208  27.780  18.427  1.00  0.00     0.006 C 
ATOM     23  C   UNL     1      26.140  29.121  17.555  1.00  0.00     0.010 C 
ATOM     24  C   UNL     1      24.539  28.193  15.877  1.00  0.00     0.012 C 
ATOM     25  C   UNL     1      25.010  26.418  18.499  1.00  0.00     0.020 C 
ATOM     26  C   UNL     1      27.030  27.852  17.580  1.00  0.00     0.033 C 
ATOM     27  C   UNL     1      26.555  26.778  18.587  1.00  0.00     0.123 C 
ATOM     28  C   UNL     1      24.640  25.675  19.825  1.00  0.00     0.017 C 
ENDROOT
BRANCH   1  29
ATOM     29  C   UNL     1      21.987  35.068  16.497  1.00  0.00     0.048 C 
ATOM     30  O   UNL     1      21.670  36.124  15.885  1.00  0.00    -0.550 OA
ATOM     31  O   UNL     1      23.124  34.384  16.089  1.00  0.00    -0.550 OA
ENDBRANCH   1  29
BRANCH  25  32
ATOM     32  C   UNL     1      24.667  25.413  17.335  1.00  0.00     0.165 C 
BRANCH  32  33
ATOM     33  O   UNL     1      25.659  24.435  17.158  1.00  0.00    -0.396 OA
ATOM     34  H   UNL     1      26.499  24.805  17.532  1.00  0.00     0.210 HD
ENDBRANCH  32  33
ENDBRANCH  25  32
BRANCH  27  35
ATOM     35  O   UNL     1      26.873  27.260  19.875  1.00  0.00    -0.392 OA
ATOM     36  H   UNL     1      27.456  26.589  20.319  1.00  0.00     0.210 HD
ENDBRANCH  27  35
TORSDOF 4
ENDMDL
