MODEL 1
REMARK VINA RESULT:    -7.313      0.000      0.000
REMARK INTER + INTRA:          -8.912
REMARK INTER:                  -8.596
REMARK INTRA:                  -0.316
REMARK UNBOUND:                -0.316
REMARK SMILES O=c1c(O)c(-c2ccc(O)c(O)c2)oc2cc(O)ccc12
REMARK SMILES IDX 5 1 3 2 2 3 1 4 21 5 15 6 14 7 16 8 17 9 19 10 20 11 6 12
REMARK SMILES IDX 7 13 8 14 9 15 13 16 11 17 10 18 12 20 4 22 18 24
REMARK H PARENT 10 19 12 21 4 23 18 25
REMARK Flexibility Score: inf
ROOT
ATOM      1  C   UNL     1       4.669  -0.026 -23.084  1.00  0.00     0.180 A 
ATOM      2  C   UNL     1       5.131  -0.693 -24.237  1.00  0.00     0.208 A 
ATOM      3  C   UNL     1       4.941  -2.079 -24.339  1.00  0.00     0.235 A 
ATOM      4  O   UNL     1       5.355  -2.701 -25.356  1.00  0.00    -0.285 OA
ATOM      5  C   UNL     1       4.280  -2.764 -23.306  1.00  0.00     0.069 A 
ATOM      6  C   UNL     1       3.827  -2.021 -22.195  1.00  0.00     0.142 A 
ATOM      7  O   UNL     1       4.035  -0.710 -22.133  1.00  0.00    -0.452 OA
ATOM      8  C   UNL     1       3.156  -2.664 -21.149  1.00  0.00     0.094 A 
ATOM      9  C   UNL     1       2.933  -4.044 -21.197  1.00  0.00     0.119 A 
ATOM     10  C   UNL     1       3.384  -4.786 -22.298  1.00  0.00     0.047 A 
ATOM     11  C   UNL     1       4.055  -4.151 -23.348  1.00  0.00     0.020 A 
ENDROOT
BRANCH   1  12
ATOM     12  C   UNL     1       4.848   1.431 -22.894  1.00  0.00     0.025 A 
ATOM     13  C   UNL     1       6.010   1.908 -22.268  1.00  0.00     0.016 A 
ATOM     14  C   UNL     1       6.209   3.281 -22.098  1.00  0.00     0.051 A 
ATOM     15  C   UNL     1       5.260   4.197 -22.561  1.00  0.00     0.157 A 
ATOM     16  C   UNL     1       3.904   2.355 -23.379  1.00  0.00     0.062 A 
ATOM     17  C   UNL     1       4.103   3.732 -23.210  1.00  0.00     0.158 A 
BRANCH  15  18
ATOM     18  O   UNL     1       5.485   5.560 -22.375  1.00  0.00    -0.504 OA
ATOM     19  H   UNL     1       4.754   6.249 -22.504  1.00  0.00     0.293 HD
ENDBRANCH  15  18
BRANCH  17  20
ATOM     20  O   UNL     1       3.159   4.640 -23.688  1.00  0.00    -0.504 OA
ATOM     21  H   UNL     1       3.290   5.641 -23.595  1.00  0.00     0.293 HD
ENDBRANCH  17  20
ENDBRANCH   1  12
BRANCH   2  22
ATOM     22  O   UNL     1       5.740   0.021 -25.271  1.00  0.00    -0.502 OA
ATOM     23  H   UNL     1       6.312  -0.427 -25.977  1.00  0.00     0.293 HD
ENDBRANCH   2  22
BRANCH   9  24
ATOM     24  O   UNL     1       2.264  -4.668 -20.146  1.00  0.00    -0.508 OA
ATOM     25  H   UNL     1       2.707  -4.810 -19.246  1.00  0.00     0.293 HD
ENDBRANCH   9  24
TORSDOF 5
ENDMDL
MODEL 2
REMARK VINA RESULT:    -6.961      1.748      6.844
REMARK INTER + INTRA:          -8.497
REMARK INTER:                  -8.232
REMARK INTRA:                  -0.265
REMARK UNBOUND:                -0.316
REMARK SMILES O=c1c(O)c(-c2ccc(O)c(O)c2)oc2cc(O)ccc12
REMARK SMILES IDX 5 1 3 2 2 3 1 4 21 5 15 6 14 7 16 8 17 9 19 10 20 11 6 12
REMARK SMILES IDX 7 13 8 14 9 15 13 16 11 17 10 18 12 20 4 22 18 24
REMARK H PARENT 10 19 12 21 4 23 18 25
REMARK Flexibility Score: inf
ROOT
ATOM      1  C   UNL     1       4.381  -0.513 -23.107  1.00  0.00     0.180 A 
ATOM      2  C   UNL     1       5.352   0.243 -22.420  1.00  0.00     0.208 A 
ATOM      3  C   UNL     1       5.528   1.592 -22.765  1.00  0.00     0.235 A 
ATOM      4  O   UNL     1       6.399   2.288 -22.173  1.00  0.00    -0.285 OA
ATOM      5  C   UNL     1       4.723   2.159 -23.766  1.00  0.00     0.069 A 
ATOM      6  C   UNL     1       3.756   1.342 -24.390  1.00  0.00     0.142 A 
ATOM      7  O   UNL     1       3.628   0.066 -24.040  1.00  0.00    -0.452 OA
ATOM      8  C   UNL     1       2.928   1.872 -25.385  1.00  0.00     0.094 A 
ATOM      9  C   UNL     1       3.054   3.211 -25.769  1.00  0.00     0.119 A 
ATOM     10  C   UNL     1       4.014   4.026 -25.152  1.00  0.00     0.047 A 
ATOM     11  C   UNL     1       4.846   3.505 -24.157  1.00  0.00     0.020 A 
ENDROOT
BRANCH   1  12
ATOM     12  C   UNL     1       4.148  -1.946 -22.813  1.00  0.00     0.025 A 
ATOM     13  C   UNL     1       4.688  -2.922 -23.665  1.00  0.00     0.016 A 
ATOM     14  C   UNL     1       4.499  -4.280 -23.395  1.00  0.00     0.051 A 
ATOM     15  C   UNL     1       3.782  -4.684 -22.265  1.00  0.00     0.157 A 
ATOM     16  C   UNL     1       3.445  -2.354 -21.665  1.00  0.00     0.062 A 
ATOM     17  C   UNL     1       3.255  -3.716 -21.392  1.00  0.00     0.158 A 
BRANCH  15  18
ATOM     18  O   UNL     1       3.607  -6.045 -22.023  1.00  0.00    -0.504 OA
ATOM     19  H   UNL     1       2.857  -6.576 -22.449  1.00  0.00     0.293 HD
ENDBRANCH  15  18
BRANCH  17  20
ATOM     20  O   UNL     1       2.551  -4.111 -20.256  1.00  0.00    -0.504 OA
ATOM     21  H   UNL     1       3.016  -4.549 -19.469  1.00  0.00     0.293 HD
ENDBRANCH  17  20
ENDBRANCH   1  12
BRANCH   2  22
ATOM     22  O   UNL     1       6.104  -0.334 -21.395  1.00  0.00    -0.502 OA
ATOM     23  H   UNL     1       5.749  -1.090 -20.821  1.00  0.00     0.293 HD
ENDBRANCH   2  22
BRANCH   9  24
ATOM     24  O   UNL     1       2.221   3.722 -26.762  1.00  0.00    -0.508 OA
ATOM     25  H   UNL     1       1.752   3.114 -27.424  1.00  0.00     0.293 HD
ENDBRANCH   9  24
TORSDOF 5
ENDMDL
MODEL 3
REMARK VINA RESULT:    -6.849      4.582     10.253
REMARK INTER + INTRA:          -8.366
REMARK INTER:                  -8.049
REMARK INTRA:                  -0.317
REMARK UNBOUND:                -0.316
REMARK SMILES O=c1c(O)c(-c2ccc(O)c(O)c2)oc2cc(O)ccc12
REMARK SMILES IDX 5 1 3 2 2 3 1 4 21 5 15 6 14 7 16 8 17 9 19 10 20 11 6 12
REMARK SMILES IDX 7 13 8 14 9 15 13 16 11 17 10 18 12 20 4 22 18 24
REMARK H PARENT 10 19 12 21 4 23 18 25
REMARK Flexibility Score: inf
ROOT
ATOM      1  C   UNL     1       4.394   7.203 -23.185  1.00  0.00     0.180 A 
ATOM      2  C   UNL     1       3.243   7.842 -23.693  1.00  0.00     0.208 A 
ATOM      3  C   UNL     1       3.309   9.210 -24.000  1.00  0.00     0.235 A 
ATOM      4  O   UNL     1       2.290   9.807 -24.446  1.00  0.00    -0.285 OA
ATOM      5  C   UNL     1       4.517   9.902 -23.814  1.00  0.00     0.069 A 
ATOM      6  C   UNL     1       5.630   9.186 -23.324  1.00  0.00     0.142 A 
ATOM      7  O   UNL     1       5.523   7.893 -23.036  1.00  0.00    -0.452 OA
ATOM      8  C   UNL     1       6.853   9.837 -23.134  1.00  0.00     0.094 A 
ATOM      9  C   UNL     1       6.981  11.199 -23.426  1.00  0.00     0.119 A 
ATOM     10  C   UNL     1       5.877  11.914 -23.912  1.00  0.00     0.047 A 
ATOM     11  C   UNL     1       4.650  11.272 -24.106  1.00  0.00     0.020 A 
ENDROOT
BRANCH   1  12
ATOM     12  C   UNL     1       4.399   5.768 -22.821  1.00  0.00     0.025 A 
ATOM     13  C   UNL     1       4.007   5.382 -21.529  1.00  0.00     0.016 A 
ATOM     14  C   UNL     1       3.985   4.032 -21.171  1.00  0.00     0.051 A 
ATOM     15  C   UNL     1       4.338   3.047 -22.098  1.00  0.00     0.157 A 
ATOM     16  C   UNL     1       4.733   4.775 -23.759  1.00  0.00     0.062 A 
ATOM     17  C   UNL     1       4.710   3.420 -23.402  1.00  0.00     0.158 A 
BRANCH  15  18
ATOM     18  O   UNL     1       4.308   1.709 -21.711  1.00  0.00    -0.504 OA
ATOM     19  H   UNL     1       3.867   1.406 -20.851  1.00  0.00     0.293 HD
ENDBRANCH  15  18
BRANCH  17  20
ATOM     20  O   UNL     1       5.049   2.443 -24.336  1.00  0.00    -0.504 OA
ATOM     21  H   UNL     1       4.468   2.258 -25.146  1.00  0.00     0.293 HD
ENDBRANCH  17  20
ENDBRANCH   1  12
BRANCH   2  22
ATOM     22  O   UNL     1       2.071   7.117 -23.914  1.00  0.00    -0.502 OA
ATOM     23  H   UNL     1       2.025   6.111 -23.801  1.00  0.00     0.293 HD
ENDBRANCH   2  22
BRANCH   9  24
ATOM     24  O   UNL     1       8.206  11.832 -23.231  1.00  0.00    -0.508 OA
ATOM     25  H   UNL     1       9.073  11.307 -23.195  1.00  0.00     0.293 HD
ENDBRANCH   9  24
TORSDOF 5
ENDMDL
MODEL 4
REMARK VINA RESULT:    -6.845      6.413      9.849
REMARK INTER + INTRA:          -8.362
REMARK INTER:                  -8.048
REMARK INTRA:                  -0.313
REMARK UNBOUND:                -0.316
REMARK SMILES O=c1c(O)c(-c2ccc(O)c(O)c2)oc2cc(O)ccc12
REMARK SMILES IDX 5 1 3 2 2 3 1 4 21 5 15 6 14 7 16 8 17 9 19 10 20 11 6 12
REMARK SMILES IDX 7 13 8 14 9 15 13 16 11 17 10 18 12 20 4 22 18 24
REMARK H PARENT 10 19 12 21 4 23 18 25
REMARK Flexibility Score: inf
ROOT
ATOM      1  C   UNL     1       4.833   9.430 -24.323  1.00  0.00     0.180 A 
ATOM      2  C   UNL     1       3.472   9.190 -24.602  1.00  0.00     0.208 A 
ATOM      3  C   UNL     1       2.883   8.006 -24.132  1.00  0.00     0.235 A 
ATOM      4  O   UNL     1       1.669   7.763 -24.378  1.00  0.00    -0.285 OA
ATOM      5  C   UNL     1       3.654   7.102 -23.382  1.00  0.00     0.069 A 
ATOM      6  C   UNL     1       5.003   7.427 -23.126  1.00  0.00     0.142 A 
ATOM      7  O   UNL     1       5.525   8.554 -23.597  1.00  0.00    -0.452 OA
ATOM      8  C   UNL     1       5.801   6.557 -22.375  1.00  0.00     0.094 A 
ATOM      9  C   UNL     1       5.269   5.363 -21.876  1.00  0.00     0.119 A 
ATOM     10  C   UNL     1       3.930   5.037 -22.130  1.00  0.00     0.047 A 
ATOM     11  C   UNL     1       3.124   5.900 -22.880  1.00  0.00     0.020 A 
ENDROOT
BRANCH   1  12
ATOM     12  C   UNL     1       5.530  10.647 -24.799  1.00  0.00     0.025 A 
ATOM     13  C   UNL     1       6.078  10.668 -26.092  1.00  0.00     0.016 A 
ATOM     14  C   UNL     1       6.721  11.813 -26.569  1.00  0.00     0.051 A 
ATOM     15  C   UNL     1       6.815  12.957 -25.771  1.00  0.00     0.157 A 
ATOM     16  C   UNL     1       5.606  11.806 -24.005  1.00  0.00     0.062 A 
ATOM     17  C   UNL     1       6.250  12.956 -24.483  1.00  0.00     0.158 A 
BRANCH  15  18
ATOM     18  O   UNL     1       7.464  14.083 -26.273  1.00  0.00    -0.504 OA
ATOM     19  H   UNL     1       8.404  14.040 -26.648  1.00  0.00     0.293 HD
ENDBRANCH  15  18
BRANCH  17  20
ATOM     20  O   UNL     1       6.327  14.097 -23.687  1.00  0.00    -0.504 OA
ATOM     21  H   UNL     1       6.634  14.053 -22.723  1.00  0.00     0.293 HD
ENDBRANCH  17  20
ENDBRANCH   1  12
BRANCH   2  22
ATOM     22  O   UNL     1       2.717  10.130 -25.307  1.00  0.00    -0.502 OA
ATOM     23  H   UNL     1       3.139  10.924 -25.775  1.00  0.00     0.293 HD
ENDBRANCH   2  22
BRANCH   9  24
ATOM     24  O   UNL     1       6.078   4.509 -21.131  1.00  0.00    -0.508 OA
ATOM     25  H   UNL     1       6.008   3.502 -21.219  1.00  0.00     0.293 HD
ENDBRANCH   9  24
TORSDOF 5
ENDMDL
MODEL 5
REMARK VINA RESULT:    -6.814      1.601      6.677
REMARK INTER + INTRA:          -8.325
REMARK INTER:                  -8.027
REMARK INTRA:                  -0.298
REMARK UNBOUND:                -0.316
REMARK SMILES O=c1c(O)c(-c2ccc(O)c(O)c2)oc2cc(O)ccc12
REMARK SMILES IDX 5 1 3 2 2 3 1 4 21 5 15 6 14 7 16 8 17 9 19 10 20 11 6 12
REMARK SMILES IDX 7 13 8 14 9 15 13 16 11 17 10 18 12 20 4 22 18 24
REMARK H PARENT 10 19 12 21 4 23 18 25
REMARK Flexibility Score: inf
ROOT
ATOM      1  C   UNL     1       3.859  -0.686 -23.508  1.00  0.00     0.180 A 
ATOM      2  C   UNL     1       3.276  -0.232 -24.709  1.00  0.00     0.208 A 
ATOM      3  C   UNL     1       3.376   1.129 -25.036  1.00  0.00     0.235 A 
ATOM      4  O   UNL     1       2.852   1.563 -26.100  1.00  0.00    -0.285 OA
ATOM      5  C   UNL     1       4.068   1.998 -24.176  1.00  0.00     0.069 A 
ATOM      6  C   UNL     1       4.644   1.461 -23.006  1.00  0.00     0.142 A 
ATOM      7  O   UNL     1       4.519   0.167 -22.727  1.00  0.00    -0.452 OA
ATOM      8  C   UNL     1       5.349   2.291 -22.128  1.00  0.00     0.094 A 
ATOM      9  C   UNL     1       5.485   3.656 -22.404  1.00  0.00     0.119 A 
ATOM     10  C   UNL     1       4.913   4.193 -23.565  1.00  0.00     0.047 A 
ATOM     11  C   UNL     1       4.207   3.371 -24.448  1.00  0.00     0.020 A 
ENDROOT
BRANCH   1  12
ATOM     12  C   UNL     1       3.782  -2.103 -23.084  1.00  0.00     0.025 A 
ATOM     13  C   UNL     1       4.908  -2.929 -23.228  1.00  0.00     0.016 A 
ATOM     14  C   UNL     1       4.864  -4.263 -22.814  1.00  0.00     0.051 A 
ATOM     15  C   UNL     1       3.703  -4.788 -22.239  1.00  0.00     0.157 A 
ATOM     16  C   UNL     1       2.622  -2.626 -22.484  1.00  0.00     0.062 A 
ATOM     17  C   UNL     1       2.577  -3.964 -22.068  1.00  0.00     0.158 A 
BRANCH  15  18
ATOM     18  O   UNL     1       3.688  -6.122 -21.838  1.00  0.00    -0.504 OA
ATOM     19  H   UNL     1       3.782  -6.884 -22.499  1.00  0.00     0.293 HD
ENDBRANCH  15  18
BRANCH  17  20
ATOM     20  O   UNL     1       1.421  -4.476 -21.481  1.00  0.00    -0.504 OA
ATOM     21  H   UNL     1       0.610  -4.727 -22.035  1.00  0.00     0.293 HD
ENDBRANCH  17  20
ENDBRANCH   1  12
BRANCH   2  22
ATOM     22  O   UNL     1       2.637  -1.127 -25.569  1.00  0.00    -0.502 OA
ATOM     23  H   UNL     1       1.846  -1.688 -25.277  1.00  0.00     0.293 HD
ENDBRANCH   2  22
BRANCH   9  24
ATOM     24  O   UNL     1       6.191   4.468 -21.519  1.00  0.00    -0.508 OA
ATOM     25  H   UNL     1       5.716   5.025 -20.818  1.00  0.00     0.293 HD
ENDBRANCH   9  24
TORSDOF 5
ENDMDL
MODEL 6
REMARK VINA RESULT:    -6.734      4.584      7.561
REMARK INTER + INTRA:          -8.231
REMARK INTER:                  -7.914
REMARK INTRA:                  -0.317
REMARK UNBOUND:                -0.316
REMARK SMILES O=c1c(O)c(-c2ccc(O)c(O)c2)oc2cc(O)ccc12
REMARK SMILES IDX 5 1 3 2 2 3 1 4 21 5 15 6 14 7 16 8 17 9 19 10 20 11 6 12
REMARK SMILES IDX 7 13 8 14 9 15 13 16 11 17 10 18 12 20 4 22 18 24
REMARK H PARENT 10 19 12 21 4 23 18 25
REMARK Flexibility Score: inf
ROOT
ATOM      1  C   UNL     1       4.475   7.427 -24.056  1.00  0.00     0.180 A 
ATOM      2  C   UNL     1       4.053   6.873 -25.283  1.00  0.00     0.208 A 
ATOM      3  C   UNL     1       3.833   5.490 -25.361  1.00  0.00     0.235 A 
ATOM      4  O   UNL     1       3.466   4.969 -26.451  1.00  0.00    -0.285 OA
ATOM      5  C   UNL     1       4.016   4.695 -24.217  1.00  0.00     0.069 A 
ATOM      6  C   UNL     1       4.417   5.328 -23.021  1.00  0.00     0.142 A 
ATOM      7  O   UNL     1       4.624   6.641 -22.992  1.00  0.00    -0.452 OA
ATOM      8  C   UNL     1       4.601   4.573 -21.858  1.00  0.00     0.094 A 
ATOM      9  C   UNL     1       4.392   3.191 -21.873  1.00  0.00     0.119 A 
ATOM     10  C   UNL     1       3.996   2.558 -23.060  1.00  0.00     0.047 A 
ATOM     11  C   UNL     1       3.809   3.304 -24.228  1.00  0.00     0.020 A 
ENDROOT
BRANCH   1  12
ATOM     12  C   UNL     1       4.746   8.874 -23.899  1.00  0.00     0.025 A 
ATOM     13  C   UNL     1       6.026   9.372 -24.188  1.00  0.00     0.016 A 
ATOM     14  C   UNL     1       6.297  10.738 -24.066  1.00  0.00     0.051 A 
ATOM     15  C   UNL     1       5.294  11.626 -23.670  1.00  0.00     0.157 A 
ATOM     16  C   UNL     1       3.731   9.772 -23.521  1.00  0.00     0.062 A 
ATOM     17  C   UNL     1       4.002  11.142 -23.400  1.00  0.00     0.158 A 
BRANCH  15  18
ATOM     18  O   UNL     1       5.595  12.982 -23.555  1.00  0.00    -0.504 OA
ATOM     19  H   UNL     1       5.226  13.672 -24.198  1.00  0.00     0.293 HD
ENDBRANCH  15  18
BRANCH  17  20
ATOM     20  O   UNL     1       2.992  12.024 -23.018  1.00  0.00    -0.504 OA
ATOM     21  H   UNL     1       2.264  11.749 -22.369  1.00  0.00     0.293 HD
ENDBRANCH  17  20
ENDBRANCH   1  12
BRANCH   2  22
ATOM     22  O   UNL     1       3.831   7.694 -26.391  1.00  0.00    -0.502 OA
ATOM     23  H   UNL     1       4.527   7.830 -27.114  1.00  0.00     0.293 HD
ENDBRANCH   2  22
BRANCH   9  24
ATOM     24  O   UNL     1       4.581   2.455 -20.706  1.00  0.00    -0.508 OA
ATOM     25  H   UNL     1       4.010   1.645 -20.492  1.00  0.00     0.293 HD
ENDBRANCH   9  24
TORSDOF 5
ENDMDL
MODEL 7
REMARK VINA RESULT:    -6.726      5.323      8.334
REMARK INTER + INTRA:          -8.222
REMARK INTER:                  -7.946
REMARK INTRA:                  -0.276
REMARK UNBOUND:                -0.316
REMARK SMILES O=c1c(O)c(-c2ccc(O)c(O)c2)oc2cc(O)ccc12
REMARK SMILES IDX 5 1 3 2 2 3 1 4 21 5 15 6 14 7 16 8 17 9 19 10 20 11 6 12
REMARK SMILES IDX 7 13 8 14 9 15 13 16 11 17 10 18 12 20 4 22 18 24
REMARK H PARENT 10 19 12 21 4 23 18 25
REMARK Flexibility Score: inf
ROOT
ATOM      1  C   UNL     1       4.499   7.700 -23.456  1.00  0.00     0.180 A 
ATOM      2  C   UNL     1       4.257   7.073 -22.215  1.00  0.00     0.208 A 
ATOM      3  C   UNL     1       3.876   5.723 -22.203  1.00  0.00     0.235 A 
ATOM      4  O   UNL     1       3.642   5.142 -21.106  1.00  0.00    -0.285 OA
ATOM      5  C   UNL     1       3.766   5.025 -23.416  1.00  0.00     0.069 A 
ATOM      6  C   UNL     1       4.049   5.716 -24.613  1.00  0.00     0.142 A 
ATOM      7  O   UNL     1       4.398   6.998 -24.583  1.00  0.00    -0.452 OA
ATOM      8  C   UNL     1       3.961   5.054 -25.842  1.00  0.00     0.094 A 
ATOM      9  C   UNL     1       3.590   3.706 -25.893  1.00  0.00     0.119 A 
ATOM     10  C   UNL     1       3.307   3.016 -24.706  1.00  0.00     0.047 A 
ATOM     11  C   UNL     1       3.393   3.670 -23.473  1.00  0.00     0.020 A 
ENDROOT
BRANCH   1  12
ATOM     12  C   UNL     1       4.887   9.125 -23.553  1.00  0.00     0.025 A 
ATOM     13  C   UNL     1       3.910  10.087 -23.858  1.00  0.00     0.016 A 
ATOM     14  C   UNL     1       4.250  11.440 -23.935  1.00  0.00     0.051 A 
ATOM     15  C   UNL     1       5.563  11.855 -23.694  1.00  0.00     0.157 A 
ATOM     16  C   UNL     1       6.203   9.547 -23.290  1.00  0.00     0.062 A 
ATOM     17  C   UNL     1       6.545  10.904 -23.365  1.00  0.00     0.158 A 
BRANCH  15  18
ATOM     18  O   UNL     1       5.873  13.211 -23.779  1.00  0.00    -0.504 OA
ATOM     19  H   UNL     1       5.281  13.925 -23.371  1.00  0.00     0.293 HD
ENDBRANCH  15  18
BRANCH  17  20
ATOM     20  O   UNL     1       7.853  11.312 -23.109  1.00  0.00    -0.504 OA
ATOM     21  H   UNL     1       8.650  10.777 -23.435  1.00  0.00     0.293 HD
ENDBRANCH  17  20
ENDBRANCH   1  12
BRANCH   2  22
ATOM     22  O   UNL     1       4.422   7.779 -21.022  1.00  0.00    -0.502 OA
ATOM     23  H   UNL     1       3.887   8.612 -20.806  1.00  0.00     0.293 HD
ENDBRANCH   2  22
BRANCH   9  24
ATOM     24  O   UNL     1       3.507   3.062 -27.125  1.00  0.00    -0.508 OA
ATOM     25  H   UNL     1       3.664   3.559 -27.994  1.00  0.00     0.293 HD
ENDBRANCH   9  24
TORSDOF 5
ENDMDL
MODEL 8
REMARK VINA RESULT:    -6.674      1.533      3.174
REMARK INTER + INTRA:          -8.160
REMARK INTER:                  -7.852
REMARK INTRA:                  -0.308
REMARK UNBOUND:                -0.316
REMARK SMILES O=c1c(O)c(-c2ccc(O)c(O)c2)oc2cc(O)ccc12
REMARK SMILES IDX 5 1 3 2 2 3 1 4 21 5 15 6 14 7 16 8 17 9 19 10 20 11 6 12
REMARK SMILES IDX 7 13 8 14 9 15 13 16 11 17 10 18 12 20 4 22 18 24
REMARK H PARENT 10 19 12 21 4 23 18 25
REMARK Flexibility Score: inf
ROOT
ATOM      1  C   UNL     1       4.857   1.008 -22.753  1.00  0.00     0.180 A 
ATOM      2  C   UNL     1       4.473   0.171 -21.685  1.00  0.00     0.208 A 
ATOM      3  C   UNL     1       4.301  -1.200 -21.928  1.00  0.00     0.235 A 
ATOM      4  O   UNL     1       3.947  -1.969 -20.991  1.00  0.00    -0.285 OA
ATOM      5  C   UNL     1       4.534  -1.708 -23.217  1.00  0.00     0.069 A 
ATOM      6  C   UNL     1       4.939  -0.809 -24.226  1.00  0.00     0.142 A 
ATOM      7  O   UNL     1       5.081   0.485 -23.957  1.00  0.00    -0.452 OA
ATOM      8  C   UNL     1       5.189  -1.277 -25.521  1.00  0.00     0.094 A 
ATOM      9  C   UNL     1       5.039  -2.634 -25.822  1.00  0.00     0.119 A 
ATOM     10  C   UNL     1       4.636  -3.530 -24.822  1.00  0.00     0.047 A 
ATOM     11  C   UNL     1       4.383  -3.072 -23.525  1.00  0.00     0.020 A 
ENDROOT
BRANCH   1  12
ATOM     12  C   UNL     1       5.041   2.467 -22.581  1.00  0.00     0.025 A 
ATOM     13  C   UNL     1       6.278   2.959 -22.136  1.00  0.00     0.016 A 
ATOM     14  C   UNL     1       6.481   4.333 -21.987  1.00  0.00     0.051 A 
ATOM     15  C   UNL     1       5.460   5.237 -22.294  1.00  0.00     0.157 A 
ATOM     16  C   UNL     1       4.022   3.379 -22.911  1.00  0.00     0.062 A 
ATOM     17  C   UNL     1       4.224   4.758 -22.763  1.00  0.00     0.158 A 
BRANCH  15  18
ATOM     18  O   UNL     1       5.690   6.602 -22.133  1.00  0.00    -0.504 OA
ATOM     19  H   UNL     1       5.318   7.290 -22.776  1.00  0.00     0.293 HD
ENDBRANCH  15  18
BRANCH  17  20
ATOM     20  O   UNL     1       3.206   5.654 -23.086  1.00  0.00    -0.504 OA
ATOM     21  H   UNL     1       3.394   6.514 -23.588  1.00  0.00     0.293 HD
ENDBRANCH  17  20
ENDBRANCH   1  12
BRANCH   2  22
ATOM     22  O   UNL     1       4.297   0.696 -20.403  1.00  0.00    -0.502 OA
ATOM     23  H   UNL     1       4.033   0.120 -19.612  1.00  0.00     0.293 HD
ENDBRANCH   2  22
BRANCH   9  24
ATOM     24  O   UNL     1       5.293  -3.082 -27.116  1.00  0.00    -0.508 OA
ATOM     25  H   UNL     1       4.588  -3.028 -27.843  1.00  0.00     0.293 HD
ENDBRANCH   9  24
TORSDOF 5
ENDMDL
MODEL 9
REMARK VINA RESULT:    -6.478      4.848      8.065
REMARK INTER + INTRA:          -7.930
REMARK INTER:                  -7.609
REMARK INTRA:                  -0.321
REMARK UNBOUND:                -0.316
REMARK SMILES O=c1c(O)c(-c2ccc(O)c(O)c2)oc2cc(O)ccc12
REMARK SMILES IDX 5 1 3 2 2 3 1 4 21 5 15 6 14 7 16 8 17 9 19 10 20 11 6 12
REMARK SMILES IDX 7 13 8 14 9 15 13 16 11 17 10 18 12 20 4 22 18 24
REMARK H PARENT 10 19 12 21 4 23 18 25
REMARK Flexibility Score: inf
ROOT
ATOM      1  C   UNL     1       4.282   7.822 -24.179  1.00  0.00     0.180 A 
ATOM      2  C   UNL     1       3.447   7.352 -25.214  1.00  0.00     0.208 A 
ATOM      3  C   UNL     1       3.079   5.998 -25.225  1.00  0.00     0.235 A 
ATOM      4  O   UNL     1       2.342   5.551 -26.148  1.00  0.00    -0.285 OA
ATOM      5  C   UNL     1       3.530   5.151 -24.200  1.00  0.00     0.069 A 
ATOM      6  C   UNL     1       4.343   5.703 -23.186  1.00  0.00     0.142 A 
ATOM      7  O   UNL     1       4.677   6.989 -23.217  1.00  0.00    -0.452 OA
ATOM      8  C   UNL     1       4.805   4.895 -22.142  1.00  0.00     0.094 A 
ATOM      9  C   UNL     1       4.468   3.538 -22.097  1.00  0.00     0.119 A 
ATOM     10  C   UNL     1       3.662   2.986 -23.103  1.00  0.00     0.047 A 
ATOM     11  C   UNL     1       3.195   3.786 -24.150  1.00  0.00     0.020 A 
ENDROOT
BRANCH   1  12
ATOM     12  C   UNL     1       4.728   9.232 -24.107  1.00  0.00     0.025 A 
ATOM     13  C   UNL     1       4.022  10.139 -23.301  1.00  0.00     0.016 A 
ATOM     14  C   UNL     1       4.439  11.469 -23.203  1.00  0.00     0.051 A 
ATOM     15  C   UNL     1       5.572  11.910 -23.893  1.00  0.00     0.157 A 
ATOM     16  C   UNL     1       5.880   9.671 -24.784  1.00  0.00     0.062 A 
ATOM     17  C   UNL     1       6.300  11.005 -24.685  1.00  0.00     0.158 A 
BRANCH  15  18
ATOM     18  O   UNL     1       5.961  13.243 -23.777  1.00  0.00    -0.504 OA
ATOM     19  H   UNL     1       5.752  13.795 -22.954  1.00  0.00     0.293 HD
ENDBRANCH  15  18
BRANCH  17  20
ATOM     20  O   UNL     1       7.439  11.433 -25.365  1.00  0.00    -0.504 OA
ATOM     21  H   UNL     1       7.527  12.383 -25.708  1.00  0.00     0.293 HD
ENDBRANCH  17  20
ENDBRANCH   1  12
BRANCH   2  22
ATOM     22  O   UNL     1       2.973   8.228 -26.193  1.00  0.00    -0.502 OA
ATOM     23  H   UNL     1       2.176   8.007 -26.779  1.00  0.00     0.293 HD
ENDBRANCH   2  22
BRANCH   9  24
ATOM     24  O   UNL     1       4.937   2.748 -21.050  1.00  0.00    -0.508 OA
ATOM     25  H   UNL     1       5.811   2.955 -20.582  1.00  0.00     0.293 HD
ENDBRANCH   9  24
TORSDOF 5
ENDMDL
