MODEL 1
REMARK VINA RESULT:    -1.942      0.000      0.000
REMARK INTER + INTRA:          -1.942
REMARK INTER:                  -1.942
REMARK INTRA:                   0.000
REMARK UNBOUND:                 0.000
REMARK SMILES CC(=O)[O-]
REMARK SMILES IDX 1 1 2 2 3 3 4 4
REMARK H PARENT
REMARK Flexibility Score: inf
ROOT
ATOM      1  C   UNL     1      -6.134  33.993  50.432  1.00  0.00     0.063 C 
ATOM      2  C   UNL     1      -5.726  33.519  49.078  1.00  0.00     0.038 C 
ATOM      3  O   UNL     1      -6.568  32.969  48.322  1.00  0.00    -0.550 OA
ATOM      4  O   UNL     1      -4.429  33.731  48.628  1.00  0.00    -0.550 OA
ENDROOT
TORSDOF 0
ENDMDL
MODEL 2
REMARK VINA RESULT:    -1.929     19.405     20.029
REMARK INTER + INTRA:          -1.929
REMARK INTER:                  -1.929
REMARK INTRA:                   0.000
REMARK UNBOUND:                 0.000
REMARK SMILES CC(=O)[O-]
REMARK SMILES IDX 1 1 2 2 3 3 4 4
REMARK H PARENT
REMARK Flexibility Score: inf
ROOT
ATOM      1  C   UNL     1     -20.463  20.484  42.012  1.00  0.00     0.063 C 
ATOM      2  C   UNL     1     -19.000  20.316  42.243  1.00  0.00     0.038 C 
ATOM      3  O   UNL     1     -18.363  19.416  41.634  1.00  0.00    -0.550 OA
ATOM      4  O   UNL     1     -18.324  21.184  43.091  1.00  0.00    -0.550 OA
ENDROOT
TORSDOF 0
ENDMDL
MODEL 3
REMARK VINA RESULT:    -1.916     19.560     20.129
REMARK INTER + INTRA:          -1.916
REMARK INTER:                  -1.916
REMARK INTRA:                   0.000
REMARK UNBOUND:                 0.000
REMARK SMILES CC(=O)[O-]
REMARK SMILES IDX 1 1 2 2 3 3 4 4
REMARK H PARENT
REMARK Flexibility Score: inf
ROOT
ATOM      1  C   UNL     1     -20.440  20.485  42.036  1.00  0.00     0.063 C 
ATOM      2  C   UNL     1     -19.025  20.203  42.412  1.00  0.00     0.038 C 
ATOM      3  O   UNL     1     -18.527  20.734  43.439  1.00  0.00    -0.550 OA
ATOM      4  O   UNL     1     -18.269  19.313  41.660  1.00  0.00    -0.550 OA
ENDROOT
TORSDOF 0
ENDMDL
MODEL 4
REMARK VINA RESULT:    -1.908     24.560     24.905
REMARK INTER + INTRA:          -1.908
REMARK INTER:                  -1.908
REMARK INTRA:                   0.000
REMARK UNBOUND:                 0.000
REMARK SMILES CC(=O)[O-]
REMARK SMILES IDX 1 1 2 2 3 3 4 4
REMARK H PARENT
REMARK Flexibility Score: inf
ROOT
ATOM      1  C   UNL     1     -23.945  21.212  35.186  1.00  0.00     0.063 C 
ATOM      2  C   UNL     1     -22.657  21.127  35.931  1.00  0.00     0.038 C 
ATOM      3  O   UNL     1     -21.566  21.301  35.328  1.00  0.00    -0.550 OA
ATOM      4  O   UNL     1     -22.659  20.907  37.302  1.00  0.00    -0.550 OA
ENDROOT
TORSDOF 0
ENDMDL
MODEL 5
REMARK VINA RESULT:    -1.901     19.426     20.009
REMARK INTER + INTRA:          -1.901
REMARK INTER:                  -1.901
REMARK INTRA:                   0.000
REMARK UNBOUND:                 0.000
REMARK SMILES CC(=O)[O-]
REMARK SMILES IDX 1 1 2 2 3 3 4 4
REMARK H PARENT
REMARK Flexibility Score: inf
ROOT
ATOM      1  C   UNL     1     -17.861  19.288  41.718  1.00  0.00     0.063 C 
ATOM      2  C   UNL     1     -18.883  20.322  42.047  1.00  0.00     0.038 C 
ATOM      3  O   UNL     1     -20.055  20.216  41.599  1.00  0.00    -0.550 OA
ATOM      4  O   UNL     1     -18.561  21.377  42.890  1.00  0.00    -0.550 OA
ENDROOT
TORSDOF 0
ENDMDL
MODEL 6
REMARK VINA RESULT:    -1.892     23.387     23.973
REMARK INTER + INTRA:          -1.892
REMARK INTER:                  -1.892
REMARK INTRA:                   0.000
REMARK UNBOUND:                 0.000
REMARK SMILES CC(=O)[O-]
REMARK SMILES IDX 1 1 2 2 3 3 4 4
REMARK H PARENT
REMARK Flexibility Score: inf
ROOT
ATOM      1  C   UNL     1     -20.718  21.965  34.846  1.00  0.00     0.063 C 
ATOM      2  C   UNL     1     -21.709  21.602  35.899  1.00  0.00     0.038 C 
ATOM      3  O   UNL     1     -22.667  20.832  35.627  1.00  0.00    -0.550 OA
ATOM      4  O   UNL     1     -21.548  22.069  37.197  1.00  0.00    -0.550 OA
ENDROOT
TORSDOF 0
ENDMDL
MODEL 7
REMARK VINA RESULT:    -1.890     18.687     19.194
REMARK INTER + INTRA:          -1.890
REMARK INTER:                  -1.890
REMARK INTRA:                   0.000
REMARK UNBOUND:                 0.000
REMARK SMILES CC(=O)[O-]
REMARK SMILES IDX 1 1 2 2 3 3 4 4
REMARK H PARENT
REMARK Flexibility Score: inf
ROOT
ATOM      1  C   UNL     1     -17.847  19.369  41.941  1.00  0.00     0.063 C 
ATOM      2  C   UNL     1     -17.663  19.844  43.343  1.00  0.00     0.038 C 
ATOM      3  O   UNL     1     -17.280  19.043  44.236  1.00  0.00    -0.550 OA
ATOM      4  O   UNL     1     -17.864  21.181  43.657  1.00  0.00    -0.550 OA
ENDROOT
TORSDOF 0
ENDMDL
MODEL 8
REMARK VINA RESULT:    -1.875     19.515     20.010
REMARK INTER + INTRA:          -1.875
REMARK INTER:                  -1.875
REMARK INTRA:                   0.000
REMARK UNBOUND:                 0.000
REMARK SMILES CC(=O)[O-]
REMARK SMILES IDX 1 1 2 2 3 3 4 4
REMARK H PARENT
REMARK Flexibility Score: inf
ROOT
ATOM      1  C   UNL     1     -18.103  20.928  43.390  1.00  0.00     0.063 C 
ATOM      2  C   UNL     1     -18.905  20.147  42.405  1.00  0.00     0.038 C 
ATOM      3  O   UNL     1     -18.327  19.416  41.559  1.00  0.00    -0.550 OA
ATOM      4  O   UNL     1     -20.292  20.183  42.452  1.00  0.00    -0.550 OA
ENDROOT
TORSDOF 0
ENDMDL
MODEL 9
REMARK VINA RESULT:    -1.855     20.868     21.139
REMARK INTER + INTRA:          -1.855
REMARK INTER:                  -1.855
REMARK INTRA:                   0.000
REMARK UNBOUND:                 0.000
REMARK SMILES CC(=O)[O-]
REMARK SMILES IDX 1 1 2 2 3 3 4 4
REMARK H PARENT
REMARK Flexibility Score: inf
ROOT
ATOM      1  C   UNL     1     -17.455  18.836  41.591  1.00  0.00     0.063 C 
ATOM      2  C   UNL     1     -16.952  17.467  41.280  1.00  0.00     0.038 C 
ATOM      3  O   UNL     1     -16.663  17.154  40.095  1.00  0.00    -0.550 OA
ATOM      4  O   UNL     1     -16.753  16.549  42.303  1.00  0.00    -0.550 OA
ENDROOT
TORSDOF 0
ENDMDL
