MODEL 1
REMARK VINA RESULT:    -3.330      0.000      0.000
REMARK INTER + INTRA:          -3.766
REMARK INTER:                  -3.720
REMARK INTRA:                  -0.046
REMARK UNBOUND:                -0.046
REMARK SMILES CCCC(=O)[O-]
REMARK SMILES IDX 3 1 4 2 5 3 6 4 2 5 1 6
REMARK H PARENT
REMARK Flexibility Score: inf
ROOT
ATOM      1  C   UNL     1      51.340  30.087  41.847  1.00  0.00     0.052 C 
ENDROOT
BRANCH   1   2
ATOM      2  C   UNL     1      52.364  29.532  42.786  1.00  0.00     0.041 C 
ATOM      3  O   UNL     1      52.051  28.624  43.600  1.00  0.00    -0.550 OA
ATOM      4  O   UNL     1      53.652  30.051  42.794  1.00  0.00    -0.550 OA
ENDBRANCH   1   2
BRANCH   1   5
ATOM      5  C   UNL     1      50.470  31.128  42.558  1.00  0.00     0.003 C 
ATOM      6  C   UNL     1      51.096  32.516  42.478  1.00  0.00     0.004 C 
ENDBRANCH   1   5
TORSDOF 2
ENDMDL
MODEL 2
REMARK VINA RESULT:    -3.200      2.498      3.459
REMARK INTER + INTRA:          -3.621
REMARK INTER:                  -3.582
REMARK INTRA:                  -0.039
REMARK UNBOUND:                -0.046
REMARK SMILES CCCC(=O)[O-]
REMARK SMILES IDX 3 1 4 2 5 3 6 4 2 5 1 6
REMARK H PARENT
REMARK Flexibility Score: inf
ROOT
ATOM      1  C   UNL     1      50.417  31.852  42.043  1.00  0.00     0.052 C 
ENDROOT
BRANCH   1   2
ATOM      2  C   UNL     1      51.096  32.905  42.859  1.00  0.00     0.041 C 
ATOM      3  O   UNL     1      52.286  33.231  42.610  1.00  0.00    -0.550 OA
ATOM      4  O   UNL     1      50.430  33.493  43.927  1.00  0.00    -0.550 OA
ENDBRANCH   1   2
BRANCH   1   5
ATOM      5  C   UNL     1      50.705  30.461  42.614  1.00  0.00     0.003 C 
ATOM      6  C   UNL     1      51.810  29.761  41.830  1.00  0.00     0.004 C 
ENDBRANCH   1   5
TORSDOF 2
ENDMDL
MODEL 3
REMARK VINA RESULT:    -3.176     10.347     11.620
REMARK INTER + INTRA:          -3.593
REMARK INTER:                  -3.581
REMARK INTRA:                  -0.012
REMARK UNBOUND:                -0.046
REMARK SMILES CCCC(=O)[O-]
REMARK SMILES IDX 3 1 4 2 5 3 6 4 2 5 1 6
REMARK H PARENT
REMARK Flexibility Score: inf
ROOT
ATOM      1  C   UNL     1      54.442  41.473  41.226  1.00  0.00     0.052 C 
ENDROOT
BRANCH   1   2
ATOM      2  C   UNL     1      53.447  40.588  41.907  1.00  0.00     0.041 C 
ATOM      3  O   UNL     1      53.229  39.427  41.471  1.00  0.00    -0.550 OA
ATOM      4  O   UNL     1      52.724  41.063  42.994  1.00  0.00    -0.550 OA
ENDBRANCH   1   2
BRANCH   1   5
ATOM      5  C   UNL     1      54.020  42.941  41.340  1.00  0.00     0.003 C 
ATOM      6  C   UNL     1      55.194  43.874  41.059  1.00  0.00     0.004 C 
ENDBRANCH   1   5
TORSDOF 2
ENDMDL
MODEL 4
REMARK VINA RESULT:    -3.086      4.483      5.218
REMARK INTER + INTRA:          -3.493
REMARK INTER:                  -3.476
REMARK INTRA:                  -0.017
REMARK UNBOUND:                -0.046
REMARK SMILES CCCC(=O)[O-]
REMARK SMILES IDX 3 1 4 2 5 3 6 4 2 5 1 6
REMARK H PARENT
REMARK Flexibility Score: inf
ROOT
ATOM      1  C   UNL     1      54.589  32.722  43.576  1.00  0.00     0.052 C 
ENDROOT
BRANCH   1   2
ATOM      2  C   UNL     1      54.956  33.923  42.763  1.00  0.00     0.041 C 
ATOM      3  O   UNL     1      55.999  33.915  42.057  1.00  0.00    -0.550 OA
ATOM      4  O   UNL     1      54.173  35.069  42.823  1.00  0.00    -0.550 OA
ENDBRANCH   1   2
BRANCH   1   5
ATOM      5  C   UNL     1      55.508  31.545  43.240  1.00  0.00     0.003 C 
ATOM      6  C   UNL     1      54.759  30.219  43.324  1.00  0.00     0.004 C 
ENDBRANCH   1   5
TORSDOF 2
ENDMDL
MODEL 5
REMARK VINA RESULT:    -3.074      1.598      1.955
REMARK INTER + INTRA:          -3.480
REMARK INTER:                  -3.448
REMARK INTRA:                  -0.031
REMARK UNBOUND:                -0.046
REMARK SMILES CCCC(=O)[O-]
REMARK SMILES IDX 3 1 4 2 5 3 6 4 2 5 1 6
REMARK H PARENT
REMARK Flexibility Score: inf
ROOT
ATOM      1  C   UNL     1      50.389  31.838  42.009  1.00  0.00     0.052 C 
ENDROOT
BRANCH   1   2
ATOM      2  C   UNL     1      50.816  30.433  42.296  1.00  0.00     0.041 C 
ATOM      3  O   UNL     1      50.443  29.861  43.354  1.00  0.00    -0.550 OA
ATOM      4  O   UNL     1      51.664  29.771  41.417  1.00  0.00    -0.550 OA
ENDBRANCH   1   2
BRANCH   1   5
ATOM      5  C   UNL     1      50.889  32.784  43.103  1.00  0.00     0.003 C 
ATOM      6  C   UNL     1      52.102  33.579  42.632  1.00  0.00     0.004 C 
ENDBRANCH   1   5
TORSDOF 2
ENDMDL
MODEL 6
REMARK VINA RESULT:    -3.027     11.705     12.415
REMARK INTER + INTRA:          -3.427
REMARK INTER:                  -3.418
REMARK INTRA:                  -0.010
REMARK UNBOUND:                -0.046
REMARK SMILES CCCC(=O)[O-]
REMARK SMILES IDX 3 1 4 2 5 3 6 4 2 5 1 6
REMARK H PARENT
REMARK Flexibility Score: inf
ROOT
ATOM      1  C   UNL     1      45.085  36.087  49.883  1.00  0.00     0.052 C 
ENDROOT
BRANCH   1   2
ATOM      2  C   UNL     1      45.076  37.015  51.056  1.00  0.00     0.041 C 
ATOM      3  O   UNL     1      45.986  36.948  51.923  1.00  0.00    -0.550 OA
ATOM      4  O   UNL     1      44.036  37.922  51.217  1.00  0.00    -0.550 OA
ENDBRANCH   1   2
BRANCH   1   5
ATOM      5  C   UNL     1      43.715  36.075  49.199  1.00  0.00     0.003 C 
ATOM      6  C   UNL     1      43.680  35.067  48.054  1.00  0.00     0.004 C 
ENDBRANCH   1   5
TORSDOF 2
ENDMDL
MODEL 7
REMARK VINA RESULT:    -3.025     11.334     12.080
REMARK INTER + INTRA:          -3.425
REMARK INTER:                  -3.410
REMARK INTRA:                  -0.015
REMARK UNBOUND:                -0.046
REMARK SMILES CCCC(=O)[O-]
REMARK SMILES IDX 3 1 4 2 5 3 6 4 2 5 1 6
REMARK H PARENT
REMARK Flexibility Score: inf
ROOT
ATOM      1  C   UNL     1      45.863  36.088  49.889  1.00  0.00     0.052 C 
ENDROOT
BRANCH   1   2
ATOM      2  C   UNL     1      44.683  36.899  50.320  1.00  0.00     0.041 C 
ATOM      3  O   UNL     1      43.588  36.801  49.706  1.00  0.00    -0.550 OA
ATOM      4  O   UNL     1      44.805  37.800  51.370  1.00  0.00    -0.550 OA
ENDBRANCH   1   2
BRANCH   1   5
ATOM      5  C   UNL     1      47.010  36.235  50.892  1.00  0.00     0.003 C 
ATOM      6  C   UNL     1      48.362  36.019  50.219  1.00  0.00     0.004 C 
ENDBRANCH   1   5
TORSDOF 2
ENDMDL
MODEL 8
REMARK VINA RESULT:    -2.992     12.318     13.210
REMARK INTER + INTRA:          -3.388
REMARK INTER:                  -3.350
REMARK INTRA:                  -0.038
REMARK UNBOUND:                -0.046
REMARK SMILES CCCC(=O)[O-]
REMARK SMILES IDX 3 1 4 2 5 3 6 4 2 5 1 6
REMARK H PARENT
REMARK Flexibility Score: inf
ROOT
ATOM      1  C   UNL     1      60.560  38.125  38.387  1.00  0.00     0.052 C 
ENDROOT
BRANCH   1   2
ATOM      2  C   UNL     1      61.344  39.380  38.172  1.00  0.00     0.041 C 
ATOM      3  O   UNL     1      62.366  39.616  38.869  1.00  0.00    -0.550 OA
ATOM      4  O   UNL     1      60.919  40.313  37.235  1.00  0.00    -0.550 OA
ENDBRANCH   1   2
BRANCH   1   5
ATOM      5  C   UNL     1      59.186  38.230  37.720  1.00  0.00     0.003 C 
ATOM      6  C   UNL     1      58.088  38.455  38.754  1.00  0.00     0.004 C 
ENDBRANCH   1   5
TORSDOF 2
ENDMDL
MODEL 9
REMARK VINA RESULT:    -2.952     12.415     13.133
REMARK INTER + INTRA:          -3.343
REMARK INTER:                  -3.304
REMARK INTRA:                  -0.038
REMARK UNBOUND:                -0.046
REMARK SMILES CCCC(=O)[O-]
REMARK SMILES IDX 3 1 4 2 5 3 6 4 2 5 1 6
REMARK H PARENT
REMARK Flexibility Score: inf
ROOT
ATOM      1  C   UNL     1      60.409  38.107  38.376  1.00  0.00     0.052 C 
ENDROOT
BRANCH   1   2
ATOM      2  C   UNL     1      61.198  39.344  38.085  1.00  0.00     0.041 C 
ATOM      3  O   UNL     1      60.865  40.100  37.135  1.00  0.00    -0.550 OA
ATOM      4  O   UNL     1      62.331  39.637  38.834  1.00  0.00    -0.550 OA
ENDBRANCH   1   2
BRANCH   1   5
ATOM      5  C   UNL     1      58.912  38.426  38.427  1.00  0.00     0.003 C 
ATOM      6  C   UNL     1      58.164  37.742  37.287  1.00  0.00     0.004 C 
ENDBRANCH   1   5
TORSDOF 2
ENDMDL
