MODEL 1
REMARK VINA RESULT:    -4.422      0.000      0.000
REMARK INTER + INTRA:          -5.044
REMARK INTER:                  -4.939
REMARK INTRA:                  -0.105
REMARK UNBOUND:                -0.105
REMARK SMILES CCc1ccc(O)cc1O
REMARK SMILES IDX 3 1 9 2 8 3 6 4 5 5 4 6 2 7 1 8 10 9 7 11
REMARK H PARENT 10 10 7 12
REMARK Flexibility Score: inf
ROOT
ATOM      1  C   UNL     1       9.064 -25.947  14.981  1.00  0.00    -0.006 A 
ATOM      2  C   UNL     1       9.110 -25.596  16.354  1.00  0.00     0.122 A 
ATOM      3  C   UNL     1       8.203 -24.657  16.861  1.00  0.00     0.092 A 
ATOM      4  C   UNL     1       7.262 -24.049  16.021  1.00  0.00     0.119 A 
ATOM      5  C   UNL     1       7.227 -24.379  14.666  1.00  0.00     0.047 A 
ATOM      6  C   UNL     1       8.122 -25.317  14.147  1.00  0.00     0.011 A 
ENDROOT
BRANCH   1   7
ATOM      7  C   UNL     1      10.021 -26.944  14.372  1.00  0.00     0.036 C 
ATOM      8  C   UNL     1      11.222 -26.238  13.750  1.00  0.00     0.009 C 
ENDBRANCH   1   7
BRANCH   2   9
ATOM      9  O   UNL     1      10.038 -26.151  17.238  1.00  0.00    -0.508 OA
ATOM     10  H   UNL     1      10.156 -27.145  17.372  1.00  0.00     0.293 HD
ENDBRANCH   2   9
BRANCH   4  11
ATOM     11  O   UNL     1       6.360 -23.113  16.524  1.00  0.00    -0.508 OA
ATOM     12  H   UNL     1       5.534 -23.397  17.039  1.00  0.00     0.293 HD
ENDBRANCH   4  11
TORSDOF 3
ENDMDL
MODEL 2
REMARK VINA RESULT:    -4.133      9.110     10.807
REMARK INTER + INTRA:          -4.722
REMARK INTER:                  -4.637
REMARK INTRA:                  -0.085
REMARK UNBOUND:                -0.105
REMARK SMILES CCc1ccc(O)cc1O
REMARK SMILES IDX 3 1 9 2 8 3 6 4 5 5 4 6 2 7 1 8 10 9 7 11
REMARK H PARENT 10 10 7 12
REMARK Flexibility Score: inf
ROOT
ATOM      1  C   UNL     1       8.946 -16.414  21.894  1.00  0.00    -0.006 A 
ATOM      2  C   UNL     1       7.559 -16.284  22.156  1.00  0.00     0.122 A 
ATOM      3  C   UNL     1       6.696 -17.349  21.868  1.00  0.00     0.092 A 
ATOM      4  C   UNL     1       7.187 -18.534  21.309  1.00  0.00     0.119 A 
ATOM      5  C   UNL     1       8.549 -18.657  21.032  1.00  0.00     0.047 A 
ATOM      6  C   UNL     1       9.423 -17.606  21.318  1.00  0.00     0.011 A 
ENDROOT
BRANCH   1   7
ATOM      7  C   UNL     1       9.926 -15.299  22.171  1.00  0.00     0.036 C 
ATOM      8  C   UNL     1      11.206 -15.842  22.800  1.00  0.00     0.009 C 
ENDBRANCH   1   7
BRANCH   2   9
ATOM      9  O   UNL     1       7.004 -15.120  22.693  1.00  0.00    -0.508 OA
ATOM     10  H   UNL     1       6.494 -14.440  22.147  1.00  0.00     0.293 HD
ENDBRANCH   2   9
BRANCH   4  11
ATOM     11  O   UNL     1       6.328 -19.594  21.021  1.00  0.00    -0.508 OA
ATOM     12  H   UNL     1       6.595 -20.331  20.378  1.00  0.00     0.293 HD
ENDBRANCH   4  11
TORSDOF 3
ENDMDL
MODEL 3
REMARK VINA RESULT:    -4.113      5.276      7.145
REMARK INTER + INTRA:          -4.699
REMARK INTER:                  -4.614
REMARK INTRA:                  -0.085
REMARK UNBOUND:                -0.105
REMARK SMILES CCc1ccc(O)cc1O
REMARK SMILES IDX 3 1 9 2 8 3 6 4 5 5 4 6 2 7 1 8 10 9 7 11
REMARK H PARENT 10 10 7 12
REMARK Flexibility Score: inf
ROOT
ATOM      1  C   UNL     1      14.436 -24.727  10.543  1.00  0.00    -0.006 A 
ATOM      2  C   UNL     1      14.272 -23.671  11.474  1.00  0.00     0.122 A 
ATOM      3  C   UNL     1      13.604 -23.908  12.682  1.00  0.00     0.092 A 
ATOM      4  C   UNL     1      13.083 -25.174  12.972  1.00  0.00     0.119 A 
ATOM      5  C   UNL     1      13.227 -26.211  12.049  1.00  0.00     0.047 A 
ATOM      6  C   UNL     1      13.894 -25.991  10.842  1.00  0.00     0.011 A 
ENDROOT
BRANCH   1   7
ATOM      7  C   UNL     1      15.136 -24.533   9.219  1.00  0.00     0.036 C 
ATOM      8  C   UNL     1      15.554 -25.873   8.621  1.00  0.00     0.009 C 
ENDBRANCH   1   7
BRANCH   2   9
ATOM      9  O   UNL     1      14.751 -22.380  11.234  1.00  0.00    -0.508 OA
ATOM     10  H   UNL     1      14.183 -21.636  10.854  1.00  0.00     0.293 HD
ENDBRANCH   2   9
BRANCH   4  11
ATOM     11  O   UNL     1      12.417 -25.411  14.173  1.00  0.00    -0.508 OA
ATOM     12  H   UNL     1      12.509 -24.781  14.962  1.00  0.00     0.293 HD
ENDBRANCH   4  11
TORSDOF 3
ENDMDL
MODEL 4
REMARK VINA RESULT:    -4.111      1.550      2.230
REMARK INTER + INTRA:          -4.697
REMARK INTER:                  -4.594
REMARK INTRA:                  -0.103
REMARK UNBOUND:                -0.105
REMARK SMILES CCc1ccc(O)cc1O
REMARK SMILES IDX 3 1 9 2 8 3 6 4 5 5 4 6 2 7 1 8 10 9 7 11
REMARK H PARENT 10 10 7 12
REMARK Flexibility Score: inf
ROOT
ATOM      1  C   UNL     1       8.827 -26.200  14.969  1.00  0.00    -0.006 A 
ATOM      2  C   UNL     1       7.795 -25.610  14.197  1.00  0.00     0.122 A 
ATOM      3  C   UNL     1       7.009 -24.592  14.752  1.00  0.00     0.092 A 
ATOM      4  C   UNL     1       7.222 -24.163  16.067  1.00  0.00     0.119 A 
ATOM      5  C   UNL     1       8.225 -24.757  16.835  1.00  0.00     0.047 A 
ATOM      6  C   UNL     1       9.020 -25.769  16.294  1.00  0.00     0.011 A 
ENDROOT
BRANCH   1   7
ATOM      7  C   UNL     1       9.701 -27.309  14.431  1.00  0.00     0.036 C 
ATOM      8  C   UNL     1      10.982 -26.747  13.822  1.00  0.00     0.009 C 
ENDBRANCH   1   7
BRANCH   2   9
ATOM      9  O   UNL     1       7.518 -26.007  12.886  1.00  0.00    -0.508 OA
ATOM     10  H   UNL     1       8.177 -26.505  12.303  1.00  0.00     0.293 HD
ENDBRANCH   2   9
BRANCH   4  11
ATOM     11  O   UNL     1       6.440 -23.152  16.621  1.00  0.00    -0.508 OA
ATOM     12  H   UNL     1       5.831 -23.327  17.413  1.00  0.00     0.293 HD
ENDBRANCH   4  11
TORSDOF 3
ENDMDL
MODEL 5
REMARK VINA RESULT:    -4.100      2.148      2.932
REMARK INTER + INTRA:          -4.685
REMARK INTER:                  -4.600
REMARK INTRA:                  -0.085
REMARK UNBOUND:                -0.105
REMARK SMILES CCc1ccc(O)cc1O
REMARK SMILES IDX 3 1 9 2 8 3 6 4 5 5 4 6 2 7 1 8 10 9 7 11
REMARK H PARENT 10 10 7 12
REMARK Flexibility Score: inf
ROOT
ATOM      1  C   UNL     1       8.428 -25.782  14.923  1.00  0.00    -0.006 A 
ATOM      2  C   UNL     1       7.079 -25.356  14.828  1.00  0.00     0.122 A 
ATOM      3  C   UNL     1       6.155 -25.755  15.801  1.00  0.00     0.092 A 
ATOM      4  C   UNL     1       6.546 -26.584  16.859  1.00  0.00     0.119 A 
ATOM      5  C   UNL     1       7.869 -27.020  16.944  1.00  0.00     0.047 A 
ATOM      6  C   UNL     1       8.803 -26.627  15.984  1.00  0.00     0.011 A 
ENDROOT
BRANCH   1   7
ATOM      7  C   UNL     1       9.469 -25.394  13.900  1.00  0.00     0.036 C 
ATOM      8  C   UNL     1      10.633 -26.381  13.906  1.00  0.00     0.009 C 
ENDBRANCH   1   7
BRANCH   2   9
ATOM      9  O   UNL     1       6.622 -24.545  13.786  1.00  0.00    -0.508 OA
ATOM     10  H   UNL     1       6.350 -23.579  13.908  1.00  0.00     0.293 HD
ENDBRANCH   2   9
BRANCH   4  11
ATOM     11  O   UNL     1       5.627 -26.983  17.827  1.00  0.00    -0.508 OA
ATOM     12  H   UNL     1       4.799 -26.434  18.030  1.00  0.00     0.293 HD
ENDBRANCH   4  11
TORSDOF 3
ENDMDL
MODEL 6
REMARK VINA RESULT:    -4.039      9.432     10.987
REMARK INTER + INTRA:          -4.617
REMARK INTER:                  -4.533
REMARK INTRA:                  -0.084
REMARK UNBOUND:                -0.105
REMARK SMILES CCc1ccc(O)cc1O
REMARK SMILES IDX 3 1 9 2 8 3 6 4 5 5 4 6 2 7 1 8 10 9 7 11
REMARK H PARENT 10 10 7 12
REMARK Flexibility Score: inf
ROOT
ATOM      1  C   UNL     1       9.871 -17.514  23.728  1.00  0.00    -0.006 A 
ATOM      2  C   UNL     1       9.262 -18.752  23.404  1.00  0.00     0.122 A 
ATOM      3  C   UNL     1       8.832 -18.992  22.092  1.00  0.00     0.092 A 
ATOM      4  C   UNL     1       8.983 -18.014  21.102  1.00  0.00     0.119 A 
ATOM      5  C   UNL     1       9.565 -16.787  21.424  1.00  0.00     0.047 A 
ATOM      6  C   UNL     1      10.003 -16.535  22.725  1.00  0.00     0.011 A 
ENDROOT
BRANCH   1   7
ATOM      7  C   UNL     1      10.346 -17.191  25.125  1.00  0.00     0.036 C 
ATOM      8  C   UNL     1      11.406 -16.094  25.101  1.00  0.00     0.009 C 
ENDBRANCH   1   7
BRANCH   2   9
ATOM      9  O   UNL     1       9.064 -19.760  24.350  1.00  0.00    -0.508 OA
ATOM     10  H   UNL     1       8.661 -20.661  24.131  1.00  0.00     0.293 HD
ENDBRANCH   2   9
BRANCH   4  11
ATOM     11  O   UNL     1       8.554 -18.251  19.798  1.00  0.00    -0.508 OA
ATOM     12  H   UNL     1       8.065 -19.103  19.548  1.00  0.00     0.293 HD
ENDBRANCH   4  11
TORSDOF 3
ENDMDL
MODEL 7
REMARK VINA RESULT:    -4.007      5.456      6.610
REMARK INTER + INTRA:          -4.581
REMARK INTER:                  -4.496
REMARK INTRA:                  -0.085
REMARK UNBOUND:                -0.105
REMARK SMILES CCc1ccc(O)cc1O
REMARK SMILES IDX 3 1 9 2 8 3 6 4 5 5 4 6 2 7 1 8 10 9 7 11
REMARK H PARENT 10 10 7 12
REMARK Flexibility Score: inf
ROOT
ATOM      1  C   UNL     1      13.217 -26.045  11.752  1.00  0.00    -0.006 A 
ATOM      2  C   UNL     1      13.228 -25.136  12.840  1.00  0.00     0.122 A 
ATOM      3  C   UNL     1      13.747 -23.848  12.662  1.00  0.00     0.092 A 
ATOM      4  C   UNL     1      14.270 -23.454  11.425  1.00  0.00     0.119 A 
ATOM      5  C   UNL     1      14.278 -24.354  10.358  1.00  0.00     0.047 A 
ATOM      6  C   UNL     1      13.760 -25.640  10.519  1.00  0.00     0.011 A 
ENDROOT
BRANCH   1   7
ATOM      7  C   UNL     1      12.681 -27.451  11.884  1.00  0.00     0.036 C 
ATOM      8  C   UNL     1      12.596 -28.132  10.520  1.00  0.00     0.009 C 
ENDBRANCH   1   7
BRANCH   2   9
ATOM      9  O   UNL     1      12.740 -25.474  14.104  1.00  0.00    -0.508 OA
ATOM     10  H   UNL     1      12.347 -26.378  14.328  1.00  0.00     0.293 HD
ENDBRANCH   2   9
BRANCH   4  11
ATOM     11  O   UNL     1      14.789 -22.173  11.247  1.00  0.00    -0.508 OA
ATOM     12  H   UNL     1      14.535 -21.409  11.862  1.00  0.00     0.293 HD
ENDBRANCH   4  11
TORSDOF 3
ENDMDL
MODEL 8
REMARK VINA RESULT:    -3.969      8.896     10.532
REMARK INTER + INTRA:          -4.538
REMARK INTER:                  -4.453
REMARK INTRA:                  -0.085
REMARK UNBOUND:                -0.105
REMARK SMILES CCc1ccc(O)cc1O
REMARK SMILES IDX 3 1 9 2 8 3 6 4 5 5 4 6 2 7 1 8 10 9 7 11
REMARK H PARENT 10 10 7 12
REMARK Flexibility Score: inf
ROOT
ATOM      1  C   UNL     1       9.530 -17.307  22.306  1.00  0.00    -0.006 A 
ATOM      2  C   UNL     1       8.912 -18.152  21.351  1.00  0.00     0.122 A 
ATOM      3  C   UNL     1       8.321 -19.352  21.766  1.00  0.00     0.092 A 
ATOM      4  C   UNL     1       8.349 -19.732  23.113  1.00  0.00     0.119 A 
ATOM      5  C   UNL     1       8.974 -18.910  24.052  1.00  0.00     0.047 A 
ATOM      6  C   UNL     1       9.563 -17.709  23.654  1.00  0.00     0.011 A 
ENDROOT
BRANCH   1   7
ATOM      7  C   UNL     1      10.193 -16.006  21.919  1.00  0.00     0.036 C 
ATOM      8  C   UNL     1      11.299 -15.644  22.907  1.00  0.00     0.009 C 
ENDBRANCH   1   7
BRANCH   2   9
ATOM      9  O   UNL     1       8.868 -17.840  19.990  1.00  0.00    -0.508 OA
ATOM     10  H   UNL     1       8.035 -17.517  19.517  1.00  0.00     0.293 HD
ENDBRANCH   2   9
BRANCH   4  11
ATOM     11  O   UNL     1       7.763 -20.927  23.527  1.00  0.00    -0.508 OA
ATOM     12  H   UNL     1       6.784 -21.125  23.353  1.00  0.00     0.293 HD
ENDBRANCH   4  11
TORSDOF 3
ENDMDL
MODEL 9
REMARK VINA RESULT:    -3.963      1.669      3.749
REMARK INTER + INTRA:          -4.532
REMARK INTER:                  -4.428
REMARK INTRA:                  -0.105
REMARK UNBOUND:                -0.105
REMARK SMILES CCc1ccc(O)cc1O
REMARK SMILES IDX 3 1 9 2 8 3 6 4 5 5 4 6 2 7 1 8 10 9 7 11
REMARK H PARENT 10 10 7 12
REMARK Flexibility Score: inf
ROOT
ATOM      1  C   UNL     1       7.721 -24.777  15.831  1.00  0.00    -0.006 A 
ATOM      2  C   UNL     1       8.835 -25.534  16.274  1.00  0.00     0.122 A 
ATOM      3  C   UNL     1       9.457 -26.431  15.396  1.00  0.00     0.092 A 
ATOM      4  C   UNL     1       8.979 -26.600  14.091  1.00  0.00     0.119 A 
ATOM      5  C   UNL     1       7.871 -25.870  13.660  1.00  0.00     0.047 A 
ATOM      6  C   UNL     1       7.243 -24.968  14.522  1.00  0.00     0.011 A 
ENDROOT
BRANCH   1   7
ATOM      7  C   UNL     1       7.001 -23.802  16.732  1.00  0.00     0.036 C 
ATOM      8  C   UNL     1       5.901 -24.502  17.525  1.00  0.00     0.009 C 
ENDBRANCH   1   7
BRANCH   2   9
ATOM      9  O   UNL     1       9.347 -25.427  17.569  1.00  0.00    -0.508 OA
ATOM     10  H   UNL     1      10.211 -24.952  17.791  1.00  0.00     0.293 HD
ENDBRANCH   2   9
BRANCH   4  11
ATOM     11  O   UNL     1       9.596 -27.494  13.218  1.00  0.00    -0.508 OA
ATOM     12  H   UNL     1      10.503 -27.295  12.810  1.00  0.00     0.293 HD
ENDBRANCH   4  11
TORSDOF 3
ENDMDL
