MODEL 1
REMARK VINA RESULT:    -4.300      0.000      0.000
REMARK INTER + INTRA:          -4.976
REMARK INTER:                  -4.677
REMARK INTRA:                  -0.299
REMARK UNBOUND:                -0.299
REMARK SMILES CC(=O)c1cc(C)ccc1O
REMARK SMILES IDX 7 1 6 2 5 3 4 4 10 5 9 6 8 7 2 8 3 9 1 10 11 11
REMARK H PARENT 11 12
REMARK Flexibility Score: inf
ROOT
ATOM      1  C   UNL     1      27.379  44.125  18.898  1.00  0.00     0.044 C 
ATOM      2  C   UNL     1      27.001  42.821  19.538  1.00  0.00    -0.050 A 
ATOM      3  C   UNL     1      27.212  41.613  18.859  1.00  0.00     0.019 A 
ATOM      4  C   UNL     1      26.822  40.385  19.426  1.00  0.00     0.059 A 
ATOM      5  C   UNL     1      26.220  40.385  20.706  1.00  0.00     0.126 A 
ATOM      6  C   UNL     1      25.990  41.599  21.369  1.00  0.00     0.047 A 
ATOM      7  C   UNL     1      26.370  42.809  20.787  1.00  0.00     0.007 A 
ENDROOT
BRANCH   4   8
ATOM      8  C   UNL     1      27.069  39.133  18.660  1.00  0.00     0.163 C 
ATOM      9  O   UNL     1      26.202  38.217  18.679  1.00  0.00    -0.294 OA
ATOM     10  C   UNL     1      28.316  38.912  17.860  1.00  0.00     0.093 C 
ENDBRANCH   4   8
BRANCH   5  11
ATOM     11  O   UNL     1      25.865  39.191  21.331  1.00  0.00    -0.507 OA
ATOM     12  H   UNL     1      25.665  38.350  20.802  1.00  0.00     0.293 HD
ENDBRANCH   5  11
TORSDOF 2
ENDMDL
MODEL 2
REMARK VINA RESULT:    -4.285      1.529      3.717
REMARK INTER + INTRA:          -4.959
REMARK INTER:                  -4.658
REMARK INTRA:                  -0.302
REMARK UNBOUND:                -0.299
REMARK SMILES CC(=O)c1cc(C)ccc1O
REMARK SMILES IDX 7 1 6 2 5 3 4 4 10 5 9 6 8 7 2 8 3 9 1 10 11 11
REMARK H PARENT 11 12
REMARK Flexibility Score: inf
ROOT
ATOM      1  C   UNL     1      28.379  38.868  17.134  1.00  0.00     0.044 C 
ATOM      2  C   UNL     1      27.557  39.377  18.282  1.00  0.00    -0.050 A 
ATOM      3  C   UNL     1      27.546  40.744  18.591  1.00  0.00     0.019 A 
ATOM      4  C   UNL     1      26.817  41.233  19.691  1.00  0.00     0.059 A 
ATOM      5  C   UNL     1      26.079  40.320  20.481  1.00  0.00     0.126 A 
ATOM      6  C   UNL     1      26.115  38.951  20.181  1.00  0.00     0.047 A 
ATOM      7  C   UNL     1      26.853  38.481  19.095  1.00  0.00     0.007 A 
ENDROOT
BRANCH   4   8
ATOM      8  C   UNL     1      26.841  42.694  19.975  1.00  0.00     0.163 C 
ATOM      9  O   UNL     1      26.924  43.090  21.169  1.00  0.00    -0.294 OA
ATOM     10  C   UNL     1      26.771  43.725  18.889  1.00  0.00     0.093 C 
ENDBRANCH   4   8
BRANCH   5  11
ATOM     11  O   UNL     1      25.300  40.762  21.548  1.00  0.00    -0.507 OA
ATOM     12  H   UNL     1      24.639  41.523  21.448  1.00  0.00     0.293 HD
ENDBRANCH   5  11
TORSDOF 2
ENDMDL
MODEL 3
REMARK VINA RESULT:    -4.150      1.831      3.326
REMARK INTER + INTRA:          -4.812
REMARK INTER:                  -4.544
REMARK INTRA:                  -0.268
REMARK UNBOUND:                -0.299
REMARK SMILES CC(=O)c1cc(C)ccc1O
REMARK SMILES IDX 7 1 6 2 5 3 4 4 10 5 9 6 8 7 2 8 3 9 1 10 11 11
REMARK H PARENT 11 12
REMARK Flexibility Score: inf
ROOT
ATOM      1  C   UNL     1      28.556  38.858  17.130  1.00  0.00     0.044 C 
ATOM      2  C   UNL     1      27.722  39.288  18.301  1.00  0.00    -0.050 A 
ATOM      3  C   UNL     1      27.069  38.333  19.092  1.00  0.00     0.019 A 
ATOM      4  C   UNL     1      26.245  38.721  20.166  1.00  0.00     0.059 A 
ATOM      5  C   UNL     1      26.093  40.100  20.445  1.00  0.00     0.126 A 
ATOM      6  C   UNL     1      26.729  41.050  19.635  1.00  0.00     0.047 A 
ATOM      7  C   UNL     1      27.531  40.650  18.566  1.00  0.00     0.007 A 
ENDROOT
BRANCH   4   8
ATOM      8  C   UNL     1      25.575  37.666  20.972  1.00  0.00     0.163 C 
ATOM      9  O   UNL     1      24.316  37.588  20.964  1.00  0.00    -0.294 OA
ATOM     10  C   UNL     1      26.340  36.680  21.803  1.00  0.00     0.093 C 
ENDBRANCH   4   8
BRANCH   5  11
ATOM     11  O   UNL     1      25.332  40.531  21.530  1.00  0.00    -0.507 OA
ATOM     12  H   UNL     1      25.229  41.514  21.753  1.00  0.00     0.293 HD
ENDBRANCH   5  11
TORSDOF 2
ENDMDL
MODEL 4
REMARK VINA RESULT:    -4.076     10.387     11.889
REMARK INTER + INTRA:          -4.732
REMARK INTER:                  -4.496
REMARK INTRA:                  -0.237
REMARK UNBOUND:                -0.299
REMARK SMILES CC(=O)c1cc(C)ccc1O
REMARK SMILES IDX 7 1 6 2 5 3 4 4 10 5 9 6 8 7 2 8 3 9 1 10 11 11
REMARK H PARENT 11 12
REMARK Flexibility Score: inf
ROOT
ATOM      1  C   UNL     1      29.122  30.379  27.742  1.00  0.00     0.044 C 
ATOM      2  C   UNL     1      29.087  30.212  26.251  1.00  0.00    -0.050 A 
ATOM      3  C   UNL     1      28.975  31.333  25.417  1.00  0.00     0.019 A 
ATOM      4  C   UNL     1      28.894  31.192  24.019  1.00  0.00     0.059 A 
ATOM      5  C   UNL     1      28.940  29.893  23.461  1.00  0.00     0.126 A 
ATOM      6  C   UNL     1      29.027  28.775  24.302  1.00  0.00     0.047 A 
ATOM      7  C   UNL     1      29.092  28.931  25.686  1.00  0.00     0.007 A 
ENDROOT
BRANCH   4   8
ATOM      8  C   UNL     1      28.775  32.416  23.181  1.00  0.00     0.163 C 
ATOM      9  O   UNL     1      29.125  32.373  21.970  1.00  0.00    -0.294 OA
ATOM     10  C   UNL     1      28.252  33.713  23.722  1.00  0.00     0.093 C 
ENDBRANCH   4   8
BRANCH   5  11
ATOM     11  O   UNL     1      28.917  29.705  22.080  1.00  0.00    -0.507 OA
ATOM     12  H   UNL     1      28.178  30.088  21.501  1.00  0.00     0.293 HD
ENDBRANCH   5  11
TORSDOF 2
ENDMDL
MODEL 5
REMARK VINA RESULT:    -4.056      2.088      4.188
REMARK INTER + INTRA:          -4.711
REMARK INTER:                  -4.415
REMARK INTRA:                  -0.295
REMARK UNBOUND:                -0.299
REMARK SMILES CC(=O)c1cc(C)ccc1O
REMARK SMILES IDX 7 1 6 2 5 3 4 4 10 5 9 6 8 7 2 8 3 9 1 10 11 11
REMARK H PARENT 11 12
REMARK Flexibility Score: inf
ROOT
ATOM      1  C   UNL     1      29.122  36.844  19.722  1.00  0.00     0.044 C 
ATOM      2  C   UNL     1      27.833  37.537  20.053  1.00  0.00    -0.050 A 
ATOM      3  C   UNL     1      27.750  38.936  20.004  1.00  0.00     0.019 A 
ATOM      4  C   UNL     1      26.563  39.605  20.355  1.00  0.00     0.059 A 
ATOM      5  C   UNL     1      25.440  38.840  20.751  1.00  0.00     0.126 A 
ATOM      6  C   UNL     1      25.537  37.444  20.822  1.00  0.00     0.047 A 
ATOM      7  C   UNL     1      26.726  36.796  20.484  1.00  0.00     0.007 A 
ENDROOT
BRANCH   4   8
ATOM      8  C   UNL     1      26.531  41.091  20.286  1.00  0.00     0.163 C 
ATOM      9  O   UNL     1      25.877  41.736  21.151  1.00  0.00    -0.294 OA
ATOM     10  C   UNL     1      27.250  41.863  19.221  1.00  0.00     0.093 C 
ENDBRANCH   4   8
BRANCH   5  11
ATOM     11  O   UNL     1      24.227  39.454  21.057  1.00  0.00    -0.507 OA
ATOM     12  H   UNL     1      23.695  39.203  21.882  1.00  0.00     0.293 HD
ENDBRANCH   5  11
TORSDOF 2
ENDMDL
MODEL 6
REMARK VINA RESULT:    -3.908      1.632      2.931
REMARK INTER + INTRA:          -4.550
REMARK INTER:                  -4.260
REMARK INTRA:                  -0.290
REMARK UNBOUND:                -0.299
REMARK SMILES CC(=O)c1cc(C)ccc1O
REMARK SMILES IDX 7 1 6 2 5 3 4 4 10 5 9 6 8 7 2 8 3 9 1 10 11 11
REMARK H PARENT 11 12
REMARK Flexibility Score: inf
ROOT
ATOM      1  C   UNL     1      26.499  42.628  21.899  1.00  0.00     0.044 C 
ATOM      2  C   UNL     1      26.565  41.566  20.840  1.00  0.00    -0.050 A 
ATOM      3  C   UNL     1      26.119  40.266  21.115  1.00  0.00     0.019 A 
ATOM      4  C   UNL     1      26.215  39.247  20.148  1.00  0.00     0.059 A 
ATOM      5  C   UNL     1      26.762  39.558  18.881  1.00  0.00     0.126 A 
ATOM      6  C   UNL     1      27.228  40.854  18.621  1.00  0.00     0.047 A 
ATOM      7  C   UNL     1      27.139  41.850  19.595  1.00  0.00     0.007 A 
ENDROOT
BRANCH   4   8
ATOM      8  C   UNL     1      25.728  37.884  20.494  1.00  0.00     0.163 C 
ATOM      9  O   UNL     1      26.530  36.912  20.450  1.00  0.00    -0.294 OA
ATOM     10  C   UNL     1      24.309  37.615  20.896  1.00  0.00     0.093 C 
ENDBRANCH   4   8
BRANCH   5  11
ATOM     11  O   UNL     1      26.829  38.597  17.874  1.00  0.00    -0.507 OA
ATOM     12  H   UNL     1      26.831  37.605  18.082  1.00  0.00     0.293 HD
ENDBRANCH   5  11
TORSDOF 2
ENDMDL
MODEL 7
REMARK VINA RESULT:    -3.869     10.386     11.701
REMARK INTER + INTRA:          -4.507
REMARK INTER:                  -4.208
REMARK INTRA:                  -0.299
REMARK UNBOUND:                -0.299
REMARK SMILES CC(=O)c1cc(C)ccc1O
REMARK SMILES IDX 7 1 6 2 5 3 4 4 10 5 9 6 8 7 2 8 3 9 1 10 11 11
REMARK H PARENT 11 12
REMARK Flexibility Score: inf
ROOT
ATOM      1  C   UNL     1      28.887  34.062  23.820  1.00  0.00     0.044 C 
ATOM      2  C   UNL     1      28.856  32.565  23.711  1.00  0.00    -0.050 A 
ATOM      3  C   UNL     1      28.633  31.779  24.851  1.00  0.00     0.019 A 
ATOM      4  C   UNL     1      28.646  30.373  24.776  1.00  0.00     0.059 A 
ATOM      5  C   UNL     1      28.878  29.759  23.523  1.00  0.00     0.126 A 
ATOM      6  C   UNL     1      29.125  30.551  22.393  1.00  0.00     0.047 A 
ATOM      7  C   UNL     1      29.122  31.943  22.486  1.00  0.00     0.007 A 
ENDROOT
BRANCH   4   8
ATOM      8  C   UNL     1      28.404  29.588  26.017  1.00  0.00     0.163 C 
ATOM      9  O   UNL     1      27.660  28.570  25.969  1.00  0.00    -0.294 OA
ATOM     10  C   UNL     1      29.013  29.959  27.335  1.00  0.00     0.093 C 
ENDBRANCH   4   8
BRANCH   5  11
ATOM     11  O   UNL     1      28.848  28.372  23.388  1.00  0.00    -0.507 OA
ATOM     12  H   UNL     1      29.421  27.889  22.706  1.00  0.00     0.293 HD
ENDBRANCH   5  11
TORSDOF 2
ENDMDL
MODEL 8
REMARK VINA RESULT:    -3.856      3.178      5.324
REMARK INTER + INTRA:          -4.493
REMARK INTER:                  -4.189
REMARK INTRA:                  -0.304
REMARK UNBOUND:                -0.299
REMARK SMILES CC(=O)c1cc(C)ccc1O
REMARK SMILES IDX 7 1 6 2 5 3 4 4 10 5 9 6 8 7 2 8 3 9 1 10 11 11
REMARK H PARENT 11 12
REMARK Flexibility Score: inf
ROOT
ATOM      1  C   UNL     1      29.034  34.835  20.721  1.00  0.00     0.044 C 
ATOM      2  C   UNL     1      28.456  36.099  20.155  1.00  0.00    -0.050 A 
ATOM      3  C   UNL     1      27.243  36.604  20.647  1.00  0.00     0.019 A 
ATOM      4  C   UNL     1      26.664  37.762  20.096  1.00  0.00     0.059 A 
ATOM      5  C   UNL     1      27.332  38.422  19.038  1.00  0.00     0.126 A 
ATOM      6  C   UNL     1      28.530  37.898  18.535  1.00  0.00     0.047 A 
ATOM      7  C   UNL     1      29.085  36.742  19.082  1.00  0.00     0.007 A 
ENDROOT
BRANCH   4   8
ATOM      8  C   UNL     1      25.375  38.253  20.655  1.00  0.00     0.163 C 
ATOM      9  O   UNL     1      25.242  39.480  20.916  1.00  0.00    -0.294 OA
ATOM     10  C   UNL     1      24.216  37.342  20.926  1.00  0.00     0.093 C 
ENDBRANCH   4   8
BRANCH   5  11
ATOM     11  O   UNL     1      26.824  39.602  18.496  1.00  0.00    -0.507 OA
ATOM     12  H   UNL     1      26.346  39.617  17.603  1.00  0.00     0.293 HD
ENDBRANCH   5  11
TORSDOF 2
ENDMDL
MODEL 9
REMARK VINA RESULT:    -3.811      2.880      4.632
REMARK INTER + INTRA:          -4.444
REMARK INTER:                  -4.169
REMARK INTRA:                  -0.275
REMARK UNBOUND:                -0.299
REMARK SMILES CC(=O)c1cc(C)ccc1O
REMARK SMILES IDX 7 1 6 2 5 3 4 4 10 5 9 6 8 7 2 8 3 9 1 10 11 11
REMARK H PARENT 11 12
REMARK Flexibility Score: inf
ROOT
ATOM      1  C   UNL     1      28.999  35.015  20.673  1.00  0.00     0.044 C 
ATOM      2  C   UNL     1      28.041  36.160  20.517  1.00  0.00    -0.050 A 
ATOM      3  C   UNL     1      28.265  37.140  19.539  1.00  0.00     0.019 A 
ATOM      4  C   UNL     1      27.401  38.244  19.409  1.00  0.00     0.059 A 
ATOM      5  C   UNL     1      26.289  38.346  20.277  1.00  0.00     0.126 A 
ATOM      6  C   UNL     1      26.085  37.376  21.268  1.00  0.00     0.047 A 
ATOM      7  C   UNL     1      26.958  36.295  21.393  1.00  0.00     0.007 A 
ENDROOT
BRANCH   4   8
ATOM      8  C   UNL     1      27.687  39.256  18.356  1.00  0.00     0.163 C 
ATOM      9  O   UNL     1      27.310  40.448  18.526  1.00  0.00    -0.294 OA
ATOM     10  C   UNL     1      28.410  38.916  17.088  1.00  0.00     0.093 C 
ENDBRANCH   4   8
BRANCH   5  11
ATOM     11  O   UNL     1      25.376  39.393  20.152  1.00  0.00    -0.507 OA
ATOM     12  H   UNL     1      25.311  40.130  20.845  1.00  0.00     0.293 HD
ENDBRANCH   5  11
TORSDOF 2
ENDMDL
