MODEL 1
REMARK VINA RESULT:    -3.773      0.000      0.000
REMARK INTER + INTRA:          -5.525
REMARK INTER:                  -5.096
REMARK INTRA:                  -0.430
REMARK UNBOUND:                -0.430
REMARK SMILES CCCCCCCC(=O)[O-]
REMARK SMILES IDX 5 1 6 2 7 3 8 4 9 5 10 6 4 7 3 8 2 9 1 10
REMARK H PARENT
REMARK Flexibility Score: inf
ROOT
ATOM      1  C   UNL     1     -16.063  -6.242  22.644  1.00  0.00     0.000 C 
ENDROOT
BRANCH   1   2
ATOM      2  C   UNL     1     -15.244  -6.933  21.544  1.00  0.00     0.006 C 
BRANCH   2   3
ATOM      3  C   UNL     1     -15.016  -6.023  20.331  1.00  0.00     0.053 C 
BRANCH   3   4
ATOM      4  C   UNL     1     -15.722  -6.532  19.112  1.00  0.00     0.041 C 
ATOM      5  O   UNL     1     -16.972  -6.419  19.011  1.00  0.00    -0.550 OA
ATOM      6  O   UNL     1     -14.996  -7.099  18.072  1.00  0.00    -0.550 OA
ENDBRANCH   3   4
ENDBRANCH   2   3
ENDBRANCH   1   2
BRANCH   1   7
ATOM      7  C   UNL     1     -16.428  -4.808  22.241  1.00  0.00     0.000 C 
BRANCH   7   8
ATOM      8  C   UNL     1     -17.906  -4.513  22.538  1.00  0.00    -0.000 C 
BRANCH   8   9
ATOM      9  C   UNL     1     -18.825  -5.695  22.192  1.00  0.00    -0.003 C 
ATOM     10  C   UNL     1     -20.088  -5.734  23.054  1.00  0.00     0.004 C 
ENDBRANCH   8   9
ENDBRANCH   7   8
ENDBRANCH   1   7
TORSDOF 6
ENDMDL
MODEL 2
REMARK VINA RESULT:    -3.750      1.811      2.745
REMARK INTER + INTRA:          -5.495
REMARK INTER:                  -5.258
REMARK INTRA:                  -0.237
REMARK UNBOUND:                -0.430
REMARK SMILES CCCCCCCC(=O)[O-]
REMARK SMILES IDX 5 1 6 2 7 3 8 4 9 5 10 6 4 7 3 8 2 9 1 10
REMARK H PARENT
REMARK Flexibility Score: inf
ROOT
ATOM      1  C   UNL     1     -18.364  -4.877  22.388  1.00  0.00     0.000 C 
ENDROOT
BRANCH   1   2
ATOM      2  C   UNL     1     -16.831  -4.828  22.456  1.00  0.00     0.006 C 
BRANCH   2   3
ATOM      3  C   UNL     1     -16.207  -6.227  22.531  1.00  0.00     0.053 C 
BRANCH   3   4
ATOM      4  C   UNL     1     -15.123  -6.410  21.514  1.00  0.00     0.041 C 
ATOM      5  O   UNL     1     -15.230  -5.889  20.373  1.00  0.00    -0.550 OA
ATOM      6  O   UNL     1     -13.976  -7.125  21.840  1.00  0.00    -0.550 OA
ENDBRANCH   3   4
ENDBRANCH   2   3
ENDBRANCH   1   2
BRANCH   1   7
ATOM      7  C   UNL     1     -18.989  -3.776  23.255  1.00  0.00     0.000 C 
BRANCH   7   8
ATOM      8  C   UNL     1     -20.456  -4.096  23.576  1.00  0.00    -0.000 C 
BRANCH   8   9
ATOM      9  C   UNL     1     -20.745  -5.605  23.579  1.00  0.00    -0.003 C 
ATOM     10  C   UNL     1     -21.882  -5.989  24.526  1.00  0.00     0.004 C 
ENDBRANCH   8   9
ENDBRANCH   7   8
ENDBRANCH   1   7
TORSDOF 6
ENDMDL
MODEL 3
REMARK VINA RESULT:    -3.688     17.629     18.902
REMARK INTER + INTRA:          -5.411
REMARK INTER:                  -4.938
REMARK INTRA:                  -0.473
REMARK UNBOUND:                -0.430
REMARK SMILES CCCCCCCC(=O)[O-]
REMARK SMILES IDX 5 1 6 2 7 3 8 4 9 5 10 6 4 7 3 8 2 9 1 10
REMARK H PARENT
REMARK Flexibility Score: inf
ROOT
ATOM      1  C   UNL     1     -15.784  10.020  32.221  1.00  0.00     0.000 C 
ENDROOT
BRANCH   1   2
ATOM      2  C   UNL     1     -14.839  10.825  31.318  1.00  0.00     0.006 C 
BRANCH   2   3
ATOM      3  C   UNL     1     -15.379  10.964  29.889  1.00  0.00     0.053 C 
BRANCH   3   4
ATOM      4  C   UNL     1     -14.370  11.580  28.970  1.00  0.00     0.041 C 
ATOM      5  O   UNL     1     -13.489  10.865  28.425  1.00  0.00    -0.550 OA
ATOM      6  O   UNL     1     -14.426  12.939  28.686  1.00  0.00    -0.550 OA
ENDBRANCH   3   4
ENDBRANCH   2   3
ENDBRANCH   1   2
BRANCH   1   7
ATOM      7  C   UNL     1     -15.044   8.860  32.899  1.00  0.00     0.000 C 
BRANCH   7   8
ATOM      8  C   UNL     1     -13.972   8.274  31.968  1.00  0.00    -0.000 C 
BRANCH   8   9
ATOM      9  C   UNL     1     -14.536   7.209  31.015  1.00  0.00    -0.003 C 
ATOM     10  C   UNL     1     -14.139   7.449  29.558  1.00  0.00     0.004 C 
ENDBRANCH   8   9
ENDBRANCH   7   8
ENDBRANCH   1   7
TORSDOF 6
ENDMDL
MODEL 4
REMARK VINA RESULT:    -3.684     17.790     18.925
REMARK INTER + INTRA:          -5.405
REMARK INTER:                  -5.058
REMARK INTRA:                  -0.348
REMARK UNBOUND:                -0.430
REMARK SMILES CCCCCCCC(=O)[O-]
REMARK SMILES IDX 5 1 6 2 7 3 8 4 9 5 10 6 4 7 3 8 2 9 1 10
REMARK H PARENT
REMARK Flexibility Score: inf
ROOT
ATOM      1  C   UNL     1     -14.975  10.626  31.745  1.00  0.00     0.000 C 
ENDROOT
BRANCH   1   2
ATOM      2  C   UNL     1     -14.662  10.407  30.259  1.00  0.00     0.006 C 
BRANCH   2   3
ATOM      3  C   UNL     1     -14.756  11.705  29.447  1.00  0.00     0.053 C 
BRANCH   3   4
ATOM      4  C   UNL     1     -13.760  11.737  28.329  1.00  0.00     0.041 C 
ATOM      5  O   UNL     1     -13.565  12.801  27.685  1.00  0.00    -0.550 OA
ATOM      6  O   UNL     1     -13.021  10.602  28.022  1.00  0.00    -0.550 OA
ENDBRANCH   3   4
ENDBRANCH   2   3
ENDBRANCH   1   2
BRANCH   1   7
ATOM      7  C   UNL     1     -15.308   9.300  32.440  1.00  0.00     0.000 C 
BRANCH   7   8
ATOM      8  C   UNL     1     -16.827   9.086  32.519  1.00  0.00    -0.000 C 
BRANCH   8   9
ATOM      9  C   UNL     1     -17.360   8.206  31.378  1.00  0.00    -0.003 C 
ATOM     10  C   UNL     1     -18.132   9.003  30.326  1.00  0.00     0.004 C 
ENDBRANCH   8   9
ENDBRANCH   7   8
ENDBRANCH   1   7
TORSDOF 6
ENDMDL
MODEL 5
REMARK VINA RESULT:    -3.654      1.733      2.829
REMARK INTER + INTRA:          -5.365
REMARK INTER:                  -5.093
REMARK INTRA:                  -0.271
REMARK UNBOUND:                -0.430
REMARK SMILES CCCCCCCC(=O)[O-]
REMARK SMILES IDX 5 1 6 2 7 3 8 4 9 5 10 6 4 7 3 8 2 9 1 10
REMARK H PARENT
REMARK Flexibility Score: inf
ROOT
ATOM      1  C   UNL     1     -15.098  -5.898  20.223  1.00  0.00     0.000 C 
ENDROOT
BRANCH   1   2
ATOM      2  C   UNL     1     -15.159  -6.771  18.962  1.00  0.00     0.006 C 
BRANCH   2   3
ATOM      3  C   UNL     1     -15.284  -5.936  17.682  1.00  0.00     0.053 C 
BRANCH   3   4
ATOM      4  C   UNL     1     -14.072  -6.065  16.812  1.00  0.00     0.041 C 
ATOM      5  O   UNL     1     -13.867  -7.125  16.164  1.00  0.00    -0.550 OA
ATOM      6  O   UNL     1     -13.188  -5.000  16.687  1.00  0.00    -0.550 OA
ENDBRANCH   3   4
ENDBRANCH   2   3
ENDBRANCH   1   2
BRANCH   1   7
ATOM      7  C   UNL     1     -14.839  -6.750  21.472  1.00  0.00     0.000 C 
BRANCH   7   8
ATOM      8  C   UNL     1     -15.803  -6.372  22.606  1.00  0.00    -0.000 C 
BRANCH   8   9
ATOM      9  C   UNL     1     -16.767  -5.243  22.209  1.00  0.00    -0.003 C 
ATOM     10  C   UNL     1     -18.236  -5.662  22.294  1.00  0.00     0.004 C 
ENDBRANCH   8   9
ENDBRANCH   7   8
ENDBRANCH   1   7
TORSDOF 6
ENDMDL
MODEL 6
REMARK VINA RESULT:    -3.642      3.005      4.869
REMARK INTER + INTRA:          -5.349
REMARK INTER:                  -5.141
REMARK INTRA:                  -0.207
REMARK UNBOUND:                -0.430
REMARK SMILES CCCCCCCC(=O)[O-]
REMARK SMILES IDX 5 1 6 2 7 3 8 4 9 5 10 6 4 7 3 8 2 9 1 10
REMARK H PARENT
REMARK Flexibility Score: inf
ROOT
ATOM      1  C   UNL     1     -20.862  -4.685  23.848  1.00  0.00     0.000 C 
ENDROOT
BRANCH   1   2
ATOM      2  C   UNL     1     -19.541  -4.688  23.065  1.00  0.00     0.006 C 
BRANCH   2   3
ATOM      3  C   UNL     1     -19.296  -6.018  22.343  1.00  0.00     0.053 C 
BRANCH   3   4
ATOM      4  C   UNL     1     -18.854  -5.811  20.927  1.00  0.00     0.041 C 
ATOM      5  O   UNL     1     -18.756  -6.792  20.144  1.00  0.00    -0.550 OA
ATOM      6  O   UNL     1     -18.586  -4.529  20.462  1.00  0.00    -0.550 OA
ENDBRANCH   3   4
ENDBRANCH   2   3
ENDBRANCH   1   2
BRANCH   1   7
ATOM      7  C   UNL     1     -21.354  -6.115  24.104  1.00  0.00     0.000 C 
BRANCH   7   8
ATOM      8  C   UNL     1     -22.563  -6.120  25.051  1.00  0.00    -0.000 C 
BRANCH   8   9
ATOM      9  C   UNL     1     -22.360  -7.041  26.264  1.00  0.00    -0.003 C 
ATOM     10  C   UNL     1     -22.672  -6.349  27.592  1.00  0.00     0.004 C 
ENDBRANCH   8   9
ENDBRANCH   7   8
ENDBRANCH   1   7
TORSDOF 6
ENDMDL
MODEL 7
REMARK VINA RESULT:    -3.607     16.839     17.925
REMARK INTER + INTRA:          -5.302
REMARK INTER:                  -4.827
REMARK INTRA:                  -0.475
REMARK UNBOUND:                -0.430
REMARK SMILES CCCCCCCC(=O)[O-]
REMARK SMILES IDX 5 1 6 2 7 3 8 4 9 5 10 6 4 7 3 8 2 9 1 10
REMARK H PARENT
REMARK Flexibility Score: inf
ROOT
ATOM      1  C   UNL     1     -15.052  10.738  31.303  1.00  0.00     0.000 C 
ENDROOT
BRANCH   1   2
ATOM      2  C   UNL     1     -14.707  10.423  29.840  1.00  0.00     0.006 C 
BRANCH   2   3
ATOM      3  C   UNL     1     -14.175   8.996  29.663  1.00  0.00     0.053 C 
BRANCH   3   4
ATOM      4  C   UNL     1     -13.314   8.869  28.444  1.00  0.00     0.041 C 
ATOM      5  O   UNL     1     -13.012   7.731  27.998  1.00  0.00    -0.550 OA
ATOM      6  O   UNL     1     -12.875  10.008  27.780  1.00  0.00    -0.550 OA
ENDBRANCH   3   4
ENDBRANCH   2   3
ENDBRANCH   1   2
BRANCH   1   7
ATOM      7  C   UNL     1     -15.195   9.452  32.125  1.00  0.00     0.000 C 
BRANCH   7   8
ATOM      8  C   UNL     1     -16.666   9.184  32.477  1.00  0.00    -0.000 C 
BRANCH   8   9
ATOM      9  C   UNL     1     -17.347   8.230  31.484  1.00  0.00    -0.003 C 
ATOM     10  C   UNL     1     -18.156   8.966  30.416  1.00  0.00     0.004 C 
ENDBRANCH   8   9
ENDBRANCH   7   8
ENDBRANCH   1   7
TORSDOF 6
ENDMDL
MODEL 8
REMARK VINA RESULT:    -3.604     17.997     19.241
REMARK INTER + INTRA:          -5.297
REMARK INTER:                  -4.850
REMARK INTRA:                  -0.448
REMARK UNBOUND:                -0.430
REMARK SMILES CCCCCCCC(=O)[O-]
REMARK SMILES IDX 5 1 6 2 7 3 8 4 9 5 10 6 4 7 3 8 2 9 1 10
REMARK H PARENT
REMARK Flexibility Score: inf
ROOT
ATOM      1  C   UNL     1     -15.048  10.901  31.528  1.00  0.00     0.000 C 
ENDROOT
BRANCH   1   2
ATOM      2  C   UNL     1     -14.767  11.082  30.030  1.00  0.00     0.006 C 
BRANCH   2   3
ATOM      3  C   UNL     1     -16.014  10.839  29.171  1.00  0.00     0.053 C 
BRANCH   3   4
ATOM      4  C   UNL     1     -16.468  12.089  28.481  1.00  0.00     0.041 C 
ATOM      5  O   UNL     1     -15.633  12.973  28.158  1.00  0.00    -0.550 OA
ATOM      6  O   UNL     1     -17.810  12.260  28.163  1.00  0.00    -0.550 OA
ENDBRANCH   3   4
ENDBRANCH   2   3
ENDBRANCH   1   2
BRANCH   1   7
ATOM      7  C   UNL     1     -14.437   9.594  32.049  1.00  0.00     0.000 C 
BRANCH   7   8
ATOM      8  C   UNL     1     -15.473   8.781  32.840  1.00  0.00    -0.000 C 
BRANCH   8   9
ATOM      9  C   UNL     1     -16.913   9.053  32.380  1.00  0.00    -0.003 C 
ATOM     10  C   UNL     1     -17.399   8.052  31.331  1.00  0.00     0.004 C 
ENDBRANCH   8   9
ENDBRANCH   7   8
ENDBRANCH   1   7
TORSDOF 6
ENDMDL
MODEL 9
REMARK VINA RESULT:    -3.593     16.307     17.517
REMARK INTER + INTRA:          -5.283
REMARK INTER:                  -4.705
REMARK INTRA:                  -0.578
REMARK UNBOUND:                -0.430
REMARK SMILES CCCCCCCC(=O)[O-]
REMARK SMILES IDX 5 1 6 2 7 3 8 4 9 5 10 6 4 7 3 8 2 9 1 10
REMARK H PARENT
REMARK Flexibility Score: inf
ROOT
ATOM      1  C   UNL     1     -14.742   9.082  32.627  1.00  0.00     0.000 C 
ENDROOT
BRANCH   1   2
ATOM      2  C   UNL     1     -14.039   8.172  31.610  1.00  0.00     0.006 C 
BRANCH   2   3
ATOM      3  C   UNL     1     -14.823   6.880  31.346  1.00  0.00     0.053 C 
BRANCH   3   4
ATOM      4  C   UNL     1     -14.651   6.402  29.937  1.00  0.00     0.041 C 
ATOM      5  O   UNL     1     -14.451   7.228  29.008  1.00  0.00    -0.550 OA
ATOM      6  O   UNL     1     -14.676   5.042  29.655  1.00  0.00    -0.550 OA
ENDBRANCH   3   4
ENDBRANCH   2   3
ENDBRANCH   1   2
BRANCH   1   7
ATOM      7  C   UNL     1     -15.069  10.447  32.009  1.00  0.00     0.000 C 
BRANCH   7   8
ATOM      8  C   UNL     1     -14.737  10.467  30.510  1.00  0.00    -0.000 C 
BRANCH   8   9
ATOM      9  C   UNL     1     -15.966  10.760  29.636  1.00  0.00    -0.003 C 
ATOM     10  C   UNL     1     -17.037   9.673  29.737  1.00  0.00     0.004 C 
ENDBRANCH   8   9
ENDBRANCH   7   8
ENDBRANCH   1   7
TORSDOF 6
ENDMDL
