MODEL 1
REMARK VINA RESULT:    -3.674      0.000      0.000
REMARK INTER + INTRA:          -4.023
REMARK INTER:                  -3.996
REMARK INTRA:                  -0.027
REMARK UNBOUND:                -0.027
REMARK SMILES O=C([O-])c1ccc(O)cc1
REMARK SMILES IDX 4 1 5 2 10 3 6 4 9 5 7 6 2 7 1 8 3 9 8 10
REMARK H PARENT 8 11
REMARK Flexibility Score: inf
ROOT
ATOM      1  C   UNL     1      15.989  -5.261   6.466  1.00  0.00    -0.003 A 
ATOM      2  C   UNL     1      16.624  -4.156   5.870  1.00  0.00     0.014 A 
ATOM      3  C   UNL     1      16.775  -6.225   7.124  1.00  0.00     0.014 A 
ATOM      4  C   UNL     1      18.014  -4.020   5.930  1.00  0.00     0.047 A 
ATOM      5  C   UNL     1      18.164  -6.085   7.183  1.00  0.00     0.047 A 
ATOM      6  C   UNL     1      18.788  -4.982   6.586  1.00  0.00     0.115 A 
ENDROOT
BRANCH   1   7
ATOM      7  C   UNL     1      14.518  -5.402   6.400  1.00  0.00     0.071 C 
ATOM      8  O   UNL     1      13.789  -4.956   7.326  1.00  0.00    -0.545 OA
ATOM      9  O   UNL     1      13.919  -6.031   5.314  1.00  0.00    -0.545 OA
ENDBRANCH   1   7
BRANCH   6  10
ATOM     10  O   UNL     1      20.172  -4.833   6.639  1.00  0.00    -0.508 OA
ATOM     11  H   UNL     1      20.668  -4.803   7.522  1.00  0.00     0.293 HD
ENDBRANCH   6  10
TORSDOF 2
ENDMDL
MODEL 2
REMARK VINA RESULT:    -3.613     17.818     19.109
REMARK INTER + INTRA:          -3.957
REMARK INTER:                  -3.928
REMARK INTRA:                  -0.029
REMARK UNBOUND:                -0.027
REMARK SMILES O=C([O-])c1ccc(O)cc1
REMARK SMILES IDX 4 1 5 2 10 3 6 4 9 5 7 6 2 7 1 8 3 9 8 10
REMARK H PARENT 8 11
REMARK Flexibility Score: inf
ROOT
ATOM      1  C   UNL     1      14.142 -17.915  19.577  1.00  0.00    -0.003 A 
ATOM      2  C   UNL     1      13.172 -17.793  18.566  1.00  0.00     0.014 A 
ATOM      3  C   UNL     1      13.721 -18.076  20.910  1.00  0.00     0.014 A 
ATOM      4  C   UNL     1      11.810 -17.831  18.882  1.00  0.00     0.047 A 
ATOM      5  C   UNL     1      12.359 -18.114  21.222  1.00  0.00     0.047 A 
ATOM      6  C   UNL     1      11.400 -17.991  20.208  1.00  0.00     0.115 A 
ENDROOT
BRANCH   1   7
ATOM      7  C   UNL     1      15.581 -17.874  19.239  1.00  0.00     0.071 C 
ATOM      8  O   UNL     1      16.332 -18.848  19.515  1.00  0.00    -0.545 OA
ATOM      9  O   UNL     1      16.127 -16.758  18.614  1.00  0.00    -0.545 OA
ENDBRANCH   1   7
BRANCH   6  10
ATOM     10  O   UNL     1      10.040 -18.028  20.509  1.00  0.00    -0.508 OA
ATOM     11  H   UNL     1       9.427 -17.252  20.290  1.00  0.00     0.293 HD
ENDBRANCH   6  10
TORSDOF 2
ENDMDL
MODEL 3
REMARK VINA RESULT:    -3.610     17.815     19.146
REMARK INTER + INTRA:          -3.954
REMARK INTER:                  -3.925
REMARK INTRA:                  -0.029
REMARK UNBOUND:                -0.027
REMARK SMILES O=C([O-])c1ccc(O)cc1
REMARK SMILES IDX 4 1 5 2 10 3 6 4 9 5 7 6 2 7 1 8 3 9 8 10
REMARK H PARENT 8 11
REMARK Flexibility Score: inf
ROOT
ATOM      1  C   UNL     1      14.098 -17.903  19.561  1.00  0.00    -0.003 A 
ATOM      2  C   UNL     1      13.682 -18.059  20.895  1.00  0.00     0.014 A 
ATOM      3  C   UNL     1      13.125 -17.800  18.550  1.00  0.00     0.014 A 
ATOM      4  C   UNL     1      12.320 -18.111  21.210  1.00  0.00     0.047 A 
ATOM      5  C   UNL     1      11.765 -17.852  18.869  1.00  0.00     0.047 A 
ATOM      6  C   UNL     1      11.359 -18.008  20.201  1.00  0.00     0.115 A 
ENDROOT
BRANCH   1   7
ATOM      7  C   UNL     1      15.539 -17.849  19.229  1.00  0.00     0.071 C 
ATOM      8  O   UNL     1      16.294 -18.824  19.490  1.00  0.00    -0.545 OA
ATOM      9  O   UNL     1      16.081 -16.720  18.625  1.00  0.00    -0.545 OA
ENDBRANCH   1   7
BRANCH   6  10
ATOM     10  O   UNL     1      10.007 -18.061  20.530  1.00  0.00    -0.508 OA
ATOM     11  H   UNL     1       9.381 -18.729  20.096  1.00  0.00     0.293 HD
ENDBRANCH   6  10
TORSDOF 2
ENDMDL
MODEL 4
REMARK VINA RESULT:    -3.355      2.044      3.916
REMARK INTER + INTRA:          -3.676
REMARK INTER:                  -3.645
REMARK INTRA:                  -0.031
REMARK UNBOUND:                -0.027
REMARK SMILES O=C([O-])c1ccc(O)cc1
REMARK SMILES IDX 4 1 5 2 10 3 6 4 9 5 7 6 2 7 1 8 3 9 8 10
REMARK H PARENT 8 11
REMARK Flexibility Score: inf
ROOT
ATOM      1  C   UNL     1      17.750  -4.769   5.770  1.00  0.00    -0.003 A 
ATOM      2  C   UNL     1      18.559  -5.549   6.615  1.00  0.00     0.014 A 
ATOM      3  C   UNL     1      16.351  -4.855   5.895  1.00  0.00     0.014 A 
ATOM      4  C   UNL     1      17.981  -6.397   7.565  1.00  0.00     0.047 A 
ATOM      5  C   UNL     1      15.777  -5.704   6.846  1.00  0.00     0.047 A 
ATOM      6  C   UNL     1      16.591  -6.478   7.683  1.00  0.00     0.115 A 
ENDROOT
BRANCH   1   7
ATOM      7  C   UNL     1      18.364  -3.873   4.766  1.00  0.00     0.071 C 
ATOM      8  O   UNL     1      19.322  -4.272   4.052  1.00  0.00    -0.545 OA
ATOM      9  O   UNL     1      17.891  -2.576   4.597  1.00  0.00    -0.545 OA
ENDBRANCH   1   7
BRANCH   6  10
ATOM     10  O   UNL     1      16.029  -7.327   8.634  1.00  0.00    -0.508 OA
ATOM     11  H   UNL     1      16.057  -8.334   8.528  1.00  0.00     0.293 HD
ENDBRANCH   6  10
TORSDOF 2
ENDMDL
MODEL 5
REMARK VINA RESULT:    -3.351     17.498     18.483
REMARK INTER + INTRA:          -3.672
REMARK INTER:                  -3.644
REMARK INTRA:                  -0.027
REMARK UNBOUND:                -0.027
REMARK SMILES O=C([O-])c1ccc(O)cc1
REMARK SMILES IDX 4 1 5 2 10 3 6 4 9 5 7 6 2 7 1 8 3 9 8 10
REMARK H PARENT 8 11
REMARK Flexibility Score: inf
ROOT
ATOM      1  C   UNL     1      13.122 -17.550  20.297  1.00  0.00    -0.003 A 
ATOM      2  C   UNL     1      14.360 -18.195  20.468  1.00  0.00     0.014 A 
ATOM      3  C   UNL     1      13.024 -16.500  19.366  1.00  0.00     0.014 A 
ATOM      4  C   UNL     1      15.475 -17.798  19.723  1.00  0.00     0.047 A 
ATOM      5  C   UNL     1      14.141 -16.105  18.623  1.00  0.00     0.047 A 
ATOM      6  C   UNL     1      15.370 -16.753  18.801  1.00  0.00     0.115 A 
ENDROOT
BRANCH   1   7
ATOM      7  C   UNL     1      11.945 -17.972  21.086  1.00  0.00     0.071 C 
ATOM      8  O   UNL     1      11.847 -17.667  22.305  1.00  0.00    -0.545 OA
ATOM      9  O   UNL     1      10.928 -18.712  20.493  1.00  0.00    -0.545 OA
ENDBRANCH   1   7
BRANCH   6  10
ATOM     10  O   UNL     1      16.489 -16.369  18.065  1.00  0.00    -0.508 OA
ATOM     11  H   UNL     1      16.691 -16.771  17.158  1.00  0.00     0.293 HD
ENDBRANCH   6  10
TORSDOF 2
ENDMDL
MODEL 6
REMARK VINA RESULT:    -3.344     18.374     19.204
REMARK INTER + INTRA:          -3.664
REMARK INTER:                  -3.629
REMARK INTRA:                  -0.035
REMARK UNBOUND:                -0.027
REMARK SMILES O=C([O-])c1ccc(O)cc1
REMARK SMILES IDX 4 1 5 2 10 3 6 4 9 5 7 6 2 7 1 8 3 9 8 10
REMARK H PARENT 8 11
REMARK Flexibility Score: inf
ROOT
ATOM      1  C   UNL     1      13.641 -17.992  20.340  1.00  0.00    -0.003 A 
ATOM      2  C   UNL     1      13.987 -17.892  21.699  1.00  0.00     0.014 A 
ATOM      3  C   UNL     1      14.666 -18.106  19.382  1.00  0.00     0.014 A 
ATOM      4  C   UNL     1      15.329 -17.907  22.092  1.00  0.00     0.047 A 
ATOM      5  C   UNL     1      16.006 -18.121  19.779  1.00  0.00     0.047 A 
ATOM      6  C   UNL     1      16.341 -18.020  21.135  1.00  0.00     0.115 A 
ENDROOT
BRANCH   1   7
ATOM      7  C   UNL     1      12.221 -17.976  19.927  1.00  0.00     0.071 C 
ATOM      8  O   UNL     1      11.309 -18.240  20.757  1.00  0.00    -0.545 OA
ATOM      9  O   UNL     1      11.871 -17.669  18.617  1.00  0.00    -0.545 OA
ENDBRANCH   1   7
BRANCH   6  10
ATOM     10  O   UNL     1      17.674 -18.034  21.541  1.00  0.00    -0.508 OA
ATOM     11  H   UNL     1      18.168 -18.902  21.708  1.00  0.00     0.293 HD
ENDBRANCH   6  10
TORSDOF 2
ENDMDL
MODEL 7
REMARK VINA RESULT:    -3.329     18.104     19.041
REMARK INTER + INTRA:          -3.647
REMARK INTER:                  -3.620
REMARK INTRA:                  -0.028
REMARK UNBOUND:                -0.027
REMARK SMILES O=C([O-])c1ccc(O)cc1
REMARK SMILES IDX 4 1 5 2 10 3 6 4 9 5 7 6 2 7 1 8 3 9 8 10
REMARK H PARENT 8 11
REMARK Flexibility Score: inf
ROOT
ATOM      1  C   UNL     1      12.401 -17.727  20.301  1.00  0.00    -0.003 A 
ATOM      2  C   UNL     1      12.854 -17.616  18.974  1.00  0.00     0.014 A 
ATOM      3  C   UNL     1      13.293 -18.179  21.290  1.00  0.00     0.014 A 
ATOM      4  C   UNL     1      14.171 -17.949  18.645  1.00  0.00     0.047 A 
ATOM      5  C   UNL     1      14.610 -18.511  20.957  1.00  0.00     0.047 A 
ATOM      6  C   UNL     1      15.052 -18.398  19.633  1.00  0.00     0.115 A 
ENDROOT
BRANCH   1   7
ATOM      7  C   UNL     1      11.007 -17.374  20.646  1.00  0.00     0.071 C 
ATOM      8  O   UNL     1      10.621 -16.175  20.609  1.00  0.00    -0.545 OA
ATOM      9  O   UNL     1      10.101 -18.362  21.018  1.00  0.00    -0.545 OA
ENDBRANCH   1   7
BRANCH   6  10
ATOM     10  O   UNL     1      16.362 -18.726  19.290  1.00  0.00    -0.508 OA
ATOM     11  H   UNL     1      16.576 -19.242  18.446  1.00  0.00     0.293 HD
ENDBRANCH   6  10
TORSDOF 2
ENDMDL
MODEL 8
REMARK VINA RESULT:    -3.317     18.259     19.497
REMARK INTER + INTRA:          -3.634
REMARK INTER:                  -3.600
REMARK INTRA:                  -0.034
REMARK UNBOUND:                -0.027
REMARK SMILES O=C([O-])c1ccc(O)cc1
REMARK SMILES IDX 4 1 5 2 10 3 6 4 9 5 7 6 2 7 1 8 3 9 8 10
REMARK H PARENT 8 11
REMARK Flexibility Score: inf
ROOT
ATOM      1  C   UNL     1      12.955 -17.819  20.906  1.00  0.00    -0.003 A 
ATOM      2  C   UNL     1      11.597 -18.120  20.697  1.00  0.00     0.014 A 
ATOM      3  C   UNL     1      13.787 -17.612  19.791  1.00  0.00     0.014 A 
ATOM      4  C   UNL     1      11.083 -18.212  19.399  1.00  0.00     0.047 A 
ATOM      5  C   UNL     1      13.270 -17.704  18.495  1.00  0.00     0.047 A 
ATOM      6  C   UNL     1      11.916 -18.006  18.296  1.00  0.00     0.115 A 
ENDROOT
BRANCH   1   7
ATOM      7  C   UNL     1      13.495 -17.723  22.279  1.00  0.00     0.071 C 
ATOM      8  O   UNL     1      12.738 -17.452  23.249  1.00  0.00    -0.545 OA
ATOM      9  O   UNL     1      14.850 -17.929  22.519  1.00  0.00    -0.545 OA
ENDBRANCH   1   7
BRANCH   6  10
ATOM     10  O   UNL     1      11.391 -18.100  17.010  1.00  0.00    -0.508 OA
ATOM     11  H   UNL     1      10.438 -18.403  16.847  1.00  0.00     0.293 HD
ENDBRANCH   6  10
TORSDOF 2
ENDMDL
MODEL 9
REMARK VINA RESULT:    -3.189      6.930      7.978
REMARK INTER + INTRA:          -3.495
REMARK INTER:                  -3.468
REMARK INTRA:                  -0.027
REMARK UNBOUND:                -0.027
REMARK SMILES O=C([O-])c1ccc(O)cc1
REMARK SMILES IDX 4 1 5 2 10 3 6 4 9 5 7 6 2 7 1 8 3 9 8 10
REMARK H PARENT 8 11
REMARK Flexibility Score: inf
ROOT
ATOM      1  C   UNL     1      15.464  -5.550  13.713  1.00  0.00    -0.003 A 
ATOM      2  C   UNL     1      15.655  -6.029  12.405  1.00  0.00     0.014 A 
ATOM      3  C   UNL     1      15.198  -6.470  14.744  1.00  0.00     0.014 A 
ATOM      4  C   UNL     1      15.580  -7.398  12.133  1.00  0.00     0.047 A 
ATOM      5  C   UNL     1      15.124  -7.839  14.468  1.00  0.00     0.047 A 
ATOM      6  C   UNL     1      15.315  -8.306  13.162  1.00  0.00     0.115 A 
ENDROOT
BRANCH   1   7
ATOM      7  C   UNL     1      15.544  -4.100  13.997  1.00  0.00     0.071 C 
ATOM      8  O   UNL     1      14.495  -3.422  14.163  1.00  0.00    -0.545 OA
ATOM      9  O   UNL     1      16.778  -3.466  14.085  1.00  0.00    -0.545 OA
ENDBRANCH   1   7
BRANCH   6  10
ATOM     10  O   UNL     1      15.244  -9.668  12.877  1.00  0.00    -0.508 OA
ATOM     11  H   UNL     1      14.356 -10.134  12.731  1.00  0.00     0.293 HD
ENDBRANCH   6  10
TORSDOF 2
ENDMDL
