MODEL 1
REMARK VINA RESULT:    -4.130      0.000      0.000
REMARK INTER + INTRA:          -6.408
REMARK INTER:                  -6.061
REMARK INTRA:                  -0.347
REMARK UNBOUND:                -0.347
REMARK SMILES O=C([O-])CCCCCCCC(=O)[O-]
REMARK SMILES IDX 7 1 6 2 5 3 4 4 2 5 1 6 3 7 8 8 9 9 10 10 11 11 12 12 13 13
REMARK H PARENT
REMARK Flexibility Score: inf
ROOT
ATOM      1  C   UNL     1     303.411 323.986 648.255  1.00  0.00     0.000 C 
ENDROOT
BRANCH   1   2
ATOM      2  C   UNL     1     301.999 324.547 648.014  1.00  0.00     0.000 C 
BRANCH   2   3
ATOM      3  C   UNL     1     300.966 323.534 647.481  1.00  0.00     0.006 C 
BRANCH   3   4
ATOM      4  C   UNL     1     299.509 324.025 647.549  1.00  0.00     0.053 C 
BRANCH   4   5
ATOM      5  C   UNL     1     299.137 324.893 646.385  1.00  0.00     0.041 C 
ATOM      6  O   UNL     1     298.875 324.378 645.266  1.00  0.00    -0.550 OA
ATOM      7  O   UNL     1     299.121 326.275 646.524  1.00  0.00    -0.550 OA
ENDBRANCH   4   5
ENDBRANCH   3   4
ENDBRANCH   2   3
ENDBRANCH   1   2
BRANCH   1   8
ATOM      8  C   UNL     1     303.542 322.503 647.868  1.00  0.00     0.000 C 
BRANCH   8   9
ATOM      9  C   UNL     1     304.491 321.728 648.801  1.00  0.00     0.006 C 
BRANCH   9  10
ATOM     10  C   UNL     1     304.916 322.499 650.061  1.00  0.00     0.053 C 
BRANCH  10  11
ATOM     11  C   UNL     1     306.133 321.901 650.699  1.00  0.00     0.041 C 
ATOM     12  O   UNL     1     306.023 320.905 651.462  1.00  0.00    -0.550 OA
ATOM     13  O   UNL     1     307.382 322.463 650.475  1.00  0.00    -0.550 OA
ENDBRANCH  10  11
ENDBRANCH   9  10
ENDBRANCH   8   9
ENDBRANCH   1   8
TORSDOF 8
ENDMDL
MODEL 2
REMARK VINA RESULT:    -4.081      0.461      7.199
REMARK INTER + INTRA:          -6.336
REMARK INTER:                  -5.973
REMARK INTRA:                  -0.363
REMARK UNBOUND:                -0.347
REMARK SMILES O=C([O-])CCCCCCCC(=O)[O-]
REMARK SMILES IDX 7 1 6 2 5 3 4 4 2 5 1 6 3 7 8 8 9 9 10 10 11 11 12 12 13 13
REMARK H PARENT
REMARK Flexibility Score: inf
ROOT
ATOM      1  C   UNL     1     303.609 324.065 647.988  1.00  0.00     0.000 C 
ENDROOT
BRANCH   1   2
ATOM      2  C   UNL     1     303.644 322.552 647.714  1.00  0.00     0.000 C 
BRANCH   2   3
ATOM      3  C   UNL     1     304.507 321.723 648.686  1.00  0.00     0.006 C 
BRANCH   3   4
ATOM      4  C   UNL     1     304.943 322.489 649.949  1.00  0.00     0.053 C 
BRANCH   4   5
ATOM      5  C   UNL     1     305.799 321.660 650.859  1.00  0.00     0.041 C 
ATOM      6  O   UNL     1     306.821 322.159 651.399  1.00  0.00    -0.550 OA
ATOM      7  O   UNL     1     305.494 320.322 651.075  1.00  0.00    -0.550 OA
ENDBRANCH   4   5
ENDBRANCH   3   4
ENDBRANCH   2   3
ENDBRANCH   1   2
BRANCH   1   8
ATOM      8  C   UNL     1     302.237 324.697 647.698  1.00  0.00     0.000 C 
BRANCH   8   9
ATOM      9  C   UNL     1     301.123 323.648 647.530  1.00  0.00     0.006 C 
BRANCH   9  10
ATOM     10  C   UNL     1     299.697 324.201 647.696  1.00  0.00     0.053 C 
BRANCH  10  11
ATOM     11  C   UNL     1     299.259 324.986 646.498  1.00  0.00     0.041 C 
ATOM     12  O   UNL     1     299.197 326.243 646.553  1.00  0.00    -0.550 OA
ATOM     13  O   UNL     1     298.891 324.329 645.332  1.00  0.00    -0.550 OA
ENDBRANCH  10  11
ENDBRANCH   9  10
ENDBRANCH   8   9
ENDBRANCH   1   8
TORSDOF 8
ENDMDL
MODEL 3
REMARK VINA RESULT:    -4.054      1.028      1.331
REMARK INTER + INTRA:          -6.297
REMARK INTER:                  -6.030
REMARK INTRA:                  -0.267
REMARK UNBOUND:                -0.347
REMARK SMILES O=C([O-])CCCCCCCC(=O)[O-]
REMARK SMILES IDX 7 1 6 2 5 3 4 4 2 5 1 6 3 7 8 8 9 9 10 10 11 11 12 12 13 13
REMARK H PARENT
REMARK Flexibility Score: inf
ROOT
ATOM      1  C   UNL     1     301.935 323.330 647.492  1.00  0.00     0.000 C 
ENDROOT
BRANCH   1   2
ATOM      2  C   UNL     1     300.969 324.408 648.011  1.00  0.00     0.000 C 
BRANCH   2   3
ATOM      3  C   UNL     1     299.483 324.188 647.664  1.00  0.00     0.006 C 
BRANCH   3   4
ATOM      4  C   UNL     1     299.170 324.269 646.159  1.00  0.00     0.053 C 
BRANCH   4   5
ATOM      5  C   UNL     1     299.351 325.650 645.605  1.00  0.00     0.041 C 
ATOM      6  O   UNL     1     299.867 325.817 644.469  1.00  0.00    -0.550 OA
ATOM      7  O   UNL     1     298.991 326.757 646.363  1.00  0.00    -0.550 OA
ENDBRANCH   4   5
ENDBRANCH   3   4
ENDBRANCH   2   3
ENDBRANCH   1   2
BRANCH   1   8
ATOM      8  C   UNL     1     303.414 323.688 647.718  1.00  0.00     0.000 C 
BRANCH   8   9
ATOM      9  C   UNL     1     304.196 322.563 648.421  1.00  0.00     0.006 C 
BRANCH   9  10
ATOM     10  C   UNL     1     304.721 322.929 649.819  1.00  0.00     0.053 C 
BRANCH  10  11
ATOM     11  C   UNL     1     305.317 321.748 650.521  1.00  0.00     0.041 C 
ATOM     12  O   UNL     1     304.946 320.581 650.224  1.00  0.00    -0.550 OA
ATOM     13  O   UNL     1     306.260 321.937 651.522  1.00  0.00    -0.550 OA
ENDBRANCH  10  11
ENDBRANCH   9  10
ENDBRANCH   8   9
ENDBRANCH   1   8
TORSDOF 8
ENDMDL
MODEL 4
REMARK VINA RESULT:    -3.979      1.723      7.161
REMARK INTER + INTRA:          -6.186
REMARK INTER:                  -5.866
REMARK INTRA:                  -0.321
REMARK UNBOUND:                -0.347
REMARK SMILES O=C([O-])CCCCCCCC(=O)[O-]
REMARK SMILES IDX 7 1 6 2 5 3 4 4 2 5 1 6 3 7 8 8 9 9 10 10 11 11 12 12 13 13
REMARK H PARENT
REMARK Flexibility Score: inf
ROOT
ATOM      1  C   UNL     1     300.449 324.357 647.824  1.00  0.00     0.000 C 
ENDROOT
BRANCH   1   2
ATOM      2  C   UNL     1     301.745 323.647 647.397  1.00  0.00     0.000 C 
BRANCH   2   3
ATOM      3  C   UNL     1     302.968 323.902 648.301  1.00  0.00     0.006 C 
BRANCH   3   4
ATOM      4  C   UNL     1     303.950 322.718 648.380  1.00  0.00     0.053 C 
BRANCH   4   5
ATOM      5  C   UNL     1     305.062 322.954 649.357  1.00  0.00     0.041 C 
ATOM      6  O   UNL     1     305.032 322.418 650.496  1.00  0.00    -0.550 OA
ATOM      7  O   UNL     1     306.111 323.803 649.026  1.00  0.00    -0.550 OA
ENDBRANCH   4   5
ENDBRANCH   3   4
ENDBRANCH   2   3
ENDBRANCH   1   2
BRANCH   1   8
ATOM      8  C   UNL     1     299.240 323.975 646.954  1.00  0.00     0.000 C 
BRANCH   8   9
ATOM      9  C   UNL     1     299.021 324.948 645.782  1.00  0.00     0.006 C 
BRANCH   9  10
ATOM     10  C   UNL     1     298.893 326.424 646.194  1.00  0.00     0.053 C 
BRANCH  10  11
ATOM     11  C   UNL     1     299.933 327.280 645.539  1.00  0.00     0.041 C 
ATOM     12  O   UNL     1     299.597 328.148 644.691  1.00  0.00    -0.550 OA
ATOM     13  O   UNL     1     301.275 327.100 645.845  1.00  0.00    -0.550 OA
ENDBRANCH  10  11
ENDBRANCH   9  10
ENDBRANCH   8   9
ENDBRANCH   1   8
TORSDOF 8
ENDMDL
MODEL 5
REMARK VINA RESULT:    -3.907      1.063      7.221
REMARK INTER + INTRA:          -6.081
REMARK INTER:                  -5.725
REMARK INTRA:                  -0.356
REMARK UNBOUND:                -0.347
REMARK SMILES O=C([O-])CCCCCCCC(=O)[O-]
REMARK SMILES IDX 7 1 6 2 5 3 4 4 2 5 1 6 3 7 8 8 9 9 10 10 11 11 12 12 13 13
REMARK H PARENT
REMARK Flexibility Score: inf
ROOT
ATOM      1  C   UNL     1     301.904 324.521 647.477  1.00  0.00     0.000 C 
ENDROOT
BRANCH   1   2
ATOM      2  C   UNL     1     303.126 323.998 648.251  1.00  0.00     0.000 C 
BRANCH   2   3
ATOM      3  C   UNL     1     303.890 322.840 647.577  1.00  0.00     0.006 C 
BRANCH   3   4
ATOM      4  C   UNL     1     304.383 321.758 648.556  1.00  0.00     0.053 C 
BRANCH   4   5
ATOM      5  C   UNL     1     305.378 322.285 649.546  1.00  0.00     0.041 C 
ATOM      6  O   UNL     1     305.196 322.120 650.780  1.00  0.00    -0.550 OA
ATOM      7  O   UNL     1     306.487 322.998 649.105  1.00  0.00    -0.550 OA
ENDBRANCH   4   5
ENDBRANCH   3   4
ENDBRANCH   2   3
ENDBRANCH   1   2
BRANCH   1   8
ATOM      8  C   UNL     1     300.742 323.513 647.437  1.00  0.00     0.000 C 
BRANCH   8   9
ATOM      9  C   UNL     1     299.370 324.195 647.283  1.00  0.00     0.006 C 
BRANCH   9  10
ATOM     10  C   UNL     1     298.925 324.408 645.827  1.00  0.00     0.053 C 
BRANCH  10  11
ATOM     11  C   UNL     1     298.984 325.852 645.430  1.00  0.00     0.041 C 
ATOM     12  O   UNL     1     299.104 326.746 646.308  1.00  0.00    -0.550 OA
ATOM     13  O   UNL     1     298.876 326.209 644.093  1.00  0.00    -0.550 OA
ENDBRANCH  10  11
ENDBRANCH   9  10
ENDBRANCH   8   9
ENDBRANCH   1   8
TORSDOF 8
ENDMDL
MODEL 6
REMARK VINA RESULT:    -3.847      1.307      1.941
REMARK INTER + INTRA:          -5.994
REMARK INTER:                  -5.742
REMARK INTRA:                  -0.251
REMARK UNBOUND:                -0.347
REMARK SMILES O=C([O-])CCCCCCCC(=O)[O-]
REMARK SMILES IDX 7 1 6 2 5 3 4 4 2 5 1 6 3 7 8 8 9 9 10 10 11 11 12 12 13 13
REMARK H PARENT
REMARK Flexibility Score: inf
ROOT
ATOM      1  C   UNL     1     302.058 323.769 647.165  1.00  0.00     0.000 C 
ENDROOT
BRANCH   1   2
ATOM      2  C   UNL     1     300.608 323.651 647.664  1.00  0.00     0.000 C 
BRANCH   2   3
ATOM      3  C   UNL     1     299.630 324.708 647.113  1.00  0.00     0.006 C 
BRANCH   3   4
ATOM      4  C   UNL     1     298.951 324.309 645.790  1.00  0.00     0.053 C 
BRANCH   4   5
ATOM      5  C   UNL     1     299.523 325.031 644.607  1.00  0.00     0.041 C 
ATOM      6  O   UNL     1     298.970 326.074 644.170  1.00  0.00    -0.550 OA
ATOM      7  O   UNL     1     300.644 324.527 643.960  1.00  0.00    -0.550 OA
ENDBRANCH   4   5
ENDBRANCH   3   4
ENDBRANCH   2   3
ENDBRANCH   1   2
BRANCH   1   8
ATOM      8  C   UNL     1     303.062 324.050 648.295  1.00  0.00     0.000 C 
BRANCH   8   9
ATOM      9  C   UNL     1     304.006 322.863 648.560  1.00  0.00     0.006 C 
BRANCH   9  10
ATOM     10  C   UNL     1     304.882 323.013 649.814  1.00  0.00     0.053 C 
BRANCH  10  11
ATOM     11  C   UNL     1     305.304 321.685 650.365  1.00  0.00     0.041 C 
ATOM     12  O   UNL     1     306.115 321.626 651.326  1.00  0.00    -0.550 OA
ATOM     13  O   UNL     1     304.825 320.513 649.796  1.00  0.00    -0.550 OA
ENDBRANCH  10  11
ENDBRANCH   9  10
ENDBRANCH   8   9
ENDBRANCH   1   8
TORSDOF 8
ENDMDL
MODEL 7
REMARK VINA RESULT:    -3.755      2.292      3.428
REMARK INTER + INTRA:          -5.857
REMARK INTER:                  -5.195
REMARK INTRA:                  -0.663
REMARK UNBOUND:                -0.347
REMARK SMILES O=C([O-])CCCCCCCC(=O)[O-]
REMARK SMILES IDX 7 1 6 2 5 3 4 4 2 5 1 6 3 7 8 8 9 9 10 10 11 11 12 12 13 13
REMARK H PARENT
REMARK Flexibility Score: inf
ROOT
ATOM      1  C   UNL     1     299.614 324.374 647.932  1.00  0.00     0.000 C 
ENDROOT
BRANCH   1   2
ATOM      2  C   UNL     1     299.320 325.283 646.726  1.00  0.00     0.000 C 
BRANCH   2   3
ATOM      3  C   UNL     1     298.988 324.550 645.411  1.00  0.00     0.006 C 
BRANCH   3   4
ATOM      4  C   UNL     1     300.155 324.496 644.409  1.00  0.00     0.053 C 
BRANCH   4   5
ATOM      5  C   UNL     1     300.787 325.837 644.185  1.00  0.00     0.041 C 
ATOM      6  O   UNL     1     301.986 326.038 644.511  1.00  0.00    -0.550 OA
ATOM      7  O   UNL     1     300.036 326.880 643.655  1.00  0.00    -0.550 OA
ENDBRANCH   4   5
ENDBRANCH   3   4
ENDBRANCH   2   3
ENDBRANCH   1   2
BRANCH   1   8
ATOM      8  C   UNL     1     300.939 323.605 647.796  1.00  0.00     0.000 C 
BRANCH   8   9
ATOM      9  C   UNL     1     302.158 324.538 647.683  1.00  0.00     0.006 C 
BRANCH   9  10
ATOM     10  C   UNL     1     303.407 323.883 647.069  1.00  0.00     0.053 C 
BRANCH  10  11
ATOM     11  C   UNL     1     304.107 322.988 648.047  1.00  0.00     0.041 C 
ATOM     12  O   UNL     1     304.220 323.333 649.252  1.00  0.00    -0.550 OA
ATOM     13  O   UNL     1     304.660 321.789 647.618  1.00  0.00    -0.550 OA
ENDBRANCH  10  11
ENDBRANCH   9  10
ENDBRANCH   8   9
ENDBRANCH   1   8
TORSDOF 8
ENDMDL
MODEL 8
REMARK VINA RESULT:    -3.615      2.582      7.087
REMARK INTER + INTRA:          -5.653
REMARK INTER:                  -5.043
REMARK INTRA:                  -0.610
REMARK UNBOUND:                -0.347
REMARK SMILES O=C([O-])CCCCCCCC(=O)[O-]
REMARK SMILES IDX 7 1 6 2 5 3 4 4 2 5 1 6 3 7 8 8 9 9 10 10 11 11 12 12 13 13
REMARK H PARENT
REMARK Flexibility Score: inf
ROOT
ATOM      1  C   UNL     1     299.249 325.210 646.859  1.00  0.00     0.000 C 
ENDROOT
BRANCH   1   2
ATOM      2  C   UNL     1     299.891 324.364 647.972  1.00  0.00     0.000 C 
BRANCH   2   3
ATOM      3  C   UNL     1     301.428 324.447 648.063  1.00  0.00     0.006 C 
BRANCH   3   4
ATOM      4  C   UNL     1     302.160 323.230 647.467  1.00  0.00     0.053 C 
BRANCH   4   5
ATOM      5  C   UNL     1     303.603 323.171 647.869  1.00  0.00     0.041 C 
ATOM      6  O   UNL     1     304.090 322.109 648.338  1.00  0.00    -0.550 OA
ATOM      7  O   UNL     1     304.401 324.304 647.767  1.00  0.00    -0.550 OA
ENDBRANCH   4   5
ENDBRANCH   3   4
ENDBRANCH   2   3
ENDBRANCH   1   2
BRANCH   1   8
ATOM      8  C   UNL     1     298.878 324.385 645.615  1.00  0.00     0.000 C 
BRANCH   8   9
ATOM      9  C   UNL     1     299.991 324.381 644.552  1.00  0.00     0.006 C 
BRANCH   9  10
ATOM     10  C   UNL     1     300.858 325.651 644.531  1.00  0.00     0.053 C 
BRANCH  10  11
ATOM     11  C   UNL     1     300.317 326.683 643.590  1.00  0.00     0.041 C 
ATOM     12  O   UNL     1     300.798 327.846 643.581  1.00  0.00    -0.550 OA
ATOM     13  O   UNL     1     299.261 326.368 642.745  1.00  0.00    -0.550 OA
ENDBRANCH  10  11
ENDBRANCH   9  10
ENDBRANCH   8   9
ENDBRANCH   1   8
TORSDOF 8
ENDMDL
MODEL 9
REMARK VINA RESULT:    -3.533      2.936      5.949
REMARK INTER + INTRA:          -5.532
REMARK INTER:                  -4.723
REMARK INTRA:                  -0.808
REMARK UNBOUND:                -0.347
REMARK SMILES O=C([O-])CCCCCCCC(=O)[O-]
REMARK SMILES IDX 7 1 6 2 5 3 4 4 2 5 1 6 3 7 8 8 9 9 10 10 11 11 12 12 13 13
REMARK H PARENT
REMARK Flexibility Score: inf
ROOT
ATOM      1  C   UNL     1     299.395 325.287 646.602  1.00  0.00     0.000 C 
ENDROOT
BRANCH   1   2
ATOM      2  C   UNL     1     299.838 324.441 647.807  1.00  0.00     0.000 C 
BRANCH   2   3
ATOM      3  C   UNL     1     301.351 324.450 648.103  1.00  0.00     0.006 C 
BRANCH   3   4
ATOM      4  C   UNL     1     302.119 323.264 647.491  1.00  0.00     0.053 C 
BRANCH   4   5
ATOM      5  C   UNL     1     303.584 323.300 647.807  1.00  0.00     0.041 C 
ATOM      6  O   UNL     1     304.289 324.278 647.445  1.00  0.00    -0.550 OA
ATOM      7  O   UNL     1     304.180 322.230 648.464  1.00  0.00    -0.550 OA
ENDBRANCH   4   5
ENDBRANCH   3   4
ENDBRANCH   2   3
ENDBRANCH   1   2
BRANCH   1   8
ATOM      8  C   UNL     1     299.109 324.444 645.348  1.00  0.00     0.000 C 
BRANCH   8   9
ATOM      9  C   UNL     1     300.283 324.443 644.352  1.00  0.00     0.006 C 
BRANCH   9  10
ATOM     10  C   UNL     1     301.295 325.583 644.558  1.00  0.00     0.053 C 
BRANCH  10  11
ATOM     11  C   UNL     1     302.708 325.112 644.400  1.00  0.00     0.041 C 
ATOM     12  O   UNL     1     302.948 323.906 644.130  1.00  0.00    -0.550 OA
ATOM     13  O   UNL     1     303.760 326.000 644.579  1.00  0.00    -0.550 OA
ENDBRANCH  10  11
ENDBRANCH   9  10
ENDBRANCH   8   9
ENDBRANCH   1   8
TORSDOF 8
ENDMDL
