MODEL 1
REMARK VINA RESULT:    -6.819      0.000      0.000
REMARK INTER + INTRA:          -9.223
REMARK INTER:                  -8.613
REMARK INTRA:                  -0.609
REMARK UNBOUND:                -0.609
REMARK SMILES Oc1cc(O)cc(CCc2ccccc2O)c1
REMARK SMILES IDX 9 1 10 2 12 3 13 4 11 5 14 6 15 7 16 8 8 10 7 11 6 12 17 13
REMARK SMILES IDX 4 14 2 15 3 16 5 17 1 19
REMARK H PARENT 16 9 5 18 1 20
REMARK Flexibility Score: inf
ROOT
ATOM      1  C   UNL     1      13.760  20.007  18.559  1.00  0.00     0.044 C 
ENDROOT
BRANCH   1   2
ATOM      2  C   UNL     1      13.735  19.834  17.062  1.00  0.00    -0.006 A 
ATOM      3  C   UNL     1      14.149  18.447  15.108  1.00  0.00     0.001 A 
ATOM      4  C   UNL     1      13.768  19.499  14.273  1.00  0.00     0.004 A 
ATOM      5  C   UNL     1      14.137  18.613  16.495  1.00  0.00     0.007 A 
ATOM      6  C   UNL     1      13.381  20.723  14.824  1.00  0.00     0.046 A 
ATOM      7  C   UNL     1      13.367  20.900  16.216  1.00  0.00     0.118 A 
BRANCH   7   8
ATOM      8  O   UNL     1      12.993  22.130  16.758  1.00  0.00    -0.508 OA
ATOM      9  H   UNL     1      12.303  22.720  16.309  1.00  0.00     0.293 HD
ENDBRANCH   7   8
ENDBRANCH   1   2
BRANCH   1  10
ATOM     10  C   UNL     1      12.618  19.222  19.213  1.00  0.00     0.040 C 
BRANCH  10  11
ATOM     11  C   UNL     1      11.292  19.863  18.904  1.00  0.00    -0.040 A 
ATOM     12  C   UNL     1      10.490  19.363  17.865  1.00  0.00     0.050 A 
ATOM     13  C   UNL     1      10.820  20.928  19.688  1.00  0.00     0.050 A 
ATOM     14  C   UNL     1       9.242  19.934  17.598  1.00  0.00     0.119 A 
ATOM     15  C   UNL     1       9.570  21.503  19.421  1.00  0.00     0.119 A 
ATOM     16  C   UNL     1       8.785  21.007  18.375  1.00  0.00     0.092 A 
BRANCH  14  17
ATOM     17  O   UNL     1       8.463  19.429  16.559  1.00  0.00    -0.508 OA
ATOM     18  H   UNL     1       8.301  18.434  16.453  1.00  0.00     0.293 HD
ENDBRANCH  14  17
BRANCH  15  19
ATOM     19  O   UNL     1       9.098  22.564  20.190  1.00  0.00    -0.508 OA
ATOM     20  H   UNL     1       8.211  22.513  20.675  1.00  0.00     0.293 HD
ENDBRANCH  15  19
ENDBRANCH  10  11
ENDBRANCH   1  10
TORSDOF 6
ENDMDL
MODEL 2
REMARK VINA RESULT:    -6.817      0.090      2.034
REMARK INTER + INTRA:          -9.220
REMARK INTER:                  -8.533
REMARK INTRA:                  -0.687
REMARK UNBOUND:                -0.609
REMARK SMILES Oc1cc(O)cc(CCc2ccccc2O)c1
REMARK SMILES IDX 9 1 10 2 12 3 13 4 11 5 14 6 15 7 16 8 8 10 7 11 6 12 17 13
REMARK SMILES IDX 4 14 2 15 3 16 5 17 1 19
REMARK H PARENT 16 9 5 18 1 20
REMARK Flexibility Score: inf
ROOT
ATOM      1  C   UNL     1      13.736  20.058  18.558  1.00  0.00     0.044 C 
ENDROOT
BRANCH   1   2
ATOM      2  C   UNL     1      13.739  19.866  17.063  1.00  0.00    -0.006 A 
ATOM      3  C   UNL     1      14.213  18.463  15.134  1.00  0.00     0.001 A 
ATOM      4  C   UNL     1      13.825  19.497  14.280  1.00  0.00     0.004 A 
ATOM      5  C   UNL     1      14.176  18.646  16.518  1.00  0.00     0.007 A 
ATOM      6  C   UNL     1      13.404  20.719  14.808  1.00  0.00     0.046 A 
ATOM      7  C   UNL     1      13.364  20.914  16.197  1.00  0.00     0.118 A 
BRANCH   7   8
ATOM      8  O   UNL     1      12.956  22.142  16.717  1.00  0.00    -0.508 OA
ATOM      9  H   UNL     1      12.437  22.205  17.585  1.00  0.00     0.293 HD
ENDBRANCH   7   8
ENDBRANCH   1   2
BRANCH   1  10
ATOM     10  C   UNL     1      12.619  19.234  19.206  1.00  0.00     0.040 C 
BRANCH  10  11
ATOM     11  C   UNL     1      11.276  19.857  18.936  1.00  0.00    -0.040 A 
ATOM     12  C   UNL     1      10.870  20.996  19.648  1.00  0.00     0.050 A 
ATOM     13  C   UNL     1      10.445  19.338  17.930  1.00  0.00     0.050 A 
ATOM     14  C   UNL     1       9.637  21.598  19.375  1.00  0.00     0.119 A 
ATOM     15  C   UNL     1       9.208  19.939  17.656  1.00  0.00     0.119 A 
ATOM     16  C   UNL     1       8.805  21.065  18.381  1.00  0.00     0.092 A 
BRANCH  14  17
ATOM     17  O   UNL     1       9.247  22.724  20.097  1.00  0.00    -0.508 OA
ATOM     18  H   UNL     1       9.925  23.394  20.442  1.00  0.00     0.293 HD
ENDBRANCH  14  17
BRANCH  15  19
ATOM     19  O   UNL     1       8.375  19.425  16.665  1.00  0.00    -0.508 OA
ATOM     20  H   UNL     1       7.425  19.759  16.547  1.00  0.00     0.293 HD
ENDBRANCH  15  19
ENDBRANCH  10  11
ENDBRANCH   1  10
TORSDOF 6
ENDMDL
MODEL 3
REMARK VINA RESULT:    -6.777      1.142      1.476
REMARK INTER + INTRA:          -9.170
REMARK INTER:                  -8.920
REMARK INTRA:                  -0.250
REMARK UNBOUND:                -0.609
REMARK SMILES Oc1cc(O)cc(CCc2ccccc2O)c1
REMARK SMILES IDX 9 1 10 2 12 3 13 4 11 5 14 6 15 7 16 8 8 10 7 11 6 12 17 13
REMARK SMILES IDX 4 14 2 15 3 16 5 17 1 19
REMARK H PARENT 16 9 5 18 1 20
REMARK Flexibility Score: inf
ROOT
ATOM      1  C   UNL     1      13.109  21.871  17.256  1.00  0.00     0.044 C 
ENDROOT
BRANCH   1   2
ATOM      2  C   UNL     1      13.521  20.586  16.585  1.00  0.00    -0.006 A 
ATOM      3  C   UNL     1      14.499  18.365  16.738  1.00  0.00     0.001 A 
ATOM      4  C   UNL     1      14.364  18.205  15.357  1.00  0.00     0.004 A 
ATOM      5  C   UNL     1      14.085  19.550  17.349  1.00  0.00     0.007 A 
ATOM      6  C   UNL     1      13.820  19.232  14.584  1.00  0.00     0.046 A 
ATOM      7  C   UNL     1      13.401  20.427  15.189  1.00  0.00     0.118 A 
BRANCH   7   8
ATOM      8  O   UNL     1      12.871  21.454  14.408  1.00  0.00    -0.508 OA
ATOM      9  H   UNL     1      12.652  21.318  13.428  1.00  0.00     0.293 HD
ENDBRANCH   7   8
ENDBRANCH   1   2
BRANCH   1  10
ATOM     10  C   UNL     1      12.561  21.596  18.660  1.00  0.00     0.040 C 
BRANCH  10  11
ATOM     11  C   UNL     1      11.086  21.302  18.604  1.00  0.00    -0.040 A 
ATOM     12  C   UNL     1      10.566  20.487  17.586  1.00  0.00     0.050 A 
ATOM     13  C   UNL     1      10.228  21.792  19.602  1.00  0.00     0.050 A 
ATOM     14  C   UNL     1       9.201  20.184  17.551  1.00  0.00     0.119 A 
ATOM     15  C   UNL     1       8.860  21.490  19.568  1.00  0.00     0.119 A 
ATOM     16  C   UNL     1       8.348  20.690  18.542  1.00  0.00     0.092 A 
BRANCH  14  17
ATOM     17  O   UNL     1       8.701  19.379  16.529  1.00  0.00    -0.508 OA
ATOM     18  H   UNL     1       7.843  19.611  16.043  1.00  0.00     0.293 HD
ENDBRANCH  14  17
BRANCH  15  19
ATOM     19  O   UNL     1       8.001  21.979  20.550  1.00  0.00    -0.508 OA
ATOM     20  H   UNL     1       7.739  21.418  21.352  1.00  0.00     0.293 HD
ENDBRANCH  15  19
ENDBRANCH  10  11
ENDBRANCH   1  10
TORSDOF 6
ENDMDL
MODEL 4
REMARK VINA RESULT:    -6.283      1.988      2.956
REMARK INTER + INTRA:          -8.546
REMARK INTER:                  -8.001
REMARK INTRA:                  -0.544
REMARK UNBOUND:                -0.609
REMARK SMILES Oc1cc(O)cc(CCc2ccccc2O)c1
REMARK SMILES IDX 9 1 10 2 12 3 13 4 11 5 14 6 15 7 16 8 8 10 7 11 6 12 17 13
REMARK SMILES IDX 4 14 2 15 3 16 5 17 1 19
REMARK H PARENT 16 9 5 18 1 20
REMARK Flexibility Score: inf
ROOT
ATOM      1  C   UNL     1      13.251  19.712  17.025  1.00  0.00     0.044 C 
ENDROOT
BRANCH   1   2
ATOM      2  C   UNL     1      14.337  19.200  17.937  1.00  0.00    -0.006 A 
ATOM      3  C   UNL     1      16.702  18.873  18.398  1.00  0.00     0.001 A 
ATOM      4  C   UNL     1      16.384  18.197  19.578  1.00  0.00     0.004 A 
ATOM      5  C   UNL     1      15.685  19.368  17.579  1.00  0.00     0.007 A 
ATOM      6  C   UNL     1      15.048  18.010  19.938  1.00  0.00     0.046 A 
ATOM      7  C   UNL     1      14.019  18.503  19.121  1.00  0.00     0.118 A 
BRANCH   7   8
ATOM      8  O   UNL     1      12.687  18.299  19.480  1.00  0.00    -0.508 OA
ATOM      9  H   UNL     1      12.369  17.417  19.863  1.00  0.00     0.293 HD
ENDBRANCH   7   8
ENDBRANCH   1   2
BRANCH   1  10
ATOM     10  C   UNL     1      12.803  21.113  17.452  1.00  0.00     0.040 C 
BRANCH  10  11
ATOM     11  C   UNL     1      11.350  21.108  17.843  1.00  0.00    -0.040 A 
ATOM     12  C   UNL     1      10.451  20.233  17.212  1.00  0.00     0.050 A 
ATOM     13  C   UNL     1      10.893  21.937  18.880  1.00  0.00     0.050 A 
ATOM     14  C   UNL     1       9.107  20.202  17.596  1.00  0.00     0.119 A 
ATOM     15  C   UNL     1       9.546  21.908  19.267  1.00  0.00     0.119 A 
ATOM     16  C   UNL     1       8.655  21.044  18.622  1.00  0.00     0.092 A 
BRANCH  14  17
ATOM     17  O   UNL     1       8.228  19.332  16.955  1.00  0.00    -0.508 OA
ATOM     18  H   UNL     1       8.532  18.428  16.614  1.00  0.00     0.293 HD
ENDBRANCH  14  17
BRANCH  15  19
ATOM     19  O   UNL     1       9.084  22.733  20.290  1.00  0.00    -0.508 OA
ATOM     20  H   UNL     1       8.099  22.946  20.394  1.00  0.00     0.293 HD
ENDBRANCH  15  19
ENDBRANCH  10  11
ENDBRANCH   1  10
TORSDOF 6
ENDMDL
MODEL 5
REMARK VINA RESULT:    -6.214      1.981      3.591
REMARK INTER + INTRA:          -8.458
REMARK INTER:                  -7.919
REMARK INTRA:                  -0.539
REMARK UNBOUND:                -0.609
REMARK SMILES Oc1cc(O)cc(CCc2ccccc2O)c1
REMARK SMILES IDX 9 1 10 2 12 3 13 4 11 5 14 6 15 7 16 8 8 10 7 11 6 12 17 13
REMARK SMILES IDX 4 14 2 15 3 16 5 17 1 19
REMARK H PARENT 16 9 5 18 1 20
REMARK Flexibility Score: inf
ROOT
ATOM      1  C   UNL     1      13.259  19.620  16.977  1.00  0.00     0.044 C 
ENDROOT
BRANCH   1   2
ATOM      2  C   UNL     1      14.343  19.164  17.920  1.00  0.00    -0.006 A 
ATOM      3  C   UNL     1      16.708  18.901  18.420  1.00  0.00     0.001 A 
ATOM      4  C   UNL     1      16.390  18.263  19.621  1.00  0.00     0.004 A 
ATOM      5  C   UNL     1      15.692  19.345  17.571  1.00  0.00     0.007 A 
ATOM      6  C   UNL     1      15.053  18.063  19.972  1.00  0.00     0.046 A 
ATOM      7  C   UNL     1      14.025  18.505  19.125  1.00  0.00     0.118 A 
BRANCH   7   8
ATOM      8  O   UNL     1      12.692  18.288  19.476  1.00  0.00    -0.508 OA
ATOM      9  H   UNL     1      12.387  17.414  19.889  1.00  0.00     0.293 HD
ENDBRANCH   7   8
ENDBRANCH   1   2
BRANCH   1  10
ATOM     10  C   UNL     1      12.785  21.030  17.341  1.00  0.00     0.040 C 
BRANCH  10  11
ATOM     11  C   UNL     1      11.346  21.007  17.782  1.00  0.00    -0.040 A 
ATOM     12  C   UNL     1      10.900  21.884  18.784  1.00  0.00     0.050 A 
ATOM     13  C   UNL     1      10.427  20.151  17.155  1.00  0.00     0.050 A 
ATOM     14  C   UNL     1       9.556  21.888  19.172  1.00  0.00     0.119 A 
ATOM     15  C   UNL     1       9.080  20.153  17.543  1.00  0.00     0.119 A 
ATOM     16  C   UNL     1       8.647  21.019  18.552  1.00  0.00     0.092 A 
BRANCH  14  17
ATOM     17  O   UNL     1       9.132  22.760  20.173  1.00  0.00    -0.508 OA
ATOM     18  H   UNL     1       9.550  23.676  20.290  1.00  0.00     0.293 HD
ENDBRANCH  14  17
BRANCH  15  19
ATOM     19  O   UNL     1       8.164  19.301  16.930  1.00  0.00    -0.508 OA
ATOM     20  H   UNL     1       7.279  19.072  17.368  1.00  0.00     0.293 HD
ENDBRANCH  15  19
ENDBRANCH  10  11
ENDBRANCH   1  10
TORSDOF 6
ENDMDL
MODEL 6
REMARK VINA RESULT:    -6.095     16.039     17.549
REMARK INTER + INTRA:          -8.307
REMARK INTER:                  -7.747
REMARK INTRA:                  -0.560
REMARK UNBOUND:                -0.609
REMARK SMILES Oc1cc(O)cc(CCc2ccccc2O)c1
REMARK SMILES IDX 9 1 10 2 12 3 13 4 11 5 14 6 15 7 16 8 8 10 7 11 6 12 17 13
REMARK SMILES IDX 4 14 2 15 3 16 5 17 1 19
REMARK H PARENT 16 9 5 18 1 20
REMARK Flexibility Score: inf
ROOT
ATOM      1  C   UNL     1      20.159  16.783   4.130  1.00  0.00     0.044 C 
ENDROOT
BRANCH   1   2
ATOM      2  C   UNL     1      20.126  15.300   3.861  1.00  0.00    -0.006 A 
ATOM      3  C   UNL     1      21.066  13.353   2.750  1.00  0.00     0.001 A 
ATOM      4  C   UNL     1      20.054  12.553   3.283  1.00  0.00     0.004 A 
ATOM      5  C   UNL     1      21.101  14.720   3.033  1.00  0.00     0.007 A 
ATOM      6  C   UNL     1      19.070  13.120   4.095  1.00  0.00     0.046 A 
ATOM      7  C   UNL     1      19.095  14.493   4.384  1.00  0.00     0.118 A 
BRANCH   7   8
ATOM      8  O   UNL     1      18.101  15.055   5.185  1.00  0.00    -0.508 OA
ATOM      9  H   UNL     1      17.164  14.669   5.217  1.00  0.00     0.293 HD
ENDBRANCH   7   8
ENDBRANCH   1   2
BRANCH   1  10
ATOM     10  C   UNL     1      21.242  17.461   3.284  1.00  0.00     0.040 C 
BRANCH  10  11
ATOM     11  C   UNL     1      22.394  17.897   4.149  1.00  0.00    -0.040 A 
ATOM     12  C   UNL     1      23.665  17.326   3.974  1.00  0.00     0.050 A 
ATOM     13  C   UNL     1      22.221  18.917   5.098  1.00  0.00     0.050 A 
ATOM     14  C   UNL     1      24.745  17.753   4.753  1.00  0.00     0.119 A 
ATOM     15  C   UNL     1      23.301  19.346   5.881  1.00  0.00     0.119 A 
ATOM     16  C   UNL     1      24.560  18.761   5.709  1.00  0.00     0.092 A 
BRANCH  14  17
ATOM     17  O   UNL     1      25.998  17.171   4.570  1.00  0.00    -0.508 OA
ATOM     18  H   UNL     1      26.182  16.541   3.798  1.00  0.00     0.293 HD
ENDBRANCH  14  17
BRANCH  15  19
ATOM     19  O   UNL     1      23.135  20.352   6.829  1.00  0.00    -0.508 OA
ATOM     20  H   UNL     1      23.854  21.045   6.998  1.00  0.00     0.293 HD
ENDBRANCH  15  19
ENDBRANCH  10  11
ENDBRANCH   1  10
TORSDOF 6
ENDMDL
MODEL 7
REMARK VINA RESULT:    -6.090     16.035     17.678
REMARK INTER + INTRA:          -8.302
REMARK INTER:                  -7.726
REMARK INTRA:                  -0.575
REMARK UNBOUND:                -0.609
REMARK SMILES Oc1cc(O)cc(CCc2ccccc2O)c1
REMARK SMILES IDX 9 1 10 2 12 3 13 4 11 5 14 6 15 7 16 8 8 10 7 11 6 12 17 13
REMARK SMILES IDX 4 14 2 15 3 16 5 17 1 19
REMARK H PARENT 16 9 5 18 1 20
REMARK Flexibility Score: inf
ROOT
ATOM      1  C   UNL     1      20.189  16.788   4.126  1.00  0.00     0.044 C 
ENDROOT
BRANCH   1   2
ATOM      2  C   UNL     1      20.125  15.307   3.854  1.00  0.00    -0.006 A 
ATOM      3  C   UNL     1      20.989  13.352   2.695  1.00  0.00     0.001 A 
ATOM      4  C   UNL     1      19.991  12.563   3.270  1.00  0.00     0.004 A 
ATOM      5  C   UNL     1      21.055  14.717   2.981  1.00  0.00     0.007 A 
ATOM      6  C   UNL     1      19.052  13.139   4.127  1.00  0.00     0.046 A 
ATOM      7  C   UNL     1      19.108  14.510   4.420  1.00  0.00     0.118 A 
BRANCH   7   8
ATOM      8  O   UNL     1      18.157  15.081   5.266  1.00  0.00    -0.508 OA
ATOM      9  H   UNL     1      17.255  15.388   4.921  1.00  0.00     0.293 HD
ENDBRANCH   7   8
ENDBRANCH   1   2
BRANCH   1  10
ATOM     10  C   UNL     1      21.237  17.456   3.230  1.00  0.00     0.040 C 
BRANCH  10  11
ATOM     11  C   UNL     1      22.420  17.906   4.044  1.00  0.00    -0.040 A 
ATOM     12  C   UNL     1      22.268  18.903   5.021  1.00  0.00     0.050 A 
ATOM     13  C   UNL     1      23.672  17.293   3.873  1.00  0.00     0.050 A 
ATOM     14  C   UNL     1      23.359  19.299   5.802  1.00  0.00     0.119 A 
ATOM     15  C   UNL     1      24.766  17.689   4.654  1.00  0.00     0.119 A 
ATOM     16  C   UNL     1      24.609  18.693   5.615  1.00  0.00     0.092 A 
BRANCH  14  17
ATOM     17  O   UNL     1      23.191  20.294   6.763  1.00  0.00    -0.508 OA
ATOM     18  H   UNL     1      23.854  20.418   7.520  1.00  0.00     0.293 HD
ENDBRANCH  14  17
BRANCH  15  19
ATOM     19  O   UNL     1      26.012  17.091   4.484  1.00  0.00    -0.508 OA
ATOM     20  H   UNL     1      26.655  17.400   3.764  1.00  0.00     0.293 HD
ENDBRANCH  15  19
ENDBRANCH  10  11
ENDBRANCH   1  10
TORSDOF 6
ENDMDL
MODEL 8
REMARK VINA RESULT:    -5.922     16.231     18.116
REMARK INTER + INTRA:          -8.090
REMARK INTER:                  -7.552
REMARK INTRA:                  -0.537
REMARK UNBOUND:                -0.609
REMARK SMILES Oc1cc(O)cc(CCc2ccccc2O)c1
REMARK SMILES IDX 9 1 10 2 12 3 13 4 11 5 14 6 15 7 16 8 8 10 7 11 6 12 17 13
REMARK SMILES IDX 4 14 2 15 3 16 5 17 1 19
REMARK H PARENT 16 9 5 18 1 20
REMARK Flexibility Score: inf
ROOT
ATOM      1  C   UNL     1      21.001  16.188   3.055  1.00  0.00     0.044 C 
ENDROOT
BRANCH   1   2
ATOM      2  C   UNL     1      20.811  14.693   3.070  1.00  0.00    -0.006 A 
ATOM      3  C   UNL     1      19.464  12.760   3.671  1.00  0.00     0.001 A 
ATOM      4  C   UNL     1      20.455  11.909   3.178  1.00  0.00     0.004 A 
ATOM      5  C   UNL     1      19.641  14.144   3.623  1.00  0.00     0.007 A 
ATOM      6  C   UNL     1      21.628  12.441   2.640  1.00  0.00     0.046 A 
ATOM      7  C   UNL     1      21.817  13.830   2.587  1.00  0.00     0.118 A 
BRANCH   7   8
ATOM      8  O   UNL     1      22.998  14.354   2.062  1.00  0.00    -0.508 OA
ATOM      9  H   UNL     1      23.619  13.793   1.490  1.00  0.00     0.293 HD
ENDBRANCH   7   8
ENDBRANCH   1   2
BRANCH   1  10
ATOM     10  C   UNL     1      20.942  16.754   4.478  1.00  0.00     0.040 C 
BRANCH  10  11
ATOM     11  C   UNL     1      22.189  17.536   4.788  1.00  0.00    -0.040 A 
ATOM     12  C   UNL     1      22.098  18.803   5.388  1.00  0.00     0.050 A 
ATOM     13  C   UNL     1      23.454  16.983   4.534  1.00  0.00     0.050 A 
ATOM     14  C   UNL     1      23.256  19.518   5.709  1.00  0.00     0.119 A 
ATOM     15  C   UNL     1      24.616  17.699   4.854  1.00  0.00     0.119 A 
ATOM     16  C   UNL     1      24.516  18.966   5.438  1.00  0.00     0.092 A 
BRANCH  14  17
ATOM     17  O   UNL     1      23.146  20.776   6.298  1.00  0.00    -0.508 OA
ATOM     18  H   UNL     1      22.437  21.438   6.005  1.00  0.00     0.293 HD
ENDBRANCH  14  17
BRANCH  15  19
ATOM     19  O   UNL     1      25.875  17.159   4.597  1.00  0.00    -0.508 OA
ATOM     20  H   UNL     1      26.261  16.419   5.172  1.00  0.00     0.293 HD
ENDBRANCH  15  19
ENDBRANCH  10  11
ENDBRANCH   1  10
TORSDOF 6
ENDMDL
MODEL 9
REMARK VINA RESULT:    -5.866      5.007      6.817
REMARK INTER + INTRA:          -8.019
REMARK INTER:                  -7.576
REMARK INTRA:                  -0.443
REMARK UNBOUND:                -0.609
REMARK SMILES Oc1cc(O)cc(CCc2ccccc2O)c1
REMARK SMILES IDX 9 1 10 2 12 3 13 4 11 5 14 6 15 7 16 8 8 10 7 11 6 12 17 13
REMARK SMILES IDX 4 14 2 15 3 16 5 17 1 19
REMARK H PARENT 16 9 5 18 1 20
REMARK Flexibility Score: inf
ROOT
ATOM      1  C   UNL     1      17.937  19.255  19.071  1.00  0.00     0.044 C 
ENDROOT
BRANCH   1   2
ATOM      2  C   UNL     1      18.925  19.641  20.143  1.00  0.00    -0.006 A 
ATOM      3  C   UNL     1      19.542  21.088  21.996  1.00  0.00     0.001 A 
ATOM      4  C   UNL     1      20.771  20.434  22.105  1.00  0.00     0.004 A 
ATOM      5  C   UNL     1      18.625  20.699  21.018  1.00  0.00     0.007 A 
ATOM      6  C   UNL     1      21.087  19.391  21.231  1.00  0.00     0.046 A 
ATOM      7  C   UNL     1      20.173  18.993  20.244  1.00  0.00     0.118 A 
BRANCH   7   8
ATOM      8  O   UNL     1      20.502  17.960  19.366  1.00  0.00    -0.508 OA
ATOM      9  H   UNL     1      20.992  17.132  19.681  1.00  0.00     0.293 HD
ENDBRANCH   7   8
ENDBRANCH   1   2
BRANCH   1  10
ATOM     10  C   UNL     1      16.750  18.501  19.678  1.00  0.00     0.040 C 
BRANCH  10  11
ATOM     11  C   UNL     1      15.504  18.734  18.866  1.00  0.00    -0.040 A 
ATOM     12  C   UNL     1      14.262  18.879  19.503  1.00  0.00     0.050 A 
ATOM     13  C   UNL     1      15.583  18.864  17.470  1.00  0.00     0.050 A 
ATOM     14  C   UNL     1      13.107  19.129  18.754  1.00  0.00     0.119 A 
ATOM     15  C   UNL     1      14.427  19.114  16.717  1.00  0.00     0.119 A 
ATOM     16  C   UNL     1      13.191  19.243  17.360  1.00  0.00     0.092 A 
BRANCH  14  17
ATOM     17  O   UNL     1      11.882  19.264  19.403  1.00  0.00    -0.508 OA
ATOM     18  H   UNL     1      11.720  19.999  20.082  1.00  0.00     0.293 HD
ENDBRANCH  14  17
BRANCH  15  19
ATOM     19  O   UNL     1      14.496  19.238  15.331  1.00  0.00    -0.508 OA
ATOM     20  H   UNL     1      14.073  18.553  14.717  1.00  0.00     0.293 HD
ENDBRANCH  15  19
ENDBRANCH  10  11
ENDBRANCH   1  10
TORSDOF 6
ENDMDL
