MODEL 1
REMARK VINA RESULT:    -4.008      0.000      0.000
REMARK INTER + INTRA:          -4.689
REMARK INTER:                  -4.594
REMARK INTRA:                  -0.095
REMARK UNBOUND:                -0.095
REMARK SMILES COc1cc(C(=O)[O-])ccc1O
REMARK SMILES IDX 5 1 9 2 4 3 10 4 3 5 11 6 6 7 7 8 8 9 2 10 1 11 12 12
REMARK H PARENT 12 13
REMARK Flexibility Score: inf
ROOT
ATOM      1  C   UNL     1     -22.585  36.451 -24.553  1.00  0.00     0.001 A 
ATOM      2  C   UNL     1     -21.491  35.612 -24.825  1.00  0.00     0.014 A 
ATOM      3  C   UNL     1     -23.882  35.909 -24.564  1.00  0.00     0.060 A 
ATOM      4  C   UNL     1     -21.691  34.259 -25.101  1.00  0.00     0.051 A 
ATOM      5  C   UNL     1     -24.089  34.542 -24.842  1.00  0.00     0.161 A 
ATOM      6  C   UNL     1     -22.980  33.720 -25.111  1.00  0.00     0.157 A 
ENDROOT
BRANCH   1   7
ATOM      7  C   UNL     1     -22.377  37.887 -24.260  1.00  0.00     0.072 C 
ATOM      8  O   UNL     1     -22.960  38.772 -24.944  1.00  0.00    -0.545 OA
ATOM      9  O   UNL     1     -21.535  38.282 -23.226  1.00  0.00    -0.545 OA
ENDBRANCH   1   7
BRANCH   5  10
ATOM     10  O   UNL     1     -25.372  33.973 -24.860  1.00  0.00    -0.493 OA
ATOM     11  C   UNL     1     -26.355  34.222 -25.861  1.00  0.00     0.278 C 
ENDBRANCH   5  10
BRANCH   6  12
ATOM     12  O   UNL     1     -23.139  32.363 -25.391  1.00  0.00    -0.504 OA
ATOM     13  H   UNL     1     -23.487  31.706 -24.701  1.00  0.00     0.293 HD
ENDBRANCH   6  12
TORSDOF 3
ENDMDL
MODEL 2
REMARK VINA RESULT:    -3.913      1.993      4.879
REMARK INTER + INTRA:          -4.580
REMARK INTER:                  -4.483
REMARK INTRA:                  -0.096
REMARK UNBOUND:                -0.095
REMARK SMILES COc1cc(C(=O)[O-])ccc1O
REMARK SMILES IDX 5 1 9 2 4 3 10 4 3 5 11 6 6 7 7 8 8 9 2 10 1 11 12 12
REMARK H PARENT 12 13
REMARK Flexibility Score: inf
ROOT
ATOM      1  C   UNL     1     -22.948  36.183 -24.609  1.00  0.00     0.001 A 
ATOM      2  C   UNL     1     -23.029  37.363 -23.849  1.00  0.00     0.014 A 
ATOM      3  C   UNL     1     -21.821  35.969 -25.421  1.00  0.00     0.060 A 
ATOM      4  C   UNL     1     -22.003  38.307 -23.901  1.00  0.00     0.051 A 
ATOM      5  C   UNL     1     -20.781  36.920 -25.476  1.00  0.00     0.161 A 
ATOM      6  C   UNL     1     -20.883  38.094 -24.708  1.00  0.00     0.157 A 
ENDROOT
BRANCH   1   7
ATOM      7  C   UNL     1     -24.034  35.179 -24.556  1.00  0.00     0.072 C 
ATOM      8  O   UNL     1     -24.196  34.463 -23.531  1.00  0.00    -0.545 OA
ATOM      9  O   UNL     1     -24.892  35.011 -25.637  1.00  0.00    -0.545 OA
ENDBRANCH   1   7
BRANCH   5  10
ATOM     10  O   UNL     1     -19.644  36.733 -26.278  1.00  0.00    -0.493 OA
ATOM     11  C   UNL     1     -19.579  37.022 -27.672  1.00  0.00     0.278 C 
ENDBRANCH   5  10
BRANCH   6  12
ATOM     12  O   UNL     1     -19.877  39.061 -24.733  1.00  0.00    -0.504 OA
ATOM     13  H   UNL     1     -19.459  39.383 -25.598  1.00  0.00     0.293 HD
ENDBRANCH   6  12
TORSDOF 3
ENDMDL
MODEL 3
REMARK VINA RESULT:    -3.758      2.016      3.088
REMARK INTER + INTRA:          -4.402
REMARK INTER:                  -4.299
REMARK INTRA:                  -0.103
REMARK UNBOUND:                -0.095
REMARK SMILES COc1cc(C(=O)[O-])ccc1O
REMARK SMILES IDX 5 1 9 2 4 3 10 4 3 5 11 6 6 7 7 8 8 9 2 10 1 11 12 12
REMARK H PARENT 12 13
REMARK Flexibility Score: inf
ROOT
ATOM      1  C   UNL     1     -21.374  37.246 -25.464  1.00  0.00     0.001 A 
ATOM      2  C   UNL     1     -22.436  37.979 -24.907  1.00  0.00     0.014 A 
ATOM      3  C   UNL     1     -21.506  35.854 -25.608  1.00  0.00     0.060 A 
ATOM      4  C   UNL     1     -23.605  37.333 -24.504  1.00  0.00     0.051 A 
ATOM      5  C   UNL     1     -22.685  35.196 -25.202  1.00  0.00     0.161 A 
ATOM      6  C   UNL     1     -23.736  35.949 -24.647  1.00  0.00     0.157 A 
ENDROOT
BRANCH   1   7
ATOM      7  C   UNL     1     -20.133  37.929 -25.893  1.00  0.00     0.072 C 
ATOM      8  O   UNL     1     -19.912  39.125 -25.562  1.00  0.00    -0.545 OA
ATOM      9  O   UNL     1     -19.192  37.261 -26.669  1.00  0.00    -0.545 OA
ENDBRANCH   1   7
BRANCH   5  10
ATOM     10  O   UNL     1     -22.845  33.807 -25.334  1.00  0.00    -0.493 OA
ATOM     11  C   UNL     1     -22.264  32.839 -24.465  1.00  0.00     0.278 C 
ENDBRANCH   5  10
BRANCH   6  12
ATOM     12  O   UNL     1     -24.920  35.338 -24.233  1.00  0.00    -0.504 OA
ATOM     13  H   UNL     1     -25.212  35.329 -23.263  1.00  0.00     0.293 HD
ENDBRANCH   6  12
TORSDOF 3
ENDMDL
MODEL 4
REMARK VINA RESULT:    -3.757      1.869      2.308
REMARK INTER + INTRA:          -4.402
REMARK INTER:                  -4.303
REMARK INTRA:                  -0.099
REMARK UNBOUND:                -0.095
REMARK SMILES COc1cc(C(=O)[O-])ccc1O
REMARK SMILES IDX 5 1 9 2 4 3 10 4 3 5 11 6 6 7 7 8 8 9 2 10 1 11 12 12
REMARK H PARENT 12 13
REMARK Flexibility Score: inf
ROOT
ATOM      1  C   UNL     1     -21.199  36.339 -23.802  1.00  0.00     0.001 A 
ATOM      2  C   UNL     1     -20.843  36.581 -25.139  1.00  0.00     0.014 A 
ATOM      3  C   UNL     1     -21.961  35.200 -23.493  1.00  0.00     0.060 A 
ATOM      4  C   UNL     1     -21.241  35.701 -26.146  1.00  0.00     0.051 A 
ATOM      5  C   UNL     1     -22.366  34.307 -24.506  1.00  0.00     0.161 A 
ATOM      6  C   UNL     1     -21.999  34.568 -25.839  1.00  0.00     0.157 A 
ENDROOT
BRANCH   1   7
ATOM      7  C   UNL     1     -20.778  37.270 -22.732  1.00  0.00     0.072 C 
ATOM      8  O   UNL     1     -20.254  36.834 -21.671  1.00  0.00    -0.545 OA
ATOM      9  O   UNL     1     -20.955  38.642 -22.879  1.00  0.00    -0.545 OA
ENDBRANCH   1   7
BRANCH   5  10
ATOM     10  O   UNL     1     -23.128  33.161 -24.227  1.00  0.00    -0.493 OA
ATOM     11  C   UNL     1     -24.546  33.146 -24.084  1.00  0.00     0.278 C 
ENDBRANCH   5  10
BRANCH   6  12
ATOM     12  O   UNL     1     -22.379  33.711 -26.872  1.00  0.00    -0.504 OA
ATOM     13  H   UNL     1     -23.214  33.867 -27.424  1.00  0.00     0.293 HD
ENDBRANCH   6  12
TORSDOF 3
ENDMDL
MODEL 5
REMARK VINA RESULT:    -3.756      2.686      4.298
REMARK INTER + INTRA:          -4.401
REMARK INTER:                  -4.319
REMARK INTRA:                  -0.082
REMARK UNBOUND:                -0.095
REMARK SMILES COc1cc(C(=O)[O-])ccc1O
REMARK SMILES IDX 5 1 9 2 4 3 10 4 3 5 11 6 6 7 7 8 8 9 2 10 1 11 12 12
REMARK H PARENT 12 13
REMARK Flexibility Score: inf
ROOT
ATOM      1  C   UNL     1     -24.321  33.474 -24.624  1.00  0.00     0.001 A 
ATOM      2  C   UNL     1     -24.963  34.471 -25.377  1.00  0.00     0.014 A 
ATOM      3  C   UNL     1     -25.048  32.336 -24.236  1.00  0.00     0.060 A 
ATOM      4  C   UNL     1     -26.304  34.331 -25.735  1.00  0.00     0.051 A 
ATOM      5  C   UNL     1     -26.404  32.189 -24.596  1.00  0.00     0.161 A 
ATOM      6  C   UNL     1     -27.027  33.199 -25.350  1.00  0.00     0.157 A 
ENDROOT
BRANCH   1   7
ATOM      7  C   UNL     1     -22.899  33.620 -24.242  1.00  0.00     0.072 C 
ATOM      8  O   UNL     1     -22.045  32.768 -24.611  1.00  0.00    -0.545 OA
ATOM      9  O   UNL     1     -22.482  34.698 -23.469  1.00  0.00    -0.545 OA
ENDBRANCH   1   7
BRANCH   5  10
ATOM     10  O   UNL     1     -27.154  31.063 -24.222  1.00  0.00    -0.493 OA
ATOM     11  C   UNL     1     -27.142  30.475 -22.925  1.00  0.00     0.278 C 
ENDBRANCH   5  10
BRANCH   6  12
ATOM     12  O   UNL     1     -28.366  33.094 -25.727  1.00  0.00    -0.504 OA
ATOM     13  H   UNL     1     -29.010  32.463 -25.265  1.00  0.00     0.293 HD
ENDBRANCH   6  12
TORSDOF 3
ENDMDL
MODEL 6
REMARK VINA RESULT:    -3.732      3.105      6.383
REMARK INTER + INTRA:          -4.373
REMARK INTER:                  -4.278
REMARK INTRA:                  -0.095
REMARK UNBOUND:                -0.095
REMARK SMILES COc1cc(C(=O)[O-])ccc1O
REMARK SMILES IDX 5 1 9 2 4 3 10 4 3 5 11 6 6 7 7 8 8 9 2 10 1 11 12 12
REMARK H PARENT 12 13
REMARK Flexibility Score: inf
ROOT
ATOM      1  C   UNL     1     -26.948  31.671 -23.882  1.00  0.00     0.001 A 
ATOM      2  C   UNL     1     -27.896  32.473 -24.539  1.00  0.00     0.014 A 
ATOM      3  C   UNL     1     -25.586  32.004 -23.978  1.00  0.00     0.060 A 
ATOM      4  C   UNL     1     -27.490  33.586 -25.275  1.00  0.00     0.051 A 
ATOM      5  C   UNL     1     -25.170  33.129 -24.720  1.00  0.00     0.161 A 
ATOM      6  C   UNL     1     -26.136  33.918 -25.370  1.00  0.00     0.157 A 
ENDROOT
BRANCH   1   7
ATOM      7  C   UNL     1     -27.376  30.489 -23.100  1.00  0.00     0.072 C 
ATOM      8  O   UNL     1     -27.333  30.504 -21.840  1.00  0.00    -0.545 OA
ATOM      9  O   UNL     1     -27.831  29.344 -23.744  1.00  0.00    -0.545 OA
ENDBRANCH   1   7
BRANCH   5  10
ATOM     10  O   UNL     1     -23.817  33.486 -24.833  1.00  0.00    -0.493 OA
ATOM     11  C   UNL     1     -23.102  34.263 -23.876  1.00  0.00     0.278 C 
ENDBRANCH   5  10
BRANCH   6  12
ATOM     12  O   UNL     1     -25.768  35.039 -26.115  1.00  0.00    -0.504 OA
ATOM     13  H   UNL     1     -26.347  35.405 -26.862  1.00  0.00     0.293 HD
ENDBRANCH   6  12
TORSDOF 3
ENDMDL
MODEL 7
REMARK VINA RESULT:    -3.590      2.344      3.852
REMARK INTER + INTRA:          -4.209
REMARK INTER:                  -4.114
REMARK INTRA:                  -0.095
REMARK UNBOUND:                -0.095
REMARK SMILES COc1cc(C(=O)[O-])ccc1O
REMARK SMILES IDX 5 1 9 2 4 3 10 4 3 5 11 6 6 7 7 8 8 9 2 10 1 11 12 12
REMARK H PARENT 12 13
REMARK Flexibility Score: inf
ROOT
ATOM      1  C   UNL     1     -20.053  37.460 -23.847  1.00  0.00     0.001 A 
ATOM      2  C   UNL     1     -20.666  38.701 -24.087  1.00  0.00     0.014 A 
ATOM      3  C   UNL     1     -20.822  36.287 -23.942  1.00  0.00     0.060 A 
ATOM      4  C   UNL     1     -22.020  38.767 -24.417  1.00  0.00     0.051 A 
ATOM      5  C   UNL     1     -22.191  36.348 -24.276  1.00  0.00     0.161 A 
ATOM      6  C   UNL     1     -22.785  37.601 -24.512  1.00  0.00     0.157 A 
ENDROOT
BRANCH   1   7
ATOM      7  C   UNL     1     -18.617  37.386 -23.497  1.00  0.00     0.072 C 
ATOM      8  O   UNL     1     -17.750  37.170 -24.387  1.00  0.00    -0.545 OA
ATOM      9  O   UNL     1     -18.201  37.553 -22.181  1.00  0.00    -0.545 OA
ENDBRANCH   1   7
BRANCH   5  10
ATOM     10  O   UNL     1     -22.983  35.194 -24.378  1.00  0.00    -0.493 OA
ATOM     11  C   UNL     1     -23.068  34.370 -25.538  1.00  0.00     0.278 C 
ENDBRANCH   5  10
BRANCH   6  12
ATOM     12  O   UNL     1     -24.136  37.707 -24.844  1.00  0.00    -0.504 OA
ATOM     13  H   UNL     1     -24.657  36.933 -25.238  1.00  0.00     0.293 HD
ENDBRANCH   6  12
TORSDOF 3
ENDMDL
MODEL 8
REMARK VINA RESULT:    -3.582      2.195      3.366
REMARK INTER + INTRA:          -4.201
REMARK INTER:                  -4.114
REMARK INTRA:                  -0.087
REMARK UNBOUND:                -0.095
REMARK SMILES COc1cc(C(=O)[O-])ccc1O
REMARK SMILES IDX 5 1 9 2 4 3 10 4 3 5 11 6 6 7 7 8 8 9 2 10 1 11 12 12
REMARK H PARENT 12 13
REMARK Flexibility Score: inf
ROOT
ATOM      1  C   UNL     1     -20.773  35.608 -24.791  1.00  0.00     0.001 A 
ATOM      2  C   UNL     1     -21.726  35.553 -25.823  1.00  0.00     0.014 A 
ATOM      3  C   UNL     1     -20.650  34.517 -23.915  1.00  0.00     0.060 A 
ATOM      4  C   UNL     1     -22.538  34.428 -25.974  1.00  0.00     0.051 A 
ATOM      5  C   UNL     1     -21.468  33.378 -24.063  1.00  0.00     0.161 A 
ATOM      6  C   UNL     1     -22.415  33.343 -25.102  1.00  0.00     0.157 A 
ENDROOT
BRANCH   1   7
ATOM      7  C   UNL     1     -19.911  36.800 -24.629  1.00  0.00     0.072 C 
ATOM      8  O   UNL     1     -20.182  37.674 -23.761  1.00  0.00    -0.545 OA
ATOM      9  O   UNL     1     -18.789  36.975 -25.431  1.00  0.00    -0.545 OA
ENDBRANCH   1   7
BRANCH   5  10
ATOM     10  O   UNL     1     -21.367  32.273 -23.202  1.00  0.00    -0.493 OA
ATOM     11  C   UNL     1     -20.181  31.511 -22.998  1.00  0.00     0.278 C 
ENDBRANCH   5  10
BRANCH   6  12
ATOM     12  O   UNL     1     -23.244  32.235 -25.285  1.00  0.00    -0.504 OA
ATOM     13  H   UNL     1     -24.228  32.251 -25.042  1.00  0.00     0.293 HD
ENDBRANCH   6  12
TORSDOF 3
ENDMDL
MODEL 9
REMARK VINA RESULT:    -3.450      4.193      5.388
REMARK INTER + INTRA:          -4.049
REMARK INTER:                  -3.951
REMARK INTRA:                  -0.098
REMARK UNBOUND:                -0.095
REMARK SMILES COc1cc(C(=O)[O-])ccc1O
REMARK SMILES IDX 5 1 9 2 4 3 10 4 3 5 11 6 6 7 7 8 8 9 2 10 1 11 12 12
REMARK H PARENT 12 13
REMARK Flexibility Score: inf
ROOT
ATOM      1  C   UNL     1     -19.319  37.703 -23.950  1.00  0.00     0.001 A 
ATOM      2  C   UNL     1     -20.335  38.089 -23.059  1.00  0.00     0.014 A 
ATOM      3  C   UNL     1     -19.564  37.759 -25.332  1.00  0.00     0.060 A 
ATOM      4  C   UNL     1     -21.570  38.522 -23.542  1.00  0.00     0.051 A 
ATOM      5  C   UNL     1     -20.810  38.197 -25.826  1.00  0.00     0.161 A 
ATOM      6  C   UNL     1     -21.814  38.578 -24.917  1.00  0.00     0.157 A 
ENDROOT
BRANCH   1   7
ATOM      7  C   UNL     1     -18.008  37.242 -23.440  1.00  0.00     0.072 C 
ATOM      8  O   UNL     1     -17.786  37.187 -22.200  1.00  0.00    -0.545 OA
ATOM      9  O   UNL     1     -17.001  36.865 -24.321  1.00  0.00    -0.545 OA
ENDBRANCH   1   7
BRANCH   5  10
ATOM     10  O   UNL     1     -21.083  38.264 -27.202  1.00  0.00    -0.493 OA
ATOM     11  C   UNL     1     -20.415  39.125 -28.119  1.00  0.00     0.278 C 
ENDBRANCH   5  10
BRANCH   6  12
ATOM     12  O   UNL     1     -23.060  39.018 -25.363  1.00  0.00    -0.504 OA
ATOM     13  H   UNL     1     -23.758  38.381 -25.730  1.00  0.00     0.293 HD
ENDBRANCH   6  12
TORSDOF 3
ENDMDL
