MODEL 1
REMARK VINA RESULT:    -4.269      0.000      0.000
REMARK INTER + INTRA:          -6.938
REMARK INTER:                  -6.516
REMARK INTRA:                  -0.422
REMARK UNBOUND:                -0.422
REMARK SMILES O=C([O-])CCCCCCCCC(=O)[O-]
REMARK SMILES IDX 7 1 6 2 5 3 4 4 2 5 1 6 3 7 8 8 9 9 10 10 11 11 12 12 13 13
REMARK SMILES IDX 14 14
REMARK H PARENT
REMARK Flexibility Score: inf
ROOT
ATOM      1  C   UNL     1     -16.666  -1.925  -2.603  1.00  0.00     0.000 C 
ENDROOT
BRANCH   1   2
ATOM      2  C   UNL     1     -16.913  -3.432  -2.441  1.00  0.00     0.000 C 
BRANCH   2   3
ATOM      3  C   UNL     1     -15.609  -4.223  -2.615  1.00  0.00     0.006 C 
BRANCH   3   4
ATOM      4  C   UNL     1     -14.801  -3.696  -3.804  1.00  0.00     0.053 C 
BRANCH   4   5
ATOM      5  C   UNL     1     -13.467  -4.369  -3.869  1.00  0.00     0.041 C 
ATOM      6  O   UNL     1     -12.759  -4.274  -4.907  1.00  0.00    -0.550 OA
ATOM      7  O   UNL     1     -12.982  -5.061  -2.767  1.00  0.00    -0.550 OA
ENDBRANCH   4   5
ENDBRANCH   3   4
ENDBRANCH   2   3
ENDBRANCH   1   2
BRANCH   1   8
ATOM      8  C   UNL     1     -17.104  -1.118  -1.370  1.00  0.00     0.000 C 
BRANCH   8   9
ATOM      9  C   UNL     1     -16.496   0.293  -1.340  1.00  0.00     0.000 C 
BRANCH   9  10
ATOM     10  C   UNL     1     -16.116   0.694   0.090  1.00  0.00     0.006 C 
BRANCH  10  11
ATOM     11  C   UNL     1     -16.716  -0.277   1.111  1.00  0.00     0.053 C 
BRANCH  11  12
ATOM     12  C   UNL     1     -15.768  -0.495   2.248  1.00  0.00     0.041 C 
ATOM     13  O   UNL     1     -16.207  -0.753   3.399  1.00  0.00    -0.550 OA
ATOM     14  O   UNL     1     -14.399  -0.365   2.046  1.00  0.00    -0.550 OA
ENDBRANCH  11  12
ENDBRANCH  10  11
ENDBRANCH   9  10
ENDBRANCH   8   9
ENDBRANCH   1   8
TORSDOF 9
ENDMDL
MODEL 2
REMARK VINA RESULT:    -4.214      0.880      6.451
REMARK INTER + INTRA:          -6.853
REMARK INTER:                  -6.468
REMARK INTRA:                  -0.385
REMARK UNBOUND:                -0.422
REMARK SMILES O=C([O-])CCCCCCCCC(=O)[O-]
REMARK SMILES IDX 7 1 6 2 5 3 4 4 2 5 1 6 3 7 8 8 9 9 10 10 11 11 12 12 13 13
REMARK SMILES IDX 14 14
REMARK H PARENT
REMARK Flexibility Score: inf
ROOT
ATOM      1  C   UNL     1     -16.802  -0.080  -2.281  1.00  0.00     0.000 C 
ENDROOT
BRANCH   1   2
ATOM      2  C   UNL     1     -16.797   0.493  -0.856  1.00  0.00     0.000 C 
BRANCH   2   3
ATOM      3  C   UNL     1     -16.372  -0.572   0.163  1.00  0.00     0.006 C 
BRANCH   3   4
ATOM      4  C   UNL     1     -17.078  -0.361   1.505  1.00  0.00     0.053 C 
BRANCH   4   5
ATOM      5  C   UNL     1     -16.115  -0.542   2.637  1.00  0.00     0.041 C 
ATOM      6  O   UNL     1     -16.527  -0.926   3.763  1.00  0.00    -0.550 OA
ATOM      7  O   UNL     1     -14.758  -0.333   2.434  1.00  0.00    -0.550 OA
ENDBRANCH   4   5
ENDBRANCH   3   4
ENDBRANCH   2   3
ENDBRANCH   1   2
BRANCH   1   8
ATOM      8  C   UNL     1     -16.932  -1.612  -2.302  1.00  0.00     0.000 C 
BRANCH   8   9
ATOM      9  C   UNL     1     -16.880  -2.191  -3.725  1.00  0.00     0.000 C 
BRANCH   9  10
ATOM     10  C   UNL     1     -16.035  -3.469  -3.765  1.00  0.00     0.006 C 
BRANCH  10  11
ATOM     11  C   UNL     1     -14.812  -3.291  -4.669  1.00  0.00     0.053 C 
BRANCH  11  12
ATOM     12  C   UNL     1     -13.649  -4.068  -4.136  1.00  0.00     0.041 C 
ATOM     13  O   UNL     1     -13.651  -4.476  -2.945  1.00  0.00    -0.550 OA
ATOM     14  O   UNL     1     -12.541  -4.300  -4.941  1.00  0.00    -0.550 OA
ENDBRANCH  11  12
ENDBRANCH  10  11
ENDBRANCH   9  10
ENDBRANCH   8   9
ENDBRANCH   1   8
TORSDOF 9
ENDMDL
MODEL 3
REMARK VINA RESULT:    -4.193      1.337      6.798
REMARK INTER + INTRA:          -6.821
REMARK INTER:                  -6.342
REMARK INTRA:                  -0.479
REMARK UNBOUND:                -0.422
REMARK SMILES O=C([O-])CCCCCCCCC(=O)[O-]
REMARK SMILES IDX 7 1 6 2 5 3 4 4 2 5 1 6 3 7 8 8 9 9 10 10 11 11 12 12 13 13
REMARK SMILES IDX 14 14
REMARK H PARENT
REMARK Flexibility Score: inf
ROOT
ATOM      1  C   UNL     1     -17.070  -1.580  -1.325  1.00  0.00     0.000 C 
ENDROOT
BRANCH   1   2
ATOM      2  C   UNL     1     -16.518  -0.151  -1.442  1.00  0.00     0.000 C 
BRANCH   2   3
ATOM      3  C   UNL     1     -16.243   0.446  -0.056  1.00  0.00     0.006 C 
BRANCH   3   4
ATOM      4  C   UNL     1     -16.724  -0.494   1.053  1.00  0.00     0.053 C 
BRANCH   4   5
ATOM      5  C   UNL     1     -15.798  -0.436   2.226  1.00  0.00     0.041 C 
ATOM      6  O   UNL     1     -14.551  -0.402   2.049  1.00  0.00    -0.550 OA
ATOM      7  O   UNL     1     -16.311  -0.371   3.515  1.00  0.00    -0.550 OA
ENDBRANCH   4   5
ENDBRANCH   3   4
ENDBRANCH   2   3
ENDBRANCH   1   2
BRANCH   1   8
ATOM      8  C   UNL     1     -16.775  -2.433  -2.569  1.00  0.00     0.000 C 
BRANCH   8   9
ATOM      9  C   UNL     1     -15.814  -3.595  -2.275  1.00  0.00     0.000 C 
BRANCH   9  10
ATOM     10  C   UNL     1     -14.813  -3.781  -3.422  1.00  0.00     0.006 C 
BRANCH  10  11
ATOM     11  C   UNL     1     -15.142  -2.851  -4.594  1.00  0.00     0.053 C 
BRANCH  11  12
ATOM     12  C   UNL     1     -14.972  -3.568  -5.896  1.00  0.00     0.041 C 
ATOM     13  O   UNL     1     -14.215  -4.572  -5.972  1.00  0.00    -0.550 OA
ATOM     14  O   UNL     1     -15.611  -3.100  -7.037  1.00  0.00    -0.550 OA
ENDBRANCH  11  12
ENDBRANCH  10  11
ENDBRANCH   9  10
ENDBRANCH   8   9
ENDBRANCH   1   8
TORSDOF 9
ENDMDL
MODEL 4
REMARK VINA RESULT:    -3.935      1.414      1.780
REMARK INTER + INTRA:          -6.427
REMARK INTER:                  -6.066
REMARK INTRA:                  -0.361
REMARK UNBOUND:                -0.422
REMARK SMILES O=C([O-])CCCCCCCCC(=O)[O-]
REMARK SMILES IDX 7 1 6 2 5 3 4 4 2 5 1 6 3 7 8 8 9 9 10 10 11 11 12 12 13 13
REMARK SMILES IDX 14 14
REMARK H PARENT
REMARK Flexibility Score: inf
ROOT
ATOM      1  C   UNL     1     -16.405  -1.953  -3.303  1.00  0.00     0.000 C 
ENDROOT
BRANCH   1   2
ATOM      2  C   UNL     1     -16.344  -3.404  -2.805  1.00  0.00     0.000 C 
BRANCH   2   3
ATOM      3  C   UNL     1     -14.998  -4.050  -3.158  1.00  0.00     0.006 C 
BRANCH   3   4
ATOM      4  C   UNL     1     -14.330  -3.321  -4.328  1.00  0.00     0.053 C 
BRANCH   4   5
ATOM      5  C   UNL     1     -14.798  -3.885  -5.632  1.00  0.00     0.041 C 
ATOM      6  O   UNL     1     -14.713  -5.121  -5.855  1.00  0.00    -0.550 OA
ATOM      7  O   UNL     1     -15.375  -3.053  -6.582  1.00  0.00    -0.550 OA
ENDBRANCH   4   5
ENDBRANCH   3   4
ENDBRANCH   2   3
ENDBRANCH   1   2
BRANCH   1   8
ATOM      8  C   UNL     1     -17.037  -1.000  -2.276  1.00  0.00     0.000 C 
BRANCH   8   9
ATOM      9  C   UNL     1     -16.885  -1.501  -0.831  1.00  0.00     0.000 C 
BRANCH   9  10
ATOM     10  C   UNL     1     -16.512  -0.351   0.111  1.00  0.00     0.006 C 
BRANCH  10  11
ATOM     11  C   UNL     1     -17.123  -0.559   1.500  1.00  0.00     0.053 C 
BRANCH  11  12
ATOM     12  C   UNL     1     -16.094  -0.340   2.564  1.00  0.00     0.041 C 
ATOM     13  O   UNL     1     -16.448  -0.071   3.742  1.00  0.00    -0.550 OA
ATOM     14  O   UNL     1     -14.743  -0.383   2.244  1.00  0.00    -0.550 OA
ENDBRANCH  11  12
ENDBRANCH  10  11
ENDBRANCH   9  10
ENDBRANCH   8   9
ENDBRANCH   1   8
TORSDOF 9
ENDMDL
MODEL 5
REMARK VINA RESULT:    -3.150      1.395      6.628
REMARK INTER + INTRA:          -5.229
REMARK INTER:                  -4.983
REMARK INTRA:                  -0.246
REMARK UNBOUND:                -0.422
REMARK SMILES O=C([O-])CCCCCCCCC(=O)[O-]
REMARK SMILES IDX 7 1 6 2 5 3 4 4 2 5 1 6 3 7 8 8 9 9 10 10 11 11 12 12 13 13
REMARK SMILES IDX 14 14
REMARK H PARENT
REMARK Flexibility Score: inf
ROOT
ATOM      1  C   UNL     1     -16.157  -1.858  -3.580  1.00  0.00     0.000 C 
ENDROOT
BRANCH   1   2
ATOM      2  C   UNL     1     -17.124  -1.185  -2.595  1.00  0.00     0.000 C 
BRANCH   2   3
ATOM      3  C   UNL     1     -16.739  -1.504  -1.144  1.00  0.00     0.006 C 
BRANCH   3   4
ATOM      4  C   UNL     1     -17.048  -0.322  -0.222  1.00  0.00     0.053 C 
BRANCH   4   5
ATOM      5  C   UNL     1     -16.165  -0.356   0.986  1.00  0.00     0.041 C 
ATOM      6  O   UNL     1     -15.153  -1.106   1.010  1.00  0.00    -0.550 OA
ATOM      7  O   UNL     1     -16.431   0.475   2.066  1.00  0.00    -0.550 OA
ENDBRANCH   4   5
ENDBRANCH   3   4
ENDBRANCH   2   3
ENDBRANCH   1   2
BRANCH   1   8
ATOM      8  C   UNL     1     -16.751  -3.122  -4.223  1.00  0.00     0.000 C 
BRANCH   8   9
ATOM      9  C   UNL     1     -16.020  -4.404  -3.793  1.00  0.00     0.000 C 
BRANCH   9  10
ATOM     10  C   UNL     1     -14.637  -4.078  -3.218  1.00  0.00     0.006 C 
BRANCH  10  11
ATOM     11  C   UNL     1     -13.587  -5.077  -3.714  1.00  0.00     0.053 C 
BRANCH  11  12
ATOM     12  C   UNL     1     -13.148  -4.731  -5.102  1.00  0.00     0.041 C 
ATOM     13  O   UNL     1     -11.931  -4.519  -5.347  1.00  0.00    -0.550 OA
ATOM     14  O   UNL     1     -14.088  -4.594  -6.115  1.00  0.00    -0.550 OA
ENDBRANCH  11  12
ENDBRANCH  10  11
ENDBRANCH   9  10
ENDBRANCH   8   9
ENDBRANCH   1   8
TORSDOF 9
ENDMDL
MODEL 6
REMARK VINA RESULT:    -2.964      2.599      3.198
REMARK INTER + INTRA:          -4.945
REMARK INTER:                  -4.652
REMARK INTRA:                  -0.293
REMARK UNBOUND:                -0.422
REMARK SMILES O=C([O-])CCCCCCCCC(=O)[O-]
REMARK SMILES IDX 7 1 6 2 5 3 4 4 2 5 1 6 3 7 8 8 9 9 10 10 11 11 12 12 13 13
REMARK SMILES IDX 14 14
REMARK H PARENT
REMARK Flexibility Score: inf
ROOT
ATOM      1  C   UNL     1     -16.251  -2.741  -4.392  1.00  0.00     0.000 C 
ENDROOT
BRANCH   1   2
ATOM      2  C   UNL     1     -16.726  -4.200  -4.430  1.00  0.00     0.000 C 
BRANCH   2   3
ATOM      3  C   UNL     1     -16.018  -4.979  -5.547  1.00  0.00     0.006 C 
BRANCH   3   4
ATOM      4  C   UNL     1     -15.304  -4.028  -6.512  1.00  0.00     0.053 C 
BRANCH   4   5
ATOM      5  C   UNL     1     -15.434  -4.517  -7.920  1.00  0.00     0.041 C 
ATOM      6  O   UNL     1     -16.547  -4.469  -8.507  1.00  0.00    -0.550 OA
ATOM      7  O   UNL     1     -14.316  -4.980  -8.601  1.00  0.00    -0.550 OA
ENDBRANCH   4   5
ENDBRANCH   3   4
ENDBRANCH   2   3
ENDBRANCH   1   2
BRANCH   1   8
ATOM      8  C   UNL     1     -17.125  -1.857  -3.487  1.00  0.00     0.000 C 
BRANCH   8   9
ATOM      9  C   UNL     1     -16.731  -1.954  -2.005  1.00  0.00     0.000 C 
BRANCH   9  10
ATOM     10  C   UNL     1     -17.026  -0.641  -1.272  1.00  0.00     0.006 C 
BRANCH  10  11
ATOM     11  C   UNL     1     -16.874  -0.811   0.242  1.00  0.00     0.053 C 
BRANCH  11  12
ATOM     12  C   UNL     1     -15.782   0.070   0.762  1.00  0.00     0.041 C 
ATOM     13  O   UNL     1     -15.410   1.075   0.101  1.00  0.00    -0.550 OA
ATOM     14  O   UNL     1     -15.139  -0.247   1.952  1.00  0.00    -0.550 OA
ENDBRANCH  11  12
ENDBRANCH  10  11
ENDBRANCH   9  10
ENDBRANCH   8   9
ENDBRANCH   1   8
TORSDOF 9
ENDMDL
MODEL 7
REMARK VINA RESULT:    -2.942      1.865      5.810
REMARK INTER + INTRA:          -4.911
REMARK INTER:                  -4.300
REMARK INTRA:                  -0.611
REMARK UNBOUND:                -0.422
REMARK SMILES O=C([O-])CCCCCCCCC(=O)[O-]
REMARK SMILES IDX 7 1 6 2 5 3 4 4 2 5 1 6 3 7 8 8 9 9 10 10 11 11 12 12 13 13
REMARK SMILES IDX 14 14
REMARK H PARENT
REMARK Flexibility Score: inf
ROOT
ATOM      1  C   UNL     1     -15.532  -2.137  -4.118  1.00  0.00     0.000 C 
ENDROOT
BRANCH   1   2
ATOM      2  C   UNL     1     -16.640  -1.801  -3.109  1.00  0.00     0.000 C 
BRANCH   2   3
ATOM      3  C   UNL     1     -16.065  -1.639  -1.696  1.00  0.00     0.006 C 
BRANCH   3   4
ATOM      4  C   UNL     1     -17.125  -1.106  -0.729  1.00  0.00     0.053 C 
BRANCH   4   5
ATOM      5  C   UNL     1     -16.486  -0.630   0.538  1.00  0.00     0.041 C 
ATOM      6  O   UNL     1     -17.123   0.115   1.328  1.00  0.00    -0.550 OA
ATOM      7  O   UNL     1     -15.204  -1.048   0.870  1.00  0.00    -0.550 OA
ENDBRANCH   4   5
ENDBRANCH   3   4
ENDBRANCH   2   3
ENDBRANCH   1   2
BRANCH   1   8
ATOM      8  C   UNL     1     -15.767  -3.479  -4.830  1.00  0.00     0.000 C 
BRANCH   8   9
ATOM      9  C   UNL     1     -14.481  -4.309  -4.967  1.00  0.00     0.000 C 
BRANCH   9  10
ATOM     10  C   UNL     1     -13.422  -3.849  -3.959  1.00  0.00     0.006 C 
BRANCH  10  11
ATOM     11  C   UNL     1     -12.879  -5.033  -3.153  1.00  0.00     0.053 C 
BRANCH  11  12
ATOM     12  C   UNL     1     -13.413  -5.004  -1.756  1.00  0.00     0.041 C 
ATOM     13  O   UNL     1     -12.625  -5.052  -0.776  1.00  0.00    -0.550 OA
ATOM     14  O   UNL     1     -14.785  -4.975  -1.536  1.00  0.00    -0.550 OA
ENDBRANCH  11  12
ENDBRANCH  10  11
ENDBRANCH   9  10
ENDBRANCH   8   9
ENDBRANCH   1   8
TORSDOF 9
ENDMDL
MODEL 8
REMARK VINA RESULT:    -2.735      2.182      6.858
REMARK INTER + INTRA:          -4.595
REMARK INTER:                  -4.154
REMARK INTRA:                  -0.442
REMARK UNBOUND:                -0.422
REMARK SMILES O=C([O-])CCCCCCCCC(=O)[O-]
REMARK SMILES IDX 7 1 6 2 5 3 4 4 2 5 1 6 3 7 8 8 9 9 10 10 11 11 12 12 13 13
REMARK SMILES IDX 14 14
REMARK H PARENT
REMARK Flexibility Score: inf
ROOT
ATOM      1  C   UNL     1     -15.903  -2.900  -2.819  1.00  0.00     0.000 C 
ENDROOT
BRANCH   1   2
ATOM      2  C   UNL     1     -17.125  -2.476  -1.990  1.00  0.00     0.000 C 
BRANCH   2   3
ATOM      3  C   UNL     1     -16.731  -1.455  -0.914  1.00  0.00     0.006 C 
BRANCH   3   4
ATOM      4  C   UNL     1     -16.619  -0.048  -1.507  1.00  0.00     0.053 C 
BRANCH   4   5
ATOM      5  C   UNL     1     -16.168   0.925  -0.464  1.00  0.00     0.041 C 
ATOM      6  O   UNL     1     -16.438   2.149  -0.580  1.00  0.00    -0.550 OA
ATOM      7  O   UNL     1     -15.491   0.474   0.662  1.00  0.00    -0.550 OA
ENDBRANCH   4   5
ENDBRANCH   3   4
ENDBRANCH   2   3
ENDBRANCH   1   2
BRANCH   1   8
ATOM      8  C   UNL     1     -15.161  -4.100  -2.208  1.00  0.00     0.000 C 
BRANCH   8   9
ATOM      9  C   UNL     1     -13.860  -4.433  -2.955  1.00  0.00     0.000 C 
BRANCH   9  10
ATOM     10  C   UNL     1     -13.765  -3.647  -4.267  1.00  0.00     0.006 C 
BRANCH  10  11
ATOM     11  C   UNL     1     -14.075  -4.544  -5.469  1.00  0.00     0.053 C 
BRANCH  11  12
ATOM     12  C   UNL     1     -14.942  -3.822  -6.452  1.00  0.00     0.041 C 
ATOM     13  O   UNL     1     -15.195  -2.599  -6.295  1.00  0.00    -0.550 OA
ATOM     14  O   UNL     1     -15.510  -4.512  -7.516  1.00  0.00    -0.550 OA
ENDBRANCH  11  12
ENDBRANCH  10  11
ENDBRANCH   9  10
ENDBRANCH   8   9
ENDBRANCH   1   8
TORSDOF 9
ENDMDL
