MODEL 1
REMARK VINA RESULT:    -4.656      0.000      0.000
REMARK INTER + INTRA:          -9.904
REMARK INTER:                  -8.195
REMARK INTRA:                  -1.709
REMARK UNBOUND:                -1.709
REMARK SMILES CCCCCCC=CCCCCCCCC(=O)[O-]
REMARK SMILES IDX 10 1 11 2 12 3 13 4 14 5 15 6 16 7 17 8 18 9 9 10 8 11 7 12
REMARK SMILES IDX 6 13 5 14 4 15 3 16 2 17 1 18
REMARK H PARENT
REMARK Flexibility Score: inf
ROOT
ATOM      1  C   UNL     1     -27.258  -5.366  26.222  1.00  0.00     0.004 C 
ENDROOT
BRANCH   1   2
ATOM      2  C   UNL     1     -27.545  -5.614  24.726  1.00  0.00     0.000 C 
BRANCH   2   3
ATOM      3  C   UNL     1     -27.685  -4.345  23.866  1.00  0.00     0.000 C 
BRANCH   3   4
ATOM      4  C   UNL     1     -29.069  -4.218  23.208  1.00  0.00     0.000 C 
BRANCH   4   5
ATOM      5  C   UNL     1     -29.037  -4.507  21.695  1.00  0.00     0.006 C 
BRANCH   5   6
ATOM      6  C   UNL     1     -30.087  -5.525  21.221  1.00  0.00     0.053 C 
BRANCH   6   7
ATOM      7  C   UNL     1     -29.855  -5.955  19.805  1.00  0.00     0.041 C 
ATOM      8  O   UNL     1     -30.657  -6.746  19.242  1.00  0.00    -0.550 OA
ATOM      9  O   UNL     1     -28.733  -5.508  19.117  1.00  0.00    -0.550 OA
ENDBRANCH   6   7
ENDBRANCH   5   6
ENDBRANCH   4   5
ENDBRANCH   3   4
ENDBRANCH   2   3
ENDBRANCH   1   2
BRANCH   1  10
ATOM     10  C   UNL     1     -28.212  -6.092  27.182  1.00  0.00     0.027 C 
BRANCH  10  11
ATOM     11  C   UNL     1     -29.132  -7.028  26.443  1.00  0.00    -0.031 C 
ATOM     12  C   UNL     1     -30.305  -7.420  26.963  1.00  0.00    -0.031 C 
BRANCH  12  13
ATOM     13  C   UNL     1     -31.194  -8.395  26.243  1.00  0.00     0.027 C 
BRANCH  13  14
ATOM     14  C   UNL     1     -31.212  -8.108  24.733  1.00  0.00     0.004 C 
BRANCH  14  15
ATOM     15  C   UNL     1     -31.255  -9.391  23.889  1.00  0.00     0.000 C 
BRANCH  15  16
ATOM     16  C   UNL     1     -29.932  -9.655  23.149  1.00  0.00    -0.000 C 
BRANCH  16  17
ATOM     17  C   UNL     1     -29.085  -8.384  22.988  1.00  0.00    -0.003 C 
ATOM     18  C   UNL     1     -27.748  -8.649  22.298  1.00  0.00     0.004 C 
ENDBRANCH  16  17
ENDBRANCH  15  16
ENDBRANCH  14  15
ENDBRANCH  13  14
ENDBRANCH  12  13
ENDBRANCH  10  11
ENDBRANCH   1  10
TORSDOF 13
ENDMDL
MODEL 2
REMARK VINA RESULT:    -4.346      3.070      6.813
REMARK INTER + INTRA:          -9.358
REMARK INTER:                  -7.417
REMARK INTRA:                  -1.941
REMARK UNBOUND:                -1.709
REMARK SMILES CCCCCCC=CCCCCCCCC(=O)[O-]
REMARK SMILES IDX 10 1 11 2 12 3 13 4 14 5 15 6 16 7 17 8 18 9 9 10 8 11 7 12
REMARK SMILES IDX 6 13 5 14 4 15 3 16 2 17 1 18
REMARK H PARENT
REMARK Flexibility Score: inf
ROOT
ATOM      1  C   UNL     1     -29.447  -9.232  20.079  1.00  0.00     0.004 C 
ENDROOT
BRANCH   1   2
ATOM      2  C   UNL     1     -28.167  -8.541  20.596  1.00  0.00     0.000 C 
BRANCH   2   3
ATOM      3  C   UNL     1     -27.864  -8.756  22.090  1.00  0.00     0.000 C 
BRANCH   3   4
ATOM      4  C   UNL     1     -29.128  -8.740  22.965  1.00  0.00     0.000 C 
BRANCH   4   5
ATOM      5  C   UNL     1     -29.178  -7.531  23.917  1.00  0.00     0.006 C 
BRANCH   5   6
ATOM      6  C   UNL     1     -28.049  -6.508  23.706  1.00  0.00     0.053 C 
BRANCH   6   7
ATOM      7  C   UNL     1     -27.899  -5.585  24.876  1.00  0.00     0.041 C 
ATOM      8  O   UNL     1     -28.104  -6.005  26.045  1.00  0.00    -0.550 OA
ATOM      9  O   UNL     1     -27.562  -4.253  24.671  1.00  0.00    -0.550 OA
ENDBRANCH   6   7
ENDBRANCH   5   6
ENDBRANCH   4   5
ENDBRANCH   3   4
ENDBRANCH   2   3
ENDBRANCH   1   2
BRANCH   1  10
ATOM     10  C   UNL     1     -29.300  -9.899  18.704  1.00  0.00     0.027 C 
BRANCH  10  11
ATOM     11  C   UNL     1     -28.991  -8.889  17.631  1.00  0.00    -0.031 C 
ATOM     12  C   UNL     1     -29.869  -7.933  17.288  1.00  0.00    -0.031 C 
BRANCH  12  13
ATOM     13  C   UNL     1     -29.575  -6.960  16.181  1.00  0.00     0.027 C 
BRANCH  13  14
ATOM     14  C   UNL     1     -29.421  -5.534  16.732  1.00  0.00     0.004 C 
BRANCH  14  15
ATOM     15  C   UNL     1     -30.003  -5.381  18.146  1.00  0.00     0.000 C 
BRANCH  15  16
ATOM     16  C   UNL     1     -28.918  -5.116  19.204  1.00  0.00    -0.000 C 
BRANCH  16  17
ATOM     17  C   UNL     1     -29.501  -4.950  20.616  1.00  0.00    -0.003 C 
ATOM     18  C   UNL     1     -30.708  -5.854  20.865  1.00  0.00     0.004 C 
ENDBRANCH  16  17
ENDBRANCH  15  16
ENDBRANCH  14  15
ENDBRANCH  13  14
ENDBRANCH  12  13
ENDBRANCH  10  11
ENDBRANCH   1  10
TORSDOF 13
ENDMDL
MODEL 3
REMARK VINA RESULT:    -4.326      2.551      5.531
REMARK INTER + INTRA:          -9.324
REMARK INTER:                  -8.236
REMARK INTRA:                  -1.088
REMARK UNBOUND:                -1.709
REMARK SMILES CCCCCCC=CCCCCCCCC(=O)[O-]
REMARK SMILES IDX 10 1 11 2 12 3 13 4 14 5 15 6 16 7 17 8 18 9 9 10 8 11 7 12
REMARK SMILES IDX 6 13 5 14 4 15 3 16 2 17 1 18
REMARK H PARENT
REMARK Flexibility Score: inf
ROOT
ATOM      1  C   UNL     1     -30.492  -9.364  21.319  1.00  0.00     0.004 C 
ENDROOT
BRANCH   1   2
ATOM      2  C   UNL     1     -30.661  -9.445  19.787  1.00  0.00     0.000 C 
BRANCH   2   3
ATOM      3  C   UNL     1     -29.488 -10.097  19.032  1.00  0.00     0.000 C 
BRANCH   3   4
ATOM      4  C   UNL     1     -28.841  -9.155  18.003  1.00  0.00     0.000 C 
BRANCH   4   5
ATOM      5  C   UNL     1     -29.811  -8.072  17.496  1.00  0.00     0.006 C 
BRANCH   5   6
ATOM      6  C   UNL     1     -29.391  -7.412  16.172  1.00  0.00     0.053 C 
BRANCH   6   7
ATOM      7  C   UNL     1     -29.880  -6.000  16.067  1.00  0.00     0.041 C 
ATOM      8  O   UNL     1     -30.769  -5.698  15.227  1.00  0.00    -0.550 OA
ATOM      9  O   UNL     1     -29.331  -5.011  16.875  1.00  0.00    -0.550 OA
ENDBRANCH   6   7
ENDBRANCH   5   6
ENDBRANCH   4   5
ENDBRANCH   3   4
ENDBRANCH   2   3
ENDBRANCH   1   2
BRANCH   1  10
ATOM     10  C   UNL     1     -29.078  -8.987  21.785  1.00  0.00     0.027 C 
BRANCH  10  11
ATOM     11  C   UNL     1     -28.874  -7.495  21.778  1.00  0.00    -0.031 C 
ATOM     12  C   UNL     1     -28.907  -6.774  22.909  1.00  0.00    -0.031 C 
BRANCH  12  13
ATOM     13  C   UNL     1     -28.755  -5.278  22.889  1.00  0.00     0.027 C 
BRANCH  13  14
ATOM     14  C   UNL     1     -27.993  -4.789  24.130  1.00  0.00     0.004 C 
BRANCH  14  15
ATOM     15  C   UNL     1     -27.548  -5.942  25.043  1.00  0.00     0.000 C 
BRANCH  15  16
ATOM     16  C   UNL     1     -27.251  -5.477  26.479  1.00  0.00    -0.000 C 
BRANCH  16  17
ATOM     17  C   UNL     1     -28.248  -6.046  27.500  1.00  0.00    -0.003 C 
ATOM     18  C   UNL     1     -29.270  -6.988  26.864  1.00  0.00     0.004 C 
ENDBRANCH  16  17
ENDBRANCH  15  16
ENDBRANCH  14  15
ENDBRANCH  13  14
ENDBRANCH  12  13
ENDBRANCH  10  11
ENDBRANCH   1  10
TORSDOF 13
ENDMDL
MODEL 4
REMARK VINA RESULT:    -4.275     10.625     13.237
REMARK INTER + INTRA:          -9.233
REMARK INTER:                  -7.239
REMARK INTRA:                  -1.994
REMARK UNBOUND:                -1.709
REMARK SMILES CCCCCCC=CCCCCCCCC(=O)[O-]
REMARK SMILES IDX 10 1 11 2 12 3 13 4 14 5 15 6 16 7 17 8 18 9 9 10 8 11 7 12
REMARK SMILES IDX 6 13 5 14 4 15 3 16 2 17 1 18
REMARK H PARENT
REMARK Flexibility Score: inf
ROOT
ATOM      1  C   UNL     1     -33.330   1.787  19.562  1.00  0.00     0.004 C 
ENDROOT
BRANCH   1   2
ATOM      2  C   UNL     1     -34.233   2.963  19.133  1.00  0.00     0.000 C 
BRANCH   2   3
ATOM      3  C   UNL     1     -35.730   2.788  19.449  1.00  0.00     0.000 C 
BRANCH   3   4
ATOM      4  C   UNL     1     -36.002   1.653  20.450  1.00  0.00     0.000 C 
BRANCH   4   5
ATOM      5  C   UNL     1     -36.980   0.598  19.902  1.00  0.00     0.006 C 
BRANCH   5   6
ATOM      6  C   UNL     1     -38.455   1.034  19.907  1.00  0.00     0.053 C 
BRANCH   6   7
ATOM      7  C   UNL     1     -39.067   0.934  21.271  1.00  0.00     0.041 C 
ATOM      8  O   UNL     1     -38.713   0.018  22.059  1.00  0.00    -0.550 OA
ATOM      9  O   UNL     1     -40.052   1.834  21.659  1.00  0.00    -0.550 OA
ENDBRANCH   6   7
ENDBRANCH   5   6
ENDBRANCH   4   5
ENDBRANCH   3   4
ENDBRANCH   2   3
ENDBRANCH   1   2
BRANCH   1  10
ATOM     10  C   UNL     1     -33.172   0.686  18.503  1.00  0.00     0.027 C 
BRANCH  10  11
ATOM     11  C   UNL     1     -33.667   1.141  17.156  1.00  0.00    -0.031 C 
ATOM     12  C   UNL     1     -34.658   0.502  16.515  1.00  0.00    -0.031 C 
BRANCH  12  13
ATOM     13  C   UNL     1     -35.112   0.930  15.147  1.00  0.00     0.027 C 
BRANCH  13  14
ATOM     14  C   UNL     1     -36.641   0.851  15.028  1.00  0.00     0.004 C 
BRANCH  14  15
ATOM     15  C   UNL     1     -37.362   1.633  16.138  1.00  0.00     0.000 C 
BRANCH  15  16
ATOM     16  C   UNL     1     -37.744   3.058  15.701  1.00  0.00    -0.000 C 
BRANCH  16  17
ATOM     17  C   UNL     1     -36.739   4.112  16.189  1.00  0.00    -0.003 C 
ATOM     18  C   UNL     1     -35.980   4.778  15.042  1.00  0.00     0.004 C 
ENDBRANCH  16  17
ENDBRANCH  15  16
ENDBRANCH  14  15
ENDBRANCH  13  14
ENDBRANCH  12  13
ENDBRANCH  10  11
ENDBRANCH   1  10
TORSDOF 13
ENDMDL
MODEL 5
REMARK VINA RESULT:    -4.217      2.416      5.037
REMARK INTER + INTRA:          -9.132
REMARK INTER:                  -7.498
REMARK INTRA:                  -1.634
REMARK UNBOUND:                -1.709
REMARK SMILES CCCCCCC=CCCCCCCCC(=O)[O-]
REMARK SMILES IDX 10 1 11 2 12 3 13 4 14 5 15 6 16 7 17 8 18 9 9 10 8 11 7 12
REMARK SMILES IDX 6 13 5 14 4 15 3 16 2 17 1 18
REMARK H PARENT
REMARK Flexibility Score: inf
ROOT
ATOM      1  C   UNL     1     -31.600  -8.971  23.701  1.00  0.00     0.004 C 
ENDROOT
BRANCH   1   2
ATOM      2  C   UNL     1     -30.861  -8.505  24.973  1.00  0.00     0.000 C 
BRANCH   2   3
ATOM      3  C   UNL     1     -29.809  -7.402  24.754  1.00  0.00     0.000 C 
BRANCH   3   4
ATOM      4  C   UNL     1     -29.195  -6.891  26.067  1.00  0.00     0.000 C 
BRANCH   4   5
ATOM      5  C   UNL     1     -28.036  -5.904  25.837  1.00  0.00     0.006 C 
BRANCH   5   6
ATOM      6  C   UNL     1     -27.515  -5.860  24.390  1.00  0.00     0.053 C 
BRANCH   6   7
ATOM      7  C   UNL     1     -27.943  -4.616  23.675  1.00  0.00     0.041 C 
ATOM      8  O   UNL     1     -27.419  -3.507  23.961  1.00  0.00    -0.550 OA
ATOM      9  O   UNL     1     -28.945  -4.676  22.714  1.00  0.00    -0.550 OA
ENDBRANCH   6   7
ENDBRANCH   5   6
ENDBRANCH   4   5
ENDBRANCH   3   4
ENDBRANCH   2   3
ENDBRANCH   1   2
BRANCH   1  10
ATOM     10  C   UNL     1     -31.764 -10.493  23.580  1.00  0.00     0.027 C 
BRANCH  10  11
ATOM     11  C   UNL     1     -31.390 -10.981  22.205  1.00  0.00    -0.031 C 
ATOM     12  C   UNL     1     -31.328 -10.148  21.155  1.00  0.00    -0.031 C 
BRANCH  12  13
ATOM     13  C   UNL     1     -31.005 -10.650  19.775  1.00  0.00     0.027 C 
BRANCH  13  14
ATOM     14  C   UNL     1     -29.562 -10.295  19.387  1.00  0.00     0.004 C 
BRANCH  14  15
ATOM     15  C   UNL     1     -29.382  -8.798  19.089  1.00  0.00     0.000 C 
BRANCH  15  16
ATOM     16  C   UNL     1     -28.208  -8.179  19.868  1.00  0.00    -0.000 C 
BRANCH  16  17
ATOM     17  C   UNL     1     -28.484  -8.091  21.376  1.00  0.00    -0.003 C 
ATOM     18  C   UNL     1     -27.476  -8.882  22.208  1.00  0.00     0.004 C 
ENDBRANCH  16  17
ENDBRANCH  15  16
ENDBRANCH  14  15
ENDBRANCH  13  14
ENDBRANCH  12  13
ENDBRANCH  10  11
ENDBRANCH   1  10
TORSDOF 13
ENDMDL
MODEL 6
REMARK VINA RESULT:    -4.217      2.009      2.840
REMARK INTER + INTRA:          -9.131
REMARK INTER:                  -7.274
REMARK INTRA:                  -1.857
REMARK UNBOUND:                -1.709
REMARK SMILES CCCCCCC=CCCCCCCCC(=O)[O-]
REMARK SMILES IDX 10 1 11 2 12 3 13 4 14 5 15 6 16 7 17 8 18 9 9 10 8 11 7 12
REMARK SMILES IDX 6 13 5 14 4 15 3 16 2 17 1 18
REMARK H PARENT
REMARK Flexibility Score: inf
ROOT
ATOM      1  C   UNL     1     -27.447  -5.530  26.285  1.00  0.00     0.004 C 
ENDROOT
BRANCH   1   2
ATOM      2  C   UNL     1     -27.552  -6.016  24.825  1.00  0.00     0.000 C 
BRANCH   2   3
ATOM      3  C   UNL     1     -28.059  -4.966  23.819  1.00  0.00     0.000 C 
BRANCH   3   4
ATOM      4  C   UNL     1     -28.970  -5.566  22.736  1.00  0.00     0.000 C 
BRANCH   4   5
ATOM      5  C   UNL     1     -29.447  -6.990  23.082  1.00  0.00     0.006 C 
BRANCH   5   6
ATOM      6  C   UNL     1     -29.571  -7.930  21.871  1.00  0.00     0.053 C 
BRANCH   6   7
ATOM      7  C   UNL     1     -28.233  -8.359  21.352  1.00  0.00     0.041 C 
ATOM      8  O   UNL     1     -27.963  -8.248  20.127  1.00  0.00    -0.550 OA
ATOM      9  O   UNL     1     -27.296  -8.912  22.217  1.00  0.00    -0.550 OA
ENDBRANCH   6   7
ENDBRANCH   5   6
ENDBRANCH   4   5
ENDBRANCH   3   4
ENDBRANCH   2   3
ENDBRANCH   1   2
BRANCH   1  10
ATOM     10  C   UNL     1     -28.364  -6.269  27.271  1.00  0.00     0.027 C 
BRANCH  10  11
ATOM     11  C   UNL     1     -29.457  -7.016  26.553  1.00  0.00    -0.031 C 
ATOM     12  C   UNL     1     -30.405  -7.692  27.219  1.00  0.00    -0.031 C 
BRANCH  12  13
ATOM     13  C   UNL     1     -31.462  -8.478  26.496  1.00  0.00     0.027 C 
BRANCH  13  14
ATOM     14  C   UNL     1     -32.267  -7.573  25.550  1.00  0.00     0.004 C 
BRANCH  14  15
ATOM     15  C   UNL     1     -32.998  -8.365  24.455  1.00  0.00     0.000 C 
BRANCH  15  16
ATOM     16  C   UNL     1     -33.084  -7.592  23.127  1.00  0.00    -0.000 C 
BRANCH  16  17
ATOM     17  C   UNL     1     -33.573  -6.148  23.318  1.00  0.00    -0.003 C 
ATOM     18  C   UNL     1     -32.688  -5.127  22.605  1.00  0.00     0.004 C 
ENDBRANCH  16  17
ENDBRANCH  15  16
ENDBRANCH  14  15
ENDBRANCH  13  14
ENDBRANCH  12  13
ENDBRANCH  10  11
ENDBRANCH   1  10
TORSDOF 13
ENDMDL
MODEL 7
REMARK VINA RESULT:    -4.207      2.120      5.269
REMARK INTER + INTRA:          -9.114
REMARK INTER:                  -7.678
REMARK INTRA:                  -1.437
REMARK UNBOUND:                -1.709
REMARK SMILES CCCCCCC=CCCCCCCCC(=O)[O-]
REMARK SMILES IDX 10 1 11 2 12 3 13 4 14 5 15 6 16 7 17 8 18 9 9 10 8 11 7 12
REMARK SMILES IDX 6 13 5 14 4 15 3 16 2 17 1 18
REMARK H PARENT
REMARK Flexibility Score: inf
ROOT
ATOM      1  C   UNL     1     -28.917  -9.098  18.352  1.00  0.00     0.004 C 
ENDROOT
BRANCH   1   2
ATOM      2  C   UNL     1     -29.461  -8.061  17.347  1.00  0.00     0.000 C 
BRANCH   2   3
ATOM      3  C   UNL     1     -30.444  -7.032  17.935  1.00  0.00     0.000 C 
BRANCH   3   4
ATOM      4  C   UNL     1     -29.953  -5.583  17.787  1.00  0.00     0.000 C 
BRANCH   4   5
ATOM      5  C   UNL     1     -29.421  -4.997  19.108  1.00  0.00     0.006 C 
BRANCH   5   6
ATOM      6  C   UNL     1     -30.429  -5.027  20.269  1.00  0.00     0.053 C 
BRANCH   6   7
ATOM      7  C   UNL     1     -29.978  -4.192  21.428  1.00  0.00     0.041 C 
ATOM      8  O   UNL     1     -28.818  -4.332  21.897  1.00  0.00    -0.550 OA
ATOM      9  O   UNL     1     -30.852  -3.282  22.010  1.00  0.00    -0.550 OA
ENDBRANCH   6   7
ENDBRANCH   5   6
ENDBRANCH   4   5
ENDBRANCH   3   4
ENDBRANCH   2   3
ENDBRANCH   1   2
BRANCH   1  10
ATOM     10  C   UNL     1     -28.222  -8.491  19.581  1.00  0.00     0.027 C 
BRANCH  10  11
ATOM     11  C   UNL     1     -28.909  -8.898  20.859  1.00  0.00    -0.031 C 
ATOM     12  C   UNL     1     -28.985  -8.071  21.912  1.00  0.00    -0.031 C 
BRANCH  12  13
ATOM     13  C   UNL     1     -29.625  -8.502  23.202  1.00  0.00     0.027 C 
BRANCH  13  14
ATOM     14  C   UNL     1     -30.117  -7.286  24.003  1.00  0.00     0.004 C 
BRANCH  14  15
ATOM     15  C   UNL     1     -29.241  -6.993  25.231  1.00  0.00     0.000 C 
BRANCH  15  16
ATOM     16  C   UNL     1     -28.083  -6.031  24.913  1.00  0.00    -0.000 C 
BRANCH  16  17
ATOM     17  C   UNL     1     -27.337  -5.572  26.175  1.00  0.00    -0.003 C 
ATOM     18  C   UNL     1     -28.095  -5.902  27.461  1.00  0.00     0.004 C 
ENDBRANCH  16  17
ENDBRANCH  15  16
ENDBRANCH  14  15
ENDBRANCH  13  14
ENDBRANCH  12  13
ENDBRANCH  10  11
ENDBRANCH   1  10
TORSDOF 13
ENDMDL
MODEL 8
REMARK VINA RESULT:    -4.183      4.085      7.653
REMARK INTER + INTRA:          -9.071
REMARK INTER:                  -8.052
REMARK INTRA:                  -1.019
REMARK UNBOUND:                -1.709
REMARK SMILES CCCCCCC=CCCCCCCCC(=O)[O-]
REMARK SMILES IDX 10 1 11 2 12 3 13 4 14 5 15 6 16 7 17 8 18 9 9 10 8 11 7 12
REMARK SMILES IDX 6 13 5 14 4 15 3 16 2 17 1 18
REMARK H PARENT
REMARK Flexibility Score: inf
ROOT
ATOM      1  C   UNL     1     -29.234  -9.025  20.066  1.00  0.00     0.004 C 
ENDROOT
BRANCH   1   2
ATOM      2  C   UNL     1     -27.927  -8.478  20.678  1.00  0.00     0.000 C 
BRANCH   2   3
ATOM      3  C   UNL     1     -27.761  -8.717  22.189  1.00  0.00     0.000 C 
BRANCH   3   4
ATOM      4  C   UNL     1     -29.081  -8.581  22.965  1.00  0.00     0.000 C 
BRANCH   4   5
ATOM      5  C   UNL     1     -29.076  -7.394  23.946  1.00  0.00     0.006 C 
BRANCH   5   6
ATOM      6  C   UNL     1     -28.825  -6.027  23.288  1.00  0.00     0.053 C 
BRANCH   6   7
ATOM      7  C   UNL     1     -27.865  -5.189  24.076  1.00  0.00     0.041 C 
ATOM      8  O   UNL     1     -27.604  -4.012  23.713  1.00  0.00    -0.550 OA
ATOM      9  O   UNL     1     -27.234  -5.721  25.194  1.00  0.00    -0.550 OA
ENDBRANCH   6   7
ENDBRANCH   5   6
ENDBRANCH   4   5
ENDBRANCH   3   4
ENDBRANCH   2   3
ENDBRANCH   1   2
BRANCH   1  10
ATOM     10  C   UNL     1     -29.061  -9.717  18.706  1.00  0.00     0.027 C 
BRANCH  10  11
ATOM     11  C   UNL     1     -29.188  -8.738  17.569  1.00  0.00    -0.031 C 
ATOM     12  C   UNL     1     -29.541  -7.460  17.775  1.00  0.00    -0.031 C 
BRANCH  12  13
ATOM     13  C   UNL     1     -29.717  -6.502  16.630  1.00  0.00     0.027 C 
BRANCH  13  14
ATOM     14  C   UNL     1     -30.481  -7.164  15.473  1.00  0.00     0.004 C 
BRANCH  14  15
ATOM     15  C   UNL     1     -29.770  -6.991  14.122  1.00  0.00     0.000 C 
BRANCH  15  16
ATOM     16  C   UNL     1     -28.240  -7.102  14.241  1.00  0.00    -0.000 C 
BRANCH  16  17
ATOM     17  C   UNL     1     -27.508  -5.997  13.465  1.00  0.00    -0.003 C 
ATOM     18  C   UNL     1     -27.886  -4.594  13.938  1.00  0.00     0.004 C 
ENDBRANCH  16  17
ENDBRANCH  15  16
ENDBRANCH  14  15
ENDBRANCH  13  14
ENDBRANCH  12  13
ENDBRANCH  10  11
ENDBRANCH   1  10
TORSDOF 13
ENDMDL
MODEL 9
REMARK VINA RESULT:    -4.161      2.401      5.904
REMARK INTER + INTRA:          -9.032
REMARK INTER:                  -7.171
REMARK INTRA:                  -1.861
REMARK UNBOUND:                -1.709
REMARK SMILES CCCCCCC=CCCCCCCCC(=O)[O-]
REMARK SMILES IDX 10 1 11 2 12 3 13 4 14 5 15 6 16 7 17 8 18 9 9 10 8 11 7 12
REMARK SMILES IDX 6 13 5 14 4 15 3 16 2 17 1 18
REMARK H PARENT
REMARK Flexibility Score: inf
ROOT
ATOM      1  C   UNL     1     -29.735  -7.124  19.050  1.00  0.00     0.004 C 
ENDROOT
BRANCH   1   2
ATOM      2  C   UNL     1     -28.744  -8.305  19.114  1.00  0.00     0.000 C 
BRANCH   2   3
ATOM      3  C   UNL     1     -28.790  -9.130  20.413  1.00  0.00     0.000 C 
BRANCH   3   4
ATOM      4  C   UNL     1     -28.016  -8.472  21.567  1.00  0.00     0.000 C 
BRANCH   4   5
ATOM      5  C   UNL     1     -28.904  -8.187  22.793  1.00  0.00     0.006 C 
BRANCH   5   6
ATOM      6  C   UNL     1     -30.414  -8.227  22.507  1.00  0.00     0.053 C 
BRANCH   6   7
ATOM      7  C   UNL     1     -31.113  -9.274  23.318  1.00  0.00     0.041 C 
ATOM      8  O   UNL     1     -32.027  -8.949  24.121  1.00  0.00    -0.550 OA
ATOM      9  O   UNL     1     -30.733 -10.606  23.210  1.00  0.00    -0.550 OA
ENDBRANCH   6   7
ENDBRANCH   5   6
ENDBRANCH   4   5
ENDBRANCH   3   4
ENDBRANCH   2   3
ENDBRANCH   1   2
BRANCH   1  10
ATOM     10  C   UNL     1     -29.093  -5.771  18.706  1.00  0.00     0.027 C 
BRANCH  10  11
ATOM     11  C   UNL     1     -28.874  -4.935  19.940  1.00  0.00    -0.031 C 
ATOM     12  C   UNL     1     -29.745  -4.945  20.961  1.00  0.00    -0.031 C 
BRANCH  12  13
ATOM     13  C   UNL     1     -29.547  -4.069  22.167  1.00  0.00     0.027 C 
BRANCH  13  14
ATOM     14  C   UNL     1     -28.103  -4.162  22.681  1.00  0.00     0.004 C 
BRANCH  14  15
ATOM     15  C   UNL     1     -28.022  -4.195  24.215  1.00  0.00     0.000 C 
BRANCH  15  16
ATOM     16  C   UNL     1     -27.554  -5.559  24.752  1.00  0.00    -0.000 C 
BRANCH  16  17
ATOM     17  C   UNL     1     -27.306  -5.541  26.268  1.00  0.00    -0.003 C 
ATOM     18  C   UNL     1     -28.405  -6.256  27.054  1.00  0.00     0.004 C 
ENDBRANCH  16  17
ENDBRANCH  15  16
ENDBRANCH  14  15
ENDBRANCH  13  14
ENDBRANCH  12  13
ENDBRANCH  10  11
ENDBRANCH   1  10
TORSDOF 13
ENDMDL
