MODEL 1
REMARK VINA RESULT:    -4.514      0.000      0.000
REMARK INTER + INTRA:          -4.514
REMARK INTER:                  -4.514
REMARK INTRA:                   0.000
REMARK UNBOUND:                 0.000
REMARK SMILES CC1=CC(=O)[C@@H]2C[C@H]1C2(C)C
REMARK SMILES IDX 1 1 2 2 3 3 4 4 5 5 6 6 7 7 8 8 9 9 10 10 11 11
REMARK H PARENT
REMARK Flexibility Score: inf
ROOT
ATOM      1  C   UNL     1       0.529   6.762  29.303  1.00  0.00     0.040 C 
ATOM      2  C   UNL     1       1.548   5.711  29.609  1.00  0.00    -0.066 C 
ATOM      3  C   UNL     1       2.057   4.910  28.631  1.00  0.00     0.047 C 
ATOM      4  C   UNL     1       3.094   3.917  29.060  1.00  0.00     0.159 C 
ATOM      5  O   UNL     1       3.668   3.149  28.244  1.00  0.00    -0.295 OA
ATOM      6  C   UNL     1       3.407   3.903  30.556  1.00  0.00     0.067 C 
ATOM      7  C   UNL     1       2.019   3.933  31.233  1.00  0.00     0.021 C 
ATOM      8  C   UNL     1       2.059   5.467  31.045  1.00  0.00     0.022 C 
ATOM      9  C   UNL     1       3.612   5.368  31.033  1.00  0.00    -0.019 C 
ATOM     10  C   UNL     1       4.219   5.446  32.458  1.00  0.00     0.012 C 
ATOM     11  C   UNL     1       4.403   6.341  30.113  1.00  0.00     0.012 C 
ENDROOT
TORSDOF 0
ENDMDL
MODEL 2
REMARK VINA RESULT:    -4.461      1.576      2.972
REMARK INTER + INTRA:          -4.461
REMARK INTER:                  -4.461
REMARK INTRA:                   0.000
REMARK UNBOUND:                 0.000
REMARK SMILES CC1=CC(=O)[C@@H]2C[C@H]1C2(C)C
REMARK SMILES IDX 1 1 2 2 3 3 4 4 5 5 6 6 7 7 8 8 9 9 10 10 11 11
REMARK H PARENT
REMARK Flexibility Score: inf
ROOT
ATOM      1  C   UNL     1       0.778   6.524  29.251  1.00  0.00     0.040 C 
ATOM      2  C   UNL     1       1.885   5.569  29.568  1.00  0.00    -0.066 C 
ATOM      3  C   UNL     1       1.834   4.763  30.665  1.00  0.00     0.047 C 
ATOM      4  C   UNL     1       2.990   3.829  30.856  1.00  0.00     0.159 C 
ATOM      5  O   UNL     1       3.041   3.007  31.808  1.00  0.00    -0.295 OA
ATOM      6  C   UNL     1       4.102   3.943  29.813  1.00  0.00     0.067 C 
ATOM      7  C   UNL     1       4.334   5.463  29.672  1.00  0.00     0.021 C 
ATOM      8  C   UNL     1       3.146   5.463  28.684  1.00  0.00     0.022 C 
ATOM      9  C   UNL     1       3.455   3.965  28.400  1.00  0.00    -0.019 C 
ATOM     10  C   UNL     1       4.501   3.782  27.269  1.00  0.00     0.012 C 
ATOM     11  C   UNL     1       2.262   3.008  28.118  1.00  0.00     0.012 C 
ENDROOT
TORSDOF 0
ENDMDL
MODEL 3
REMARK VINA RESULT:    -4.418      1.439      1.962
REMARK INTER + INTRA:          -4.418
REMARK INTER:                  -4.418
REMARK INTRA:                   0.000
REMARK UNBOUND:                 0.000
REMARK SMILES CC1=CC(=O)[C@@H]2C[C@H]1C2(C)C
REMARK SMILES IDX 1 1 2 2 3 3 4 4 5 5 6 6 7 7 8 8 9 9 10 10 11 11
REMARK H PARENT
REMARK Flexibility Score: inf
ROOT
ATOM      1  C   UNL     1       0.428   6.732  29.287  1.00  0.00     0.040 C 
ATOM      2  C   UNL     1       1.735   6.008  29.218  1.00  0.00    -0.066 C 
ATOM      3  C   UNL     1       2.830   6.575  28.641  1.00  0.00     0.047 C 
ATOM      4  C   UNL     1       4.088   5.760  28.662  1.00  0.00     0.159 C 
ATOM      5  O   UNL     1       5.175   6.190  28.196  1.00  0.00    -0.295 OA
ATOM      6  C   UNL     1       3.957   4.372  29.289  1.00  0.00     0.067 C 
ATOM      7  C   UNL     1       2.659   3.801  28.677  1.00  0.00     0.021 C 
ATOM      8  C   UNL     1       1.902   4.579  29.777  1.00  0.00     0.022 C 
ATOM      9  C   UNL     1       3.197   4.508  30.638  1.00  0.00    -0.019 C 
ATOM     10  C   UNL     1       3.269   3.214  31.490  1.00  0.00     0.012 C 
ATOM     11  C   UNL     1       3.534   5.716  31.558  1.00  0.00     0.012 C 
ENDROOT
TORSDOF 0
ENDMDL
MODEL 4
REMARK VINA RESULT:    -4.416     17.776     18.979
REMARK INTER + INTRA:          -4.416
REMARK INTER:                  -4.416
REMARK INTRA:                   0.000
REMARK UNBOUND:                 0.000
REMARK SMILES CC1=CC(=O)[C@@H]2C[C@H]1C2(C)C
REMARK SMILES IDX 1 1 2 2 3 3 4 4 5 5 6 6 7 7 8 8 9 9 10 10 11 11
REMARK H PARENT
REMARK Flexibility Score: inf
ROOT
ATOM      1  C   UNL     1     -10.106  -4.250  22.276  1.00  0.00     0.040 C 
ATOM      2  C   UNL     1      -9.526  -4.298  20.898  1.00  0.00    -0.066 C 
ATOM      3  C   UNL     1      -8.541  -5.180  20.573  1.00  0.00     0.047 C 
ATOM      4  C   UNL     1      -8.065  -5.151  19.152  1.00  0.00     0.159 C 
ATOM      5  O   UNL     1      -7.188  -5.943  18.720  1.00  0.00    -0.295 OA
ATOM      6  C   UNL     1      -8.722  -4.093  18.265  1.00  0.00     0.067 C 
ATOM      7  C   UNL     1      -8.704  -2.812  19.127  1.00  0.00     0.021 C 
ATOM      8  C   UNL     1     -10.000  -3.341  19.782  1.00  0.00     0.022 C 
ATOM      9  C   UNL     1     -10.261  -4.152  18.480  1.00  0.00    -0.019 C 
ATOM     10  C   UNL     1     -11.037  -3.330  17.419  1.00  0.00     0.012 C 
ATOM     11  C   UNL     1     -10.936  -5.547  18.606  1.00  0.00     0.012 C 
ENDROOT
TORSDOF 0
ENDMDL
MODEL 5
REMARK VINA RESULT:    -4.397      1.899      3.372
REMARK INTER + INTRA:          -4.397
REMARK INTER:                  -4.397
REMARK INTRA:                   0.000
REMARK UNBOUND:                 0.000
REMARK SMILES CC1=CC(=O)[C@@H]2C[C@H]1C2(C)C
REMARK SMILES IDX 1 1 2 2 3 3 4 4 5 5 6 6 7 7 8 8 9 9 10 10 11 11
REMARK H PARENT
REMARK Flexibility Score: inf
ROOT
ATOM      1  C   UNL     1       3.782   3.097  31.844  1.00  0.00     0.040 C 
ATOM      2  C   UNL     1       3.089   4.015  30.887  1.00  0.00    -0.066 C 
ATOM      3  C   UNL     1       1.993   4.733  31.260  1.00  0.00     0.047 C 
ATOM      4  C   UNL     1       1.409   5.639  30.220  1.00  0.00     0.159 C 
ATOM      5  O   UNL     1       0.421   6.383  30.455  1.00  0.00    -0.295 OA
ATOM      6  C   UNL     1       2.097   5.599  28.856  1.00  0.00     0.067 C 
ATOM      7  C   UNL     1       2.285   4.092  28.571  1.00  0.00     0.021 C 
ATOM      8  C   UNL     1       3.567   4.180  29.429  1.00  0.00     0.022 C 
ATOM      9  C   UNL     1       3.634   5.693  29.074  1.00  0.00    -0.019 C 
ATOM     10  C   UNL     1       4.403   5.956  27.753  1.00  0.00     0.012 C 
ATOM     11  C   UNL     1       4.168   6.679  30.152  1.00  0.00     0.012 C 
ENDROOT
TORSDOF 0
ENDMDL
MODEL 6
REMARK VINA RESULT:    -4.304      2.108      3.564
REMARK INTER + INTRA:          -4.304
REMARK INTER:                  -4.304
REMARK INTRA:                   0.000
REMARK UNBOUND:                 0.000
REMARK SMILES CC1=CC(=O)[C@@H]2C[C@H]1C2(C)C
REMARK SMILES IDX 1 1 2 2 3 3 4 4 5 5 6 6 7 7 8 8 9 9 10 10 11 11
REMARK H PARENT
REMARK Flexibility Score: inf
ROOT
ATOM      1  C   UNL     1       5.449   5.732  31.898  1.00  0.00     0.040 C 
ATOM      2  C   UNL     1       4.040   5.358  31.565  1.00  0.00    -0.066 C 
ATOM      3  C   UNL     1       2.983   6.055  32.068  1.00  0.00     0.047 C 
ATOM      4  C   UNL     1       1.623   5.601  31.635  1.00  0.00     0.159 C 
ATOM      5  O   UNL     1       0.570   6.187  32.000  1.00  0.00    -0.295 OA
ATOM      6  C   UNL     1       1.603   4.378  30.718  1.00  0.00     0.067 C 
ATOM      7  C   UNL     1       2.587   3.390  31.383  1.00  0.00     0.021 C 
ATOM      8  C   UNL     1       3.712   4.157  30.652  1.00  0.00     0.022 C 
ATOM      9  C   UNL     1       2.655   4.585  29.593  1.00  0.00    -0.019 C 
ATOM     10  C   UNL     1       2.511   3.547  28.450  1.00  0.00     0.012 C 
ATOM     11  C   UNL     1       2.785   5.997  28.953  1.00  0.00     0.012 C 
ENDROOT
TORSDOF 0
ENDMDL
MODEL 7
REMARK VINA RESULT:    -4.262      1.814      3.228
REMARK INTER + INTRA:          -4.262
REMARK INTER:                  -4.262
REMARK INTRA:                   0.000
REMARK UNBOUND:                 0.000
REMARK SMILES CC1=CC(=O)[C@@H]2C[C@H]1C2(C)C
REMARK SMILES IDX 1 1 2 2 3 3 4 4 5 5 6 6 7 7 8 8 9 9 10 10 11 11
REMARK H PARENT
REMARK Flexibility Score: inf
ROOT
ATOM      1  C   UNL     1       4.268   3.034  27.172  1.00  0.00     0.040 C 
ATOM      2  C   UNL     1       3.914   3.775  28.422  1.00  0.00    -0.066 C 
ATOM      3  C   UNL     1       4.867   4.138  29.325  1.00  0.00     0.047 C 
ATOM      4  C   UNL     1       4.389   4.903  30.522  1.00  0.00     0.159 C 
ATOM      5  O   UNL     1       5.177   5.328  31.406  1.00  0.00    -0.295 OA
ATOM      6  C   UNL     1       2.879   5.133  30.591  1.00  0.00     0.067 C 
ATOM      7  C   UNL     1       2.271   3.757  30.244  1.00  0.00     0.021 C 
ATOM      8  C   UNL     1       2.455   4.149  28.760  1.00  0.00     0.022 C 
ATOM      9  C   UNL     1       2.391   5.639  29.204  1.00  0.00    -0.019 C 
ATOM     10  C   UNL     1       0.938   6.179  29.251  1.00  0.00     0.012 C 
ATOM     11  C   UNL     1       3.270   6.671  28.443  1.00  0.00     0.012 C 
ENDROOT
TORSDOF 0
ENDMDL
MODEL 8
REMARK VINA RESULT:    -4.231      2.225      3.780
REMARK INTER + INTRA:          -4.231
REMARK INTER:                  -4.231
REMARK INTRA:                   0.000
REMARK UNBOUND:                 0.000
REMARK SMILES CC1=CC(=O)[C@@H]2C[C@H]1C2(C)C
REMARK SMILES IDX 1 1 2 2 3 3 4 4 5 5 6 6 7 7 8 8 9 9 10 10 11 11
REMARK H PARENT
REMARK Flexibility Score: inf
ROOT
ATOM      1  C   UNL     1       3.174   3.241  31.458  1.00  0.00     0.040 C 
ATOM      2  C   UNL     1       2.853   4.702  31.426  1.00  0.00    -0.066 C 
ATOM      3  C   UNL     1       3.775   5.638  31.784  1.00  0.00     0.047 C 
ATOM      4  C   UNL     1       3.342   7.069  31.680  1.00  0.00     0.159 C 
ATOM      5  O   UNL     1       4.116   8.027  31.945  1.00  0.00    -0.295 OA
ATOM      6  C   UNL     1       1.898   7.284  31.227  1.00  0.00     0.067 C 
ATOM      7  C   UNL     1       1.084   6.276  32.068  1.00  0.00     0.021 C 
ATOM      8  C   UNL     1       1.461   5.220  31.004  1.00  0.00     0.022 C 
ATOM      9  C   UNL     1       1.629   6.386  29.987  1.00  0.00    -0.019 C 
ATOM     10  C   UNL     1       0.298   6.744  29.276  1.00  0.00     0.012 C 
ATOM     11  C   UNL     1       2.740   6.265  28.907  1.00  0.00     0.012 C 
ENDROOT
TORSDOF 0
ENDMDL
MODEL 9
REMARK VINA RESULT:    -4.102      1.735      3.111
REMARK INTER + INTRA:          -4.102
REMARK INTER:                  -4.102
REMARK INTRA:                   0.000
REMARK UNBOUND:                 0.000
REMARK SMILES CC1=CC(=O)[C@@H]2C[C@H]1C2(C)C
REMARK SMILES IDX 1 1 2 2 3 3 4 4 5 5 6 6 7 7 8 8 9 9 10 10 11 11
REMARK H PARENT
REMARK Flexibility Score: inf
ROOT
ATOM      1  C   UNL     1       0.631   6.547  31.912  1.00  0.00     0.040 C 
ATOM      2  C   UNL     1       1.839   6.185  31.107  1.00  0.00    -0.066 C 
ATOM      3  C   UNL     1       3.097   6.435  31.565  1.00  0.00     0.047 C 
ATOM      4  C   UNL     1       4.225   5.998  30.679  1.00  0.00     0.159 C 
ATOM      5  O   UNL     1       5.432   6.138  31.009  1.00  0.00    -0.295 OA
ATOM      6  C   UNL     1       3.806   5.370  29.350  1.00  0.00     0.067 C 
ATOM      7  C   UNL     1       2.706   6.313  28.816  1.00  0.00     0.021 C 
ATOM      8  C   UNL     1       1.722   5.530  29.714  1.00  0.00     0.022 C 
ATOM      9  C   UNL     1       2.695   4.319  29.628  1.00  0.00    -0.019 C 
ATOM     10  C   UNL     1       2.411   3.421  28.396  1.00  0.00     0.012 C 
ATOM     11  C   UNL     1       2.840   3.402  30.875  1.00  0.00     0.012 C 
ENDROOT
TORSDOF 0
ENDMDL
