MODEL 1
REMARK VINA RESULT:    -4.762      0.000      0.000
REMARK INTER + INTRA:          -9.569
REMARK INTER:                  -8.103
REMARK INTRA:                  -1.466
REMARK UNBOUND:                -1.466
REMARK SMILES CCCCCCCCCCCCCC(=O)[O-]
REMARK SMILES IDX 8 1 9 2 10 3 11 4 12 5 13 6 14 7 15 8 16 9 7 10 6 11 5 12
REMARK SMILES IDX 4 13 3 14 2 15 1 16
REMARK H PARENT
REMARK Flexibility Score: inf
ROOT
ATOM      1  C   UNL     1     -25.642 -31.667 -10.707  1.00  0.00     0.000 C 
ENDROOT
BRANCH   1   2
ATOM      2  C   UNL     1     -24.133 -31.384 -10.820  1.00  0.00     0.000 C 
BRANCH   2   3
ATOM      3  C   UNL     1     -23.449 -32.222 -11.910  1.00  0.00     0.000 C 
BRANCH   3   4
ATOM      4  C   UNL     1     -24.272 -33.477 -12.235  1.00  0.00     0.000 C 
BRANCH   4   5
ATOM      5  C   UNL     1     -23.392 -34.682 -12.604  1.00  0.00     0.006 C 
BRANCH   5   6
ATOM      6  C   UNL     1     -22.046 -34.267 -13.213  1.00  0.00     0.053 C 
BRANCH   6   7
ATOM      7  C   UNL     1     -20.986 -35.262 -12.861  1.00  0.00     0.041 C 
ATOM      8  O   UNL     1     -21.057 -35.909 -11.783  1.00  0.00    -0.550 OA
ATOM      9  O   UNL     1     -19.894 -35.441 -13.700  1.00  0.00    -0.550 OA
ENDBRANCH   6   7
ENDBRANCH   5   6
ENDBRANCH   4   5
ENDBRANCH   3   4
ENDBRANCH   2   3
ENDBRANCH   1   2
BRANCH   1  10
ATOM     10  C   UNL     1     -26.539 -30.413 -10.690  1.00  0.00     0.000 C 
BRANCH  10  11
ATOM     11  C   UNL     1     -27.809 -30.502 -11.560  1.00  0.00    -0.000 C 
BRANCH  11  12
ATOM     12  C   UNL     1     -27.622 -31.180 -12.935  1.00  0.00    -0.000 C 
BRANCH  12  13
ATOM     13  C   UNL     1     -28.434 -32.475 -13.133  1.00  0.00    -0.000 C 
BRANCH  13  14
ATOM     14  C   UNL     1     -27.643 -33.599 -13.838  1.00  0.00    -0.000 C 
BRANCH  14  15
ATOM     15  C   UNL     1     -27.628 -34.922 -13.055  1.00  0.00    -0.003 C 
ATOM     16  C   UNL     1     -27.664 -34.714 -11.542  1.00  0.00     0.004 C 
ENDBRANCH  14  15
ENDBRANCH  13  14
ENDBRANCH  12  13
ENDBRANCH  11  12
ENDBRANCH  10  11
ENDBRANCH   1  10
TORSDOF 12
ENDMDL
MODEL 2
REMARK VINA RESULT:    -4.733      1.185      3.046
REMARK INTER + INTRA:          -9.519
REMARK INTER:                  -8.114
REMARK INTRA:                  -1.405
REMARK UNBOUND:                -1.466
REMARK SMILES CCCCCCCCCCCCCC(=O)[O-]
REMARK SMILES IDX 8 1 9 2 10 3 11 4 12 5 13 6 14 7 15 8 16 9 7 10 6 11 5 12
REMARK SMILES IDX 4 13 3 14 2 15 1 16
REMARK H PARENT
REMARK Flexibility Score: inf
ROOT
ATOM      1  C   UNL     1     -25.791 -35.062 -11.409  1.00  0.00     0.000 C 
ENDROOT
BRANCH   1   2
ATOM      2  C   UNL     1     -25.134 -35.626 -12.681  1.00  0.00     0.000 C 
BRANCH   2   3
ATOM      3  C   UNL     1     -23.600 -35.560 -12.641  1.00  0.00     0.000 C 
BRANCH   3   4
ATOM      4  C   UNL     1     -23.116 -34.105 -12.550  1.00  0.00     0.000 C 
BRANCH   4   5
ATOM      5  C   UNL     1     -21.588 -33.981 -12.662  1.00  0.00     0.006 C 
BRANCH   5   6
ATOM      6  C   UNL     1     -20.910 -35.316 -12.998  1.00  0.00     0.053 C 
BRANCH   6   7
ATOM      7  C   UNL     1     -19.946 -35.697 -11.919  1.00  0.00     0.041 C 
ATOM      8  O   UNL     1     -20.006 -35.141 -10.791  1.00  0.00    -0.550 OA
ATOM      9  O   UNL     1     -18.949 -36.630 -12.175  1.00  0.00    -0.550 OA
ENDBRANCH   6   7
ENDBRANCH   5   6
ENDBRANCH   4   5
ENDBRANCH   3   4
ENDBRANCH   2   3
ENDBRANCH   1   2
BRANCH   1  10
ATOM     10  C   UNL     1     -27.273 -34.667 -11.563  1.00  0.00     0.000 C 
BRANCH  10  11
ATOM     11  C   UNL     1     -27.809 -34.680 -13.008  1.00  0.00    -0.000 C 
BRANCH  11  12
ATOM     12  C   UNL     1     -27.812 -33.312 -13.725  1.00  0.00    -0.000 C 
BRANCH  12  13
ATOM     13  C   UNL     1     -28.094 -32.104 -12.810  1.00  0.00    -0.000 C 
BRANCH  13  14
ATOM     14  C   UNL     1     -27.014 -31.002 -12.890  1.00  0.00    -0.000 C 
BRANCH  14  15
ATOM     15  C   UNL     1     -25.691 -31.391 -12.211  1.00  0.00    -0.003 C 
ATOM     16  C   UNL     1     -25.788 -31.397 -10.686  1.00  0.00     0.004 C 
ENDBRANCH  14  15
ENDBRANCH  13  14
ENDBRANCH  12  13
ENDBRANCH  11  12
ENDBRANCH  10  11
ENDBRANCH   1  10
TORSDOF 12
ENDMDL
MODEL 3
REMARK VINA RESULT:    -4.684      1.063      3.213
REMARK INTER + INTRA:          -9.436
REMARK INTER:                  -7.903
REMARK INTRA:                  -1.533
REMARK UNBOUND:                -1.466
REMARK SMILES CCCCCCCCCCCCCC(=O)[O-]
REMARK SMILES IDX 8 1 9 2 10 3 11 4 12 5 13 6 14 7 15 8 16 9 7 10 6 11 5 12
REMARK SMILES IDX 4 13 3 14 2 15 1 16
REMARK H PARENT
REMARK Flexibility Score: inf
ROOT
ATOM      1  C   UNL     1     -27.475 -34.771 -13.250  1.00  0.00     0.000 C 
ENDROOT
BRANCH   1   2
ATOM      2  C   UNL     1     -27.134 -34.961 -11.761  1.00  0.00     0.000 C 
BRANCH   2   3
ATOM      3  C   UNL     1     -25.621 -34.990 -11.495  1.00  0.00     0.000 C 
BRANCH   3   4
ATOM      4  C   UNL     1     -24.871 -35.644 -12.664  1.00  0.00     0.000 C 
BRANCH   4   5
ATOM      5  C   UNL     1     -23.349 -35.675 -12.448  1.00  0.00     0.006 C 
BRANCH   5   6
ATOM      6  C   UNL     1     -22.679 -34.334 -12.774  1.00  0.00     0.053 C 
BRANCH   6   7
ATOM      7  C   UNL     1     -21.261 -34.551 -13.201  1.00  0.00     0.041 C 
ATOM      8  O   UNL     1     -20.818 -33.987 -14.235  1.00  0.00    -0.550 OA
ATOM      9  O   UNL     1     -20.444 -35.415 -12.483  1.00  0.00    -0.550 OA
ENDBRANCH   6   7
ENDBRANCH   5   6
ENDBRANCH   4   5
ENDBRANCH   3   4
ENDBRANCH   2   3
ENDBRANCH   1   2
BRANCH   1  10
ATOM     10  C   UNL     1     -27.650 -33.305 -13.695  1.00  0.00     0.000 C 
BRANCH  10  11
ATOM     11  C   UNL     1     -28.612 -32.466 -12.829  1.00  0.00    -0.000 C 
BRANCH  11  12
ATOM     12  C   UNL     1     -28.427 -30.936 -12.928  1.00  0.00    -0.000 C 
BRANCH  12  13
ATOM     13  C   UNL     1     -27.205 -30.383 -12.170  1.00  0.00    -0.000 C 
BRANCH  13  14
ATOM     14  C   UNL     1     -27.012 -31.006 -10.769  1.00  0.00    -0.000 C 
BRANCH  14  15
ATOM     15  C   UNL     1     -25.560 -31.421 -10.478  1.00  0.00    -0.003 C 
ATOM     16  C   UNL     1     -24.694 -31.464 -11.736  1.00  0.00     0.004 C 
ENDBRANCH  14  15
ENDBRANCH  13  14
ENDBRANCH  12  13
ENDBRANCH  11  12
ENDBRANCH  10  11
ENDBRANCH   1  10
TORSDOF 12
ENDMDL
MODEL 4
REMARK VINA RESULT:    -4.610      0.967      1.972
REMARK INTER + INTRA:          -9.309
REMARK INTER:                  -7.646
REMARK INTRA:                  -1.664
REMARK UNBOUND:                -1.466
REMARK SMILES CCCCCCCCCCCCCC(=O)[O-]
REMARK SMILES IDX 8 1 9 2 10 3 11 4 12 5 13 6 14 7 15 8 16 9 7 10 6 11 5 12
REMARK SMILES IDX 4 13 3 14 2 15 1 16
REMARK H PARENT
REMARK Flexibility Score: inf
ROOT
ATOM      1  C   UNL     1     -26.365 -30.869 -11.931  1.00  0.00     0.000 C 
ENDROOT
BRANCH   1   2
ATOM      2  C   UNL     1     -25.750 -31.372 -10.613  1.00  0.00     0.000 C 
BRANCH   2   3
ATOM      3  C   UNL     1     -24.221 -31.506 -10.680  1.00  0.00     0.000 C 
BRANCH   3   4
ATOM      4  C   UNL     1     -23.783 -32.128 -12.014  1.00  0.00     0.000 C 
BRANCH   4   5
ATOM      5  C   UNL     1     -22.456 -32.894 -11.903  1.00  0.00     0.006 C 
BRANCH   5   6
ATOM      6  C   UNL     1     -21.936 -33.378 -13.263  1.00  0.00     0.053 C 
BRANCH   6   7
ATOM      7  C   UNL     1     -21.305 -34.728 -13.129  1.00  0.00     0.041 C 
ATOM      8  O   UNL     1     -20.392 -35.082 -13.920  1.00  0.00    -0.550 OA
ATOM      9  O   UNL     1     -21.759 -35.615 -12.161  1.00  0.00    -0.550 OA
ENDBRANCH   6   7
ENDBRANCH   5   6
ENDBRANCH   4   5
ENDBRANCH   3   4
ENDBRANCH   2   3
ENDBRANCH   1   2
BRANCH   1  10
ATOM     10  C   UNL     1     -27.906 -30.853 -11.964  1.00  0.00     0.000 C 
BRANCH  10  11
ATOM     11  C   UNL     1     -28.553 -31.890 -12.905  1.00  0.00    -0.000 C 
BRANCH  11  12
ATOM     12  C   UNL     1     -27.577 -32.900 -13.547  1.00  0.00    -0.000 C 
BRANCH  12  13
ATOM     13  C   UNL     1     -27.763 -34.359 -13.087  1.00  0.00    -0.000 C 
BRANCH  13  14
ATOM     14  C   UNL     1     -27.393 -34.592 -11.605  1.00  0.00    -0.000 C 
BRANCH  14  15
ATOM     15  C   UNL     1     -25.908 -34.924 -11.389  1.00  0.00    -0.003 C 
ATOM     16  C   UNL     1     -25.252 -35.532 -12.627  1.00  0.00     0.004 C 
ENDBRANCH  14  15
ENDBRANCH  13  14
ENDBRANCH  12  13
ENDBRANCH  11  12
ENDBRANCH  10  11
ENDBRANCH   1  10
TORSDOF 12
ENDMDL
MODEL 5
REMARK VINA RESULT:    -4.604      1.820      3.866
REMARK INTER + INTRA:          -9.300
REMARK INTER:                  -7.517
REMARK INTRA:                  -1.783
REMARK UNBOUND:                -1.466
REMARK SMILES CCCCCCCCCCCCCC(=O)[O-]
REMARK SMILES IDX 8 1 9 2 10 3 11 4 12 5 13 6 14 7 15 8 16 9 7 10 6 11 5 12
REMARK SMILES IDX 4 13 3 14 2 15 1 16
REMARK H PARENT
REMARK Flexibility Score: inf
ROOT
ATOM      1  C   UNL     1     -28.522 -31.630 -13.104  1.00  0.00     0.000 C 
ENDROOT
BRANCH   1   2
ATOM      2  C   UNL     1     -28.138 -30.815 -11.857  1.00  0.00     0.000 C 
BRANCH   2   3
ATOM      3  C   UNL     1     -26.634 -30.514 -11.780  1.00  0.00     0.000 C 
BRANCH   3   4
ATOM      4  C   UNL     1     -26.028 -31.076 -10.486  1.00  0.00     0.000 C 
BRANCH   4   5
ATOM      5  C   UNL     1     -24.601 -31.613 -10.684  1.00  0.00     0.006 C 
BRANCH   5   6
ATOM      6  C   UNL     1     -24.208 -31.714 -12.164  1.00  0.00     0.053 C 
BRANCH   6   7
ATOM      7  C   UNL     1     -22.720 -31.694 -12.309  1.00  0.00     0.041 C 
ATOM      8  O   UNL     1     -22.183 -31.048 -13.248  1.00  0.00    -0.550 OA
ATOM      9  O   UNL     1     -21.926 -32.428 -11.438  1.00  0.00    -0.550 OA
ENDBRANCH   6   7
ENDBRANCH   5   6
ENDBRANCH   4   5
ENDBRANCH   3   4
ENDBRANCH   2   3
ENDBRANCH   1   2
BRANCH   1  10
ATOM     10  C   UNL     1     -27.395 -32.514 -13.676  1.00  0.00     0.000 C 
BRANCH  10  11
ATOM     11  C   UNL     1     -27.799 -33.968 -13.994  1.00  0.00    -0.000 C 
BRANCH  11  12
ATOM     12  C   UNL     1     -27.761 -34.942 -12.796  1.00  0.00    -0.000 C 
BRANCH  12  13
ATOM     13  C   UNL     1     -26.974 -34.432 -11.574  1.00  0.00    -0.000 C 
BRANCH  13  14
ATOM     14  C   UNL     1     -25.627 -35.158 -11.358  1.00  0.00    -0.000 C 
BRANCH  14  15
ATOM     15  C   UNL     1     -24.962 -35.616 -12.667  1.00  0.00    -0.003 C 
ATOM     16  C   UNL     1     -23.451 -35.390 -12.673  1.00  0.00     0.004 C 
ENDBRANCH  14  15
ENDBRANCH  13  14
ENDBRANCH  12  13
ENDBRANCH  11  12
ENDBRANCH  10  11
ENDBRANCH   1  10
TORSDOF 12
ENDMDL
MODEL 6
REMARK VINA RESULT:    -4.498      2.729      5.994
REMARK INTER + INTRA:          -9.119
REMARK INTER:                  -7.821
REMARK INTRA:                  -1.298
REMARK UNBOUND:                -1.466
REMARK SMILES CCCCCCCCCCCCCC(=O)[O-]
REMARK SMILES IDX 8 1 9 2 10 3 11 4 12 5 13 6 14 7 15 8 16 9 7 10 6 11 5 12
REMARK SMILES IDX 4 13 3 14 2 15 1 16
REMARK H PARENT
REMARK Flexibility Score: inf
ROOT
ATOM      1  C   UNL     1     -23.861 -31.857 -11.172  1.00  0.00     0.000 C 
ENDROOT
BRANCH   1   2
ATOM      2  C   UNL     1     -25.322 -32.229 -10.860  1.00  0.00     0.000 C 
BRANCH   2   3
ATOM      3  C   UNL     1     -26.223 -31.000 -10.670  1.00  0.00     0.000 C 
BRANCH   3   4
ATOM      4  C   UNL     1     -27.359 -30.988 -11.703  1.00  0.00     0.000 C 
BRANCH   4   5
ATOM      5  C   UNL     1     -27.131 -31.991 -12.845  1.00  0.00     0.006 C 
BRANCH   5   6
ATOM      6  C   UNL     1     -28.321 -32.939 -13.045  1.00  0.00     0.053 C 
BRANCH   6   7
ATOM      7  C   UNL     1     -27.914 -34.351 -12.763  1.00  0.00     0.041 C 
ATOM      8  O   UNL     1     -27.843 -35.189 -13.700  1.00  0.00    -0.550 OA
ATOM      9  O   UNL     1     -27.660 -34.755 -11.459  1.00  0.00    -0.550 OA
ENDBRANCH   6   7
ENDBRANCH   5   6
ENDBRANCH   4   5
ENDBRANCH   3   4
ENDBRANCH   2   3
ENDBRANCH   1   2
BRANCH   1  10
ATOM     10  C   UNL     1     -23.126 -32.839 -12.106  1.00  0.00     0.000 C 
BRANCH  10  11
ATOM     11  C   UNL     1     -23.932 -34.091 -12.508  1.00  0.00    -0.000 C 
BRANCH  11  12
ATOM     12  C   UNL     1     -23.102 -35.380 -12.696  1.00  0.00    -0.000 C 
BRANCH  12  13
ATOM     13  C   UNL     1     -21.639 -35.281 -12.222  1.00  0.00    -0.000 C 
BRANCH  13  14
ATOM     14  C   UNL     1     -20.608 -35.416 -13.364  1.00  0.00    -0.000 C 
BRANCH  14  15
ATOM     15  C   UNL     1     -19.992 -34.074 -13.795  1.00  0.00    -0.003 C 
ATOM     16  C   UNL     1     -20.738 -33.428 -14.960  1.00  0.00     0.004 C 
ENDBRANCH  14  15
ENDBRANCH  13  14
ENDBRANCH  12  13
ENDBRANCH  11  12
ENDBRANCH  10  11
ENDBRANCH   1  10
TORSDOF 12
ENDMDL
MODEL 7
REMARK VINA RESULT:    -4.488      2.588      5.869
REMARK INTER + INTRA:          -9.102
REMARK INTER:                  -7.801
REMARK INTRA:                  -1.301
REMARK UNBOUND:                -1.466
REMARK SMILES CCCCCCCCCCCCCC(=O)[O-]
REMARK SMILES IDX 8 1 9 2 10 3 11 4 12 5 13 6 14 7 15 8 16 9 7 10 6 11 5 12
REMARK SMILES IDX 4 13 3 14 2 15 1 16
REMARK H PARENT
REMARK Flexibility Score: inf
ROOT
ATOM      1  C   UNL     1     -27.257 -34.712 -11.635  1.00  0.00     0.000 C 
ENDROOT
BRANCH   1   2
ATOM      2  C   UNL     1     -27.547 -34.884 -13.137  1.00  0.00     0.000 C 
BRANCH   2   3
ATOM      3  C   UNL     1     -27.862 -33.555 -13.840  1.00  0.00     0.000 C 
BRANCH   3   4
ATOM      4  C   UNL     1     -28.557 -32.578 -12.880  1.00  0.00     0.000 C 
BRANCH   4   5
ATOM      5  C   UNL     1     -27.863 -31.208 -12.825  1.00  0.00     0.006 C 
BRANCH   5   6
ATOM      6  C   UNL     1     -26.342 -31.308 -13.007  1.00  0.00     0.053 C 
BRANCH   6   7
ATOM      7  C   UNL     1     -25.648 -31.124 -11.694  1.00  0.00     0.041 C 
ATOM      8  O   UNL     1     -26.278 -31.285 -10.616  1.00  0.00    -0.550 OA
ATOM      9  O   UNL     1     -24.318 -30.728 -11.661  1.00  0.00    -0.550 OA
ENDBRANCH   6   7
ENDBRANCH   5   6
ENDBRANCH   4   5
ENDBRANCH   3   4
ENDBRANCH   2   3
ENDBRANCH   1   2
BRANCH   1  10
ATOM     10  C   UNL     1     -25.788 -34.940 -11.226  1.00  0.00     0.000 C 
BRANCH  10  11
ATOM     11  C   UNL     1     -24.743 -34.574 -12.299  1.00  0.00    -0.000 C 
BRANCH  11  12
ATOM     12  C   UNL     1     -23.517 -35.509 -12.375  1.00  0.00    -0.000 C 
BRANCH  12  13
ATOM     13  C   UNL     1     -22.249 -34.864 -12.968  1.00  0.00    -0.000 C 
BRANCH  13  14
ATOM     14  C   UNL     1     -22.179 -33.334 -12.763  1.00  0.00    -0.000 C 
BRANCH  14  15
ATOM     15  C   UNL     1     -21.026 -32.665 -13.529  1.00  0.00    -0.003 C 
ATOM     16  C   UNL     1     -20.679 -33.392 -14.827  1.00  0.00     0.004 C 
ENDBRANCH  14  15
ENDBRANCH  13  14
ENDBRANCH  12  13
ENDBRANCH  11  12
ENDBRANCH  10  11
ENDBRANCH   1  10
TORSDOF 12
ENDMDL
MODEL 8
REMARK VINA RESULT:    -4.408      1.730      3.431
REMARK INTER + INTRA:          -8.966
REMARK INTER:                  -7.788
REMARK INTRA:                  -1.178
REMARK UNBOUND:                -1.466
REMARK SMILES CCCCCCCCCCCCCC(=O)[O-]
REMARK SMILES IDX 8 1 9 2 10 3 11 4 12 5 13 6 14 7 15 8 16 9 7 10 6 11 5 12
REMARK SMILES IDX 4 13 3 14 2 15 1 16
REMARK H PARENT
REMARK Flexibility Score: inf
ROOT
ATOM      1  C   UNL     1     -26.018 -34.833 -11.218  1.00  0.00     0.000 C 
ENDROOT
BRANCH   1   2
ATOM      2  C   UNL     1     -25.057 -35.345 -12.305  1.00  0.00     0.000 C 
BRANCH   2   3
ATOM      3  C   UNL     1     -23.851 -34.419 -12.521  1.00  0.00     0.000 C 
BRANCH   3   4
ATOM      4  C   UNL     1     -22.547 -35.225 -12.595  1.00  0.00     0.000 C 
BRANCH   4   5
ATOM      5  C   UNL     1     -21.426 -34.471 -13.328  1.00  0.00     0.006 C 
BRANCH   5   6
ATOM      6  C   UNL     1     -21.571 -32.948 -13.224  1.00  0.00     0.053 C 
BRANCH   6   7
ATOM      7  C   UNL     1     -20.802 -32.275 -14.317  1.00  0.00     0.041 C 
ATOM      8  O   UNL     1     -20.360 -31.108 -14.156  1.00  0.00    -0.550 OA
ATOM      9  O   UNL     1     -20.617 -32.919 -15.534  1.00  0.00    -0.550 OA
ENDBRANCH   6   7
ENDBRANCH   5   6
ENDBRANCH   4   5
ENDBRANCH   3   4
ENDBRANCH   2   3
ENDBRANCH   1   2
BRANCH   1  10
ATOM     10  C   UNL     1     -27.501 -34.773 -11.636  1.00  0.00     0.000 C 
BRANCH  10  11
ATOM     11  C   UNL     1     -27.758 -34.849 -13.154  1.00  0.00    -0.000 C 
BRANCH  11  12
ATOM     12  C   UNL     1     -27.789 -33.492 -13.889  1.00  0.00    -0.000 C 
BRANCH  12  13
ATOM     13  C   UNL     1     -28.295 -32.309 -13.041  1.00  0.00    -0.000 C 
BRANCH  13  14
ATOM     14  C   UNL     1     -27.173 -31.348 -12.588  1.00  0.00    -0.000 C 
BRANCH  14  15
ATOM     15  C   UNL     1     -27.242 -30.985 -11.096  1.00  0.00    -0.003 C 
ATOM     16  C   UNL     1     -25.958 -31.328 -10.343  1.00  0.00     0.004 C 
ENDBRANCH  14  15
ENDBRANCH  13  14
ENDBRANCH  12  13
ENDBRANCH  11  12
ENDBRANCH  10  11
ENDBRANCH   1  10
TORSDOF 12
ENDMDL
MODEL 9
REMARK VINA RESULT:    -4.392      3.202      6.116
REMARK INTER + INTRA:          -8.939
REMARK INTER:                  -7.595
REMARK INTRA:                  -1.344
REMARK UNBOUND:                -1.466
REMARK SMILES CCCCCCCCCCCCCC(=O)[O-]
REMARK SMILES IDX 8 1 9 2 10 3 11 4 12 5 13 6 14 7 15 8 16 9 7 10 6 11 5 12
REMARK SMILES IDX 4 13 3 14 2 15 1 16
REMARK H PARENT
REMARK Flexibility Score: inf
ROOT
ATOM      1  C   UNL     1     -24.940 -34.337 -11.855  1.00  0.00     0.000 C 
ENDROOT
BRANCH   1   2
ATOM      2  C   UNL     1     -26.427 -34.735 -11.876  1.00  0.00     0.000 C 
BRANCH   2   3
ATOM      3  C   UNL     1     -26.938 -35.063 -13.287  1.00  0.00     0.000 C 
BRANCH   3   4
ATOM      4  C   UNL     1     -27.846 -33.943 -13.815  1.00  0.00     0.000 C 
BRANCH   4   5
ATOM      5  C   UNL     1     -28.473 -33.108 -12.687  1.00  0.00     0.006 C 
BRANCH   5   6
ATOM      6  C   UNL     1     -28.590 -31.621 -13.047  1.00  0.00     0.053 C 
BRANCH   6   7
ATOM      7  C   UNL     1     -27.593 -30.817 -12.273  1.00  0.00     0.041 C 
ATOM      8  O   UNL     1     -26.810 -30.032 -12.870  1.00  0.00    -0.550 OA
ATOM      9  O   UNL     1     -27.495 -30.972 -10.896  1.00  0.00    -0.550 OA
ENDBRANCH   6   7
ENDBRANCH   5   6
ENDBRANCH   4   5
ENDBRANCH   3   4
ENDBRANCH   2   3
ENDBRANCH   1   2
BRANCH   1  10
ATOM     10  C   UNL     1     -24.652 -32.877 -12.260  1.00  0.00     0.000 C 
BRANCH  10  11
ATOM     11  C   UNL     1     -23.615 -32.146 -11.384  1.00  0.00    -0.000 C 
BRANCH  11  12
ATOM     12  C   UNL     1     -22.413 -31.546 -12.145  1.00  0.00    -0.000 C 
BRANCH  12  13
ATOM     13  C   UNL     1     -21.251 -32.527 -12.393  1.00  0.00    -0.000 C 
BRANCH  13  14
ATOM     14  C   UNL     1     -21.273 -33.170 -13.798  1.00  0.00    -0.000 C 
BRANCH  14  15
ATOM     15  C   UNL     1     -21.042 -34.690 -13.780  1.00  0.00    -0.003 C 
ATOM     16  C   UNL     1     -21.368 -35.321 -12.428  1.00  0.00     0.004 C 
ENDBRANCH  14  15
ENDBRANCH  13  14
ENDBRANCH  12  13
ENDBRANCH  11  12
ENDBRANCH  10  11
ENDBRANCH   1  10
TORSDOF 12
ENDMDL
