MODEL 1
REMARK VINA RESULT:    -5.108      0.000      0.000
REMARK INTER + INTRA:          -7.559
REMARK INTER:                  -7.199
REMARK INTRA:                  -0.361
REMARK UNBOUND:                -0.361
REMARK SMILES CCCCCCCCC(=O)[O-]
REMARK SMILES IDX 6 1 7 2 8 3 9 4 10 5 11 6 5 7 4 8 3 9 2 10 1 11
REMARK H PARENT
REMARK Flexibility Score: inf
ROOT
ATOM      1  C   UNL     1     -13.107  -0.597 -10.346  1.00  0.00     0.000 C 
ENDROOT
BRANCH   1   2
ATOM      2  C   UNL     1     -11.691  -0.261  -9.853  1.00  0.00     0.006 C 
BRANCH   2   3
ATOM      3  C   UNL     1     -10.644  -1.276 -10.329  1.00  0.00     0.053 C 
BRANCH   3   4
ATOM      4  C   UNL     1     -10.538  -2.410  -9.358  1.00  0.00     0.041 C 
ATOM      5  O   UNL     1     -10.335  -2.181  -8.136  1.00  0.00    -0.550 OA
ATOM      6  O   UNL     1     -10.612  -3.722  -9.809  1.00  0.00    -0.550 OA
ENDBRANCH   3   4
ENDBRANCH   2   3
ENDBRANCH   1   2
BRANCH   1   7
ATOM      7  C   UNL     1     -14.139   0.471  -9.954  1.00  0.00     0.000 C 
BRANCH   7   8
ATOM      8  C   UNL     1     -13.447   1.776  -9.538  1.00  0.00    -0.000 C 
BRANCH   8   9
ATOM      9  C   UNL     1     -14.456   2.771  -8.952  1.00  0.00    -0.000 C 
BRANCH   9  10
ATOM     10  C   UNL     1     -13.740   3.930  -8.250  1.00  0.00    -0.003 C 
ATOM     11  C   UNL     1     -12.254   3.952  -8.598  1.00  0.00     0.004 C 
ENDBRANCH   9  10
ENDBRANCH   8   9
ENDBRANCH   7   8
ENDBRANCH   1   7
TORSDOF 7
ENDMDL
MODEL 2
REMARK VINA RESULT:    -4.923      1.031      1.510
REMARK INTER + INTRA:          -7.299
REMARK INTER:                  -7.013
REMARK INTRA:                  -0.285
REMARK UNBOUND:                -0.361
REMARK SMILES CCCCCCCCC(=O)[O-]
REMARK SMILES IDX 6 1 7 2 8 3 9 4 10 5 11 6 5 7 4 8 3 9 2 10 1 11
REMARK H PARENT
REMARK Flexibility Score: inf
ROOT
ATOM      1  C   UNL     1     -12.093  -0.647 -10.393  1.00  0.00     0.000 C 
ENDROOT
BRANCH   1   2
ATOM      2  C   UNL     1     -10.683  -1.130 -10.019  1.00  0.00     0.006 C 
BRANCH   2   3
ATOM      3  C   UNL     1     -10.675  -2.018  -8.768  1.00  0.00     0.053 C 
BRANCH   3   4
ATOM      4  C   UNL     1     -10.357  -3.433  -9.134  1.00  0.00     0.041 C 
ATOM      5  O   UNL     1     -10.023  -3.723 -10.314  1.00  0.00    -0.550 OA
ATOM      6  O   UNL     1     -10.476  -4.441  -8.186  1.00  0.00    -0.550 OA
ENDBRANCH   3   4
ENDBRANCH   2   3
ENDBRANCH   1   2
BRANCH   1   7
ATOM      7  C   UNL     1     -12.500   0.630  -9.643  1.00  0.00     0.000 C 
BRANCH   7   8
ATOM      8  C   UNL     1     -14.015   0.856  -9.727  1.00  0.00    -0.000 C 
BRANCH   8   9
ATOM      9  C   UNL     1     -14.382   2.287  -9.316  1.00  0.00    -0.000 C 
BRANCH   9  10
ATOM     10  C   UNL     1     -13.124   3.124  -9.056  1.00  0.00    -0.003 C 
ATOM     11  C   UNL     1     -13.386   4.203  -8.009  1.00  0.00     0.004 C 
ENDBRANCH   9  10
ENDBRANCH   8   9
ENDBRANCH   7   8
ENDBRANCH   1   7
TORSDOF 7
ENDMDL
MODEL 3
REMARK VINA RESULT:    -4.828      3.033      5.747
REMARK INTER + INTRA:          -7.165
REMARK INTER:                  -6.962
REMARK INTRA:                  -0.203
REMARK UNBOUND:                -0.361
REMARK SMILES CCCCCCCCC(=O)[O-]
REMARK SMILES IDX 6 1 7 2 8 3 9 4 10 5 11 6 5 7 4 8 3 9 2 10 1 11
REMARK H PARENT
REMARK Flexibility Score: inf
ROOT
ATOM      1  C   UNL     1     -13.871   0.966  -9.676  1.00  0.00     0.000 C 
ENDROOT
BRANCH   1   2
ATOM      2  C   UNL     1     -14.048   2.442  -9.288  1.00  0.00     0.006 C 
BRANCH   2   3
ATOM      3  C   UNL     1     -12.765   3.262  -9.482  1.00  0.00     0.053 C 
BRANCH   3   4
ATOM      4  C   UNL     1     -12.258   3.756  -8.165  1.00  0.00     0.041 C 
ATOM      5  O   UNL     1     -11.028   3.701  -7.898  1.00  0.00    -0.550 OA
ATOM      6  O   UNL     1     -13.148   4.233  -7.210  1.00  0.00    -0.550 OA
ENDBRANCH   3   4
ENDBRANCH   2   3
ENDBRANCH   1   2
BRANCH   1   7
ATOM      7  C   UNL     1     -12.398   0.530  -9.687  1.00  0.00     0.000 C 
BRANCH   7   8
ATOM      8  C   UNL     1     -12.231  -0.816 -10.402  1.00  0.00    -0.000 C 
BRANCH   8   9
ATOM      9  C   UNL     1     -10.978  -1.550  -9.908  1.00  0.00    -0.000 C 
BRANCH   9  10
ATOM     10  C   UNL     1     -11.302  -3.001  -9.535  1.00  0.00    -0.003 C 
ATOM     11  C   UNL     1     -10.070  -3.893  -9.668  1.00  0.00     0.004 C 
ENDBRANCH   9  10
ENDBRANCH   8   9
ENDBRANCH   7   8
ENDBRANCH   1   7
TORSDOF 7
ENDMDL
MODEL 4
REMARK VINA RESULT:    -4.658      1.790      2.811
REMARK INTER + INTRA:          -6.924
REMARK INTER:                  -6.622
REMARK INTRA:                  -0.302
REMARK UNBOUND:                -0.361
REMARK SMILES CCCCCCCCC(=O)[O-]
REMARK SMILES IDX 6 1 7 2 8 3 9 4 10 5 11 6 5 7 4 8 3 9 2 10 1 11
REMARK H PARENT
REMARK Flexibility Score: inf
ROOT
ATOM      1  C   UNL     1     -11.013  -1.228  -9.668  1.00  0.00     0.000 C 
ENDROOT
BRANCH   1   2
ATOM      2  C   UNL     1     -11.366  -2.716  -9.517  1.00  0.00     0.006 C 
BRANCH   2   3
ATOM      3  C   UNL     1     -10.244  -3.641 -10.005  1.00  0.00     0.053 C 
BRANCH   3   4
ATOM      4  C   UNL     1      -9.449  -4.155  -8.847  1.00  0.00     0.041 C 
ATOM      5  O   UNL     1      -8.375  -3.586  -8.513  1.00  0.00    -0.550 OA
ATOM      6  O   UNL     1      -9.866  -5.291  -8.165  1.00  0.00    -0.550 OA
ENDBRANCH   3   4
ENDBRANCH   2   3
ENDBRANCH   1   2
BRANCH   1   7
ATOM      7  C   UNL     1     -12.126  -0.422 -10.354  1.00  0.00     0.000 C 
BRANCH   7   8
ATOM      8  C   UNL     1     -13.446  -1.204 -10.357  1.00  0.00    -0.000 C 
BRANCH   8   9
ATOM      9  C   UNL     1     -14.621  -0.299 -10.745  1.00  0.00    -0.000 C 
BRANCH   9  10
ATOM     10  C   UNL     1     -15.123   0.499  -9.536  1.00  0.00    -0.003 C 
ATOM     11  C   UNL     1     -14.663   1.953  -9.606  1.00  0.00     0.004 C 
ENDBRANCH   9  10
ENDBRANCH   8   9
ENDBRANCH   7   8
ENDBRANCH   1   7
TORSDOF 7
ENDMDL
MODEL 5
REMARK VINA RESULT:    -4.589      2.061      3.530
REMARK INTER + INTRA:          -6.828
REMARK INTER:                  -6.455
REMARK INTRA:                  -0.373
REMARK UNBOUND:                -0.361
REMARK SMILES CCCCCCCCC(=O)[O-]
REMARK SMILES IDX 6 1 7 2 8 3 9 4 10 5 11 6 5 7 4 8 3 9 2 10 1 11
REMARK H PARENT
REMARK Flexibility Score: inf
ROOT
ATOM      1  C   UNL     1     -11.258  -2.520  -9.643  1.00  0.00     0.000 C 
ENDROOT
BRANCH   1   2
ATOM      2  C   UNL     1      -9.968  -3.310  -9.908  1.00  0.00     0.006 C 
BRANCH   2   3
ATOM      3  C   UNL     1      -9.304  -3.808  -8.617  1.00  0.00     0.053 C 
BRANCH   3   4
ATOM      4  C   UNL     1     -10.058  -4.973  -8.058  1.00  0.00     0.041 C 
ATOM      5  O   UNL     1     -10.400  -5.926  -8.808  1.00  0.00    -0.550 OA
ATOM      6  O   UNL     1     -10.428  -4.985  -6.719  1.00  0.00    -0.550 OA
ENDBRANCH   3   4
ENDBRANCH   2   3
ENDBRANCH   1   2
BRANCH   1   7
ATOM      7  C   UNL     1     -11.005  -1.016  -9.465  1.00  0.00     0.000 C 
BRANCH   7   8
ATOM      8  C   UNL     1     -12.083  -0.190 -10.177  1.00  0.00    -0.000 C 
BRANCH   8   9
ATOM      9  C   UNL     1     -13.346  -1.025 -10.419  1.00  0.00    -0.000 C 
BRANCH   9  10
ATOM     10  C   UNL     1     -14.595  -0.136 -10.457  1.00  0.00    -0.003 C 
ATOM     11  C   UNL     1     -14.396   1.129  -9.626  1.00  0.00     0.004 C 
ENDBRANCH   9  10
ENDBRANCH   8   9
ENDBRANCH   7   8
ENDBRANCH   1   7
TORSDOF 7
ENDMDL
MODEL 6
REMARK VINA RESULT:    -4.316      2.837      4.782
REMARK INTER + INTRA:          -6.443
REMARK INTER:                  -6.117
REMARK INTRA:                  -0.326
REMARK UNBOUND:                -0.361
REMARK SMILES CCCCCCCCC(=O)[O-]
REMARK SMILES IDX 6 1 7 2 8 3 9 4 10 5 11 6 5 7 4 8 3 9 2 10 1 11
REMARK H PARENT
REMARK Flexibility Score: inf
ROOT
ATOM      1  C   UNL     1     -10.475  -3.702  -7.587  1.00  0.00     0.000 C 
ENDROOT
BRANCH   1   2
ATOM      2  C   UNL     1      -9.600  -4.723  -8.331  1.00  0.00     0.006 C 
BRANCH   2   3
ATOM      3  C   UNL     1     -10.383  -5.971  -8.759  1.00  0.00     0.053 C 
BRANCH   3   4
ATOM      4  C   UNL     1     -11.085  -6.575  -7.585  1.00  0.00     0.041 C 
ATOM      5  O   UNL     1     -12.344  -6.603  -7.544  1.00  0.00    -0.550 OA
ATOM      6  O   UNL     1     -10.352  -7.064  -6.511  1.00  0.00    -0.550 OA
ENDBRANCH   3   4
ENDBRANCH   2   3
ENDBRANCH   1   2
BRANCH   1   7
ATOM      7  C   UNL     1     -10.398  -2.297  -8.203  1.00  0.00     0.000 C 
BRANCH   7   8
ATOM      8  C   UNL     1     -10.891  -2.307  -9.655  1.00  0.00    -0.000 C 
BRANCH   8   9
ATOM      9  C   UNL     1     -10.939  -0.887 -10.231  1.00  0.00    -0.000 C 
BRANCH   9  10
ATOM     10  C   UNL     1     -12.374  -0.350 -10.252  1.00  0.00    -0.003 C 
ATOM     11  C   UNL     1     -12.486   0.958  -9.475  1.00  0.00     0.004 C 
ENDBRANCH   9  10
ENDBRANCH   8   9
ENDBRANCH   7   8
ENDBRANCH   1   7
TORSDOF 7
ENDMDL
MODEL 7
REMARK VINA RESULT:    -4.260      3.121      6.287
REMARK INTER + INTRA:          -6.364
REMARK INTER:                  -6.142
REMARK INTRA:                  -0.222
REMARK UNBOUND:                -0.361
REMARK SMILES CCCCCCCCC(=O)[O-]
REMARK SMILES IDX 6 1 7 2 8 3 9 4 10 5 11 6 5 7 4 8 3 9 2 10 1 11
REMARK H PARENT
REMARK Flexibility Score: inf
ROOT
ATOM      1  C   UNL     1     -11.045  -1.113 -10.078  1.00  0.00     0.000 C 
ENDROOT
BRANCH   1   2
ATOM      2  C   UNL     1     -12.413  -0.489 -10.395  1.00  0.00     0.006 C 
BRANCH   2   3
ATOM      3  C   UNL     1     -12.691   0.774  -9.569  1.00  0.00     0.053 C 
BRANCH   3   4
ATOM      4  C   UNL     1     -14.143   1.129  -9.630  1.00  0.00     0.041 C 
ATOM      5  O   UNL     1     -14.962   0.354 -10.192  1.00  0.00    -0.550 OA
ATOM      6  O   UNL     1     -14.587   2.339  -9.111  1.00  0.00    -0.550 OA
ENDBRANCH   3   4
ENDBRANCH   2   3
ENDBRANCH   1   2
BRANCH   1   7
ATOM      7  C   UNL     1     -11.165  -2.480  -9.387  1.00  0.00     0.000 C 
BRANCH   7   8
ATOM      8  C   UNL     1      -9.922  -3.339  -9.651  1.00  0.00    -0.000 C 
BRANCH   8   9
ATOM      9  C   UNL     1      -9.954  -4.626  -8.818  1.00  0.00    -0.000 C 
BRANCH   9  10
ATOM     10  C   UNL     1     -10.593  -4.377  -7.446  1.00  0.00    -0.003 C 
ATOM     11  C   UNL     1     -10.776  -5.684  -6.679  1.00  0.00     0.004 C 
ENDBRANCH   9  10
ENDBRANCH   8   9
ENDBRANCH   7   8
ENDBRANCH   1   7
TORSDOF 7
ENDMDL
MODEL 8
REMARK VINA RESULT:    -4.251      3.343      6.518
REMARK INTER + INTRA:          -6.351
REMARK INTER:                  -6.024
REMARK INTRA:                  -0.327
REMARK UNBOUND:                -0.361
REMARK SMILES CCCCCCCCC(=O)[O-]
REMARK SMILES IDX 6 1 7 2 8 3 9 4 10 5 11 6 5 7 4 8 3 9 2 10 1 11
REMARK H PARENT
REMARK Flexibility Score: inf
ROOT
ATOM      1  C   UNL     1      -9.929  -3.204  -8.388  1.00  0.00     0.000 C 
ENDROOT
BRANCH   1   2
ATOM      2  C   UNL     1     -10.591  -1.824  -8.518  1.00  0.00     0.006 C 
BRANCH   2   3
ATOM      3  C   UNL     1     -10.913  -1.458  -9.974  1.00  0.00     0.053 C 
BRANCH   3   4
ATOM      4  C   UNL     1     -12.023  -0.457 -10.027  1.00  0.00     0.041 C 
ATOM      5  O   UNL     1     -13.027  -0.662 -10.761  1.00  0.00    -0.550 OA
ATOM      6  O   UNL     1     -11.930   0.726  -9.306  1.00  0.00    -0.550 OA
ENDBRANCH   3   4
ENDBRANCH   2   3
ENDBRANCH   1   2
BRANCH   1   7
ATOM      7  C   UNL     1     -10.802  -4.334  -8.954  1.00  0.00     0.000 C 
BRANCH   7   8
ATOM      8  C   UNL     1     -11.044  -5.420  -7.898  1.00  0.00    -0.000 C 
BRANCH   8   9
ATOM      9  C   UNL     1     -10.953  -4.840  -6.481  1.00  0.00    -0.000 C 
BRANCH   9  10
ATOM     10  C   UNL     1     -11.503  -5.829  -5.446  1.00  0.00    -0.003 C 
ATOM     11  C   UNL     1     -12.788  -6.486  -5.940  1.00  0.00     0.004 C 
ENDBRANCH   9  10
ENDBRANCH   8   9
ENDBRANCH   7   8
ENDBRANCH   1   7
TORSDOF 7
ENDMDL
MODEL 9
REMARK VINA RESULT:    -4.154      4.905      7.663
REMARK INTER + INTRA:          -6.215
REMARK INTER:                  -5.598
REMARK INTRA:                  -0.617
REMARK UNBOUND:                -0.361
REMARK SMILES CCCCCCCCC(=O)[O-]
REMARK SMILES IDX 6 1 7 2 8 3 9 4 10 5 11 6 5 7 4 8 3 9 2 10 1 11
REMARK H PARENT
REMARK Flexibility Score: inf
ROOT
ATOM      1  C   UNL     1     -11.028  -6.976  -8.882  1.00  0.00     0.000 C 
ENDROOT
BRANCH   1   2
ATOM      2  C   UNL     1     -10.348  -5.643  -8.533  1.00  0.00     0.006 C 
BRANCH   2   3
ATOM      3  C   UNL     1     -11.271  -4.436  -8.744  1.00  0.00     0.053 C 
BRANCH   3   4
ATOM      4  C   UNL     1     -10.470  -3.220  -9.086  1.00  0.00     0.041 C 
ATOM      5  O   UNL     1     -10.375  -2.271  -8.263  1.00  0.00    -0.550 OA
ATOM      6  O   UNL     1      -9.868  -3.110 -10.334  1.00  0.00    -0.550 OA
ENDBRANCH   3   4
ENDBRANCH   2   3
ENDBRANCH   1   2
BRANCH   1   7
ATOM      7  C   UNL     1     -10.948  -7.999  -7.738  1.00  0.00     0.000 C 
BRANCH   7   8
ATOM      8  C   UNL     1     -10.566  -7.317  -6.419  1.00  0.00    -0.000 C 
BRANCH   8   9
ATOM      9  C   UNL     1     -11.706  -7.416  -5.398  1.00  0.00    -0.000 C 
BRANCH   9  10
ATOM     10  C   UNL     1     -12.721  -6.284  -5.595  1.00  0.00    -0.003 C 
ATOM     11  C   UNL     1     -14.119  -6.837  -5.856  1.00  0.00     0.004 C 
ENDBRANCH   9  10
ENDBRANCH   8   9
ENDBRANCH   7   8
ENDBRANCH   1   7
TORSDOF 7
ENDMDL
