MODEL 1
REMARK VINA RESULT:    -4.148      0.000      0.000
REMARK INTER + INTRA:          -9.351
REMARK INTER:                  -7.543
REMARK INTRA:                  -1.808
REMARK UNBOUND:                -1.808
REMARK SMILES CCCCCCCCCCCCCCCC(=O)[O-]
REMARK SMILES IDX 9 1 10 2 11 3 12 4 13 5 14 6 15 7 16 8 17 9 18 10 8 11 7 12
REMARK SMILES IDX 6 13 5 14 4 15 3 16 2 17 1 18
REMARK H PARENT
REMARK Flexibility Score: inf
ROOT
ATOM      1  C   UNL     1      -0.738   4.009   4.726  1.00  0.00     0.000 C 
ENDROOT
BRANCH   1   2
ATOM      2  C   UNL     1      -0.318   5.039   5.790  1.00  0.00     0.000 C 
BRANCH   2   3
ATOM      3  C   UNL     1       1.193   5.024   6.072  1.00  0.00     0.000 C 
BRANCH   3   4
ATOM      4  C   UNL     1       1.628   3.795   6.886  1.00  0.00     0.000 C 
BRANCH   4   5
ATOM      5  C   UNL     1       3.027   3.289   6.500  1.00  0.00     0.000 C 
BRANCH   5   6
ATOM      6  C   UNL     1       3.173   1.794   6.808  1.00  0.00     0.006 C 
BRANCH   6   7
ATOM      7  C   UNL     1       1.830   1.071   6.670  1.00  0.00     0.053 C 
BRANCH   7   8
ATOM      8  C   UNL     1       2.034  -0.411   6.643  1.00  0.00     0.041 C 
ATOM      9  O   UNL     1       2.313  -0.992   5.561  1.00  0.00    -0.550 OA
ATOM     10  O   UNL     1       1.869  -1.157   7.803  1.00  0.00    -0.550 OA
ENDBRANCH   7   8
ENDBRANCH   6   7
ENDBRANCH   5   6
ENDBRANCH   4   5
ENDBRANCH   3   4
ENDBRANCH   2   3
ENDBRANCH   1   2
BRANCH   1  11
ATOM     11  C   UNL     1      -1.547   2.805   5.255  1.00  0.00     0.000 C 
BRANCH  11  12
ATOM     12  C   UNL     1      -1.829   2.817   6.767  1.00  0.00    -0.000 C 
BRANCH  12  13
ATOM     13  C   UNL     1      -3.314   2.612   7.099  1.00  0.00    -0.000 C 
BRANCH  13  14
ATOM     14  C   UNL     1      -4.206   3.174   5.982  1.00  0.00    -0.000 C 
BRANCH  14  15
ATOM     15  C   UNL     1      -5.168   4.266   6.477  1.00  0.00    -0.000 C 
BRANCH  15  16
ATOM     16  C   UNL     1      -5.035   5.626   5.763  1.00  0.00    -0.000 C 
BRANCH  16  17
ATOM     17  C   UNL     1      -3.663   6.304   5.958  1.00  0.00    -0.003 C 
ATOM     18  C   UNL     1      -3.391   6.675   7.417  1.00  0.00     0.004 C 
ENDBRANCH  16  17
ENDBRANCH  15  16
ENDBRANCH  14  15
ENDBRANCH  13  14
ENDBRANCH  12  13
ENDBRANCH  11  12
ENDBRANCH   1  11
TORSDOF 14
ENDMDL
MODEL 2
REMARK VINA RESULT:    -4.113      2.888      6.683
REMARK INTER + INTRA:          -9.286
REMARK INTER:                  -7.221
REMARK INTRA:                  -2.065
REMARK UNBOUND:                -1.808
REMARK SMILES CCCCCCCCCCCCCCCC(=O)[O-]
REMARK SMILES IDX 9 1 10 2 11 3 12 4 13 5 14 6 15 7 16 8 17 9 18 10 8 11 7 12
REMARK SMILES IDX 6 13 5 14 4 15 3 16 2 17 1 18
REMARK H PARENT
REMARK Flexibility Score: inf
ROOT
ATOM      1  C   UNL     1       3.023   3.933   7.762  1.00  0.00     0.000 C 
ENDROOT
BRANCH   1   2
ATOM      2  C   UNL     1       1.620   4.474   7.426  1.00  0.00     0.000 C 
BRANCH   2   3
ATOM      3  C   UNL     1       1.262   4.321   5.938  1.00  0.00     0.000 C 
BRANCH   3   4
ATOM      4  C   UNL     1      -0.016   5.086   5.559  1.00  0.00     0.000 C 
BRANCH   4   5
ATOM      5  C   UNL     1      -1.019   4.219   4.781  1.00  0.00     0.000 C 
BRANCH   5   6
ATOM      6  C   UNL     1      -1.029   2.781   5.313  1.00  0.00     0.006 C 
BRANCH   6   7
ATOM      7  C   UNL     1      -1.918   2.661   6.555  1.00  0.00     0.053 C 
BRANCH   7   8
ATOM      8  C   UNL     1      -3.360   2.797   6.181  1.00  0.00     0.041 C 
ATOM      9  O   UNL     1      -3.928   1.896   5.510  1.00  0.00    -0.550 OA
ATOM     10  O   UNL     1      -4.064   3.942   6.533  1.00  0.00    -0.550 OA
ENDBRANCH   7   8
ENDBRANCH   6   7
ENDBRANCH   5   6
ENDBRANCH   4   5
ENDBRANCH   3   4
ENDBRANCH   2   3
ENDBRANCH   1   2
BRANCH   1  11
ATOM     11  C   UNL     1       3.988   3.812   6.563  1.00  0.00     0.000 C 
BRANCH  11  12
ATOM     12  C   UNL     1       4.831   2.525   6.526  1.00  0.00    -0.000 C 
BRANCH  12  13
ATOM     13  C   UNL     1       4.822   1.767   7.861  1.00  0.00    -0.000 C 
BRANCH  13  14
ATOM     14  C   UNL     1       4.990   0.257   7.632  1.00  0.00    -0.000 C 
BRANCH  14  15
ATOM     15  C   UNL     1       3.669  -0.518   7.762  1.00  0.00    -0.000 C 
BRANCH  15  16
ATOM     16  C   UNL     1       2.769  -0.487   6.511  1.00  0.00    -0.000 C 
BRANCH  16  17
ATOM     17  C   UNL     1       1.612   0.531   6.597  1.00  0.00    -0.003 C 
ATOM     18  C   UNL     1       1.163   0.792   8.035  1.00  0.00     0.004 C 
ENDBRANCH  16  17
ENDBRANCH  15  16
ENDBRANCH  14  15
ENDBRANCH  13  14
ENDBRANCH  12  13
ENDBRANCH  11  12
ENDBRANCH   1  11
TORSDOF 14
ENDMDL
MODEL 3
REMARK VINA RESULT:    -4.074     12.937     14.943
REMARK INTER + INTRA:          -9.217
REMARK INTER:                  -7.236
REMARK INTRA:                  -1.981
REMARK UNBOUND:                -1.808
REMARK SMILES CCCCCCCCCCCCCCCC(=O)[O-]
REMARK SMILES IDX 9 1 10 2 11 3 12 4 13 5 14 6 15 7 16 8 17 9 18 10 8 11 7 12
REMARK SMILES IDX 6 13 5 14 4 15 3 16 2 17 1 18
REMARK H PARENT
REMARK Flexibility Score: inf
ROOT
ATOM      1  C   UNL     1      -3.436   0.181  -6.809  1.00  0.00     0.000 C 
ENDROOT
BRANCH   1   2
ATOM      2  C   UNL     1      -4.893  -0.049  -7.252  1.00  0.00     0.000 C 
BRANCH   2   3
ATOM      3  C   UNL     1      -5.149  -1.486  -7.737  1.00  0.00     0.000 C 
BRANCH   3   4
ATOM      4  C   UNL     1      -6.282  -2.176  -6.961  1.00  0.00     0.000 C 
BRANCH   4   5
ATOM      5  C   UNL     1      -6.095  -3.698  -6.863  1.00  0.00     0.000 C 
BRANCH   5   6
ATOM      6  C   UNL     1      -4.747  -4.044  -6.219  1.00  0.00     0.006 C 
BRANCH   6   7
ATOM      7  C   UNL     1      -4.822  -3.930  -4.693  1.00  0.00     0.053 C 
BRANCH   7   8
ATOM      8  C   UNL     1      -4.797  -5.288  -4.066  1.00  0.00     0.041 C 
ATOM      9  O   UNL     1      -4.520  -5.416  -2.844  1.00  0.00    -0.550 OA
ATOM     10  O   UNL     1      -5.033  -6.417  -4.840  1.00  0.00    -0.550 OA
ENDBRANCH   7   8
ENDBRANCH   6   7
ENDBRANCH   5   6
ENDBRANCH   4   5
ENDBRANCH   3   4
ENDBRANCH   2   3
ENDBRANCH   1   2
BRANCH   1  11
ATOM     11  C   UNL     1      -3.030  -0.510  -5.489  1.00  0.00     0.000 C 
BRANCH  11  12
ATOM     12  C   UNL     1      -2.075  -1.708  -5.642  1.00  0.00    -0.000 C 
BRANCH  12  13
ATOM     13  C   UNL     1      -1.276  -1.671  -6.952  1.00  0.00    -0.000 C 
BRANCH  13  14
ATOM     14  C   UNL     1      -0.367  -2.903  -7.072  1.00  0.00    -0.000 C 
BRANCH  14  15
ATOM     15  C   UNL     1       0.650  -3.009  -5.924  1.00  0.00    -0.000 C 
BRANCH  15  16
ATOM     16  C   UNL     1       0.781  -4.411  -5.295  1.00  0.00    -0.000 C 
BRANCH  16  17
ATOM     17  C   UNL     1      -0.569  -5.057  -4.919  1.00  0.00    -0.003 C 
ATOM     18  C   UNL     1      -1.108  -4.555  -3.579  1.00  0.00     0.004 C 
ENDBRANCH  16  17
ENDBRANCH  15  16
ENDBRANCH  14  15
ENDBRANCH  13  14
ENDBRANCH  12  13
ENDBRANCH  11  12
ENDBRANCH   1  11
TORSDOF 14
ENDMDL
MODEL 4
REMARK VINA RESULT:    -4.050      2.962      6.992
REMARK INTER + INTRA:          -9.172
REMARK INTER:                  -7.420
REMARK INTRA:                  -1.752
REMARK UNBOUND:                -1.808
REMARK SMILES CCCCCCCCCCCCCCCC(=O)[O-]
REMARK SMILES IDX 9 1 10 2 11 3 12 4 13 5 14 6 15 7 16 8 17 9 18 10 8 11 7 12
REMARK SMILES IDX 6 13 5 14 4 15 3 16 2 17 1 18
REMARK H PARENT
REMARK Flexibility Score: inf
ROOT
ATOM      1  C   UNL     1       1.405   1.319   7.831  1.00  0.00     0.000 C 
ENDROOT
BRANCH   1   2
ATOM      2  C   UNL     1       1.083   2.824   7.772  1.00  0.00     0.000 C 
BRANCH   2   3
ATOM      3  C   UNL     1       1.129   3.388   6.342  1.00  0.00     0.000 C 
BRANCH   3   4
ATOM      4  C   UNL     1       0.526   4.798   6.246  1.00  0.00     0.000 C 
BRANCH   4   5
ATOM      5  C   UNL     1      -0.685   4.864   5.301  1.00  0.00     0.000 C 
BRANCH   5   6
ATOM      6  C   UNL     1      -1.423   3.521   5.262  1.00  0.00     0.006 C 
BRANCH   6   7
ATOM      7  C   UNL     1      -2.387   3.390   6.445  1.00  0.00     0.053 C 
BRANCH   7   8
ATOM      8  C   UNL     1      -3.754   3.012   5.967  1.00  0.00     0.041 C 
ATOM      9  O   UNL     1      -3.961   1.870   5.478  1.00  0.00    -0.550 OA
ATOM     10  O   UNL     1      -4.788   3.938   6.016  1.00  0.00    -0.550 OA
ENDBRANCH   7   8
ENDBRANCH   6   7
ENDBRANCH   5   6
ENDBRANCH   4   5
ENDBRANCH   3   4
ENDBRANCH   2   3
ENDBRANCH   1   2
BRANCH   1  11
ATOM     11  C   UNL     1       1.530   0.616   6.463  1.00  0.00     0.000 C 
BRANCH  11  12
ATOM     12  C   UNL     1       2.241  -0.748   6.489  1.00  0.00    -0.000 C 
BRANCH  12  13
ATOM     13  C   UNL     1       2.782  -1.114   7.879  1.00  0.00    -0.000 C 
BRANCH  13  14
ATOM     14  C   UNL     1       4.318  -1.139   7.878  1.00  0.00    -0.000 C 
BRANCH  14  15
ATOM     15  C   UNL     1       4.938   0.190   8.339  1.00  0.00    -0.000 C 
BRANCH  15  16
ATOM     16  C   UNL     1       5.322   1.159   7.204  1.00  0.00    -0.000 C 
BRANCH  16  17
ATOM     17  C   UNL     1       4.866   2.614   7.441  1.00  0.00    -0.003 C 
ATOM     18  C   UNL     1       4.607   3.370   6.137  1.00  0.00     0.004 C 
ENDBRANCH  16  17
ENDBRANCH  15  16
ENDBRANCH  14  15
ENDBRANCH  13  14
ENDBRANCH  12  13
ENDBRANCH  11  12
ENDBRANCH   1  11
TORSDOF 14
ENDMDL
MODEL 5
REMARK VINA RESULT:    -4.048      1.325      2.028
REMARK INTER + INTRA:          -9.169
REMARK INTER:                  -7.762
REMARK INTRA:                  -1.407
REMARK UNBOUND:                -1.808
REMARK SMILES CCCCCCCCCCCCCCCC(=O)[O-]
REMARK SMILES IDX 9 1 10 2 11 3 12 4 13 5 14 6 15 7 16 8 17 9 18 10 8 11 7 12
REMARK SMILES IDX 6 13 5 14 4 15 3 16 2 17 1 18
REMARK H PARENT
REMARK Flexibility Score: inf
ROOT
ATOM      1  C   UNL     1      -1.136   2.723   5.272  1.00  0.00     0.000 C 
ENDROOT
BRANCH   1   2
ATOM      2  C   UNL     1      -0.994   4.120   4.642  1.00  0.00     0.000 C 
BRANCH   2   3
ATOM      3  C   UNL     1      -0.386   5.152   5.608  1.00  0.00     0.000 C 
BRANCH   3   4
ATOM      4  C   UNL     1       1.131   4.975   5.779  1.00  0.00     0.000 C 
BRANCH   4   5
ATOM      5  C   UNL     1       1.502   4.237   7.075  1.00  0.00     0.000 C 
BRANCH   5   6
ATOM      6  C   UNL     1       2.570   3.169   6.810  1.00  0.00     0.006 C 
BRANCH   6   7
ATOM      7  C   UNL     1       2.017   1.764   7.070  1.00  0.00     0.053 C 
BRANCH   7   8
ATOM      8  C   UNL     1       2.910   0.729   6.463  1.00  0.00     0.041 C 
ATOM      9  O   UNL     1       4.158   0.902   6.443  1.00  0.00    -0.550 OA
ATOM     10  O   UNL     1       2.363  -0.404   5.874  1.00  0.00    -0.550 OA
ENDBRANCH   7   8
ENDBRANCH   6   7
ENDBRANCH   5   6
ENDBRANCH   4   5
ENDBRANCH   3   4
ENDBRANCH   2   3
ENDBRANCH   1   2
BRANCH   1  11
ATOM     11  C   UNL     1      -2.125   2.628   6.454  1.00  0.00     0.000 C 
BRANCH  11  12
ATOM     12  C   UNL     1      -3.566   2.242   6.075  1.00  0.00    -0.000 C 
BRANCH  12  13
ATOM     13  C   UNL     1      -4.491   3.459   5.928  1.00  0.00    -0.000 C 
BRANCH  13  14
ATOM     14  C   UNL     1      -4.080   4.577   6.898  1.00  0.00    -0.000 C 
BRANCH  14  15
ATOM     15  C   UNL     1      -3.836   5.921   6.193  1.00  0.00    -0.000 C 
BRANCH  15  16
ATOM     16  C   UNL     1      -5.112   6.682   5.780  1.00  0.00    -0.000 C 
BRANCH  16  17
ATOM     17  C   UNL     1      -5.134   7.110   4.297  1.00  0.00    -0.003 C 
ATOM     18  C   UNL     1      -5.672   8.528   4.102  1.00  0.00     0.004 C 
ENDBRANCH  16  17
ENDBRANCH  15  16
ENDBRANCH  14  15
ENDBRANCH  13  14
ENDBRANCH  12  13
ENDBRANCH  11  12
ENDBRANCH   1  11
TORSDOF 14
ENDMDL
MODEL 6
REMARK VINA RESULT:    -4.016      2.269      4.055
REMARK INTER + INTRA:          -9.111
REMARK INTER:                  -6.984
REMARK INTRA:                  -2.127
REMARK UNBOUND:                -1.808
REMARK SMILES CCCCCCCCCCCCCCCC(=O)[O-]
REMARK SMILES IDX 9 1 10 2 11 3 12 4 13 5 14 6 15 7 16 8 17 9 18 10 8 11 7 12
REMARK SMILES IDX 6 13 5 14 4 15 3 16 2 17 1 18
REMARK H PARENT
REMARK Flexibility Score: inf
ROOT
ATOM      1  C   UNL     1       1.503   3.909   8.604  1.00  0.00     0.000 C 
ENDROOT
BRANCH   1   2
ATOM      2  C   UNL     1       0.274   3.022   8.329  1.00  0.00     0.000 C 
BRANCH   2   3
ATOM      3  C   UNL     1       0.631   1.533   8.190  1.00  0.00     0.000 C 
BRANCH   3   4
ATOM      4  C   UNL     1       1.357   1.223   6.871  1.00  0.00     0.000 C 
BRANCH   4   5
ATOM      5  C   UNL     1       2.358   0.064   7.001  1.00  0.00     0.000 C 
BRANCH   5   6
ATOM      6  C   UNL     1       3.792   0.548   6.752  1.00  0.00     0.006 C 
BRANCH   6   7
ATOM      7  C   UNL     1       4.130   1.746   7.645  1.00  0.00     0.053 C 
BRANCH   7   8
ATOM      8  C   UNL     1       4.871   2.787   6.866  1.00  0.00     0.041 C 
ATOM      9  O   UNL     1       5.840   3.398   7.388  1.00  0.00    -0.550 OA
ATOM     10  O   UNL     1       4.461   3.117   5.581  1.00  0.00    -0.550 OA
ENDBRANCH   7   8
ENDBRANCH   6   7
ENDBRANCH   5   6
ENDBRANCH   4   5
ENDBRANCH   3   4
ENDBRANCH   2   3
ENDBRANCH   1   2
BRANCH   1  11
ATOM     11  C   UNL     1       1.833   4.940   7.504  1.00  0.00     0.000 C 
BRANCH  11  12
ATOM     12  C   UNL     1       1.260   4.621   6.112  1.00  0.00    -0.000 C 
BRANCH  12  13
ATOM     13  C   UNL     1       0.194   5.629   5.659  1.00  0.00    -0.000 C 
BRANCH  13  14
ATOM     14  C   UNL     1      -1.115   4.911   5.295  1.00  0.00    -0.000 C 
BRANCH  14  15
ATOM     15  C   UNL     1      -0.898   3.445   4.885  1.00  0.00    -0.000 C 
BRANCH  15  16
ATOM     16  C   UNL     1      -1.945   2.454   5.431  1.00  0.00    -0.000 C 
BRANCH  16  17
ATOM     17  C   UNL     1      -2.856   3.045   6.527  1.00  0.00    -0.003 C 
ATOM     18  C   UNL     1      -4.307   3.194   6.070  1.00  0.00     0.004 C 
ENDBRANCH  16  17
ENDBRANCH  15  16
ENDBRANCH  14  15
ENDBRANCH  13  14
ENDBRANCH  12  13
ENDBRANCH  11  12
ENDBRANCH   1  11
TORSDOF 14
ENDMDL
MODEL 7
REMARK VINA RESULT:    -4.009      2.226      3.746
REMARK INTER + INTRA:          -9.098
REMARK INTER:                  -7.556
REMARK INTRA:                  -1.542
REMARK UNBOUND:                -1.808
REMARK SMILES CCCCCCCCCCCCCCCC(=O)[O-]
REMARK SMILES IDX 9 1 10 2 11 3 12 4 13 5 14 6 15 7 16 8 17 9 18 10 8 11 7 12
REMARK SMILES IDX 6 13 5 14 4 15 3 16 2 17 1 18
REMARK H PARENT
REMARK Flexibility Score: inf
ROOT
ATOM      1  C   UNL     1       0.725   2.853   6.781  1.00  0.00     0.000 C 
ENDROOT
BRANCH   1   2
ATOM      2  C   UNL     1       1.409   1.601   7.360  1.00  0.00     0.000 C 
BRANCH   2   3
ATOM      3  C   UNL     1       1.460   0.433   6.361  1.00  0.00     0.000 C 
BRANCH   3   4
ATOM      4  C   UNL     1       2.822  -0.278   6.356  1.00  0.00     0.000 C 
BRANCH   4   5
ATOM      5  C   UNL     1       3.640  -0.008   7.629  1.00  0.00     0.000 C 
BRANCH   5   6
ATOM      6  C   UNL     1       4.963   0.690   7.293  1.00  0.00     0.006 C 
BRANCH   6   7
ATOM      7  C   UNL     1       5.028   2.081   7.931  1.00  0.00     0.053 C 
BRANCH   7   8
ATOM      8  C   UNL     1       4.886   3.143   6.888  1.00  0.00     0.041 C 
ATOM      9  O   UNL     1       4.523   2.840   5.720  1.00  0.00    -0.550 OA
ATOM     10  O   UNL     1       5.200   4.462   7.190  1.00  0.00    -0.550 OA
ENDBRANCH   7   8
ENDBRANCH   6   7
ENDBRANCH   5   6
ENDBRANCH   4   5
ENDBRANCH   3   4
ENDBRANCH   2   3
ENDBRANCH   1   2
BRANCH   1  11
ATOM     11  C   UNL     1      -0.379   2.579   5.736  1.00  0.00     0.000 C 
BRANCH  11  12
ATOM     12  C   UNL     1      -0.794   3.793   4.886  1.00  0.00    -0.000 C 
BRANCH  12  13
ATOM     13  C   UNL     1      -0.713   5.118   5.658  1.00  0.00    -0.000 C 
BRANCH  13  14
ATOM     14  C   UNL     1      -1.988   5.348   6.483  1.00  0.00    -0.000 C 
BRANCH  14  15
ATOM     15  C   UNL     1      -3.274   5.152   5.663  1.00  0.00    -0.000 C 
BRANCH  15  16
ATOM     16  C   UNL     1      -4.340   4.258   6.326  1.00  0.00    -0.000 C 
BRANCH  16  17
ATOM     17  C   UNL     1      -4.157   2.752   6.045  1.00  0.00    -0.003 C 
ATOM     18  C   UNL     1      -3.482   2.015   7.203  1.00  0.00     0.004 C 
ENDBRANCH  16  17
ENDBRANCH  15  16
ENDBRANCH  14  15
ENDBRANCH  13  14
ENDBRANCH  12  13
ENDBRANCH  11  12
ENDBRANCH   1  11
TORSDOF 14
ENDMDL
MODEL 8
REMARK VINA RESULT:    -3.988      1.559      2.403
REMARK INTER + INTRA:          -9.060
REMARK INTER:                  -7.046
REMARK INTRA:                  -2.015
REMARK UNBOUND:                -1.808
REMARK SMILES CCCCCCCCCCCCCCCC(=O)[O-]
REMARK SMILES IDX 9 1 10 2 11 3 12 4 13 5 14 6 15 7 16 8 17 9 18 10 8 11 7 12
REMARK SMILES IDX 6 13 5 14 4 15 3 16 2 17 1 18
REMARK H PARENT
REMARK Flexibility Score: inf
ROOT
ATOM      1  C   UNL     1       0.068   5.565   6.651  1.00  0.00     0.000 C 
ENDROOT
BRANCH   1   2
ATOM      2  C   UNL     1       1.364   5.496   7.480  1.00  0.00     0.000 C 
BRANCH   2   3
ATOM      3  C   UNL     1       1.978   4.087   7.510  1.00  0.00     0.000 C 
BRANCH   3   4
ATOM      4  C   UNL     1       1.328   3.184   8.571  1.00  0.00     0.000 C 
BRANCH   4   5
ATOM      5  C   UNL     1       0.945   1.801   8.022  1.00  0.00     0.000 C 
BRANCH   5   6
ATOM      6  C   UNL     1       1.810   1.433   6.811  1.00  0.00     0.006 C 
BRANCH   6   7
ATOM      7  C   UNL     1       2.852   0.374   7.182  1.00  0.00     0.053 C 
BRANCH   7   8
ATOM      8  C   UNL     1       4.235   0.908   6.983  1.00  0.00     0.041 C 
ATOM      9  O   UNL     1       4.432   1.890   6.219  1.00  0.00    -0.550 OA
ATOM     10  O   UNL     1       5.314   0.294   7.605  1.00  0.00    -0.550 OA
ENDBRANCH   7   8
ENDBRANCH   6   7
ENDBRANCH   5   6
ENDBRANCH   4   5
ENDBRANCH   3   4
ENDBRANCH   2   3
ENDBRANCH   1   2
BRANCH   1  11
ATOM     11  C   UNL     1       0.135   4.892   5.263  1.00  0.00     0.000 C 
BRANCH  11  12
ATOM     12  C   UNL     1      -1.173   4.234   4.789  1.00  0.00    -0.000 C 
BRANCH  12  13
ATOM     13  C   UNL     1      -1.314   2.780   5.260  1.00  0.00    -0.000 C 
BRANCH  13  14
ATOM     14  C   UNL     1      -2.331   2.674   6.407  1.00  0.00    -0.000 C 
BRANCH  14  15
ATOM     15  C   UNL     1      -3.788   2.777   5.925  1.00  0.00    -0.000 C 
BRANCH  15  16
ATOM     16  C   UNL     1      -4.618   3.892   6.592  1.00  0.00    -0.000 C 
BRANCH  16  17
ATOM     17  C   UNL     1      -4.800   5.147   5.714  1.00  0.00    -0.003 C 
ATOM     18  C   UNL     1      -3.930   6.318   6.172  1.00  0.00     0.004 C 
ENDBRANCH  16  17
ENDBRANCH  15  16
ENDBRANCH  14  15
ENDBRANCH  13  14
ENDBRANCH  12  13
ENDBRANCH  11  12
ENDBRANCH   1  11
TORSDOF 14
ENDMDL
MODEL 9
REMARK VINA RESULT:    -3.918     13.324     15.138
REMARK INTER + INTRA:          -8.932
REMARK INTER:                  -6.828
REMARK INTRA:                  -2.104
REMARK UNBOUND:                -1.808
REMARK SMILES CCCCCCCCCCCCCCCC(=O)[O-]
REMARK SMILES IDX 9 1 10 2 11 3 12 4 13 5 14 6 15 7 16 8 17 9 18 10 8 11 7 12
REMARK SMILES IDX 6 13 5 14 4 15 3 16 2 17 1 18
REMARK H PARENT
REMARK Flexibility Score: inf
ROOT
ATOM      1  C   UNL     1      -5.784  -1.177  -6.963  1.00  0.00     0.000 C 
ENDROOT
BRANCH   1   2
ATOM      2  C   UNL     1      -5.988  -2.423  -7.845  1.00  0.00     0.000 C 
BRANCH   2   3
ATOM      3  C   UNL     1      -5.979  -3.733  -7.038  1.00  0.00     0.000 C 
BRANCH   3   4
ATOM      4  C   UNL     1      -4.731  -4.586  -7.317  1.00  0.00     0.000 C 
BRANCH   4   5
ATOM      5  C   UNL     1      -3.893  -4.846  -6.055  1.00  0.00     0.000 C 
BRANCH   5   6
ATOM      6  C   UNL     1      -4.738  -4.660  -4.789  1.00  0.00     0.006 C 
BRANCH   6   7
ATOM      7  C   UNL     1      -4.601  -5.867  -3.856  1.00  0.00     0.053 C 
BRANCH   7   8
ATOM      8  C   UNL     1      -5.774  -6.784  -4.010  1.00  0.00     0.041 C 
ATOM      9  O   UNL     1      -6.111  -7.545  -3.066  1.00  0.00    -0.550 OA
ATOM     10  O   UNL     1      -6.465  -6.832  -5.214  1.00  0.00    -0.550 OA
ENDBRANCH   7   8
ENDBRANCH   6   7
ENDBRANCH   5   6
ENDBRANCH   4   5
ENDBRANCH   3   4
ENDBRANCH   2   3
ENDBRANCH   1   2
BRANCH   1  11
ATOM     11  C   UNL     1      -4.511  -0.357  -7.264  1.00  0.00     0.000 C 
BRANCH  11  12
ATOM     12  C   UNL     1      -3.617  -0.061  -6.047  1.00  0.00    -0.000 C 
BRANCH  12  13
ATOM     13  C   UNL     1      -2.740  -1.256  -5.646  1.00  0.00    -0.000 C 
BRANCH  13  14
ATOM     14  C   UNL     1      -2.099  -1.902  -6.884  1.00  0.00    -0.000 C 
BRANCH  14  15
ATOM     15  C   UNL     1      -0.586  -2.123  -6.727  1.00  0.00    -0.000 C 
BRANCH  15  16
ATOM     16  C   UNL     1      -0.135  -2.584  -5.327  1.00  0.00    -0.000 C 
BRANCH  16  17
ATOM     17  C   UNL     1      -0.393  -4.079  -5.047  1.00  0.00    -0.003 C 
ATOM     18  C   UNL     1      -1.048  -4.320  -3.686  1.00  0.00     0.004 C 
ENDBRANCH  16  17
ENDBRANCH  15  16
ENDBRANCH  14  15
ENDBRANCH  13  14
ENDBRANCH  12  13
ENDBRANCH  11  12
ENDBRANCH   1  11
TORSDOF 14
ENDMDL
