MODEL 1
REMARK VINA RESULT:    -4.944      0.000      0.000
REMARK INTER + INTRA:          -5.658
REMARK INTER:                  -5.522
REMARK INTRA:                  -0.136
REMARK UNBOUND:                -0.136
REMARK SMILES COc1cc2ccc(=O)oc2cc1OC
REMARK SMILES IDX 3 1 13 2 12 3 11 4 5 5 4 6 6 7 7 8 8 9 9 10 10 11 2 12 1 13
REMARK SMILES IDX 14 14 15 15
REMARK H PARENT
REMARK Flexibility Score: inf
ROOT
ATOM      1  C   UNL     1      -8.599  -9.848  -5.216  1.00  0.00     0.161 A 
ATOM      2  C   UNL     1      -9.836 -10.461  -5.482  1.00  0.00     0.164 A 
ATOM      3  C   UNL     1     -10.990  -9.668  -5.639  1.00  0.00     0.098 A 
ATOM      4  C   UNL     1     -10.912  -8.277  -5.532  1.00  0.00     0.142 A 
ATOM      5  C   UNL     1      -9.673  -7.662  -5.263  1.00  0.00     0.022 A 
ATOM      6  C   UNL     1      -8.523  -8.445  -5.107  1.00  0.00     0.062 A 
ATOM      7  C   UNL     1      -9.628  -6.268  -5.162  1.00  0.00     0.019 A 
ATOM      8  C   UNL     1     -10.800  -5.531  -5.326  1.00  0.00     0.094 A 
ATOM      9  C   UNL     1     -11.995  -6.209  -5.590  1.00  0.00     0.336 A 
ATOM     10  O   UNL     1     -13.064  -5.563  -5.743  1.00  0.00    -0.246 OA
ATOM     11  O   UNL     1     -12.009  -7.538  -5.682  1.00  0.00    -0.423 OA
ENDROOT
BRANCH   1  12
ATOM     12  O   UNL     1      -7.470 -10.669  -5.065  1.00  0.00    -0.493 OA
ATOM     13  C   UNL     1      -6.241 -10.489  -5.761  1.00  0.00     0.278 C 
ENDBRANCH   1  12
BRANCH   2  14
ATOM     14  O   UNL     1      -9.876 -11.860  -5.584  1.00  0.00    -0.493 OA
ATOM     15  C   UNL     1      -9.945 -12.578  -6.813  1.00  0.00     0.278 C 
ENDBRANCH   2  14
TORSDOF 2
ENDMDL
MODEL 2
REMARK VINA RESULT:    -4.883      3.144      5.106
REMARK INTER + INTRA:          -5.590
REMARK INTER:                  -5.477
REMARK INTRA:                  -0.113
REMARK UNBOUND:                -0.136
REMARK SMILES COc1cc2ccc(=O)oc2cc1OC
REMARK SMILES IDX 3 1 13 2 12 3 11 4 5 5 4 6 6 7 7 8 8 9 9 10 10 11 2 12 1 13
REMARK SMILES IDX 14 14 15 15
REMARK H PARENT
REMARK Flexibility Score: inf
ROOT
ATOM      1  C   UNL     1     -12.174  -6.138  -5.481  1.00  0.00     0.161 A 
ATOM      2  C   UNL     1     -11.459  -7.180  -6.097  1.00  0.00     0.164 A 
ATOM      3  C   UNL     1     -10.931  -6.996  -7.390  1.00  0.00     0.098 A 
ATOM      4  C   UNL     1     -11.113  -5.786  -8.063  1.00  0.00     0.142 A 
ATOM      5  C   UNL     1     -11.831  -4.741  -7.447  1.00  0.00     0.022 A 
ATOM      6  C   UNL     1     -12.358  -4.918  -6.162  1.00  0.00     0.062 A 
ATOM      7  C   UNL     1     -11.996  -3.542  -8.147  1.00  0.00     0.019 A 
ATOM      8  C   UNL     1     -11.452  -3.414  -9.425  1.00  0.00     0.094 A 
ATOM      9  C   UNL     1     -10.752  -4.494  -9.974  1.00  0.00     0.336 A 
ATOM     10  O   UNL     1     -10.253  -4.399 -11.125  1.00  0.00    -0.246 OA
ATOM     11  O   UNL     1     -10.609  -5.624  -9.285  1.00  0.00    -0.423 OA
ENDROOT
BRANCH   1  12
ATOM     12  O   UNL     1     -12.687  -6.355  -4.192  1.00  0.00    -0.493 OA
ATOM     13  C   UNL     1     -13.611  -5.494  -3.534  1.00  0.00     0.278 C 
ENDBRANCH   1  12
BRANCH   2  14
ATOM     14  O   UNL     1     -11.296  -8.381  -5.390  1.00  0.00    -0.493 OA
ATOM     15  C   UNL     1     -11.693  -9.662  -5.872  1.00  0.00     0.278 C 
ENDBRANCH   2  14
TORSDOF 2
ENDMDL
MODEL 3
REMARK VINA RESULT:    -4.826      1.016      2.558
REMARK INTER + INTRA:          -5.526
REMARK INTER:                  -5.364
REMARK INTRA:                  -0.163
REMARK UNBOUND:                -0.136
REMARK SMILES COc1cc2ccc(=O)oc2cc1OC
REMARK SMILES IDX 3 1 13 2 12 3 11 4 5 5 4 6 6 7 7 8 8 9 9 10 10 11 2 12 1 13
REMARK SMILES IDX 14 14 15 15
REMARK H PARENT
REMARK Flexibility Score: inf
ROOT
ATOM      1  C   UNL     1      -9.468 -10.553  -5.442  1.00  0.00     0.161 A 
ATOM      2  C   UNL     1      -8.355  -9.749  -5.143  1.00  0.00     0.164 A 
ATOM      3  C   UNL     1      -8.510  -8.353  -5.029  1.00  0.00     0.098 A 
ATOM      4  C   UNL     1      -9.763  -7.764  -5.212  1.00  0.00     0.142 A 
ATOM      5  C   UNL     1     -10.880  -8.569  -5.514  1.00  0.00     0.022 A 
ATOM      6  C   UNL     1     -10.732  -9.957  -5.627  1.00  0.00     0.062 A 
ATOM      7  C   UNL     1     -12.121  -7.949  -5.691  1.00  0.00     0.019 A 
ATOM      8  C   UNL     1     -12.218  -6.564  -5.568  1.00  0.00     0.094 A 
ATOM      9  C   UNL     1     -11.067  -5.828  -5.268  1.00  0.00     0.336 A 
ATOM     10  O   UNL     1     -11.133  -4.577  -5.151  1.00  0.00    -0.246 OA
ATOM     11  O   UNL     1      -9.898  -6.444  -5.103  1.00  0.00    -0.423 OA
ENDROOT
BRANCH   1  12
ATOM     12  O   UNL     1      -9.277 -11.940  -5.547  1.00  0.00    -0.493 OA
ATOM     13  C   UNL     1      -9.107 -12.642  -6.775  1.00  0.00     0.278 C 
ENDBRANCH   1  12
BRANCH   2  14
ATOM     14  O   UNL     1      -7.111 -10.376  -4.964  1.00  0.00    -0.493 OA
ATOM     15  C   UNL     1      -6.074 -10.403  -5.941  1.00  0.00     0.278 C 
ENDBRANCH   2  14
TORSDOF 2
ENDMDL
MODEL 4
REMARK VINA RESULT:    -4.796      2.254      5.863
REMARK INTER + INTRA:          -5.493
REMARK INTER:                  -5.330
REMARK INTRA:                  -0.163
REMARK UNBOUND:                -0.136
REMARK SMILES COc1cc2ccc(=O)oc2cc1OC
REMARK SMILES IDX 3 1 13 2 12 3 11 4 5 5 4 6 6 7 7 8 8 9 9 10 10 11 2 12 1 13
REMARK SMILES IDX 14 14 15 15
REMARK H PARENT
REMARK Flexibility Score: inf
ROOT
ATOM      1  C   UNL     1      -8.351  -9.660  -5.186  1.00  0.00     0.161 A 
ATOM      2  C   UNL     1      -9.236 -10.697  -5.527  1.00  0.00     0.164 A 
ATOM      3  C   UNL     1      -8.762 -11.816  -6.240  1.00  0.00     0.098 A 
ATOM      4  C   UNL     1      -7.418 -11.901  -6.609  1.00  0.00     0.142 A 
ATOM      5  C   UNL     1      -6.529 -10.861  -6.269  1.00  0.00     0.022 A 
ATOM      6  C   UNL     1      -6.995  -9.747  -5.561  1.00  0.00     0.062 A 
ATOM      7  C   UNL     1      -5.189 -10.976  -6.653  1.00  0.00     0.019 A 
ATOM      8  C   UNL     1      -4.773 -12.105  -7.358  1.00  0.00     0.094 A 
ATOM      9  C   UNL     1      -5.711 -13.098  -7.661  1.00  0.00     0.336 A 
ATOM     10  O   UNL     1      -5.356 -14.125  -8.295  1.00  0.00    -0.246 OA
ATOM     11  O   UNL     1      -6.980 -12.963  -7.283  1.00  0.00    -0.423 OA
ENDROOT
BRANCH   1  12
ATOM     12  O   UNL     1      -8.857  -8.560  -4.476  1.00  0.00    -0.493 OA
ATOM     13  C   UNL     1      -9.244  -7.324  -5.068  1.00  0.00     0.278 C 
ENDBRANCH   1  12
BRANCH   2  14
ATOM     14  O   UNL     1     -10.580 -10.578  -5.139  1.00  0.00    -0.493 OA
ATOM     15  C   UNL     1     -11.640 -10.194  -6.009  1.00  0.00     0.278 C 
ENDBRANCH   2  14
TORSDOF 2
ENDMDL
MODEL 5
REMARK VINA RESULT:    -4.750      3.203      4.818
REMARK INTER + INTRA:          -5.441
REMARK INTER:                  -5.292
REMARK INTRA:                  -0.149
REMARK UNBOUND:                -0.136
REMARK SMILES COc1cc2ccc(=O)oc2cc1OC
REMARK SMILES IDX 3 1 13 2 12 3 11 4 5 5 4 6 6 7 7 8 8 9 9 10 10 11 2 12 1 13
REMARK SMILES IDX 14 14 15 15
REMARK H PARENT
REMARK Flexibility Score: inf
ROOT
ATOM      1  C   UNL     1      -5.296 -11.124  -6.480  1.00  0.00     0.161 A 
ATOM      2  C   UNL     1      -5.718 -12.184  -7.301  1.00  0.00     0.164 A 
ATOM      3  C   UNL     1      -7.083 -12.524  -7.359  1.00  0.00     0.098 A 
ATOM      4  C   UNL     1      -8.021 -11.814  -6.605  1.00  0.00     0.142 A 
ATOM      5  C   UNL     1      -7.600 -10.751  -5.780  1.00  0.00     0.022 A 
ATOM      6  C   UNL     1      -6.243 -10.409  -5.719  1.00  0.00     0.062 A 
ATOM      7  C   UNL     1      -8.563 -10.060  -5.038  1.00  0.00     0.019 A 
ATOM      8  C   UNL     1      -9.901 -10.439  -5.131  1.00  0.00     0.094 A 
ATOM      9  C   UNL     1     -10.247 -11.504  -5.970  1.00  0.00     0.336 A 
ATOM     10  O   UNL     1     -11.449 -11.861  -6.070  1.00  0.00    -0.246 OA
ATOM     11  O   UNL     1      -9.309 -12.144  -6.666  1.00  0.00    -0.423 OA
ENDROOT
BRANCH   1  12
ATOM     12  O   UNL     1      -3.928 -10.812  -6.447  1.00  0.00    -0.493 OA
ATOM     13  C   UNL     1      -3.009 -11.305  -5.477  1.00  0.00     0.278 C 
ENDBRANCH   1  12
BRANCH   2  14
ATOM     14  O   UNL     1      -4.747 -12.874  -8.045  1.00  0.00    -0.493 OA
ATOM     15  C   UNL     1      -4.179 -14.124  -7.666  1.00  0.00     0.278 C 
ENDBRANCH   2  14
TORSDOF 2
ENDMDL
MODEL 6
REMARK VINA RESULT:    -4.605      4.389      8.729
REMARK INTER + INTRA:          -5.280
REMARK INTER:                  -5.118
REMARK INTRA:                  -0.161
REMARK UNBOUND:                -0.136
REMARK SMILES COc1cc2ccc(=O)oc2cc1OC
REMARK SMILES IDX 3 1 13 2 12 3 11 4 5 5 4 6 6 7 7 8 8 9 9 10 10 11 2 12 1 13
REMARK SMILES IDX 14 14 15 15
REMARK H PARENT
REMARK Flexibility Score: inf
ROOT
ATOM      1  C   UNL     1      -5.376 -12.291  -7.375  1.00  0.00     0.161 A 
ATOM      2  C   UNL     1      -5.186 -11.131  -6.605  1.00  0.00     0.164 A 
ATOM      3  C   UNL     1      -4.011 -10.982  -5.844  1.00  0.00     0.098 A 
ATOM      4  C   UNL     1      -3.033 -11.980  -5.849  1.00  0.00     0.142 A 
ATOM      5  C   UNL     1      -3.223 -13.144  -6.620  1.00  0.00     0.022 A 
ATOM      6  C   UNL     1      -4.390 -13.298  -7.379  1.00  0.00     0.062 A 
ATOM      7  C   UNL     1      -2.226 -14.125  -6.604  1.00  0.00     0.019 A 
ATOM      8  C   UNL     1      -1.083 -13.927  -5.831  1.00  0.00     0.094 A 
ATOM      9  C   UNL     1      -0.962 -12.746  -5.091  1.00  0.00     0.336 A 
ATOM     10  O   UNL     1       0.063 -12.547  -4.388  1.00  0.00    -0.246 OA
ATOM     11  O   UNL     1      -1.926 -11.828  -5.125  1.00  0.00    -0.423 OA
ENDROOT
BRANCH   1  12
ATOM     12  O   UNL     1      -6.559 -12.406  -8.123  1.00  0.00    -0.493 OA
ATOM     13  C   UNL     1      -7.621 -13.306  -7.822  1.00  0.00     0.278 C 
ENDBRANCH   1  12
BRANCH   2  14
ATOM     14  O   UNL     1      -6.189 -10.149  -6.625  1.00  0.00    -0.493 OA
ATOM     15  C   UNL     1      -7.140  -9.946  -5.584  1.00  0.00     0.278 C 
ENDBRANCH   2  14
TORSDOF 2
ENDMDL
MODEL 7
REMARK VINA RESULT:    -4.587      2.807      4.922
REMARK INTER + INTRA:          -5.259
REMARK INTER:                  -5.155
REMARK INTRA:                  -0.104
REMARK UNBOUND:                -0.136
REMARK SMILES COc1cc2ccc(=O)oc2cc1OC
REMARK SMILES IDX 3 1 13 2 12 3 11 4 5 5 4 6 6 7 7 8 8 9 9 10 10 11 2 12 1 13
REMARK SMILES IDX 14 14 15 15
REMARK H PARENT
REMARK Flexibility Score: inf
ROOT
ATOM      1  C   UNL     1     -11.755  -7.442  -5.824  1.00  0.00     0.161 A 
ATOM      2  C   UNL     1     -12.533  -6.379  -5.332  1.00  0.00     0.164 A 
ATOM      3  C   UNL     1     -12.566  -5.155  -6.027  1.00  0.00     0.098 A 
ATOM      4  C   UNL     1     -11.829  -4.990  -7.203  1.00  0.00     0.142 A 
ATOM      5  C   UNL     1     -11.047  -6.054  -7.697  1.00  0.00     0.022 A 
ATOM      6  C   UNL     1     -11.012  -7.274  -7.010  1.00  0.00     0.062 A 
ATOM      7  C   UNL     1     -10.322  -5.857  -8.877  1.00  0.00     0.019 A 
ATOM      8  C   UNL     1     -10.389  -4.625  -9.525  1.00  0.00     0.094 A 
ATOM      9  C   UNL     1     -11.186  -3.614  -8.976  1.00  0.00     0.336 A 
ATOM     10  O   UNL     1     -11.261  -2.495  -9.546  1.00  0.00    -0.246 OA
ATOM     11  O   UNL     1     -11.867  -3.828  -7.852  1.00  0.00    -0.423 OA
ENDROOT
BRANCH   1  12
ATOM     12  O   UNL     1     -11.746  -8.648  -5.105  1.00  0.00    -0.493 OA
ATOM     13  C   UNL     1     -11.419  -9.917  -5.661  1.00  0.00     0.278 C 
ENDBRANCH   1  12
BRANCH   2  14
ATOM     14  O   UNL     1     -13.261  -6.582  -4.148  1.00  0.00    -0.493 OA
ATOM     15  C   UNL     1     -13.643  -5.545  -3.249  1.00  0.00     0.278 C 
ENDBRANCH   2  14
TORSDOF 2
ENDMDL
MODEL 8
REMARK VINA RESULT:    -4.336      2.992      5.415
REMARK INTER + INTRA:          -4.980
REMARK INTER:                  -4.828
REMARK INTRA:                  -0.151
REMARK UNBOUND:                -0.136
REMARK SMILES COc1cc2ccc(=O)oc2cc1OC
REMARK SMILES IDX 3 1 13 2 12 3 11 4 5 5 4 6 6 7 7 8 8 9 9 10 10 11 2 12 1 13
REMARK SMILES IDX 14 14 15 15
REMARK H PARENT
REMARK Flexibility Score: inf
ROOT
ATOM      1  C   UNL     1     -10.540 -11.236  -5.430  1.00  0.00     0.161 A 
ATOM      2  C   UNL     1     -10.429 -12.345  -6.287  1.00  0.00     0.164 A 
ATOM      3  C   UNL     1      -9.177 -12.678  -6.840  1.00  0.00     0.098 A 
ATOM      4  C   UNL     1      -8.047 -11.914  -6.543  1.00  0.00     0.142 A 
ATOM      5  C   UNL     1      -8.157 -10.801  -5.686  1.00  0.00     0.022 A 
ATOM      6  C   UNL     1      -9.398 -10.465  -5.132  1.00  0.00     0.062 A 
ATOM      7  C   UNL     1      -7.006 -10.056  -5.408  1.00  0.00     0.019 A 
ATOM      8  C   UNL     1      -5.792 -10.430  -5.984  1.00  0.00     0.094 A 
ATOM      9  C   UNL     1      -5.758 -11.546  -6.826  1.00  0.00     0.336 A 
ATOM     10  O   UNL     1      -4.673 -11.901  -7.355  1.00  0.00    -0.246 OA
ATOM     11  O   UNL     1      -6.869 -12.238  -7.073  1.00  0.00    -0.423 OA
ENDROOT
BRANCH   1  12
ATOM     12  O   UNL     1     -11.802 -10.933  -4.895  1.00  0.00    -0.493 OA
ATOM     13  C   UNL     1     -12.691  -9.955  -5.426  1.00  0.00     0.278 C 
ENDBRANCH   1  12
BRANCH   2  14
ATOM     14  O   UNL     1     -11.586 -13.090  -6.561  1.00  0.00    -0.493 OA
ATOM     15  C   UNL     1     -12.188 -13.200  -7.848  1.00  0.00     0.278 C 
ENDBRANCH   2  14
TORSDOF 2
ENDMDL
