MODEL 1
REMARK VINA RESULT:    -5.970      0.000      0.000
REMARK INTER + INTRA:          -7.302
REMARK INTER:                  -7.017
REMARK INTRA:                  -0.285
REMARK UNBOUND:                -0.285
REMARK SMILES O=c1cc(-c2ccc(O)c(O)c2)oc2cc(O)cc(O)c12
REMARK SMILES IDX 4 1 3 2 2 3 1 4 21 5 19 6 18 7 16 8 15 9 14 10 13 11 5 12
REMARK SMILES IDX 6 13 7 14 8 15 12 16 10 17 9 18 11 20 20 22 17 24
REMARK H PARENT 9 19 11 21 20 23 17 25
REMARK Flexibility Score: inf
ROOT
ATOM      1  C   UNL     1       8.258   4.843  75.477  1.00  0.00     0.138 A 
ATOM      2  C   UNL     1       9.027   5.371  74.427  1.00  0.00     0.100 A 
ATOM      3  C   UNL     1      10.330   5.800  74.678  1.00  0.00     0.197 A 
ATOM      4  O   UNL     1      11.013   6.271  73.730  1.00  0.00    -0.289 OA
ATOM      5  C   UNL     1      10.858   5.694  75.982  1.00  0.00     0.107 A 
ATOM      6  C   UNL     1      12.167   6.106  76.322  1.00  0.00     0.134 A 
ATOM      7  C   UNL     1      12.620   5.962  77.642  1.00  0.00     0.093 A 
ATOM      8  C   UNL     1      11.791   5.415  78.624  1.00  0.00     0.123 A 
ATOM      9  C   UNL     1      10.494   5.006  78.292  1.00  0.00     0.094 A 
ATOM     10  C   UNL     1      10.025   5.141  76.983  1.00  0.00     0.146 A 
ATOM     11  O   UNL     1       8.789   4.747  76.693  1.00  0.00    -0.456 OA
ENDROOT
BRANCH   1  12
ATOM     12  C   UNL     1       6.866   4.369  75.267  1.00  0.00     0.021 A 
ATOM     13  C   UNL     1       6.325   3.306  76.017  1.00  0.00     0.016 A 
ATOM     14  C   UNL     1       5.015   2.875  75.791  1.00  0.00     0.051 A 
ATOM     15  C   UNL     1       4.227   3.488  74.809  1.00  0.00     0.157 A 
ATOM     16  C   UNL     1       6.071   4.971  74.274  1.00  0.00     0.062 A 
ATOM     17  C   UNL     1       4.758   4.537  74.048  1.00  0.00     0.158 A 
BRANCH  15  18
ATOM     18  O   UNL     1       2.921   3.061  74.582  1.00  0.00    -0.504 OA
ATOM     19  H   UNL     1       2.597   2.155  74.898  1.00  0.00     0.293 HD
ENDBRANCH  15  18
BRANCH  17  20
ATOM     20  O   UNL     1       3.973   5.143  73.068  1.00  0.00    -0.504 OA
ATOM     21  H   UNL     1       3.392   4.599  72.442  1.00  0.00     0.293 HD
ENDBRANCH  17  20
ENDBRANCH   1  12
BRANCH   6  22
ATOM     22  O   UNL     1      13.019   6.656  75.363  1.00  0.00    -0.507 OA
ATOM     23  H   UNL     1      13.628   6.077  74.796  1.00  0.00     0.293 HD
ENDBRANCH   6  22
BRANCH   8  24
ATOM     24  O   UNL     1      12.264   5.283  79.927  1.00  0.00    -0.508 OA
ATOM     25  H   UNL     1      12.623   4.401  80.274  1.00  0.00     0.293 HD
ENDBRANCH   8  24
TORSDOF 5
ENDMDL
MODEL 2
REMARK VINA RESULT:    -5.756      1.269      2.912
REMARK INTER + INTRA:          -7.051
REMARK INTER:                  -6.757
REMARK INTRA:                  -0.294
REMARK UNBOUND:                -0.285
REMARK SMILES O=c1cc(-c2ccc(O)c(O)c2)oc2cc(O)cc(O)c12
REMARK SMILES IDX 4 1 3 2 2 3 1 4 21 5 19 6 18 7 16 8 15 9 14 10 13 11 5 12
REMARK SMILES IDX 6 13 7 14 8 15 12 16 10 17 9 18 11 20 20 22 17 24
REMARK H PARENT 9 19 11 21 20 23 17 25
REMARK Flexibility Score: inf
ROOT
ATOM      1  C   UNL     1       8.181   4.651  75.720  1.00  0.00     0.138 A 
ATOM      2  C   UNL     1       8.639   4.014  76.885  1.00  0.00     0.100 A 
ATOM      3  C   UNL     1       9.943   4.242  77.325  1.00  0.00     0.197 A 
ATOM      4  O   UNL     1      10.345   3.666  78.372  1.00  0.00    -0.289 OA
ATOM      5  C   UNL     1      10.781   5.111  76.597  1.00  0.00     0.107 A 
ATOM      6  C   UNL     1      12.115   5.396  76.973  1.00  0.00     0.134 A 
ATOM      7  C   UNL     1      12.882   6.278  76.197  1.00  0.00     0.093 A 
ATOM      8  C   UNL     1      12.342   6.879  75.057  1.00  0.00     0.123 A 
ATOM      9  C   UNL     1      11.023   6.600  74.681  1.00  0.00     0.094 A 
ATOM     10  C   UNL     1      10.243   5.724  75.440  1.00  0.00     0.146 A 
ATOM     11  O   UNL     1       8.994   5.474  75.061  1.00  0.00    -0.456 OA
ENDROOT
BRANCH   1  12
ATOM     12  C   UNL     1       6.803   4.447  75.206  1.00  0.00     0.021 A 
ATOM     13  C   UNL     1       6.397   4.951  73.955  1.00  0.00     0.016 A 
ATOM     14  C   UNL     1       5.090   4.752  73.501  1.00  0.00     0.051 A 
ATOM     15  C   UNL     1       4.165   4.057  74.289  1.00  0.00     0.157 A 
ATOM     16  C   UNL     1       5.863   3.761  75.997  1.00  0.00     0.062 A 
ATOM     17  C   UNL     1       4.552   3.563  75.541  1.00  0.00     0.158 A 
BRANCH  15  18
ATOM     18  O   UNL     1       2.863   3.857  73.839  1.00  0.00    -0.504 OA
ATOM     19  H   UNL     1       2.065   4.231  74.339  1.00  0.00     0.293 HD
ENDBRANCH  15  18
BRANCH  17  20
ATOM     20  O   UNL     1       3.629   2.875  76.326  1.00  0.00    -0.504 OA
ATOM     21  H   UNL     1       3.923   2.206  77.028  1.00  0.00     0.293 HD
ENDBRANCH  17  20
ENDBRANCH   1  12
BRANCH   6  22
ATOM     22  O   UNL     1      12.681   4.812  78.106  1.00  0.00    -0.507 OA
ATOM     23  H   UNL     1      12.301   4.968  79.033  1.00  0.00     0.293 HD
ENDBRANCH   6  22
BRANCH   8  24
ATOM     24  O   UNL     1      13.125   7.750  74.304  1.00  0.00    -0.508 OA
ATOM     25  H   UNL     1      13.664   8.489  74.739  1.00  0.00     0.293 HD
ENDBRANCH   8  24
TORSDOF 5
ENDMDL
MODEL 3
REMARK VINA RESULT:    -5.226      1.972      3.339
REMARK INTER + INTRA:          -6.428
REMARK INTER:                  -6.160
REMARK INTRA:                  -0.269
REMARK UNBOUND:                -0.285
REMARK SMILES O=c1cc(-c2ccc(O)c(O)c2)oc2cc(O)cc(O)c12
REMARK SMILES IDX 4 1 3 2 2 3 1 4 21 5 19 6 18 7 16 8 15 9 14 10 13 11 5 12
REMARK SMILES IDX 6 13 7 14 8 15 12 16 10 17 9 18 11 20 20 22 17 24
REMARK H PARENT 9 19 11 21 20 23 17 25
REMARK Flexibility Score: inf
ROOT
ATOM      1  C   UNL     1       7.830   4.249  74.692  1.00  0.00     0.138 A 
ATOM      2  C   UNL     1       8.466   4.802  75.816  1.00  0.00     0.100 A 
ATOM      3  C   UNL     1       9.854   4.946  75.818  1.00  0.00     0.197 A 
ATOM      4  O   UNL     1      10.415   5.444  76.830  1.00  0.00    -0.289 OA
ATOM      5  C   UNL     1      10.597   4.538  74.691  1.00  0.00     0.107 A 
ATOM      6  C   UNL     1      12.005   4.648  74.612  1.00  0.00     0.134 A 
ATOM      7  C   UNL     1      12.671   4.224  73.451  1.00  0.00     0.093 A 
ATOM      8  C   UNL     1      11.957   3.696  72.373  1.00  0.00     0.123 A 
ATOM      9  C   UNL     1      10.564   3.585  72.447  1.00  0.00     0.094 A 
ATOM     10  C   UNL     1       9.882   4.001  73.594  1.00  0.00     0.146 A 
ATOM     11  O   UNL     1       8.559   3.884  73.641  1.00  0.00    -0.456 OA
ENDROOT
BRANCH   1  12
ATOM     12  C   UNL     1       6.356   4.074  74.634  1.00  0.00     0.021 A 
ATOM     13  C   UNL     1       5.709   3.022  75.312  1.00  0.00     0.016 A 
ATOM     14  C   UNL     1       4.321   2.876  75.230  1.00  0.00     0.051 A 
ATOM     15  C   UNL     1       3.559   3.767  74.466  1.00  0.00     0.157 A 
ATOM     16  C   UNL     1       5.584   4.957  73.858  1.00  0.00     0.062 A 
ATOM     17  C   UNL     1       4.192   4.809  73.777  1.00  0.00     0.158 A 
BRANCH  15  18
ATOM     18  O   UNL     1       2.176   3.624  74.385  1.00  0.00    -0.504 OA
ATOM     19  H   UNL     1       1.745   2.722  74.223  1.00  0.00     0.293 HD
ENDBRANCH  15  18
BRANCH  17  20
ATOM     20  O   UNL     1       3.432   5.693  73.014  1.00  0.00    -0.504 OA
ATOM     21  H   UNL     1       3.094   5.442  72.092  1.00  0.00     0.293 HD
ENDBRANCH  17  20
ENDBRANCH   1  12
BRANCH   6  22
ATOM     22  O   UNL     1      12.745   5.173  75.672  1.00  0.00    -0.507 OA
ATOM     23  H   UNL     1      12.312   5.416  76.555  1.00  0.00     0.293 HD
ENDBRANCH   6  22
BRANCH   8  24
ATOM     24  O   UNL     1      12.642   3.282  71.233  1.00  0.00    -0.508 OA
ATOM     25  H   UNL     1      12.248   3.398  70.307  1.00  0.00     0.293 HD
ENDBRANCH   8  24
TORSDOF 5
ENDMDL
MODEL 4
REMARK VINA RESULT:    -5.139      2.475      2.884
REMARK INTER + INTRA:          -6.326
REMARK INTER:                  -6.063
REMARK INTRA:                  -0.263
REMARK UNBOUND:                -0.285
REMARK SMILES O=c1cc(-c2ccc(O)c(O)c2)oc2cc(O)cc(O)c12
REMARK SMILES IDX 4 1 3 2 2 3 1 4 21 5 19 6 18 7 16 8 15 9 14 10 13 11 5 12
REMARK SMILES IDX 6 13 7 14 8 15 12 16 10 17 9 18 11 20 20 22 17 24
REMARK H PARENT 9 19 11 21 20 23 17 25
REMARK Flexibility Score: inf
ROOT
ATOM      1  C   UNL     1       8.068   4.728  74.254  1.00  0.00     0.138 A 
ATOM      2  C   UNL     1       8.955   3.747  73.782  1.00  0.00     0.100 A 
ATOM      3  C   UNL     1      10.319   4.029  73.712  1.00  0.00     0.197 A 
ATOM      4  O   UNL     1      11.107   3.142  73.288  1.00  0.00    -0.289 OA
ATOM      5  C   UNL     1      10.789   5.294  74.121  1.00  0.00     0.107 A 
ATOM      6  C   UNL     1      12.154   5.663  74.082  1.00  0.00     0.134 A 
ATOM      7  C   UNL     1      12.542   6.941  74.512  1.00  0.00     0.093 A 
ATOM      8  C   UNL     1      11.593   7.853  74.980  1.00  0.00     0.123 A 
ATOM      9  C   UNL     1      10.241   7.494  75.020  1.00  0.00     0.094 A 
ATOM     10  C   UNL     1       9.835   6.226  74.595  1.00  0.00     0.146 A 
ATOM     11  O   UNL     1       8.545   5.909  74.642  1.00  0.00    -0.456 OA
ENDROOT
BRANCH   1  12
ATOM     12  C   UNL     1       6.607   4.482  74.351  1.00  0.00     0.021 A 
ATOM     13  C   UNL     1       5.712   4.943  73.366  1.00  0.00     0.016 A 
ATOM     14  C   UNL     1       4.340   4.706  73.489  1.00  0.00     0.051 A 
ATOM     15  C   UNL     1       3.838   4.015  74.598  1.00  0.00     0.157 A 
ATOM     16  C   UNL     1       6.092   3.800  75.468  1.00  0.00     0.062 A 
ATOM     17  C   UNL     1       4.716   3.563  75.591  1.00  0.00     0.158 A 
BRANCH  15  18
ATOM     18  O   UNL     1       2.471   3.776  74.722  1.00  0.00    -0.504 OA
ATOM     19  H   UNL     1       1.788   4.506  74.557  1.00  0.00     0.293 HD
ENDBRANCH  15  18
BRANCH  17  20
ATOM     20  O   UNL     1       4.213   2.878  76.696  1.00  0.00    -0.504 OA
ATOM     21  H   UNL     1       4.094   1.872  76.687  1.00  0.00     0.293 HD
ENDBRANCH  17  20
ENDBRANCH   1  12
BRANCH   6  22
ATOM     22  O   UNL     1      13.125   4.773  73.621  1.00  0.00    -0.507 OA
ATOM     23  H   UNL     1      14.092   5.052  73.504  1.00  0.00     0.293 HD
ENDBRANCH   6  22
BRANCH   8  24
ATOM     24  O   UNL     1      12.004   9.116  75.400  1.00  0.00    -0.508 OA
ATOM     25  H   UNL     1      12.068   9.895  74.756  1.00  0.00     0.293 HD
ENDBRANCH   8  24
TORSDOF 5
ENDMDL
MODEL 5
REMARK VINA RESULT:    -4.832     16.864     18.553
REMARK INTER + INTRA:          -5.965
REMARK INTER:                  -5.687
REMARK INTRA:                  -0.278
REMARK UNBOUND:                -0.285
REMARK SMILES O=c1cc(-c2ccc(O)c(O)c2)oc2cc(O)cc(O)c12
REMARK SMILES IDX 4 1 3 2 2 3 1 4 21 5 19 6 18 7 16 8 15 9 14 10 13 11 5 12
REMARK SMILES IDX 6 13 7 14 8 15 12 16 10 17 9 18 11 20 20 22 17 24
REMARK H PARENT 9 19 11 21 20 23 17 25
REMARK Flexibility Score: inf
ROOT
ATOM      1  C   UNL     1       7.855  22.430  76.436  1.00  0.00     0.138 A 
ATOM      2  C   UNL     1       7.846  22.899  77.759  1.00  0.00     0.100 A 
ATOM      3  C   UNL     1       6.716  22.698  78.552  1.00  0.00     0.197 A 
ATOM      4  O   UNL     1       6.718  23.121  79.739  1.00  0.00    -0.289 OA
ATOM      5  C   UNL     1       5.600  22.024  78.014  1.00  0.00     0.107 A 
ATOM      6  C   UNL     1       4.416  21.780  78.748  1.00  0.00     0.134 A 
ATOM      7  C   UNL     1       3.351  21.097  78.141  1.00  0.00     0.093 A 
ATOM      8  C   UNL     1       3.449  20.654  76.820  1.00  0.00     0.123 A 
ATOM      9  C   UNL     1       4.619  20.893  76.090  1.00  0.00     0.094 A 
ATOM     10  C   UNL     1       5.690  21.572  76.676  1.00  0.00     0.146 A 
ATOM     11  O   UNL     1       6.790  21.789  75.961  1.00  0.00    -0.456 OA
ENDROOT
BRANCH   1  12
ATOM     12  C   UNL     1       9.031  22.614  75.547  1.00  0.00     0.021 A 
ATOM     13  C   UNL     1       8.886  22.969  74.192  1.00  0.00     0.016 A 
ATOM     14  C   UNL     1      10.011  23.125  73.377  1.00  0.00     0.051 A 
ATOM     15  C   UNL     1      11.295  22.922  73.896  1.00  0.00     0.157 A 
ATOM     16  C   UNL     1      10.325  22.399  76.057  1.00  0.00     0.062 A 
ATOM     17  C   UNL     1      11.452  22.556  75.238  1.00  0.00     0.158 A 
BRANCH  15  18
ATOM     18  O   UNL     1      12.417  23.078  73.086  1.00  0.00    -0.504 OA
ATOM     19  H   UNL     1      12.357  23.515  72.174  1.00  0.00     0.293 HD
ENDBRANCH  15  18
BRANCH  17  20
ATOM     20  O   UNL     1      12.731  22.350  75.752  1.00  0.00    -0.504 OA
ATOM     21  H   UNL     1      12.922  21.612  76.420  1.00  0.00     0.293 HD
ENDBRANCH  17  20
ENDBRANCH   1  12
BRANCH   6  22
ATOM     22  O   UNL     1       4.289  22.210  80.069  1.00  0.00    -0.507 OA
ATOM     23  H   UNL     1       3.851  23.093  80.303  1.00  0.00     0.293 HD
ENDBRANCH   6  22
BRANCH   8  24
ATOM     24  O   UNL     1       2.378  19.978  76.241  1.00  0.00    -0.508 OA
ATOM     25  H   UNL     1       1.844  20.383  75.481  1.00  0.00     0.293 HD
ENDBRANCH   8  24
TORSDOF 5
ENDMDL
MODEL 6
REMARK VINA RESULT:    -4.513      1.959      6.850
REMARK INTER + INTRA:          -5.590
REMARK INTER:                  -5.324
REMARK INTRA:                  -0.266
REMARK UNBOUND:                -0.285
REMARK SMILES O=c1cc(-c2ccc(O)c(O)c2)oc2cc(O)cc(O)c12
REMARK SMILES IDX 4 1 3 2 2 3 1 4 21 5 19 6 18 7 16 8 15 9 14 10 13 11 5 12
REMARK SMILES IDX 6 13 7 14 8 15 12 16 10 17 9 18 11 20 20 22 17 24
REMARK H PARENT 9 19 11 21 20 23 17 25
REMARK Flexibility Score: inf
ROOT
ATOM      1  C   UNL     1      11.104   5.647  76.648  1.00  0.00     0.138 A 
ATOM      2  C   UNL     1      11.947   5.478  75.538  1.00  0.00     0.100 A 
ATOM      3  C   UNL     1      11.405   5.074  74.318  1.00  0.00     0.197 A 
ATOM      4  O   UNL     1      12.169   4.926  73.327  1.00  0.00    -0.289 OA
ATOM      5  C   UNL     1      10.017   4.845  74.216  1.00  0.00     0.107 A 
ATOM      6  C   UNL     1       9.387   4.432  73.019  1.00  0.00     0.134 A 
ATOM      7  C   UNL     1       7.999   4.230  72.998  1.00  0.00     0.093 A 
ATOM      8  C   UNL     1       7.232   4.433  74.148  1.00  0.00     0.123 A 
ATOM      9  C   UNL     1       7.851   4.841  75.335  1.00  0.00     0.094 A 
ATOM     10  C   UNL     1       9.233   5.047  75.377  1.00  0.00     0.146 A 
ATOM     11  O   UNL     1       9.797   5.432  76.516  1.00  0.00    -0.456 OA
ENDROOT
BRANCH   1  12
ATOM     12  C   UNL     1      11.626   6.077  77.970  1.00  0.00     0.021 A 
ATOM     13  C   UNL     1      12.181   5.158  78.882  1.00  0.00     0.016 A 
ATOM     14  C   UNL     1      12.656   5.590  80.123  1.00  0.00     0.051 A 
ATOM     15  C   UNL     1      12.576   6.942  80.480  1.00  0.00     0.157 A 
ATOM     16  C   UNL     1      11.539   7.431  78.343  1.00  0.00     0.062 A 
ATOM     17  C   UNL     1      12.015   7.863  79.588  1.00  0.00     0.158 A 
BRANCH  15  18
ATOM     18  O   UNL     1      13.049   7.375  81.716  1.00  0.00    -0.504 OA
ATOM     19  H   UNL     1      12.840   8.301  82.069  1.00  0.00     0.293 HD
ENDBRANCH  15  18
BRANCH  17  20
ATOM     20  O   UNL     1      11.933   9.208  79.947  1.00  0.00    -0.504 OA
ATOM     21  H   UNL     1      12.160   9.521  80.883  1.00  0.00     0.293 HD
ENDBRANCH  17  20
ENDBRANCH   1  12
BRANCH   6  22
ATOM     22  O   UNL     1      10.126   4.222  71.854  1.00  0.00    -0.507 OA
ATOM     23  H   UNL     1      10.943   3.623  71.842  1.00  0.00     0.293 HD
ENDBRANCH   6  22
BRANCH   8  24
ATOM     24  O   UNL     1       5.856   4.225  74.101  1.00  0.00    -0.508 OA
ATOM     25  H   UNL     1       5.351   4.210  73.223  1.00  0.00     0.293 HD
ENDBRANCH   8  24
TORSDOF 5
ENDMDL
MODEL 7
REMARK VINA RESULT:    -4.302     17.722     19.019
REMARK INTER + INTRA:          -5.342
REMARK INTER:                  -5.028
REMARK INTRA:                  -0.314
REMARK UNBOUND:                -0.285
REMARK SMILES O=c1cc(-c2ccc(O)c(O)c2)oc2cc(O)cc(O)c12
REMARK SMILES IDX 4 1 3 2 2 3 1 4 21 5 19 6 18 7 16 8 15 9 14 10 13 11 5 12
REMARK SMILES IDX 6 13 7 14 8 15 12 16 10 17 9 18 11 20 20 22 17 24
REMARK H PARENT 9 19 11 21 20 23 17 25
REMARK Flexibility Score: inf
ROOT
ATOM      1  C   UNL     1       7.184  22.710  76.015  1.00  0.00     0.138 A 
ATOM      2  C   UNL     1       6.114  22.428  75.150  1.00  0.00     0.100 A 
ATOM      3  C   UNL     1       4.822  22.327  75.665  1.00  0.00     0.197 A 
ATOM      4  O   UNL     1       3.868  22.075  74.881  1.00  0.00    -0.289 OA
ATOM      5  C   UNL     1       4.608  22.514  77.047  1.00  0.00     0.107 A 
ATOM      6  C   UNL     1       3.331  22.428  77.650  1.00  0.00     0.134 A 
ATOM      7  C   UNL     1       3.201  22.633  79.032  1.00  0.00     0.093 A 
ATOM      8  C   UNL     1       4.319  22.921  79.818  1.00  0.00     0.123 A 
ATOM      9  C   UNL     1       5.584  23.007  79.226  1.00  0.00     0.094 A 
ATOM     10  C   UNL     1       5.735  22.806  77.851  1.00  0.00     0.146 A 
ATOM     11  O   UNL     1       6.946  22.891  77.312  1.00  0.00    -0.456 OA
ENDROOT
BRANCH   1  12
ATOM     12  C   UNL     1       8.580  22.831  75.522  1.00  0.00     0.021 A 
ATOM     13  C   UNL     1       8.869  23.006  74.155  1.00  0.00     0.016 A 
ATOM     14  C   UNL     1      10.193  23.106  73.718  1.00  0.00     0.051 A 
ATOM     15  C   UNL     1      11.248  23.024  74.634  1.00  0.00     0.157 A 
ATOM     16  C   UNL     1       9.647  22.737  76.434  1.00  0.00     0.062 A 
ATOM     17  C   UNL     1      10.974  22.837  75.994  1.00  0.00     0.158 A 
BRANCH  15  18
ATOM     18  O   UNL     1      12.568  23.125  74.202  1.00  0.00    -0.504 OA
ATOM     19  H   UNL     1      12.815  23.027  73.224  1.00  0.00     0.293 HD
ENDBRANCH  15  18
BRANCH  17  20
ATOM     20  O   UNL     1      12.027  22.752  76.904  1.00  0.00    -0.504 OA
ATOM     21  H   UNL     1      12.579  21.908  76.999  1.00  0.00     0.293 HD
ENDBRANCH  17  20
ENDBRANCH   1  12
BRANCH   6  22
ATOM     22  O   UNL     1       2.196  22.143  76.891  1.00  0.00    -0.507 OA
ATOM     23  H   UNL     1       1.298  22.568  77.094  1.00  0.00     0.293 HD
ENDBRANCH   6  22
BRANCH   8  24
ATOM     24  O   UNL     1       4.162  23.119  81.188  1.00  0.00    -0.508 OA
ATOM     25  H   UNL     1       4.316  22.371  81.853  1.00  0.00     0.293 HD
ENDBRANCH   8  24
TORSDOF 5
ENDMDL
MODEL 8
REMARK VINA RESULT:    -3.883     18.206     18.364
REMARK INTER + INTRA:          -4.849
REMARK INTER:                  -4.531
REMARK INTRA:                  -0.318
REMARK UNBOUND:                -0.285
REMARK SMILES O=c1cc(-c2ccc(O)c(O)c2)oc2cc(O)cc(O)c12
REMARK SMILES IDX 4 1 3 2 2 3 1 4 21 5 19 6 18 7 16 8 15 9 14 10 13 11 5 12
REMARK SMILES IDX 6 13 7 14 8 15 12 16 10 17 9 18 11 20 20 22 17 24
REMARK H PARENT 9 19 11 21 20 23 17 25
REMARK Flexibility Score: inf
ROOT
ATOM      1  C   UNL     1       6.388  23.066  74.994  1.00  0.00     0.138 A 
ATOM      2  C   UNL     1       6.695  23.094  73.624  1.00  0.00     0.100 A 
ATOM      3  C   UNL     1       8.030  23.102  73.219  1.00  0.00     0.197 A 
ATOM      4  O   UNL     1       8.296  23.125  71.988  1.00  0.00    -0.289 OA
ATOM      5  C   UNL     1       9.052  23.079  74.191  1.00  0.00     0.107 A 
ATOM      6  C   UNL     1      10.429  23.087  73.867  1.00  0.00     0.134 A 
ATOM      7  C   UNL     1      11.385  23.057  74.894  1.00  0.00     0.093 A 
ATOM      8  C   UNL     1      10.990  23.019  76.233  1.00  0.00     0.123 A 
ATOM      9  C   UNL     1       9.629  23.012  76.559  1.00  0.00     0.094 A 
ATOM     10  C   UNL     1       8.662  23.042  75.551  1.00  0.00     0.146 A 
ATOM     11  O   UNL     1       7.376  23.035  75.886  1.00  0.00    -0.456 OA
ENDROOT
BRANCH   1  12
ATOM     12  C   UNL     1       4.986  23.055  75.483  1.00  0.00     0.021 A 
ATOM     13  C   UNL     1       3.893  23.097  74.595  1.00  0.00     0.016 A 
ATOM     14  C   UNL     1       2.583  23.095  75.084  1.00  0.00     0.051 A 
ATOM     15  C   UNL     1       2.342  23.060  76.462  1.00  0.00     0.157 A 
ATOM     16  C   UNL     1       4.734  23.032  76.866  1.00  0.00     0.062 A 
ATOM     17  C   UNL     1       3.420  23.031  77.355  1.00  0.00     0.158 A 
BRANCH  15  18
ATOM     18  O   UNL     1       1.038  23.056  76.951  1.00  0.00    -0.504 OA
ATOM     19  H   UNL     1       0.439  22.245  76.859  1.00  0.00     0.293 HD
ENDBRANCH  15  18
BRANCH  17  20
ATOM     20  O   UNL     1       3.178  23.000  78.727  1.00  0.00    -0.504 OA
ATOM     21  H   UNL     1       2.350  22.558  79.110  1.00  0.00     0.293 HD
ENDBRANCH  17  20
ENDBRANCH   1  12
BRANCH   6  22
ATOM     22  O   UNL     1      10.853  23.123  72.538  1.00  0.00    -0.507 OA
ATOM     23  H   UNL     1      10.266  22.793  71.781  1.00  0.00     0.293 HD
ENDBRANCH   6  22
BRANCH   8  24
ATOM     24  O   UNL     1      11.959  22.991  77.233  1.00  0.00    -0.508 OA
ATOM     25  H   UNL     1      11.897  22.348  78.014  1.00  0.00     0.293 HD
ENDBRANCH   8  24
TORSDOF 5
ENDMDL
