MODEL 1
REMARK VINA RESULT:    -3.769      0.000      0.000
REMARK INTER + INTRA:          -4.758
REMARK INTER:                  -4.650
REMARK INTRA:                  -0.108
REMARK UNBOUND:                -0.108
REMARK SMILES CCCCCC(=O)[O-]
REMARK SMILES IDX 4 1 5 2 6 3 7 4 8 5 3 6 2 7 1 8
REMARK H PARENT
REMARK Flexibility Score: inf
ROOT
ATOM      1  C   UNL     1      40.496  20.466  16.234  1.00  0.00     0.006 C 
ENDROOT
BRANCH   1   2
ATOM      2  C   UNL     1      40.769  20.677  14.743  1.00  0.00     0.053 C 
BRANCH   2   3
ATOM      3  C   UNL     1      39.701  21.525  14.129  1.00  0.00     0.041 C 
ATOM      4  O   UNL     1      38.693  21.862  14.803  1.00  0.00    -0.550 OA
ATOM      5  O   UNL     1      39.794  21.904  12.795  1.00  0.00    -0.550 OA
ENDBRANCH   2   3
ENDBRANCH   1   2
BRANCH   1   6
ATOM      6  C   UNL     1      41.657  19.716  16.905  1.00  0.00     0.000 C 
BRANCH   6   7
ATOM      7  C   UNL     1      42.976  19.854  16.130  1.00  0.00    -0.003 C 
ATOM      8  C   UNL     1      44.042  18.862  16.596  1.00  0.00     0.004 C 
ENDBRANCH   6   7
ENDBRANCH   1   6
TORSDOF 4
ENDMDL
MODEL 2
REMARK VINA RESULT:    -3.738     14.987     15.541
REMARK INTER + INTRA:          -4.720
REMARK INTER:                  -4.652
REMARK INTRA:                  -0.068
REMARK UNBOUND:                -0.108
REMARK SMILES CCCCCC(=O)[O-]
REMARK SMILES IDX 4 1 5 2 6 3 7 4 8 5 3 6 2 7 1 8
REMARK H PARENT
REMARK Flexibility Score: inf
ROOT
ATOM      1  C   UNL     1      32.985   8.518  12.280  1.00  0.00     0.006 C 
ENDROOT
BRANCH   1   2
ATOM      2  C   UNL     1      33.090   7.327  11.324  1.00  0.00     0.053 C 
BRANCH   2   3
ATOM      3  C   UNL     1      34.116   7.590  10.269  1.00  0.00     0.041 C 
ATOM      4  O   UNL     1      33.760   7.884   9.098  1.00  0.00    -0.550 OA
ATOM      5  O   UNL     1      35.467   7.462  10.565  1.00  0.00    -0.550 OA
ENDBRANCH   2   3
ENDBRANCH   1   2
BRANCH   1   6
ATOM      6  C   UNL     1      31.554   9.077  12.309  1.00  0.00     0.000 C 
BRANCH   6   7
ATOM      7  C   UNL     1      31.488  10.551  11.882  1.00  0.00    -0.003 C 
ATOM      8  C   UNL     1      30.147  11.205  12.217  1.00  0.00     0.004 C 
ENDBRANCH   6   7
ENDBRANCH   1   6
TORSDOF 4
ENDMDL
MODEL 3
REMARK VINA RESULT:    -3.711     15.706     15.888
REMARK INTER + INTRA:          -4.686
REMARK INTER:                  -4.457
REMARK INTRA:                  -0.230
REMARK UNBOUND:                -0.108
REMARK SMILES CCCCCC(=O)[O-]
REMARK SMILES IDX 4 1 5 2 6 3 7 4 8 5 3 6 2 7 1 8
REMARK H PARENT
REMARK Flexibility Score: inf
ROOT
ATOM      1  C   UNL     1      35.654   7.656  11.441  1.00  0.00     0.006 C 
ENDROOT
BRANCH   1   2
ATOM      2  C   UNL     1      34.374   7.245  12.173  1.00  0.00     0.053 C 
BRANCH   2   3
ATOM      3  C   UNL     1      34.579   5.959  12.908  1.00  0.00     0.041 C 
ATOM      4  O   UNL     1      35.484   5.864  13.778  1.00  0.00    -0.550 OA
ATOM      5  O   UNL     1      33.803   4.849  12.599  1.00  0.00    -0.550 OA
ENDBRANCH   2   3
ENDBRANCH   1   2
BRANCH   1   6
ATOM      6  C   UNL     1      35.920   6.736  10.239  1.00  0.00     0.000 C 
BRANCH   6   7
ATOM      7  C   UNL     1      37.215   5.925  10.391  1.00  0.00    -0.003 C 
ATOM      8  C   UNL     1      38.309   6.691  11.137  1.00  0.00     0.004 C 
ENDBRANCH   6   7
ENDBRANCH   1   6
TORSDOF 4
ENDMDL
MODEL 4
REMARK VINA RESULT:    -3.676     15.407     15.513
REMARK INTER + INTRA:          -4.643
REMARK INTER:                  -4.512
REMARK INTRA:                  -0.131
REMARK UNBOUND:                -0.108
REMARK SMILES CCCCCC(=O)[O-]
REMARK SMILES IDX 4 1 5 2 6 3 7 4 8 5 3 6 2 7 1 8
REMARK H PARENT
REMARK Flexibility Score: inf
ROOT
ATOM      1  C   UNL     1      35.520   7.803  11.423  1.00  0.00     0.006 C 
ENDROOT
BRANCH   1   2
ATOM      2  C   UNL     1      34.056   7.439  11.162  1.00  0.00     0.053 C 
BRANCH   2   3
ATOM      3  C   UNL     1      33.848   7.107   9.718  1.00  0.00     0.041 C 
ATOM      4  O   UNL     1      33.849   8.020   8.851  1.00  0.00    -0.550 OA
ATOM      5  O   UNL     1      33.603   5.795   9.333  1.00  0.00    -0.550 OA
ENDBRANCH   2   3
ENDBRANCH   1   2
BRANCH   1   6
ATOM      6  C   UNL     1      36.411   6.551  11.397  1.00  0.00     0.000 C 
BRANCH   6   7
ATOM      7  C   UNL     1      37.675   6.745  10.546  1.00  0.00    -0.003 C 
ATOM      8  C   UNL     1      38.955   6.753  11.380  1.00  0.00     0.004 C 
ENDBRANCH   6   7
ENDBRANCH   1   6
TORSDOF 4
ENDMDL
MODEL 5
REMARK VINA RESULT:    -3.651     15.677     16.166
REMARK INTER + INTRA:          -4.613
REMARK INTER:                  -4.476
REMARK INTRA:                  -0.137
REMARK UNBOUND:                -0.108
REMARK SMILES CCCCCC(=O)[O-]
REMARK SMILES IDX 4 1 5 2 6 3 7 4 8 5 3 6 2 7 1 8
REMARK H PARENT
REMARK Flexibility Score: inf
ROOT
ATOM      1  C   UNL     1      34.652   7.774  11.980  1.00  0.00     0.006 C 
ENDROOT
BRANCH   1   2
ATOM      2  C   UNL     1      35.046   6.295  12.011  1.00  0.00     0.053 C 
BRANCH   2   3
ATOM      3  C   UNL     1      34.701   5.688  13.333  1.00  0.00     0.041 C 
ATOM      4  O   UNL     1      35.538   5.696  14.273  1.00  0.00    -0.550 OA
ATOM      5  O   UNL     1      33.471   5.068  13.514  1.00  0.00    -0.550 OA
ENDBRANCH   2   3
ENDBRANCH   1   2
BRANCH   1   6
ATOM      6  C   UNL     1      33.211   7.949  11.476  1.00  0.00     0.000 C 
BRANCH   6   7
ATOM      7  C   UNL     1      32.255   8.431  12.578  1.00  0.00    -0.003 C 
ATOM      8  C   UNL     1      31.491   9.695  12.187  1.00  0.00     0.004 C 
ENDBRANCH   6   7
ENDBRANCH   1   6
TORSDOF 4
ENDMDL
MODEL 6
REMARK VINA RESULT:    -3.625      2.877      4.289
REMARK INTER + INTRA:          -4.580
REMARK INTER:                  -4.414
REMARK INTRA:                  -0.166
REMARK UNBOUND:                -0.108
REMARK SMILES CCCCCC(=O)[O-]
REMARK SMILES IDX 4 1 5 2 6 3 7 4 8 5 3 6 2 7 1 8
REMARK H PARENT
REMARK Flexibility Score: inf
ROOT
ATOM      1  C   UNL     1      40.702  19.964  16.387  1.00  0.00     0.006 C 
ENDROOT
BRANCH   1   2
ATOM      2  C   UNL     1      41.994  19.862  17.203  1.00  0.00     0.053 C 
BRANCH   2   3
ATOM      3  C   UNL     1      43.173  19.696  16.298  1.00  0.00     0.041 C 
ATOM      4  O   UNL     1      43.381  20.520  15.369  1.00  0.00    -0.550 OA
ATOM      5  O   UNL     1      44.018  18.604  16.449  1.00  0.00    -0.550 OA
ENDBRANCH   2   3
ENDBRANCH   1   2
BRANCH   1   6
ATOM      6  C   UNL     1      40.139  21.393  16.426  1.00  0.00     0.000 C 
BRANCH   6   7
ATOM      7  C   UNL     1      39.354  21.753  15.156  1.00  0.00    -0.003 C 
ATOM      8  C   UNL     1      40.092  21.366  13.874  1.00  0.00     0.004 C 
ENDBRANCH   6   7
ENDBRANCH   1   6
TORSDOF 4
ENDMDL
MODEL 7
REMARK VINA RESULT:    -3.595     16.167     16.332
REMARK INTER + INTRA:          -4.544
REMARK INTER:                  -4.318
REMARK INTRA:                  -0.226
REMARK UNBOUND:                -0.108
REMARK SMILES CCCCCC(=O)[O-]
REMARK SMILES IDX 4 1 5 2 6 3 7 4 8 5 3 6 2 7 1 8
REMARK H PARENT
REMARK Flexibility Score: inf
ROOT
ATOM      1  C   UNL     1      34.108   7.020  10.547  1.00  0.00     0.006 C 
ENDROOT
BRANCH   1   2
ATOM      2  C   UNL     1      34.001   7.497   9.097  1.00  0.00     0.053 C 
BRANCH   2   3
ATOM      3  C   UNL     1      34.147   6.346   8.153  1.00  0.00     0.041 C 
ATOM      4  O   UNL     1      35.110   5.544   8.277  1.00  0.00    -0.550 OA
ATOM      5  O   UNL     1      33.249   6.185   7.106  1.00  0.00    -0.550 OA
ENDBRANCH   2   3
ENDBRANCH   1   2
BRANCH   1   6
ATOM      6  C   UNL     1      35.380   7.567  11.214  1.00  0.00     0.000 C 
BRANCH   6   7
ATOM      7  C   UNL     1      36.472   6.499  11.370  1.00  0.00    -0.003 C 
ATOM      8  C   UNL     1      37.678   6.749  10.464  1.00  0.00     0.004 C 
ENDBRANCH   6   7
ENDBRANCH   1   6
TORSDOF 4
ENDMDL
MODEL 8
REMARK VINA RESULT:    -3.580     15.243     15.704
REMARK INTER + INTRA:          -4.525
REMARK INTER:                  -4.437
REMARK INTRA:                  -0.088
REMARK UNBOUND:                -0.108
REMARK SMILES CCCCCC(=O)[O-]
REMARK SMILES IDX 4 1 5 2 6 3 7 4 8 5 3 6 2 7 1 8
REMARK H PARENT
REMARK Flexibility Score: inf
ROOT
ATOM      1  C   UNL     1      33.500   7.679  11.367  1.00  0.00     0.006 C 
ENDROOT
BRANCH   1   2
ATOM      2  C   UNL     1      35.013   7.871  11.499  1.00  0.00     0.053 C 
BRANCH   2   3
ATOM      3  C   UNL     1      35.676   6.580  11.861  1.00  0.00     0.041 C 
ATOM      4  O   UNL     1      35.383   5.997  12.938  1.00  0.00    -0.550 OA
ATOM      5  O   UNL     1      36.653   6.043  11.033  1.00  0.00    -0.550 OA
ENDBRANCH   2   3
ENDBRANCH   1   2
BRANCH   1   6
ATOM      6  C   UNL     1      32.760   8.296  12.564  1.00  0.00     0.000 C 
BRANCH   6   7
ATOM      7  C   UNL     1      31.373   8.836  12.187  1.00  0.00    -0.003 C 
ATOM      8  C   UNL     1      31.328  10.363  12.125  1.00  0.00     0.004 C 
ENDBRANCH   6   7
ENDBRANCH   1   6
TORSDOF 4
ENDMDL
MODEL 9
REMARK VINA RESULT:    -3.567     15.605     15.981
REMARK INTER + INTRA:          -4.509
REMARK INTER:                  -4.336
REMARK INTRA:                  -0.173
REMARK UNBOUND:                -0.108
REMARK SMILES CCCCCC(=O)[O-]
REMARK SMILES IDX 4 1 5 2 6 3 7 4 8 5 3 6 2 7 1 8
REMARK H PARENT
REMARK Flexibility Score: inf
ROOT
ATOM      1  C   UNL     1      34.857   7.098  11.860  1.00  0.00     0.006 C 
ENDROOT
BRANCH   1   2
ATOM      2  C   UNL     1      35.353   7.208  10.416  1.00  0.00     0.053 C 
BRANCH   2   3
ATOM      3  C   UNL     1      34.227   6.991   9.457  1.00  0.00     0.041 C 
ATOM      4  O   UNL     1      33.861   7.918   8.687  1.00  0.00    -0.550 OA
ATOM      5  O   UNL     1      33.546   5.779   9.444  1.00  0.00    -0.550 OA
ENDBRANCH   2   3
ENDBRANCH   1   2
BRANCH   1   6
ATOM      6  C   UNL     1      33.942   8.279  12.220  1.00  0.00     0.000 C 
BRANCH   6   7
ATOM      7  C   UNL     1      32.536   7.829  12.643  1.00  0.00    -0.003 C 
ATOM      8  C   UNL     1      31.454   8.844  12.274  1.00  0.00     0.004 C 
ENDBRANCH   6   7
ENDBRANCH   1   6
TORSDOF 4
ENDMDL
