MODEL 1
REMARK VINA RESULT:    -4.513      0.000      0.000
REMARK INTER + INTRA:          -5.464
REMARK INTER:                  -5.172
REMARK INTRA:                  -0.292
REMARK UNBOUND:                -0.292
REMARK SMILES COC(=O)c1ccccc1O
REMARK SMILES IDX 5 1 6 2 7 3 8 4 9 5 10 6 3 7 4 8 2 9 1 10 11 11
REMARK H PARENT 11 12
REMARK Flexibility Score: inf
ROOT
ATOM      1  C   UNL     1      11.913 -10.564 -43.752  1.00  0.00     0.101 A 
ATOM      2  C   UNL     1      10.949 -11.384 -43.134  1.00  0.00     0.019 A 
ATOM      3  C   UNL     1      11.168 -12.755 -42.993  1.00  0.00     0.001 A 
ATOM      4  C   UNL     1      12.350 -13.327 -43.463  1.00  0.00     0.004 A 
ATOM      5  C   UNL     1      13.325 -12.526 -44.058  1.00  0.00     0.047 A 
ATOM      6  C   UNL     1      13.129 -11.145 -44.189  1.00  0.00     0.130 A 
ENDROOT
BRANCH   1   7
ATOM      7  C   UNL     1      11.601  -9.132 -43.953  1.00  0.00     0.341 C 
ATOM      8  O   UNL     1      12.063  -8.528 -44.960  1.00  0.00    -0.246 OA
BRANCH   7   9
ATOM      9  O   UNL     1      10.850  -8.436 -43.001  1.00  0.00    -0.465 OA
ATOM     10  C   UNL     1       9.760  -7.591 -43.351  1.00  0.00     0.282 C 
ENDBRANCH   7   9
ENDBRANCH   1   7
BRANCH   6  11
ATOM     11  O   UNL     1      14.175 -10.388 -44.722  1.00  0.00    -0.507 OA
ATOM     12  H   UNL     1      14.150  -9.379 -44.794  1.00  0.00     0.293 HD
ENDBRANCH   6  11
TORSDOF 3
ENDMDL
MODEL 2
REMARK VINA RESULT:    -4.412      1.936      2.322
REMARK INTER + INTRA:          -5.349
REMARK INTER:                  -5.029
REMARK INTRA:                  -0.320
REMARK UNBOUND:                -0.292
REMARK SMILES COC(=O)c1ccccc1O
REMARK SMILES IDX 5 1 6 2 7 3 8 4 9 5 10 6 3 7 4 8 2 9 1 10 11 11
REMARK H PARENT 11 12
REMARK Flexibility Score: inf
ROOT
ATOM      1  C   UNL     1      10.609 -10.297 -44.567  1.00  0.00     0.101 A 
ATOM      2  C   UNL     1       9.517 -10.473 -45.437  1.00  0.00     0.019 A 
ATOM      3  C   UNL     1       8.902 -11.720 -45.565  1.00  0.00     0.001 A 
ATOM      4  C   UNL     1       9.367 -12.808 -44.827  1.00  0.00     0.004 A 
ATOM      5  C   UNL     1      10.435 -12.647 -43.943  1.00  0.00     0.047 A 
ATOM      6  C   UNL     1      11.049 -11.397 -43.788  1.00  0.00     0.130 A 
ENDROOT
BRANCH   1   7
ATOM      7  C   UNL     1      11.278  -8.979 -44.527  1.00  0.00     0.341 C 
ATOM      8  O   UNL     1      12.528  -8.909 -44.685  1.00  0.00    -0.246 OA
BRANCH   7   9
ATOM      9  O   UNL     1      10.540  -7.824 -44.254  1.00  0.00    -0.465 OA
ATOM     10  C   UNL     1       9.868  -7.616 -43.017  1.00  0.00     0.282 C 
ENDBRANCH   7   9
ENDBRANCH   1   7
BRANCH   6  11
ATOM     11  O   UNL     1      12.060 -11.283 -42.831  1.00  0.00    -0.507 OA
ATOM     12  H   UNL     1      12.431 -12.072 -42.318  1.00  0.00     0.293 HD
ENDBRANCH   6  11
TORSDOF 3
ENDMDL
MODEL 3
REMARK VINA RESULT:    -4.246      1.357      2.115
REMARK INTER + INTRA:          -5.158
REMARK INTER:                  -4.872
REMARK INTRA:                  -0.286
REMARK UNBOUND:                -0.292
REMARK SMILES COC(=O)c1ccccc1O
REMARK SMILES IDX 5 1 6 2 7 3 8 4 9 5 10 6 3 7 4 8 2 9 1 10 11 11
REMARK H PARENT 11 12
REMARK Flexibility Score: inf
ROOT
ATOM      1  C   UNL     1      11.710 -10.803 -44.198  1.00  0.00     0.101 A 
ATOM      2  C   UNL     1      13.012 -11.211 -43.853  1.00  0.00     0.019 A 
ATOM      3  C   UNL     1      13.279 -12.543 -43.532  1.00  0.00     0.001 A 
ATOM      4  C   UNL     1      12.252 -13.487 -43.551  1.00  0.00     0.004 A 
ATOM      5  C   UNL     1      10.959 -13.104 -43.911  1.00  0.00     0.047 A 
ATOM      6  C   UNL     1      10.679 -11.775 -44.257  1.00  0.00     0.130 A 
ENDROOT
BRANCH   1   7
ATOM      7  C   UNL     1      11.459  -9.368 -44.450  1.00  0.00     0.341 C 
ATOM      8  O   UNL     1      12.419  -8.612 -44.765  1.00  0.00    -0.246 OA
BRANCH   7   9
ATOM      9  O   UNL     1      10.176  -8.838 -44.282  1.00  0.00    -0.465 OA
ATOM     10  C   UNL     1       9.925  -7.659 -43.527  1.00  0.00     0.282 C 
ENDBRANCH   7   9
ENDBRANCH   1   7
BRANCH   6  11
ATOM     11  O   UNL     1       9.385 -11.473 -44.683  1.00  0.00    -0.507 OA
ATOM     12  H   UNL     1       8.893 -10.630 -44.415  1.00  0.00     0.293 HD
ENDBRANCH   6  11
TORSDOF 3
ENDMDL
MODEL 4
REMARK VINA RESULT:    -4.237      2.521      3.287
REMARK INTER + INTRA:          -5.148
REMARK INTER:                  -4.866
REMARK INTRA:                  -0.283
REMARK UNBOUND:                -0.292
REMARK SMILES COC(=O)c1ccccc1O
REMARK SMILES IDX 5 1 6 2 7 3 8 4 9 5 10 6 3 7 4 8 2 9 1 10 11 11
REMARK H PARENT 11 12
REMARK Flexibility Score: inf
ROOT
ATOM      1  C   UNL     1      10.110 -10.642 -44.977  1.00  0.00     0.101 A 
ATOM      2  C   UNL     1      11.070 -11.666 -44.887  1.00  0.00     0.019 A 
ATOM      3  C   UNL     1      10.732 -12.988 -45.183  1.00  0.00     0.001 A 
ATOM      4  C   UNL     1       9.432 -13.305 -45.574  1.00  0.00     0.004 A 
ATOM      5  C   UNL     1       8.472 -12.299 -45.690  1.00  0.00     0.047 A 
ATOM      6  C   UNL     1       8.801 -10.965 -45.416  1.00  0.00     0.130 A 
ENDROOT
BRANCH   1   7
ATOM      7  C   UNL     1      10.494  -9.271 -44.575  1.00  0.00     0.341 C 
ATOM      8  O   UNL     1      11.703  -8.917 -44.639  1.00  0.00    -0.246 OA
BRANCH   7   9
ATOM      9  O   UNL     1       9.531  -8.392 -44.068  1.00  0.00    -0.465 OA
ATOM     10  C   UNL     1       9.797  -7.499 -42.993  1.00  0.00     0.282 C 
ENDBRANCH   7   9
ENDBRANCH   1   7
BRANCH   6  11
ATOM     11  O   UNL     1       7.818  -9.996 -45.627  1.00  0.00    -0.507 OA
ATOM     12  H   UNL     1       7.029 -10.129 -46.246  1.00  0.00     0.293 HD
ENDBRANCH   6  11
TORSDOF 3
ENDMDL
MODEL 5
REMARK VINA RESULT:    -4.231      2.642      4.035
REMARK INTER + INTRA:          -5.142
REMARK INTER:                  -4.863
REMARK INTRA:                  -0.279
REMARK UNBOUND:                -0.292
REMARK SMILES COC(=O)c1ccccc1O
REMARK SMILES IDX 5 1 6 2 7 3 8 4 9 5 10 6 3 7 4 8 2 9 1 10 11 11
REMARK H PARENT 11 12
REMARK Flexibility Score: inf
ROOT
ATOM      1  C   UNL     1      10.520 -10.234 -44.205  1.00  0.00     0.101 A 
ATOM      2  C   UNL     1      10.149  -8.939 -44.612  1.00  0.00     0.019 A 
ATOM      3  C   UNL     1      10.122  -7.885 -43.697  1.00  0.00     0.001 A 
ATOM      4  C   UNL     1      10.464  -8.108 -42.364  1.00  0.00     0.004 A 
ATOM      5  C   UNL     1      10.854  -9.382 -41.947  1.00  0.00     0.047 A 
ATOM      6  C   UNL     1      10.907 -10.445 -42.857  1.00  0.00     0.130 A 
ENDROOT
BRANCH   1   7
ATOM      7  C   UNL     1      10.455 -11.334 -45.191  1.00  0.00     0.341 C 
ATOM      8  O   UNL     1      11.338 -12.236 -45.180  1.00  0.00    -0.246 OA
BRANCH   7   9
ATOM      9  O   UNL     1       9.456 -11.343 -46.169  1.00  0.00    -0.465 OA
ATOM     10  C   UNL     1       8.101 -11.664 -45.880  1.00  0.00     0.282 C 
ENDBRANCH   7   9
ENDBRANCH   1   7
BRANCH   6  11
ATOM     11  O   UNL     1      11.381 -11.674 -42.395  1.00  0.00    -0.507 OA
ATOM     12  H   UNL     1      12.075 -12.223 -42.885  1.00  0.00     0.293 HD
ENDBRANCH   6  11
TORSDOF 3
ENDMDL
MODEL 6
REMARK VINA RESULT:    -4.226      3.147      4.167
REMARK INTER + INTRA:          -5.136
REMARK INTER:                  -4.880
REMARK INTRA:                  -0.256
REMARK UNBOUND:                -0.292
REMARK SMILES COC(=O)c1ccccc1O
REMARK SMILES IDX 5 1 6 2 7 3 8 4 9 5 10 6 3 7 4 8 2 9 1 10 11 11
REMARK H PARENT 11 12
REMARK Flexibility Score: inf
ROOT
ATOM      1  C   UNL     1       9.743 -10.430 -45.024  1.00  0.00     0.101 A 
ATOM      2  C   UNL     1       9.136  -9.220 -44.636  1.00  0.00     0.019 A 
ATOM      3  C   UNL     1       9.828  -8.296 -43.852  1.00  0.00     0.001 A 
ATOM      4  C   UNL     1      11.134  -8.564 -43.444  1.00  0.00     0.004 A 
ATOM      5  C   UNL     1      11.759  -9.748 -43.837  1.00  0.00     0.047 A 
ATOM      6  C   UNL     1      11.085 -10.677 -44.641  1.00  0.00     0.130 A 
ENDROOT
BRANCH   1   7
ATOM      7  C   UNL     1       8.942 -11.413 -45.784  1.00  0.00     0.341 C 
ATOM      8  O   UNL     1       9.523 -12.243 -46.537  1.00  0.00    -0.246 OA
BRANCH   7   9
ATOM      9  O   UNL     1       7.546 -11.385 -45.717  1.00  0.00    -0.465 OA
ATOM     10  C   UNL     1       6.748 -12.559 -45.819  1.00  0.00     0.282 C 
ENDBRANCH   7   9
ENDBRANCH   1   7
BRANCH   6  11
ATOM     11  O   UNL     1      11.792 -11.804 -45.064  1.00  0.00    -0.507 OA
ATOM     12  H   UNL     1      11.966 -12.019 -46.037  1.00  0.00     0.293 HD
ENDBRANCH   6  11
TORSDOF 3
ENDMDL
MODEL 7
REMARK VINA RESULT:    -4.177      1.718      3.925
REMARK INTER + INTRA:          -5.080
REMARK INTER:                  -4.855
REMARK INTRA:                  -0.225
REMARK UNBOUND:                -0.292
REMARK SMILES COC(=O)c1ccccc1O
REMARK SMILES IDX 5 1 6 2 7 3 8 4 9 5 10 6 3 7 4 8 2 9 1 10 11 11
REMARK H PARENT 11 12
REMARK Flexibility Score: inf
ROOT
ATOM      1  C   UNL     1      11.878 -10.526 -44.235  1.00  0.00     0.101 A 
ATOM      2  C   UNL     1      10.501 -10.523 -43.944  1.00  0.00     0.019 A 
ATOM      3  C   UNL     1       9.765  -9.338 -44.001  1.00  0.00     0.001 A 
ATOM      4  C   UNL     1      10.390  -8.142 -44.349  1.00  0.00     0.004 A 
ATOM      5  C   UNL     1      11.750  -8.130 -44.661  1.00  0.00     0.047 A 
ATOM      6  C   UNL     1      12.499  -9.314 -44.629  1.00  0.00     0.130 A 
ENDROOT
BRANCH   1   7
ATOM      7  C   UNL     1      12.633 -11.789 -44.081  1.00  0.00     0.341 C 
ATOM      8  O   UNL     1      12.333 -12.786 -44.794  1.00  0.00    -0.246 OA
BRANCH   7   9
ATOM      9  O   UNL     1      13.633 -11.896 -43.110  1.00  0.00    -0.465 OA
ATOM     10  C   UNL     1      15.004 -12.091 -43.437  1.00  0.00     0.282 C 
ENDBRANCH   7   9
ENDBRANCH   1   7
BRANCH   6  11
ATOM     11  O   UNL     1      13.836  -9.249 -45.027  1.00  0.00    -0.507 OA
ATOM     12  H   UNL     1      14.349 -10.045 -45.385  1.00  0.00     0.293 HD
ENDBRANCH   6  11
TORSDOF 3
ENDMDL
MODEL 8
REMARK VINA RESULT:    -4.176      2.158      4.349
REMARK INTER + INTRA:          -5.079
REMARK INTER:                  -4.794
REMARK INTRA:                  -0.285
REMARK UNBOUND:                -0.292
REMARK SMILES COC(=O)c1ccccc1O
REMARK SMILES IDX 5 1 6 2 7 3 8 4 9 5 10 6 3 7 4 8 2 9 1 10 11 11
REMARK H PARENT 11 12
REMARK Flexibility Score: inf
ROOT
ATOM      1  C   UNL     1      12.150 -10.715 -44.181  1.00  0.00     0.101 A 
ATOM      2  C   UNL     1      12.755  -9.467 -44.423  1.00  0.00     0.019 A 
ATOM      3  C   UNL     1      11.976  -8.330 -44.644  1.00  0.00     0.001 A 
ATOM      4  C   UNL     1      10.585  -8.420 -44.625  1.00  0.00     0.004 A 
ATOM      5  C   UNL     1       9.968  -9.645 -44.367  1.00  0.00     0.047 A 
ATOM      6  C   UNL     1      10.736 -10.792 -44.123  1.00  0.00     0.130 A 
ENDROOT
BRANCH   1   7
ATOM      7  C   UNL     1      13.014 -11.906 -44.035  1.00  0.00     0.341 C 
ATOM      8  O   UNL     1      12.830 -12.907 -44.780  1.00  0.00    -0.246 OA
BRANCH   7   9
ATOM      9  O   UNL     1      13.991 -11.946 -43.035  1.00  0.00    -0.465 OA
ATOM     10  C   UNL     1      15.384 -11.899 -43.321  1.00  0.00     0.282 C 
ENDBRANCH   7   9
ENDBRANCH   1   7
BRANCH   6  11
ATOM     11  O   UNL     1      10.060 -11.968 -43.793  1.00  0.00    -0.507 OA
ATOM     12  H   UNL     1       9.121 -12.178 -44.107  1.00  0.00     0.293 HD
ENDBRANCH   6  11
TORSDOF 3
ENDMDL
MODEL 9
REMARK VINA RESULT:    -4.145      3.403      4.720
REMARK INTER + INTRA:          -5.043
REMARK INTER:                  -4.714
REMARK INTRA:                  -0.328
REMARK UNBOUND:                -0.292
REMARK SMILES COC(=O)c1ccccc1O
REMARK SMILES IDX 5 1 6 2 7 3 8 4 9 5 10 6 3 7 4 8 2 9 1 10 11 11
REMARK H PARENT 11 12
REMARK Flexibility Score: inf
ROOT
ATOM      1  C   UNL     1      10.109 -11.154 -45.117  1.00  0.00     0.101 A 
ATOM      2  C   UNL     1      11.416 -11.123 -44.595  1.00  0.00     0.019 A 
ATOM      3  C   UNL     1      11.897  -9.984 -43.948  1.00  0.00     0.001 A 
ATOM      4  C   UNL     1      11.083  -8.861 -43.811  1.00  0.00     0.004 A 
ATOM      5  C   UNL     1       9.777  -8.881 -44.303  1.00  0.00     0.047 A 
ATOM      6  C   UNL     1       9.272 -10.023 -44.937  1.00  0.00     0.130 A 
ENDROOT
BRANCH   1   7
ATOM      7  C   UNL     1       9.672 -12.351 -45.866  1.00  0.00     0.341 C 
ATOM      8  O   UNL     1      10.460 -12.898 -46.686  1.00  0.00    -0.246 OA
BRANCH   7   9
ATOM      9  O   UNL     1       8.371 -12.840 -45.713  1.00  0.00    -0.465 OA
ATOM     10  C   UNL     1       7.575 -13.265 -46.813  1.00  0.00     0.282 C 
ENDBRANCH   7   9
ENDBRANCH   1   7
BRANCH   6  11
ATOM     11  O   UNL     1       7.935 -10.008 -45.337  1.00  0.00    -0.507 OA
ATOM     12  H   UNL     1       7.173 -10.316 -44.746  1.00  0.00     0.293 HD
ENDBRANCH   6  11
TORSDOF 3
ENDMDL
