MODEL 1
REMARK VINA RESULT:    -4.808      0.000      0.000
REMARK INTER + INTRA:          -6.109
REMARK INTER:                  -5.933
REMARK INTRA:                  -0.176
REMARK UNBOUND:                -0.176
REMARK SMILES CCCCCC(=O)[O-]
REMARK SMILES IDX 4 1 5 2 6 3 7 4 8 5 3 6 2 7 1 8
REMARK H PARENT
REMARK Flexibility Score: inf
ROOT
ATOM      1  C   UNL     1      27.625   3.722   4.052  1.00  0.00     0.006 C 
ENDROOT
BRANCH   1   2
ATOM      2  C   UNL     1      28.594   2.540   4.225  1.00  0.00     0.053 C 
BRANCH   2   3
ATOM      3  C   UNL     1      27.909   1.303   4.721  1.00  0.00     0.041 C 
ATOM      4  O   UNL     1      27.413   1.276   5.878  1.00  0.00    -0.550 OA
ATOM      5  O   UNL     1      27.848   0.168   3.921  1.00  0.00    -0.550 OA
ENDBRANCH   2   3
ENDBRANCH   1   2
BRANCH   1   6
ATOM      6  C   UNL     1      27.737   4.788   5.157  1.00  0.00     0.000 C 
BRANCH   6   7
ATOM      7  C   UNL     1      28.926   4.556   6.099  1.00  0.00    -0.003 C 
ATOM      8  C   UNL     1      29.828   5.785   6.160  1.00  0.00     0.004 C 
ENDBRANCH   6   7
ENDBRANCH   1   6
TORSDOF 4
ENDMDL
MODEL 2
REMARK VINA RESULT:    -4.633      2.737      4.198
REMARK INTER + INTRA:          -5.893
REMARK INTER:                  -5.726
REMARK INTRA:                  -0.167
REMARK UNBOUND:                -0.176
REMARK SMILES CCCCCC(=O)[O-]
REMARK SMILES IDX 4 1 5 2 6 3 7 4 8 5 3 6 2 7 1 8
REMARK H PARENT
REMARK Flexibility Score: inf
ROOT
ATOM      1  C   UNL     1      27.810   4.002   4.469  1.00  0.00     0.006 C 
ENDROOT
BRANCH   1   2
ATOM      2  C   UNL     1      28.388   4.483   5.811  1.00  0.00     0.053 C 
BRANCH   2   3
ATOM      3  C   UNL     1      29.729   5.135   5.660  1.00  0.00     0.041 C 
ATOM      4  O   UNL     1      30.698   4.484   5.187  1.00  0.00    -0.550 OA
ATOM      5  O   UNL     1      29.919   6.448   6.072  1.00  0.00    -0.550 OA
ENDBRANCH   2   3
ENDBRANCH   1   2
BRANCH   1   6
ATOM      6  C   UNL     1      27.684   2.472   4.357  1.00  0.00     0.000 C 
BRANCH   6   7
ATOM      7  C   UNL     1      27.782   1.758   5.712  1.00  0.00    -0.003 C 
ATOM      8  C   UNL     1      28.569   0.457   5.593  1.00  0.00     0.004 C 
ENDBRANCH   6   7
ENDBRANCH   1   6
TORSDOF 4
ENDMDL
MODEL 3
REMARK VINA RESULT:    -4.356      2.482      4.325
REMARK INTER + INTRA:          -5.550
REMARK INTER:                  -5.472
REMARK INTRA:                  -0.079
REMARK UNBOUND:                -0.176
REMARK SMILES CCCCCC(=O)[O-]
REMARK SMILES IDX 4 1 5 2 6 3 7 4 8 5 3 6 2 7 1 8
REMARK H PARENT
REMARK Flexibility Score: inf
ROOT
ATOM      1  C   UNL     1      27.587   2.552   4.907  1.00  0.00     0.006 C 
ENDROOT
BRANCH   1   2
ATOM      2  C   UNL     1      27.872   3.949   4.328  1.00  0.00     0.053 C 
BRANCH   2   3
ATOM      3  C   UNL     1      28.613   4.829   5.289  1.00  0.00     0.041 C 
ATOM      4  O   UNL     1      29.126   5.908   4.891  1.00  0.00    -0.550 OA
ATOM      5  O   UNL     1      28.768   4.442   6.615  1.00  0.00    -0.550 OA
ENDBRANCH   2   3
ENDBRANCH   1   2
BRANCH   1   6
ATOM      6  C   UNL     1      28.646   1.497   4.542  1.00  0.00     0.000 C 
BRANCH   6   7
ATOM      7  C   UNL     1      28.630   0.278   5.475  1.00  0.00    -0.003 C 
ATOM      8  C   UNL     1      28.877  -1.012   4.699  1.00  0.00     0.004 C 
ENDBRANCH   6   7
ENDBRANCH   1   6
TORSDOF 4
ENDMDL
MODEL 4
REMARK VINA RESULT:    -4.242      1.661      2.300
REMARK INTER + INTRA:          -5.410
REMARK INTER:                  -5.281
REMARK INTRA:                  -0.129
REMARK UNBOUND:                -0.176
REMARK SMILES CCCCCC(=O)[O-]
REMARK SMILES IDX 4 1 5 2 6 3 7 4 8 5 3 6 2 7 1 8
REMARK H PARENT
REMARK Flexibility Score: inf
ROOT
ATOM      1  C   UNL     1      27.815   1.867   4.506  1.00  0.00     0.006 C 
ENDROOT
BRANCH   1   2
ATOM      2  C   UNL     1      28.732   0.953   3.676  1.00  0.00     0.053 C 
BRANCH   2   3
ATOM      3  C   UNL     1      28.413  -0.500   3.858  1.00  0.00     0.041 C 
ATOM      4  O   UNL     1      27.533  -1.049   3.144  1.00  0.00    -0.550 OA
ATOM      5  O   UNL     1      29.062  -1.241   4.839  1.00  0.00    -0.550 OA
ENDBRANCH   2   3
ENDBRANCH   1   2
BRANCH   1   6
ATOM      6  C   UNL     1      28.381   2.227   5.891  1.00  0.00     0.000 C 
BRANCH   6   7
ATOM      7  C   UNL     1      28.802   3.699   6.006  1.00  0.00    -0.003 C 
ATOM      8  C   UNL     1      27.942   4.589   5.114  1.00  0.00     0.004 C 
ENDBRANCH   6   7
ENDBRANCH   1   6
TORSDOF 4
ENDMDL
MODEL 5
REMARK VINA RESULT:    -4.053      1.637      2.090
REMARK INTER + INTRA:          -5.178
REMARK INTER:                  -5.025
REMARK INTRA:                  -0.152
REMARK UNBOUND:                -0.176
REMARK SMILES CCCCCC(=O)[O-]
REMARK SMILES IDX 4 1 5 2 6 3 7 4 8 5 3 6 2 7 1 8
REMARK H PARENT
REMARK Flexibility Score: inf
ROOT
ATOM      1  C   UNL     1      29.814   2.715   5.843  1.00  0.00     0.006 C 
ENDROOT
BRANCH   1   2
ATOM      2  C   UNL     1      28.292   2.551   5.992  1.00  0.00     0.053 C 
BRANCH   2   3
ATOM      3  C   UNL     1      27.611   2.285   4.683  1.00  0.00     0.041 C 
ATOM      4  O   UNL     1      27.411   1.101   4.303  1.00  0.00    -0.550 OA
ATOM      5  O   UNL     1      27.230   3.342   3.866  1.00  0.00    -0.550 OA
ENDBRANCH   2   3
ENDBRANCH   1   2
BRANCH   1   6
ATOM      6  C   UNL     1      30.263   4.165   5.586  1.00  0.00     0.000 C 
BRANCH   6   7
ATOM      7  C   UNL     1      29.602   5.178   6.531  1.00  0.00    -0.003 C 
ATOM      8  C   UNL     1      29.776   6.604   6.019  1.00  0.00     0.004 C 
ENDBRANCH   6   7
ENDBRANCH   1   6
TORSDOF 4
ENDMDL
MODEL 6
REMARK VINA RESULT:    -2.806     18.625     19.283
REMARK INTER + INTRA:          -3.639
REMARK INTER:                  -3.577
REMARK INTRA:                  -0.062
REMARK UNBOUND:                -0.176
REMARK SMILES CCCCCC(=O)[O-]
REMARK SMILES IDX 4 1 5 2 6 3 7 4 8 5 3 6 2 7 1 8
REMARK H PARENT
REMARK Flexibility Score: inf
ROOT
ATOM      1  C   UNL     1      30.085  11.420  22.373  1.00  0.00     0.006 C 
ENDROOT
BRANCH   1   2
ATOM      2  C   UNL     1      30.335  12.308  21.142  1.00  0.00     0.053 C 
BRANCH   2   3
ATOM      3  C   UNL     1      31.676  12.978  21.179  1.00  0.00     0.041 C 
ATOM      4  O   UNL     1      32.061  13.675  20.203  1.00  0.00    -0.550 OA
ATOM      5  O   UNL     1      32.514  12.805  22.273  1.00  0.00    -0.550 OA
ENDBRANCH   2   3
ENDBRANCH   1   2
BRANCH   1   6
ATOM      6  C   UNL     1      29.599  10.000  22.030  1.00  0.00     0.000 C 
BRANCH   6   7
ATOM      7  C   UNL     1      28.069   9.879  21.995  1.00  0.00    -0.003 C 
ATOM      8  C   UNL     1      27.624   8.449  22.285  1.00  0.00     0.004 C 
ENDBRANCH   6   7
ENDBRANCH   1   6
TORSDOF 4
ENDMDL
MODEL 7
REMARK VINA RESULT:    -2.805     17.786     18.262
REMARK INTER + INTRA:          -3.637
REMARK INTER:                  -3.429
REMARK INTRA:                  -0.208
REMARK UNBOUND:                -0.176
REMARK SMILES CCCCCC(=O)[O-]
REMARK SMILES IDX 4 1 5 2 6 3 7 4 8 5 3 6 2 7 1 8
REMARK H PARENT
REMARK Flexibility Score: inf
ROOT
ATOM      1  C   UNL     1      27.637  11.581  20.473  1.00  0.00     0.006 C 
ENDROOT
BRANCH   1   2
ATOM      2  C   UNL     1      27.857  11.107  21.920  1.00  0.00     0.053 C 
BRANCH   2   3
ATOM      3  C   UNL     1      28.508   9.759  21.991  1.00  0.00     0.041 C 
ATOM      4  O   UNL     1      29.762   9.659  21.933  1.00  0.00    -0.550 OA
ATOM      5  O   UNL     1      27.731   8.611  22.085  1.00  0.00    -0.550 OA
ENDBRANCH   2   3
ENDBRANCH   1   2
BRANCH   1   6
ATOM      6  C   UNL     1      28.567  12.731  20.044  1.00  0.00     0.000 C 
BRANCH   6   7
ATOM      7  C   UNL     1      29.600  13.103  21.117  1.00  0.00    -0.003 C 
ATOM      8  C   UNL     1      31.012  12.734  20.672  1.00  0.00     0.004 C 
ENDBRANCH   6   7
ENDBRANCH   1   6
TORSDOF 4
ENDMDL
MODEL 8
REMARK VINA RESULT:    -2.785     17.843     18.398
REMARK INTER + INTRA:          -3.612
REMARK INTER:                  -3.505
REMARK INTRA:                  -0.108
REMARK UNBOUND:                -0.176
REMARK SMILES CCCCCC(=O)[O-]
REMARK SMILES IDX 4 1 5 2 6 3 7 4 8 5 3 6 2 7 1 8
REMARK H PARENT
REMARK Flexibility Score: inf
ROOT
ATOM      1  C   UNL     1      28.538  12.584  20.118  1.00  0.00     0.006 C 
ENDROOT
BRANCH   1   2
ATOM      2  C   UNL     1      29.880  12.989  20.754  1.00  0.00     0.053 C 
BRANCH   2   3
ATOM      3  C   UNL     1      30.922  13.327  19.731  1.00  0.00     0.041 C 
ATOM      4  O   UNL     1      32.101  13.586  20.091  1.00  0.00    -0.550 OA
ATOM      5  O   UNL     1      30.585  13.392  18.384  1.00  0.00    -0.550 OA
ENDBRANCH   2   3
ENDBRANCH   1   2
BRANCH   1   6
ATOM      6  C   UNL     1      27.826  11.431  20.846  1.00  0.00     0.000 C 
BRANCH   6   7
ATOM      7  C   UNL     1      28.772  10.590  21.715  1.00  0.00    -0.003 C 
ATOM      8  C   UNL     1      28.120   9.272  22.121  1.00  0.00     0.004 C 
ENDBRANCH   6   7
ENDBRANCH   1   6
TORSDOF 4
ENDMDL
MODEL 9
REMARK VINA RESULT:    -2.709     15.186     16.529
REMARK INTER + INTRA:          -3.519
REMARK INTER:                  -3.431
REMARK INTRA:                  -0.087
REMARK UNBOUND:                -0.176
REMARK SMILES CCCCCC(=O)[O-]
REMARK SMILES IDX 4 1 5 2 6 3 7 4 8 5 3 6 2 7 1 8
REMARK H PARENT
REMARK Flexibility Score: inf
ROOT
ATOM      1  C   UNL     1      31.358  15.579  15.028  1.00  0.00     0.006 C 
ENDROOT
BRANCH   1   2
ATOM      2  C   UNL     1      31.133  15.544  16.550  1.00  0.00     0.053 C 
BRANCH   2   3
ATOM      3  C   UNL     1      30.078  14.559  16.954  1.00  0.00     0.041 C 
ATOM      4  O   UNL     1      30.361  13.336  17.052  1.00  0.00    -0.550 OA
ATOM      5  O   UNL     1      28.776  14.984  17.186  1.00  0.00    -0.550 OA
ENDBRANCH   2   3
ENDBRANCH   1   2
BRANCH   1   6
ATOM      6  C   UNL     1      31.018  16.932  14.378  1.00  0.00     0.000 C 
BRANCH   6   7
ATOM      7  C   UNL     1      30.646  16.811  12.894  1.00  0.00    -0.003 C 
ATOM      8  C   UNL     1      31.273  15.568  12.269  1.00  0.00     0.004 C 
ENDBRANCH   6   7
ENDBRANCH   1   6
TORSDOF 4
ENDMDL
