MODEL 1
REMARK VINA RESULT:    -4.055      0.000      0.000
REMARK INTER + INTRA:          -4.770
REMARK INTER:                  -4.529
REMARK INTRA:                  -0.241
REMARK UNBOUND:                -0.241
REMARK SMILES CC=C(C)C=CC=C(C)C
REMARK SMILES IDX 5 1 6 2 3 3 1 4 2 5 4 6 7 7 8 8 9 9 10 10
REMARK H PARENT
REMARK Flexibility Score: inf
ROOT
ATOM      1  C   UNL     1     168.212 168.632 200.083  1.00  0.00     0.003 C 
ATOM      2  C   UNL     1     167.609 169.734 199.622  1.00  0.00     0.000 C 
ENDROOT
BRANCH   1   3
ATOM      3  C   UNL     1     168.239 168.254 201.521  1.00  0.00    -0.055 C 
ATOM      4  C   UNL     1     169.401 166.998 203.364  1.00  0.00     0.036 C 
ATOM      5  C   UNL     1     169.212 167.420 201.937  1.00  0.00    -0.027 C 
ATOM      6  C   UNL     1     167.237 168.848 202.486  1.00  0.00     0.044 C 
ENDBRANCH   1   3
BRANCH   2   7
ATOM      7  C   UNL     1     167.627 170.055 198.178  1.00  0.00    -0.001 C 
ATOM      8  C   UNL     1     166.635 169.736 197.326  1.00  0.00    -0.076 C 
ATOM      9  C   UNL     1     166.779 170.121 195.878  1.00  0.00     0.039 C 
ATOM     10  C   UNL     1     165.395 169.008 197.780  1.00  0.00     0.039 C 
ENDBRANCH   2   7
TORSDOF 2
ENDMDL
MODEL 2
REMARK VINA RESULT:    -4.047      6.622      7.234
REMARK INTER + INTRA:          -4.761
REMARK INTER:                  -4.474
REMARK INTRA:                  -0.287
REMARK UNBOUND:                -0.241
REMARK SMILES CC=C(C)C=CC=C(C)C
REMARK SMILES IDX 5 1 6 2 3 3 1 4 2 5 4 6 7 7 8 8 9 9 10 10
REMARK H PARENT
REMARK Flexibility Score: inf
ROOT
ATOM      1  C   UNL     1     164.867 162.950 200.627  1.00  0.00     0.003 C 
ATOM      2  C   UNL     1     164.147 162.297 199.707  1.00  0.00     0.000 C 
ENDROOT
BRANCH   1   3
ATOM      3  C   UNL     1     164.305 163.434 201.916  1.00  0.00    -0.055 C 
ATOM      4  C   UNL     1     162.526 164.771 203.087  1.00  0.00     0.036 C 
ATOM      5  C   UNL     1     163.236 164.252 201.871  1.00  0.00    -0.027 C 
ATOM      6  C   UNL     1     164.886 162.959 203.229  1.00  0.00     0.044 C 
ENDBRANCH   1   3
BRANCH   2   7
ATOM      7  C   UNL     1     164.768 161.850 198.441  1.00  0.00    -0.001 C 
ATOM      8  C   UNL     1     164.575 162.457 197.255  1.00  0.00    -0.076 C 
ATOM      9  C   UNL     1     165.268 161.900 196.041  1.00  0.00     0.039 C 
ATOM     10  C   UNL     1     163.689 163.669 197.113  1.00  0.00     0.039 C 
ENDBRANCH   2   7
TORSDOF 2
ENDMDL
MODEL 3
REMARK VINA RESULT:    -4.034      2.740      3.924
REMARK INTER + INTRA:          -4.746
REMARK INTER:                  -4.541
REMARK INTRA:                  -0.205
REMARK UNBOUND:                -0.241
REMARK SMILES CC=C(C)C=CC=C(C)C
REMARK SMILES IDX 5 1 6 2 3 3 1 4 2 5 4 6 7 7 8 8 9 9 10 10
REMARK H PARENT
REMARK Flexibility Score: inf
ROOT
ATOM      1  C   UNL     1     164.446 169.781 201.310  1.00  0.00     0.003 C 
ATOM      2  C   UNL     1     165.631 169.546 200.735  1.00  0.00     0.000 C 
ENDROOT
BRANCH   1   3
ATOM      3  C   UNL     1     164.163 169.508 202.744  1.00  0.00    -0.055 C 
ATOM      4  C   UNL     1     164.179 170.359 205.110  1.00  0.00     0.036 C 
ATOM      5  C   UNL     1     164.461 170.467 203.640  1.00  0.00    -0.027 C 
ATOM      6  C   UNL     1     163.499 168.213 203.159  1.00  0.00     0.044 C 
ENDBRANCH   1   3
BRANCH   2   7
ATOM      7  C   UNL     1     165.842 169.834 199.299  1.00  0.00    -0.001 C 
ATOM      8  C   UNL     1     167.055 169.938 198.725  1.00  0.00    -0.076 C 
ATOM      9  C   UNL     1     167.130 170.234 197.251  1.00  0.00     0.039 C 
ATOM     10  C   UNL     1     168.329 169.767 199.513  1.00  0.00     0.039 C 
ENDBRANCH   2   7
TORSDOF 2
ENDMDL
MODEL 4
REMARK VINA RESULT:    -3.987      5.938      7.082
REMARK INTER + INTRA:          -4.694
REMARK INTER:                  -4.467
REMARK INTRA:                  -0.226
REMARK UNBOUND:                -0.241
REMARK SMILES CC=C(C)C=CC=C(C)C
REMARK SMILES IDX 5 1 6 2 3 3 1 4 2 5 4 6 7 7 8 8 9 9 10 10
REMARK H PARENT
REMARK Flexibility Score: inf
ROOT
ATOM      1  C   UNL     1     166.498 163.466 201.805  1.00  0.00     0.003 C 
ATOM      2  C   UNL     1     165.193 163.178 201.751  1.00  0.00     0.000 C 
ENDROOT
BRANCH   1   3
ATOM      3  C   UNL     1     167.477 163.030 200.775  1.00  0.00    -0.055 C 
ATOM      4  C   UNL     1     169.746 163.340 199.736  1.00  0.00     0.036 C 
ATOM      5  C   UNL     1     168.641 163.701 200.684  1.00  0.00    -0.027 C 
ATOM      6  C   UNL     1     167.186 161.825 199.907  1.00  0.00     0.044 C 
ENDBRANCH   1   3
BRANCH   2   7
ATOM      7  C   UNL     1     164.274 163.638 202.816  1.00  0.00    -0.001 C 
ATOM      8  C   UNL     1     163.177 164.385 202.590  1.00  0.00    -0.076 C 
ATOM      9  C   UNL     1     162.327 164.786 203.765  1.00  0.00     0.039 C 
ATOM     10  C   UNL     1     162.784 164.826 201.204  1.00  0.00     0.039 C 
ENDBRANCH   2   7
TORSDOF 2
ENDMDL
MODEL 5
REMARK VINA RESULT:    -3.978      2.490      5.637
REMARK INTER + INTRA:          -4.683
REMARK INTER:                  -4.456
REMARK INTRA:                  -0.227
REMARK UNBOUND:                -0.241
REMARK SMILES CC=C(C)C=CC=C(C)C
REMARK SMILES IDX 5 1 6 2 3 3 1 4 2 5 4 6 7 7 8 8 9 9 10 10
REMARK H PARENT
REMARK Flexibility Score: inf
ROOT
ATOM      1  C   UNL     1     165.539 168.540 201.831  1.00  0.00     0.003 C 
ATOM      2  C   UNL     1     166.844 168.826 201.757  1.00  0.00     0.000 C 
ENDROOT
BRANCH   1   3
ATOM      3  C   UNL     1     164.548 168.966 200.808  1.00  0.00    -0.055 C 
ATOM      4  C   UNL     1     162.277 168.628 199.783  1.00  0.00     0.036 C 
ATOM      5  C   UNL     1     163.393 168.280 200.723  1.00  0.00    -0.027 C 
ATOM      6  C   UNL     1     164.817 170.176 199.941  1.00  0.00     0.044 C 
ENDBRANCH   1   3
BRANCH   2   7
ATOM      7  C   UNL     1     167.775 168.377 202.816  1.00  0.00    -0.001 C 
ATOM      8  C   UNL     1     168.856 167.608 202.589  1.00  0.00    -0.076 C 
ATOM      9  C   UNL     1     169.722 167.221 203.757  1.00  0.00     0.039 C 
ATOM     10  C   UNL     1     169.217 167.126 201.206  1.00  0.00     0.039 C 
ENDBRANCH   2   7
TORSDOF 2
ENDMDL
MODEL 6
REMARK VINA RESULT:    -3.971      5.247      6.757
REMARK INTER + INTRA:          -4.676
REMARK INTER:                  -4.406
REMARK INTRA:                  -0.269
REMARK UNBOUND:                -0.241
REMARK SMILES CC=C(C)C=CC=C(C)C
REMARK SMILES IDX 5 1 6 2 3 3 1 4 2 5 4 6 7 7 8 8 9 9 10 10
REMARK H PARENT
REMARK Flexibility Score: inf
ROOT
ATOM      1  C   UNL     1     163.290 166.244 199.540  1.00  0.00     0.003 C 
ATOM      2  C   UNL     1     162.639 165.083 199.682  1.00  0.00     0.000 C 
ENDROOT
BRANCH   1   3
ATOM      3  C   UNL     1     163.016 167.444 200.374  1.00  0.00    -0.055 C 
ATOM      4  C   UNL     1     163.360 168.630 202.565  1.00  0.00     0.036 C 
ATOM      5  C   UNL     1     163.505 167.466 201.629  1.00  0.00    -0.027 C 
ATOM      6  C   UNL     1     162.266 168.622 199.794  1.00  0.00     0.044 C 
ENDBRANCH   1   3
BRANCH   2   7
ATOM      7  C   UNL     1     162.957 163.930 198.812  1.00  0.00    -0.001 C 
ATOM      8  C   UNL     1     163.765 162.916 199.175  1.00  0.00    -0.076 C 
ATOM      9  C   UNL     1     164.005 161.801 198.193  1.00  0.00     0.039 C 
ATOM     10  C   UNL     1     164.429 162.869 200.528  1.00  0.00     0.039 C 
ENDBRANCH   2   7
TORSDOF 2
ENDMDL
MODEL 7
REMARK VINA RESULT:    -3.970      6.283      6.894
REMARK INTER + INTRA:          -4.675
REMARK INTER:                  -4.452
REMARK INTRA:                  -0.223
REMARK UNBOUND:                -0.241
REMARK SMILES CC=C(C)C=CC=C(C)C
REMARK SMILES IDX 5 1 6 2 3 3 1 4 2 5 4 6 7 7 8 8 9 9 10 10
REMARK H PARENT
REMARK Flexibility Score: inf
ROOT
ATOM      1  C   UNL     1     167.624 162.641 201.139  1.00  0.00     0.003 C 
ATOM      2  C   UNL     1     166.492 162.192 200.584  1.00  0.00     0.000 C 
ENDROOT
BRANCH   1   3
ATOM      3  C   UNL     1     167.851 162.694 202.607  1.00  0.00    -0.055 C 
ATOM      4  C   UNL     1     167.684 161.520 204.825  1.00  0.00     0.036 C 
ATOM      5  C   UNL     1     167.466 161.636 203.345  1.00  0.00    -0.027 C 
ATOM      6  C   UNL     1     168.555 163.880 203.229  1.00  0.00     0.044 C 
ENDBRANCH   1   3
BRANCH   2   7
ATOM      7  C   UNL     1     166.329 162.174 199.114  1.00  0.00    -0.001 C 
ATOM      8  C   UNL     1     165.136 162.139 198.491  1.00  0.00    -0.076 C 
ATOM      9  C   UNL     1     165.110 162.124 196.987  1.00  0.00     0.039 C 
ATOM     10  C   UNL     1     163.837 162.113 199.256  1.00  0.00     0.039 C 
ENDBRANCH   2   7
TORSDOF 2
ENDMDL
MODEL 8
REMARK VINA RESULT:    -3.967      2.710      3.676
REMARK INTER + INTRA:          -4.672
REMARK INTER:                  -4.401
REMARK INTRA:                  -0.271
REMARK UNBOUND:                -0.241
REMARK SMILES CC=C(C)C=CC=C(C)C
REMARK SMILES IDX 5 1 6 2 3 3 1 4 2 5 4 6 7 7 8 8 9 9 10 10
REMARK H PARENT
REMARK Flexibility Score: inf
ROOT
ATOM      1  C   UNL     1     168.693 165.751 199.549  1.00  0.00     0.003 C 
ATOM      2  C   UNL     1     169.344 166.911 199.699  1.00  0.00     0.000 C 
ENDROOT
BRANCH   1   3
ATOM      3  C   UNL     1     168.967 164.545 200.374  1.00  0.00    -0.055 C 
ATOM      4  C   UNL     1     168.620 163.342 202.555  1.00  0.00     0.036 C 
ATOM      5  C   UNL     1     168.476 164.512 201.627  1.00  0.00    -0.027 C 
ATOM      6  C   UNL     1     169.719 163.372 199.786  1.00  0.00     0.044 C 
ENDBRANCH   1   3
BRANCH   2   7
ATOM      7  C   UNL     1     169.026 168.071 198.838  1.00  0.00    -0.001 C 
ATOM      8  C   UNL     1     168.232 169.091 199.214  1.00  0.00    -0.076 C 
ATOM      9  C   UNL     1     167.990 170.211 198.240  1.00  0.00     0.039 C 
ATOM     10  C   UNL     1     167.585 169.138 200.575  1.00  0.00     0.039 C 
ENDBRANCH   2   7
TORSDOF 2
ENDMDL
MODEL 9
REMARK VINA RESULT:    -3.906      3.238      4.194
REMARK INTER + INTRA:          -4.603
REMARK INTER:                  -4.314
REMARK INTRA:                  -0.289
REMARK UNBOUND:                -0.241
REMARK SMILES CC=C(C)C=CC=C(C)C
REMARK SMILES IDX 5 1 6 2 3 3 1 4 2 5 4 6 7 7 8 8 9 9 10 10
REMARK H PARENT
REMARK Flexibility Score: inf
ROOT
ATOM      1  C   UNL     1     165.264 169.382 201.894  1.00  0.00     0.003 C 
ATOM      2  C   UNL     1     164.550 170.029 200.966  1.00  0.00     0.000 C 
ENDROOT
BRANCH   1   3
ATOM      3  C   UNL     1     165.255 169.745 203.336  1.00  0.00    -0.055 C 
ATOM      4  C   UNL     1     163.927 170.552 205.313  1.00  0.00     0.036 C 
ATOM      5  C   UNL     1     164.104 170.202 203.865  1.00  0.00    -0.027 C 
ATOM      6  C   UNL     1     166.491 169.540 204.184  1.00  0.00     0.044 C 
ENDBRANCH   1   3
BRANCH   2   7
ATOM      7  C   UNL     1     164.611 169.619 199.546  1.00  0.00    -0.001 C 
ATOM      8  C   UNL     1     163.610 168.989 198.902  1.00  0.00    -0.076 C 
ATOM      9  C   UNL     1     163.803 168.627 197.454  1.00  0.00     0.039 C 
ATOM     10  C   UNL     1     162.314 168.641 199.589  1.00  0.00     0.039 C 
ENDBRANCH   2   7
TORSDOF 2
ENDMDL
