MODEL 1
REMARK VINA RESULT:    -2.934      0.000      0.000
REMARK INTER + INTRA:          -3.619
REMARK INTER:                  -4.135
REMARK INTRA:                   0.516
REMARK UNBOUND:                 0.516
REMARK SMILES CC1=CCC(=C(C)C)C(=O)CC(C)=CCC1
REMARK SMILES IDX 12 1 14 2 13 3 15 4 16 5 2 6 1 7 3 8 11 10 9 11 10 12 5 13
REMARK SMILES IDX 6 14 7 15 8 16 4 17
REMARK H PARENT
REMARK Flexibility Score: 60.00
ROOT
ATOM      1  C   UNL     1     212.918 148.986 170.879  1.00  0.00    -0.070 C 
ATOM      2  C   UNL     1     211.633 148.845 170.472  1.00  0.00    -0.027 C 
ATOM      3  C   UNL     1     213.541 150.354 170.749  1.00  0.00     0.039 C 
ENDROOT
BRANCH   2   4
ATOM      4  C   UNL     1     210.850 147.555 170.413  1.00  0.00     0.032 C 
BRANCH   4   5
ATOM      5  C   UNL     1     210.908 146.890 169.025  1.00  0.00     0.034 C 
BRANCH   5   6
ATOM      6  C   UNL     1     211.065 145.384 169.118  1.00  0.00    -0.077 C 
ATOM      7  C   UNL     1     209.835 144.551 169.373  1.00  0.00     0.039 C 
ATOM      8  C   UNL     1     212.244 144.741 168.959  1.00  0.00    -0.023 CG0
ATOM      9  G   UNL     1     213.572 145.395 168.664  1.00  0.00     0.000 G0
ENDBRANCH   5   6
ENDBRANCH   4   5
ENDBRANCH   2   4
BRANCH   1  10
ATOM     10  C   UNL     1     213.772 147.838 171.389  1.00  0.00     0.111 C 
BRANCH  10  11
ATOM     11  C   UNL     1     214.510 147.153 170.265  1.00  0.00     0.163 C 
ATOM     12  O   UNL     1     215.350 147.827 169.609  1.00  0.00    -0.294 OA
BRANCH  11  13
ATOM     13  C   UNL     1     214.307 145.704 169.952  1.00  0.00    -0.002 C 
ATOM     14  C   UNL     1     214.813 144.718 170.751  1.00  0.00    -0.069 C 
ATOM     15  C   UNL     1     214.571 143.255 170.447  1.00  0.00     0.039 C 
ATOM     16  C   UNL     1     215.667 145.036 171.958  1.00  0.00     0.039 C 
BRANCH  13  17
ATOM     17  C   UNL     1     213.578 145.373 168.661  1.00  0.00     0.066 CG0
ATOM     18  G   UNL     1     212.233 144.763 168.976  1.00  0.00     0.000 G0
ENDBRANCH  13  17
ENDBRANCH  11  13
ENDBRANCH  10  11
ENDBRANCH   1  10
TORSDOF 0
ENDMDL
MODEL 2
REMARK VINA RESULT:    -2.926     13.757     16.033
REMARK INTER + INTRA:          -3.608
REMARK INTER:                  -4.507
REMARK INTRA:                   0.899
REMARK UNBOUND:                 0.516
REMARK SMILES CC1=CCC(=C(C)C)C(=O)CC(C)=CCC1
REMARK SMILES IDX 12 1 14 2 13 3 15 4 16 5 2 6 1 7 3 8 11 10 9 11 10 12 5 13
REMARK SMILES IDX 6 14 7 15 8 16 4 17
REMARK H PARENT
REMARK Flexibility Score: 60.00
ROOT
ATOM      1  C   UNL     1     200.121 150.668 165.865  1.00  0.00    -0.070 C 
ATOM      2  C   UNL     1     200.489 151.971 165.822  1.00  0.00    -0.027 C 
ATOM      3  C   UNL     1     200.982 149.730 166.677  1.00  0.00     0.039 C 
ENDROOT
BRANCH   2   4
ATOM      4  C   UNL     1     199.841 153.056 164.994  1.00  0.00     0.032 C 
BRANCH   4   5
ATOM      5  C   UNL     1     200.742 153.541 163.843  1.00  0.00     0.034 C 
BRANCH   5   6
ATOM      6  C   UNL     1     201.514 152.404 163.203  1.00  0.00    -0.077 C 
ATOM      7  C   UNL     1     202.971 152.241 163.555  1.00  0.00     0.039 C 
ATOM      8  C   UNL     1     200.965 151.508 162.352  1.00  0.00    -0.023 CG0
ATOM      9  G   UNL     1     199.522 151.485 161.908  1.00  0.00     0.000 G0
ENDBRANCH   5   6
ENDBRANCH   4   5
ENDBRANCH   2   4
BRANCH   1  10
ATOM     10  C   UNL     1     198.941 150.097 165.096  1.00  0.00     0.111 C 
BRANCH  10  11
ATOM     11  C   UNL     1     199.340 149.671 163.705  1.00  0.00     0.163 C 
ATOM     12  O   UNL     1     200.158 148.719 163.588  1.00  0.00    -0.294 OA
BRANCH  11  13
ATOM     13  C   UNL     1     198.758 150.309 162.483  1.00  0.00    -0.002 C 
ATOM     14  C   UNL     1     197.639 149.811 161.876  1.00  0.00    -0.069 C 
ATOM     15  C   UNL     1     197.034 150.485 160.663  1.00  0.00     0.039 C 
ATOM     16  C   UNL     1     196.970 148.545 162.363  1.00  0.00     0.039 C 
BRANCH  13  17
ATOM     17  C   UNL     1     199.508 151.493 161.899  1.00  0.00     0.066 CG0
ATOM     18  G   UNL     1     200.942 151.473 162.371  1.00  0.00     0.000 G0
ENDBRANCH  13  17
ENDBRANCH  11  13
ENDBRANCH  10  11
ENDBRANCH   1  10
TORSDOF 0
ENDMDL
MODEL 3
REMARK VINA RESULT:    -2.878     12.572     14.812
REMARK INTER + INTRA:          -3.540
REMARK INTER:                  -3.957
REMARK INTRA:                   0.417
REMARK UNBOUND:                 0.516
REMARK SMILES CC1=CCC(=C(C)C)C(=O)CC(C)=CCC1
REMARK SMILES IDX 12 1 14 2 13 3 15 4 16 5 2 6 1 7 3 8 11 10 9 11 10 12 5 13
REMARK SMILES IDX 6 14 7 15 8 16 4 17
REMARK H PARENT
REMARK Flexibility Score: 60.00
ROOT
ATOM      1  C   UNL     1     199.860 151.192 165.805  1.00  0.00    -0.070 C 
ATOM      2  C   UNL     1     200.867 150.678 166.552  1.00  0.00    -0.027 C 
ATOM      3  C   UNL     1     199.728 152.694 165.758  1.00  0.00     0.039 C 
ENDROOT
BRANCH   2   4
ATOM      4  C   UNL     1     201.121 149.214 166.824  1.00  0.00     0.032 C 
BRANCH   4   5
ATOM      5  C   UNL     1     202.123 148.593 165.834  1.00  0.00     0.034 C 
BRANCH   5   6
ATOM      6  C   UNL     1     201.600 147.310 165.219  1.00  0.00    -0.077 C 
ATOM      7  C   UNL     1     201.653 146.047 166.042  1.00  0.00     0.039 C 
ATOM      8  C   UNL     1     201.061 147.235 163.980  1.00  0.00    -0.023 CG0
ATOM      9  G   UNL     1     200.889 148.391 163.024  1.00  0.00     0.000 G0
ENDBRANCH   5   6
ENDBRANCH   4   5
ENDBRANCH   2   4
BRANCH   1  10
ATOM     10  C   UNL     1     198.832 150.343 165.077  1.00  0.00     0.111 C 
BRANCH  10  11
ATOM     11  C   UNL     1     199.167 150.201 163.612  1.00  0.00     0.163 C 
ATOM     12  O   UNL     1     199.253 151.251 162.919  1.00  0.00    -0.294 OA
BRANCH  11  13
ATOM     13  C   UNL     1     199.445 148.870 162.988  1.00  0.00    -0.002 C 
ATOM     14  C   UNL     1     198.443 148.087 162.488  1.00  0.00    -0.069 C 
ATOM     15  C   UNL     1     198.738 146.759 161.824  1.00  0.00     0.039 C 
ATOM     16  C   UNL     1     196.990 148.489 162.603  1.00  0.00     0.039 C 
BRANCH  13  17
ATOM     17  C   UNL     1     200.886 148.391 163.002  1.00  0.00     0.066 CG0
ATOM     18  G   UNL     1     201.039 147.260 163.991  1.00  0.00     0.000 G0
ENDBRANCH  13  17
ENDBRANCH  11  13
ENDBRANCH  10  11
ENDBRANCH   1  10
TORSDOF 0
ENDMDL
MODEL 4
REMARK VINA RESULT:    -2.876     14.875     16.612
REMARK INTER + INTRA:          -3.537
REMARK INTER:                  -4.234
REMARK INTRA:                   0.697
REMARK UNBOUND:                 0.516
REMARK SMILES CC1=CCC(=C(C)C)C(=O)CC(C)=CCC1
REMARK SMILES IDX 12 1 14 2 13 3 15 4 16 5 2 6 1 7 3 8 11 10 9 11 10 12 5 13
REMARK SMILES IDX 6 14 7 15 8 16 4 17
REMARK H PARENT
REMARK Flexibility Score: 60.00
ROOT
ATOM      1  C   UNL     1     197.753 148.241 163.120  1.00  0.00    -0.070 C 
ATOM      2  C   UNL     1     197.309 148.619 161.897  1.00  0.00    -0.027 C 
ATOM      3  C   UNL     1     197.766 146.764 163.428  1.00  0.00     0.039 C 
ENDROOT
BRANCH   2   4
ATOM      4  C   UNL     1     197.113 150.037 161.415  1.00  0.00     0.032 C 
BRANCH   4   5
ATOM      5  C   UNL     1     197.928 150.349 160.146  1.00  0.00     0.034 C 
BRANCH   5   6
ATOM      6  C   UNL     1     199.410 150.099 160.342  1.00  0.00    -0.077 C 
ATOM      7  C   UNL     1     200.106 149.145 159.405  1.00  0.00     0.039 C 
ATOM      8  C   UNL     1     200.154 150.704 161.296  1.00  0.00    -0.023 CG0
ATOM      9  G   UNL     1     199.648 151.711 162.301  1.00  0.00     0.000 G0
ENDBRANCH   5   6
ENDBRANCH   4   5
ENDBRANCH   2   4
BRANCH   1  10
ATOM     10  C   UNL     1     198.170 149.219 164.205  1.00  0.00     0.111 C 
BRANCH  10  11
ATOM     11  C   UNL     1     199.555 149.765 163.958  1.00  0.00     0.163 C 
ATOM     12  O   UNL     1     200.513 148.947 163.900  1.00  0.00    -0.294 OA
BRANCH  11  13
ATOM     13  C   UNL     1     199.804 151.223 163.732  1.00  0.00    -0.002 C 
ATOM     14  C   UNL     1     200.087 152.072 164.765  1.00  0.00    -0.069 C 
ATOM     15  C   UNL     1     200.375 153.539 164.523  1.00  0.00     0.039 C 
ATOM     16  C   UNL     1     200.091 151.600 166.201  1.00  0.00     0.039 C 
BRANCH  13  17
ATOM     17  C   UNL     1     199.655 151.735 162.311  1.00  0.00     0.066 CG0
ATOM     18  G   UNL     1     200.165 150.699 161.338  1.00  0.00     0.000 G0
ENDBRANCH  13  17
ENDBRANCH  11  13
ENDBRANCH  10  11
ENDBRANCH   1  10
TORSDOF 0
ENDMDL
MODEL 5
REMARK VINA RESULT:    -2.750     12.167     14.263
REMARK INTER + INTRA:          -3.360
REMARK INTER:                  -3.889
REMARK INTRA:                   0.529
REMARK UNBOUND:                 0.516
REMARK SMILES CC1=CCC(=C(C)C)C(=O)CC(C)=CCC1
REMARK SMILES IDX 12 1 14 2 13 3 15 4 16 5 2 6 1 7 3 8 11 10 9 11 10 12 5 13
REMARK SMILES IDX 6 14 7 15 8 16 4 17
REMARK H PARENT
REMARK Flexibility Score: 60.00
ROOT
ATOM      1  C   UNL     1     199.322 150.639 163.931  1.00  0.00    -0.070 C 
ATOM      2  C   UNL     1     198.536 150.047 162.999  1.00  0.00    -0.027 C 
ATOM      3  C   UNL     1     200.017 151.920 163.540  1.00  0.00     0.039 C 
ENDROOT
BRANCH   2   4
ATOM      4  C   UNL     1     197.835 148.716 163.136  1.00  0.00     0.032 C 
BRANCH   4   5
ATOM      5  C   UNL     1     198.629 147.560 162.500  1.00  0.00     0.034 C 
BRANCH   5   6
ATOM      6  C   UNL     1     198.825 146.403 163.460  1.00  0.00    -0.077 C 
ATOM      7  C   UNL     1     197.742 145.357 163.552  1.00  0.00     0.039 C 
ATOM      8  C   UNL     1     199.929 146.239 164.224  1.00  0.00    -0.023 CG0
ATOM      9  G   UNL     1     201.129 147.155 164.246  1.00  0.00     0.000 G0
ENDBRANCH   5   6
ENDBRANCH   4   5
ENDBRANCH   2   4
BRANCH   1  10
ATOM     10  C   UNL     1     199.588 150.052 165.307  1.00  0.00     0.111 C 
BRANCH  10  11
ATOM     11  C   UNL     1     200.962 149.435 165.390  1.00  0.00     0.163 C 
ATOM     12  O   UNL     1     201.960 150.206 165.382  1.00  0.00    -0.294 OA
BRANCH  11  13
ATOM     13  C   UNL     1     201.161 147.959 165.533  1.00  0.00    -0.002 C 
ATOM     14  C   UNL     1     201.408 147.380 166.746  1.00  0.00    -0.069 C 
ATOM     15  C   UNL     1     201.570 145.882 166.887  1.00  0.00     0.039 C 
ATOM     16  C   UNL     1     201.569 148.209 168.001  1.00  0.00     0.039 C 
BRANCH  13  17
ATOM     17  C   UNL     1     201.150 147.136 164.257  1.00  0.00     0.066 CG0
ATOM     18  G   UNL     1     199.933 146.243 164.234  1.00  0.00     0.000 G0
ENDBRANCH  13  17
ENDBRANCH  11  13
ENDBRANCH  10  11
ENDBRANCH   1  10
TORSDOF 0
ENDMDL
MODEL 6
REMARK VINA RESULT:    -2.694      4.293      7.003
REMARK INTER + INTRA:          -3.281
REMARK INTER:                  -3.944
REMARK INTRA:                   0.663
REMARK UNBOUND:                 0.516
REMARK SMILES CC1=CCC(=C(C)C)C(=O)CC(C)=CCC1
REMARK SMILES IDX 12 1 14 2 13 3 15 4 16 5 2 6 1 7 3 8 11 10 9 11 10 12 5 13
REMARK SMILES IDX 6 14 7 15 8 16 4 17
REMARK H PARENT
REMARK Flexibility Score: 60.00
ROOT
ATOM      1  C   UNL     1     210.899 154.308 168.661  1.00  0.00    -0.070 C 
ATOM      2  C   UNL     1     211.420 154.793 169.814  1.00  0.00    -0.027 C 
ATOM      3  C   UNL     1     210.957 155.199 167.444  1.00  0.00     0.039 C 
ENDROOT
BRANCH   2   4
ATOM      4  C   UNL     1     211.377 154.122 171.167  1.00  0.00     0.032 C 
BRANCH   4   5
ATOM      5  C   UNL     1     212.779 153.773 171.700  1.00  0.00     0.034 C 
BRANCH   5   6
ATOM      6  C   UNL     1     213.678 153.207 170.618  1.00  0.00    -0.077 C 
ATOM      7  C   UNL     1     214.911 153.984 170.232  1.00  0.00     0.039 C 
ATOM      8  C   UNL     1     213.451 152.029 169.993  1.00  0.00    -0.023 CG0
ATOM      9  G   UNL     1     212.295 151.096 170.263  1.00  0.00     0.000 G0
ENDBRANCH   5   6
ENDBRANCH   4   5
ENDBRANCH   2   4
BRANCH   1  10
ATOM     10  C   UNL     1     210.209 152.959 168.548  1.00  0.00     0.111 C 
BRANCH  10  11
ATOM     11  C   UNL     1     211.161 151.887 168.079  1.00  0.00     0.163 C 
ATOM     12  O   UNL     1     211.650 151.992 166.921  1.00  0.00    -0.294 OA
BRANCH  11  13
ATOM     13  C   UNL     1     211.570 150.750 168.961  1.00  0.00    -0.002 C 
ATOM     14  C   UNL     1     211.257 149.454 168.657  1.00  0.00    -0.069 C 
ATOM     15  C   UNL     1     211.708 148.307 169.535  1.00  0.00     0.039 C 
ATOM     16  C   UNL     1     210.415 149.105 167.450  1.00  0.00     0.039 C 
BRANCH  13  17
ATOM     17  C   UNL     1     212.287 151.103 170.253  1.00  0.00     0.066 CG0
ATOM     18  G   UNL     1     213.435 152.038 169.961  1.00  0.00     0.000 G0
ENDBRANCH  13  17
ENDBRANCH  11  13
ENDBRANCH  10  11
ENDBRANCH   1  10
TORSDOF 0
ENDMDL
MODEL 7
REMARK VINA RESULT:    -2.664     13.420     15.084
REMARK INTER + INTRA:          -3.238
REMARK INTER:                  -3.600
REMARK INTRA:                   0.362
REMARK UNBOUND:                 0.516
REMARK SMILES CC1=CCC(=C(C)C)C(=O)CC(C)=CCC1
REMARK SMILES IDX 12 1 14 2 13 3 15 4 16 5 2 6 1 7 3 8 11 10 9 11 10 12 5 13
REMARK SMILES IDX 6 14 7 15 8 16 4 17
REMARK H PARENT
REMARK Flexibility Score: 60.00
ROOT
ATOM      1  C   UNL     1     200.316 153.789 164.835  1.00  0.00    -0.070 C 
ATOM      2  C   UNL     1     199.892 155.001 165.266  1.00  0.00    -0.027 C 
ATOM      3  C   UNL     1     199.782 152.572 165.550  1.00  0.00     0.039 C 
ENDROOT
BRANCH   2   4
ATOM      4  C   UNL     1     200.371 156.345 164.770  1.00  0.00     0.032 C 
BRANCH   4   5
ATOM      5  C   UNL     1     201.794 156.681 165.253  1.00  0.00     0.034 C 
BRANCH   5   6
ATOM      6  C   UNL     1     202.696 157.119 164.115  1.00  0.00    -0.077 C 
ATOM      7  C   UNL     1     202.325 158.362 163.346  1.00  0.00     0.039 C 
ATOM      8  C   UNL     1     203.831 156.473 163.765  1.00  0.00    -0.023 CG0
ATOM      9  G   UNL     1     204.384 155.238 164.434  1.00  0.00     0.000 G0
ENDBRANCH   5   6
ENDBRANCH   4   5
ENDBRANCH   2   4
BRANCH   1  10
ATOM     10  C   UNL     1     201.338 153.597 163.727  1.00  0.00     0.111 C 
BRANCH  10  11
ATOM     11  C   UNL     1     202.711 153.314 164.283  1.00  0.00     0.163 C 
ATOM     12  O   UNL     1     202.814 152.457 165.203  1.00  0.00    -0.294 OA
BRANCH  11  13
ATOM     13  C   UNL     1     203.938 153.976 163.741  1.00  0.00    -0.002 C 
ATOM     14  C   UNL     1     204.648 153.438 162.704  1.00  0.00    -0.069 C 
ATOM     15  C   UNL     1     205.866 154.135 162.137  1.00  0.00     0.039 C 
ATOM     16  C   UNL     1     204.274 152.105 162.096  1.00  0.00     0.039 C 
BRANCH  13  17
ATOM     17  C   UNL     1     204.407 155.239 164.443  1.00  0.00     0.066 CG0
ATOM     18  G   UNL     1     203.810 156.451 163.770  1.00  0.00     0.000 G0
ENDBRANCH  13  17
ENDBRANCH  11  13
ENDBRANCH  10  11
ENDBRANCH   1  10
TORSDOF 0
ENDMDL
MODEL 8
REMARK VINA RESULT:    -2.430      4.684      6.924
REMARK INTER + INTRA:          -2.908
REMARK INTER:                  -3.770
REMARK INTRA:                   0.862
REMARK UNBOUND:                 0.516
REMARK SMILES CC1=CCC(=C(C)C)C(=O)CC(C)=CCC1
REMARK SMILES IDX 12 1 14 2 13 3 15 4 16 5 2 6 1 7 3 8 11 10 9 11 10 12 5 13
REMARK SMILES IDX 6 14 7 15 8 16 4 17
REMARK H PARENT
REMARK Flexibility Score: 60.00
ROOT
ATOM      1  C   UNL     1     210.773 151.205 168.301  1.00  0.00    -0.070 C 
ATOM      2  C   UNL     1     210.463 152.524 168.310  1.00  0.00    -0.027 C 
ATOM      3  C   UNL     1     210.504 150.437 167.030  1.00  0.00     0.039 C 
ENDROOT
BRANCH   2   4
ATOM      4  C   UNL     1     210.549 153.455 169.496  1.00  0.00     0.032 C 
BRANCH   4   5
ATOM      5  C   UNL     1     211.322 154.748 169.178  1.00  0.00     0.034 C 
BRANCH   5   6
ATOM      6  C   UNL     1     212.804 154.496 168.980  1.00  0.00    -0.077 C 
ATOM      7  C   UNL     1     213.521 155.254 167.892  1.00  0.00     0.039 C 
ATOM      8  C   UNL     1     213.529 153.645 169.742  1.00  0.00    -0.023 CG0
ATOM      9  G   UNL     1     213.000 152.827 170.896  1.00  0.00     0.000 G0
ENDBRANCH   5   6
ENDBRANCH   4   5
ENDBRANCH   2   4
BRANCH   1  10
ATOM     10  C   UNL     1     211.307 150.455 169.510  1.00  0.00     0.111 C 
BRANCH  10  11
ATOM     11  C   UNL     1     212.804 150.594 169.631  1.00  0.00     0.163 C 
ATOM     12  O   UNL     1     213.523 150.071 168.735  1.00  0.00    -0.294 OA
BRANCH  11  13
ATOM     13  C   UNL     1     213.442 151.367 170.741  1.00  0.00    -0.002 C 
ATOM     14  C   UNL     1     214.321 150.786 171.611  1.00  0.00    -0.069 C 
ATOM     15  C   UNL     1     214.990 151.585 172.709  1.00  0.00     0.039 C 
ATOM     16  C   UNL     1     214.642 149.309 171.544  1.00  0.00     0.039 C 
BRANCH  13  17
ATOM     17  C   UNL     1     213.012 152.814 170.908  1.00  0.00     0.066 CG0
ATOM     18  G   UNL     1     213.521 153.636 169.749  1.00  0.00     0.000 G0
ENDBRANCH  13  17
ENDBRANCH  11  13
ENDBRANCH  10  11
ENDBRANCH   1  10
TORSDOF 0
ENDMDL
MODEL 9
REMARK VINA RESULT:    -2.386      9.221     11.741
REMARK INTER + INTRA:          -2.847
REMARK INTER:                  -3.275
REMARK INTRA:                   0.428
REMARK UNBOUND:                 0.516
REMARK SMILES CC1=CCC(=C(C)C)C(=O)CC(C)=CCC1
REMARK SMILES IDX 12 1 14 2 13 3 15 4 16 5 2 6 1 7 3 8 11 10 9 11 10 12 5 13
REMARK SMILES IDX 6 14 7 15 8 16 4 17
REMARK H PARENT
REMARK Flexibility Score: 60.00
ROOT
ATOM      1  C   UNL     1     205.138 147.437 166.612  1.00  0.00    -0.070 C 
ATOM      2  C   UNL     1     205.132 146.668 167.727  1.00  0.00    -0.027 C 
ATOM      3  C   UNL     1     206.480 147.854 166.063  1.00  0.00     0.039 C 
ENDROOT
BRANCH   2   4
ATOM      4  C   UNL     1     203.913 146.225 168.502  1.00  0.00     0.032 C 
BRANCH   4   5
ATOM      5  C   UNL     1     203.247 147.383 169.268  1.00  0.00     0.034 C 
BRANCH   5   6
ATOM      6  C   UNL     1     201.751 147.444 169.026  1.00  0.00    -0.077 C 
ATOM      7  C   UNL     1     200.918 146.238 169.383  1.00  0.00     0.039 C 
ATOM      8  C   UNL     1     201.114 148.529 168.531  1.00  0.00    -0.023 CG0
ATOM      9  G   UNL     1     201.766 149.836 168.149  1.00  0.00     0.000 G0
ENDBRANCH   5   6
ENDBRANCH   4   5
ENDBRANCH   2   4
BRANCH   1  10
ATOM     10  C   UNL     1     203.879 147.951 165.934  1.00  0.00     0.111 C 
BRANCH  10  11
ATOM     11  C   UNL     1     203.556 149.362 166.359  1.00  0.00     0.163 C 
ATOM     12  O   UNL     1     204.500 150.198 166.406  1.00  0.00    -0.294 OA
BRANCH  11  13
ATOM     13  C   UNL     1     202.159 149.796 166.670  1.00  0.00    -0.002 C 
ATOM     14  C   UNL     1     201.297 150.203 165.690  1.00  0.00    -0.069 C 
ATOM     15  C   UNL     1     199.873 150.605 166.009  1.00  0.00     0.039 C 
ATOM     16  C   UNL     1     201.732 150.307 164.245  1.00  0.00     0.039 C 
BRANCH  13  17
ATOM     17  C   UNL     1     201.760 149.838 168.134  1.00  0.00     0.066 CG0
ATOM     18  G   UNL     1     201.121 148.529 168.528  1.00  0.00     0.000 G0
ENDBRANCH  13  17
ENDBRANCH  11  13
ENDBRANCH  10  11
ENDBRANCH   1  10
TORSDOF 0
ENDMDL
