MODEL 1
REMARK VINA RESULT:    -5.947      0.000      0.000
REMARK INTER + INTRA:          -6.513
REMARK INTER:                  -6.469
REMARK INTRA:                  -0.044
REMARK UNBOUND:                -0.044
REMARK SMILES COc1cc2ccc(=O)oc2cc1O
REMARK SMILES IDX 3 1 13 2 12 3 11 4 5 5 4 6 6 7 7 8 8 9 9 10 10 11 2 12 1 13
REMARK SMILES IDX 14 14
REMARK H PARENT 14 15
REMARK Flexibility Score: inf
ROOT
ATOM      1  C   UNL     1      61.006  39.735  36.278  1.00  0.00     0.161 A 
ATOM      2  C   UNL     1      60.837  40.167  34.947  1.00  0.00     0.161 A 
ATOM      3  C   UNL     1      59.656  39.876  34.256  1.00  0.00     0.098 A 
ATOM      4  C   UNL     1      58.633  39.155  34.876  1.00  0.00     0.142 A 
ATOM      5  C   UNL     1      58.792  38.717  36.208  1.00  0.00     0.022 A 
ATOM      6  C   UNL     1      59.973  39.007  36.904  1.00  0.00     0.062 A 
ATOM      7  C   UNL     1      57.749  37.999  36.802  1.00  0.00     0.019 A 
ATOM      8  C   UNL     1      56.593  37.736  36.068  1.00  0.00     0.094 A 
ATOM      9  C   UNL     1      56.506  38.202  34.752  1.00  0.00     0.336 A 
ATOM     10  O   UNL     1      55.471  37.976  34.073  1.00  0.00    -0.246 OA
ATOM     11  O   UNL     1      57.512  38.884  34.211  1.00  0.00    -0.423 OA
ENDROOT
BRANCH   1  12
ATOM     12  O   UNL     1      62.205  40.043  36.942  1.00  0.00    -0.493 OA
ATOM     13  C   UNL     1      62.360  40.072  38.357  1.00  0.00     0.278 C 
ENDBRANCH   1  12
BRANCH   2  14
ATOM     14  O   UNL     1      61.836  40.888  34.294  1.00  0.00    -0.504 OA
ATOM     15  H   UNL     1      62.820  40.744  34.486  1.00  0.00     0.293 HD
ENDBRANCH   2  14
TORSDOF 2
ENDMDL
MODEL 2
REMARK VINA RESULT:    -5.916     11.517     12.893
REMARK INTER + INTRA:          -6.479
REMARK INTER:                  -6.433
REMARK INTRA:                  -0.047
REMARK UNBOUND:                -0.044
REMARK SMILES COc1cc2ccc(=O)oc2cc1O
REMARK SMILES IDX 3 1 13 2 12 3 11 4 5 5 4 6 6 7 7 8 8 9 9 10 10 11 2 12 1 13
REMARK SMILES IDX 14 14
REMARK H PARENT 14 15
REMARK Flexibility Score: inf
ROOT
ATOM      1  C   UNL     1      52.821  36.559  46.808  1.00  0.00     0.161 A 
ATOM      2  C   UNL     1      51.461  36.215  46.942  1.00  0.00     0.161 A 
ATOM      3  C   UNL     1      50.853  35.366  46.010  1.00  0.00     0.098 A 
ATOM      4  C   UNL     1      51.587  34.851  44.939  1.00  0.00     0.142 A 
ATOM      5  C   UNL     1      52.949  35.190  44.795  1.00  0.00     0.022 A 
ATOM      6  C   UNL     1      53.561  36.040  45.726  1.00  0.00     0.062 A 
ATOM      7  C   UNL     1      53.656  34.658  43.712  1.00  0.00     0.019 A 
ATOM      8  C   UNL     1      53.002  33.816  42.813  1.00  0.00     0.094 A 
ATOM      9  C   UNL     1      51.650  33.525  43.019  1.00  0.00     0.336 A 
ATOM     10  O   UNL     1      51.042  32.767  42.220  1.00  0.00    -0.246 OA
ATOM     11  O   UNL     1      51.001  34.044  44.058  1.00  0.00    -0.423 OA
ENDROOT
BRANCH   1  12
ATOM     12  O   UNL     1      53.399  37.414  47.760  1.00  0.00    -0.493 OA
ATOM     13  C   UNL     1      53.411  38.835  47.669  1.00  0.00     0.278 C 
ENDBRANCH   1  12
BRANCH   2  14
ATOM     14  O   UNL     1      50.696  36.710  47.997  1.00  0.00    -0.504 OA
ATOM     15  H   UNL     1      51.012  36.670  48.959  1.00  0.00     0.293 HD
ENDBRANCH   2  14
TORSDOF 2
ENDMDL
MODEL 3
REMARK VINA RESULT:    -5.913      1.594      2.683
REMARK INTER + INTRA:          -6.476
REMARK INTER:                  -6.427
REMARK INTRA:                  -0.049
REMARK UNBOUND:                -0.044
REMARK SMILES COc1cc2ccc(=O)oc2cc1O
REMARK SMILES IDX 3 1 13 2 12 3 11 4 5 5 4 6 6 7 7 8 8 9 9 10 10 11 2 12 1 13
REMARK SMILES IDX 14 14
REMARK H PARENT 14 15
REMARK Flexibility Score: inf
ROOT
ATOM      1  C   UNL     1      60.630  39.443  37.692  1.00  0.00     0.161 A 
ATOM      2  C   UNL     1      60.039  38.325  38.314  1.00  0.00     0.161 A 
ATOM      3  C   UNL     1      58.881  37.750  37.779  1.00  0.00     0.098 A 
ATOM      4  C   UNL     1      58.300  38.277  36.623  1.00  0.00     0.142 A 
ATOM      5  C   UNL     1      58.883  39.395  35.992  1.00  0.00     0.022 A 
ATOM      6  C   UNL     1      60.043  39.974  36.525  1.00  0.00     0.062 A 
ATOM      7  C   UNL     1      58.278  39.898  34.836  1.00  0.00     0.019 A 
ATOM      8  C   UNL     1      57.126  39.287  34.344  1.00  0.00     0.094 A 
ATOM      9  C   UNL     1      56.603  38.181  35.022  1.00  0.00     0.336 A 
ATOM     10  O   UNL     1      55.564  37.615  34.595  1.00  0.00    -0.246 OA
ATOM     11  O   UNL     1      57.199  37.722  36.120  1.00  0.00    -0.423 OA
ENDROOT
BRANCH   1  12
ATOM     12  O   UNL     1      61.791  39.996  38.256  1.00  0.00    -0.493 OA
ATOM     13  C   UNL     1      62.934  40.407  37.513  1.00  0.00     0.278 C 
ENDBRANCH   1  12
BRANCH   2  14
ATOM     14  O   UNL     1      60.590  37.772  39.470  1.00  0.00    -0.504 OA
ATOM     15  H   UNL     1      60.035  37.245  40.133  1.00  0.00     0.293 HD
ENDBRANCH   2  14
TORSDOF 2
ENDMDL
MODEL 4
REMARK VINA RESULT:    -5.794     20.122     21.311
REMARK INTER + INTRA:          -6.346
REMARK INTER:                  -6.301
REMARK INTRA:                  -0.045
REMARK UNBOUND:                -0.044
REMARK SMILES COc1cc2ccc(=O)oc2cc1O
REMARK SMILES IDX 3 1 13 2 12 3 11 4 5 5 4 6 6 7 7 8 8 9 9 10 10 11 2 12 1 13
REMARK SMILES IDX 14 14
REMARK H PARENT 14 15
REMARK Flexibility Score: inf
ROOT
ATOM      1  C   UNL     1      44.509  36.382  50.160  1.00  0.00     0.161 A 
ATOM      2  C   UNL     1      44.438  37.269  51.254  1.00  0.00     0.161 A 
ATOM      3  C   UNL     1      45.444  37.270  52.226  1.00  0.00     0.098 A 
ATOM      4  C   UNL     1      46.527  36.394  52.124  1.00  0.00     0.142 A 
ATOM      5  C   UNL     1      46.608  35.503  51.035  1.00  0.00     0.022 A 
ATOM      6  C   UNL     1      45.602  35.498  50.058  1.00  0.00     0.062 A 
ATOM      7  C   UNL     1      47.705  34.638  50.960  1.00  0.00     0.019 A 
ATOM      8  C   UNL     1      48.679  34.681  51.957  1.00  0.00     0.094 A 
ATOM      9  C   UNL     1      48.533  35.591  53.008  1.00  0.00     0.336 A 
ATOM     10  O   UNL     1      49.402  35.646  53.917  1.00  0.00    -0.246 OA
ATOM     11  O   UNL     1      47.480  36.403  53.055  1.00  0.00    -0.423 OA
ENDROOT
BRANCH   1  12
ATOM     12  O   UNL     1      43.482  36.407  49.203  1.00  0.00    -0.493 OA
ATOM     13  C   UNL     1      43.143  35.316  48.353  1.00  0.00     0.278 C 
ENDBRANCH   1  12
BRANCH   2  14
ATOM     14  O   UNL     1      43.372  38.157  51.390  1.00  0.00    -0.504 OA
ATOM     15  H   UNL     1      43.376  39.075  50.962  1.00  0.00     0.293 HD
ENDBRANCH   2  14
TORSDOF 2
ENDMDL
MODEL 5
REMARK VINA RESULT:    -5.786      8.975     10.498
REMARK INTER + INTRA:          -6.337
REMARK INTER:                  -6.281
REMARK INTRA:                  -0.057
REMARK UNBOUND:                -0.044
REMARK SMILES COc1cc2ccc(=O)oc2cc1O
REMARK SMILES IDX 3 1 13 2 12 3 11 4 5 5 4 6 6 7 7 8 8 9 9 10 10 11 2 12 1 13
REMARK SMILES IDX 14 14
REMARK H PARENT 14 15
REMARK Flexibility Score: inf
ROOT
ATOM      1  C   UNL     1      54.955  32.894  43.392  1.00  0.00     0.161 A 
ATOM      2  C   UNL     1      55.718  33.491  42.369  1.00  0.00     0.161 A 
ATOM      3  C   UNL     1      55.443  34.799  41.956  1.00  0.00     0.098 A 
ATOM      4  C   UNL     1      54.410  35.527  42.552  1.00  0.00     0.142 A 
ATOM      5  C   UNL     1      53.640  34.939  43.577  1.00  0.00     0.022 A 
ATOM      6  C   UNL     1      53.912  33.629  43.994  1.00  0.00     0.062 A 
ATOM      7  C   UNL     1      52.614  35.693  44.155  1.00  0.00     0.019 A 
ATOM      8  C   UNL     1      52.382  36.992  43.706  1.00  0.00     0.094 A 
ATOM      9  C   UNL     1      53.186  37.510  42.686  1.00  0.00     0.336 A 
ATOM     10  O   UNL     1      52.994  38.681  42.267  1.00  0.00    -0.246 OA
ATOM     11  O   UNL     1      54.156  36.771  42.153  1.00  0.00    -0.423 OA
ENDROOT
BRANCH   1  12
ATOM     12  O   UNL     1      55.257  31.580  43.782  1.00  0.00    -0.493 OA
ATOM     13  C   UNL     1      54.655  30.414  43.229  1.00  0.00     0.278 C 
ENDBRANCH   1  12
BRANCH   2  14
ATOM     14  O   UNL     1      56.757  32.797  41.750  1.00  0.00    -0.504 OA
ATOM     15  H   UNL     1      57.336  33.217  41.033  1.00  0.00     0.293 HD
ENDBRANCH   2  14
TORSDOF 2
ENDMDL
MODEL 6
REMARK VINA RESULT:    -5.768      8.927     10.941
REMARK INTER + INTRA:          -6.318
REMARK INTER:                  -6.255
REMARK INTRA:                  -0.063
REMARK UNBOUND:                -0.044
REMARK SMILES COc1cc2ccc(=O)oc2cc1O
REMARK SMILES IDX 3 1 13 2 12 3 11 4 5 5 4 6 6 7 7 8 8 9 9 10 10 11 2 12 1 13
REMARK SMILES IDX 14 14
REMARK H PARENT 14 15
REMARK Flexibility Score: inf
ROOT
ATOM      1  C   UNL     1      52.243  35.924  43.991  1.00  0.00     0.161 A 
ATOM      2  C   UNL     1      53.025  35.717  42.837  1.00  0.00     0.161 A 
ATOM      3  C   UNL     1      53.506  36.810  42.106  1.00  0.00     0.098 A 
ATOM      4  C   UNL     1      53.216  38.114  42.512  1.00  0.00     0.142 A 
ATOM      5  C   UNL     1      52.434  38.333  43.665  1.00  0.00     0.022 A 
ATOM      6  C   UNL     1      51.950  37.241  44.400  1.00  0.00     0.062 A 
ATOM      7  C   UNL     1      52.161  39.650  44.046  1.00  0.00     0.019 A 
ATOM      8  C   UNL     1      52.665  40.702  43.282  1.00  0.00     0.094 A 
ATOM      9  C   UNL     1      53.433  40.410  42.151  1.00  0.00     0.336 A 
ATOM     10  O   UNL     1      53.898  41.345  41.448  1.00  0.00    -0.246 OA
ATOM     11  O   UNL     1      53.678  39.148  41.811  1.00  0.00    -0.423 OA
ENDROOT
BRANCH   1  12
ATOM     12  O   UNL     1      51.776  34.806  44.700  1.00  0.00    -0.493 OA
ATOM     13  C   UNL     1      50.415  34.391  44.751  1.00  0.00     0.278 C 
ENDBRANCH   1  12
BRANCH   2  14
ATOM     14  O   UNL     1      53.335  34.430  42.400  1.00  0.00    -0.504 OA
ATOM     15  H   UNL     1      52.849  33.990  41.627  1.00  0.00     0.293 HD
ENDBRANCH   2  14
TORSDOF 2
ENDMDL
MODEL 7
REMARK VINA RESULT:    -5.689      9.510     11.207
REMARK INTER + INTRA:          -6.233
REMARK INTER:                  -6.168
REMARK INTRA:                  -0.064
REMARK UNBOUND:                -0.044
REMARK SMILES COc1cc2ccc(=O)oc2cc1O
REMARK SMILES IDX 3 1 13 2 12 3 11 4 5 5 4 6 6 7 7 8 8 9 9 10 10 11 2 12 1 13
REMARK SMILES IDX 14 14
REMARK H PARENT 14 15
REMARK Flexibility Score: inf
ROOT
ATOM      1  C   UNL     1      54.380  33.969  43.453  1.00  0.00     0.161 A 
ATOM      2  C   UNL     1      54.979  34.934  42.618  1.00  0.00     0.161 A 
ATOM      3  C   UNL     1      54.981  36.283  42.989  1.00  0.00     0.098 A 
ATOM      4  C   UNL     1      54.390  36.688  44.188  1.00  0.00     0.142 A 
ATOM      5  C   UNL     1      53.787  35.731  45.031  1.00  0.00     0.022 A 
ATOM      6  C   UNL     1      53.783  34.378  44.663  1.00  0.00     0.062 A 
ATOM      7  C   UNL     1      53.205  36.167  46.225  1.00  0.00     0.019 A 
ATOM      8  C   UNL     1      53.235  37.523  46.546  1.00  0.00     0.094 A 
ATOM      9  C   UNL     1      53.850  38.415  45.662  1.00  0.00     0.336 A 
ATOM     10  O   UNL     1      53.889  39.643  45.934  1.00  0.00    -0.246 OA
ATOM     11  O   UNL     1      54.397  37.974  44.533  1.00  0.00    -0.423 OA
ENDROOT
BRANCH   1  12
ATOM     12  O   UNL     1      54.395  32.624  43.050  1.00  0.00    -0.493 OA
ATOM     13  C   UNL     1      55.247  31.625  43.601  1.00  0.00     0.278 C 
ENDBRANCH   1  12
BRANCH   2  14
ATOM     14  O   UNL     1      55.578  34.569  41.413  1.00  0.00    -0.504 OA
ATOM     15  H   UNL     1      55.325  33.721  40.919  1.00  0.00     0.293 HD
ENDBRANCH   2  14
TORSDOF 2
ENDMDL
MODEL 8
REMARK VINA RESULT:    -5.669      9.740     11.195
REMARK INTER + INTRA:          -6.210
REMARK INTER:                  -6.146
REMARK INTRA:                  -0.065
REMARK UNBOUND:                -0.044
REMARK SMILES COc1cc2ccc(=O)oc2cc1O
REMARK SMILES IDX 3 1 13 2 12 3 11 4 5 5 4 6 6 7 7 8 8 9 9 10 10 11 2 12 1 13
REMARK SMILES IDX 14 14
REMARK H PARENT 14 15
REMARK Flexibility Score: inf
ROOT
ATOM      1  C   UNL     1      53.554  37.756  44.501  1.00  0.00     0.161 A 
ATOM      2  C   UNL     1      52.811  36.867  45.302  1.00  0.00     0.161 A 
ATOM      3  C   UNL     1      52.992  35.485  45.176  1.00  0.00     0.098 A 
ATOM      4  C   UNL     1      53.910  34.973  44.256  1.00  0.00     0.142 A 
ATOM      5  C   UNL     1      54.659  35.854  43.449  1.00  0.00     0.022 A 
ATOM      6  C   UNL     1      54.481  37.239  43.572  1.00  0.00     0.062 A 
ATOM      7  C   UNL     1      55.571  35.312  42.538  1.00  0.00     0.019 A 
ATOM      8  C   UNL     1      55.712  33.927  42.453  1.00  0.00     0.094 A 
ATOM      9  C   UNL     1      54.936  33.115  43.285  1.00  0.00     0.336 A 
ATOM     10  O   UNL     1      55.049  31.863  43.225  1.00  0.00    -0.246 OA
ATOM     11  O   UNL     1      54.076  33.657  44.143  1.00  0.00    -0.423 OA
ENDROOT
BRANCH   1  12
ATOM     12  O   UNL     1      53.347  39.137  44.652  1.00  0.00    -0.493 OA
ATOM     13  C   UNL     1      52.590  39.944  43.757  1.00  0.00     0.278 C 
ENDBRANCH   1  12
BRANCH   2  14
ATOM     14  O   UNL     1      51.884  37.339  46.231  1.00  0.00    -0.504 OA
ATOM     15  H   UNL     1      51.490  38.271  46.175  1.00  0.00     0.293 HD
ENDBRANCH   2  14
TORSDOF 2
ENDMDL
MODEL 9
REMARK VINA RESULT:    -5.646      1.712      5.503
REMARK INTER + INTRA:          -6.186
REMARK INTER:                  -6.120
REMARK INTRA:                  -0.065
REMARK UNBOUND:                -0.044
REMARK SMILES COc1cc2ccc(=O)oc2cc1O
REMARK SMILES IDX 3 1 13 2 12 3 11 4 5 5 4 6 6 7 7 8 8 9 9 10 10 11 2 12 1 13
REMARK SMILES IDX 14 14
REMARK H PARENT 14 15
REMARK Flexibility Score: inf
ROOT
ATOM      1  C   UNL     1      57.733  37.867  35.836  1.00  0.00     0.161 A 
ATOM      2  C   UNL     1      57.566  37.873  37.235  1.00  0.00     0.161 A 
ATOM      3  C   UNL     1      58.593  38.336  38.066  1.00  0.00     0.098 A 
ATOM      4  C   UNL     1      59.793  38.795  37.517  1.00  0.00     0.142 A 
ATOM      5  C   UNL     1      59.970  38.794  36.118  1.00  0.00     0.022 A 
ATOM      6  C   UNL     1      58.944  38.331  35.283  1.00  0.00     0.062 A 
ATOM      7  C   UNL     1      61.182  39.261  35.600  1.00  0.00     0.019 A 
ATOM      8  C   UNL     1      62.173  39.710  36.472  1.00  0.00     0.094 A 
ATOM      9  C   UNL     1      61.926  39.683  37.848  1.00  0.00     0.336 A 
ATOM     10  O   UNL     1      62.807  40.086  38.652  1.00  0.00    -0.246 OA
ATOM     11  O   UNL     1      60.764  39.234  38.315  1.00  0.00    -0.423 OA
ENDROOT
BRANCH   1  12
ATOM     12  O   UNL     1      56.683  37.396  35.032  1.00  0.00    -0.493 OA
ATOM     13  C   UNL     1      55.747  38.228  34.355  1.00  0.00     0.278 C 
ENDBRANCH   1  12
BRANCH   2  14
ATOM     14  O   UNL     1      56.384  37.422  37.820  1.00  0.00    -0.504 OA
ATOM     15  H   UNL     1      56.276  36.472  38.157  1.00  0.00     0.293 HD
ENDBRANCH   2  14
TORSDOF 2
ENDMDL
