MODEL 1
REMARK VINA RESULT:    -3.373      0.000      0.000
REMARK INTER + INTRA:          -8.158
REMARK INTER:                  -6.134
REMARK INTRA:                  -2.024
REMARK UNBOUND:                -2.024
REMARK SMILES CCCCCCCCCCCCCCCC(=O)[O-]
REMARK SMILES IDX 9 1 10 2 11 3 12 4 13 5 14 6 15 7 16 8 17 9 18 10 8 11 7 12
REMARK SMILES IDX 6 13 5 14 4 15 3 16 2 17 1 18
REMARK H PARENT
REMARK Flexibility Score: inf
ROOT
ATOM      1  C   UNL     1      50.853  34.642  86.636  1.00  0.00     0.000 C 
ENDROOT
BRANCH   1   2
ATOM      2  C   UNL     1      49.823  35.016  87.719  1.00  0.00     0.000 C 
BRANCH   2   3
ATOM      3  C   UNL     1      48.480  34.260  87.638  1.00  0.00     0.000 C 
BRANCH   3   4
ATOM      4  C   UNL     1      48.515  32.952  86.826  1.00  0.00     0.000 C 
BRANCH   4   5
ATOM      5  C   UNL     1      48.072  31.730  87.646  1.00  0.00     0.000 C 
BRANCH   5   6
ATOM      6  C   UNL     1      47.377  32.124  88.960  1.00  0.00     0.006 C 
BRANCH   6   7
ATOM      7  C   UNL     1      46.815  30.913  89.719  1.00  0.00     0.053 C 
BRANCH   7   8
ATOM      8  C   UNL     1      45.578  31.296  90.468  1.00  0.00     0.041 C 
ATOM      9  O   UNL     1      45.646  31.613  91.684  1.00  0.00    -0.550 OA
ATOM     10  O   UNL     1      44.356  31.349  89.810  1.00  0.00    -0.550 OA
ENDBRANCH   7   8
ENDBRANCH   6   7
ENDBRANCH   5   6
ENDBRANCH   4   5
ENDBRANCH   3   4
ENDBRANCH   2   3
ENDBRANCH   1   2
BRANCH   1  11
ATOM     11  C   UNL     1      52.324  34.720  87.083  1.00  0.00     0.000 C 
BRANCH  11  12
ATOM     12  C   UNL     1      52.676  33.684  88.160  1.00  0.00    -0.000 C 
BRANCH  12  13
ATOM     13  C   UNL     1      52.437  32.258  87.649  1.00  0.00    -0.000 C 
BRANCH  13  14
ATOM     14  C   UNL     1      51.638  31.435  88.666  1.00  0.00    -0.000 C 
BRANCH  14  15
ATOM     15  C   UNL     1      51.194  32.302  89.850  1.00  0.00    -0.000 C 
BRANCH  15  16
ATOM     16  C   UNL     1      50.703  31.432  91.017  1.00  0.00    -0.000 C 
BRANCH  16  17
ATOM     17  C   UNL     1      51.513  31.655  92.302  1.00  0.00    -0.003 C 
ATOM     18  C   UNL     1      50.670  32.227  93.441  1.00  0.00     0.004 C 
ENDBRANCH  16  17
ENDBRANCH  15  16
ENDBRANCH  14  15
ENDBRANCH  13  14
ENDBRANCH  12  13
ENDBRANCH  11  12
ENDBRANCH   1  11
TORSDOF 14
ENDMDL
MODEL 2
REMARK VINA RESULT:    -3.240      3.019      5.447
REMARK INTER + INTRA:          -7.915
REMARK INTER:                  -5.752
REMARK INTRA:                  -2.163
REMARK UNBOUND:                -2.024
REMARK SMILES CCCCCCCCCCCCCCCC(=O)[O-]
REMARK SMILES IDX 9 1 10 2 11 3 12 4 13 5 14 6 15 7 16 8 17 9 18 10 8 11 7 12
REMARK SMILES IDX 6 13 5 14 4 15 3 16 2 17 1 18
REMARK H PARENT
REMARK Flexibility Score: inf
ROOT
ATOM      1  C   UNL     1      47.033  31.188  88.144  1.00  0.00     0.000 C 
ENDROOT
BRANCH   1   2
ATOM      2  C   UNL     1      46.880  31.659  89.604  1.00  0.00     0.000 C 
BRANCH   2   3
ATOM      3  C   UNL     1      47.397  30.672  90.670  1.00  0.00     0.000 C 
BRANCH   3   4
ATOM      4  C   UNL     1      48.849  30.904  91.126  1.00  0.00     0.000 C 
BRANCH   4   5
ATOM      5  C   UNL     1      49.848  29.960  90.435  1.00  0.00     0.000 C 
BRANCH   5   6
ATOM      6  C   UNL     1      50.978  30.719  89.720  1.00  0.00     0.006 C 
BRANCH   6   7
ATOM      7  C   UNL     1      51.310  32.058  90.394  1.00  0.00     0.053 C 
BRANCH   7   8
ATOM      8  C   UNL     1      52.658  31.995  91.041  1.00  0.00     0.041 C 
ATOM      9  O   UNL     1      53.282  33.055  91.308  1.00  0.00    -0.550 OA
ATOM     10  O   UNL     1      53.203  30.767  91.394  1.00  0.00    -0.550 OA
ENDBRANCH   7   8
ENDBRANCH   6   7
ENDBRANCH   5   6
ENDBRANCH   4   5
ENDBRANCH   3   4
ENDBRANCH   2   3
ENDBRANCH   1   2
BRANCH   1  11
ATOM     11  C   UNL     1      48.051  31.983  87.309  1.00  0.00     0.000 C 
BRANCH  11  12
ATOM     12  C   UNL     1      48.726  33.110  88.105  1.00  0.00    -0.000 C 
BRANCH  12  13
ATOM     13  C   UNL     1      48.590  34.454  87.378  1.00  0.00    -0.000 C 
BRANCH  13  14
ATOM     14  C   UNL     1      49.790  35.362  87.670  1.00  0.00    -0.000 C 
BRANCH  14  15
ATOM     15  C   UNL     1      51.087  34.757  87.119  1.00  0.00    -0.000 C 
BRANCH  15  16
ATOM     16  C   UNL     1      52.235  34.903  88.128  1.00  0.00    -0.000 C 
BRANCH  16  17
ATOM     17  C   UNL     1      53.405  33.953  87.834  1.00  0.00    -0.003 C 
ATOM     18  C   UNL     1      52.964  32.673  87.125  1.00  0.00     0.004 C 
ENDBRANCH  16  17
ENDBRANCH  15  16
ENDBRANCH  14  15
ENDBRANCH  13  14
ENDBRANCH  12  13
ENDBRANCH  11  12
ENDBRANCH   1  11
TORSDOF 14
ENDMDL
MODEL 3
REMARK VINA RESULT:    -3.205      3.169      5.460
REMARK INTER + INTRA:          -7.852
REMARK INTER:                  -5.334
REMARK INTRA:                  -2.518
REMARK UNBOUND:                -2.024
REMARK SMILES CCCCCCCCCCCCCCCC(=O)[O-]
REMARK SMILES IDX 9 1 10 2 11 3 12 4 13 5 14 6 15 7 16 8 17 9 18 10 8 11 7 12
REMARK SMILES IDX 6 13 5 14 4 15 3 16 2 17 1 18
REMARK H PARENT
REMARK Flexibility Score: inf
ROOT
ATOM      1  C   UNL     1      53.413  33.160  88.825  1.00  0.00     0.000 C 
ENDROOT
BRANCH   1   2
ATOM      2  C   UNL     1      52.788  31.997  88.030  1.00  0.00     0.000 C 
BRANCH   2   3
ATOM      3  C   UNL     1      51.451  31.465  88.586  1.00  0.00     0.000 C 
BRANCH   3   4
ATOM      4  C   UNL     1      50.976  32.129  89.892  1.00  0.00     0.000 C 
BRANCH   4   5
ATOM      5  C   UNL     1      50.262  31.146  90.835  1.00  0.00     0.000 C 
BRANCH   5   6
ATOM      6  C   UNL     1      50.996  30.978  92.175  1.00  0.00     0.006 C 
BRANCH   6   7
ATOM      7  C   UNL     1      52.426  31.534  92.141  1.00  0.00     0.053 C 
BRANCH   7   8
ATOM      8  C   UNL     1      53.418  30.418  92.038  1.00  0.00     0.041 C 
ATOM      9  O   UNL     1      53.578  29.813  90.947  1.00  0.00    -0.550 OA
ATOM     10  O   UNL     1      54.200  30.081  93.135  1.00  0.00    -0.550 OA
ENDBRANCH   7   8
ENDBRANCH   6   7
ENDBRANCH   5   6
ENDBRANCH   4   5
ENDBRANCH   3   4
ENDBRANCH   2   3
ENDBRANCH   1   2
BRANCH   1  11
ATOM     11  C   UNL     1      53.849  34.367  87.975  1.00  0.00     0.000 C 
BRANCH  11  12
ATOM     12  C   UNL     1      52.695  34.971  87.160  1.00  0.00    -0.000 C 
BRANCH  12  13
ATOM     13  C   UNL     1      51.642  35.599  88.081  1.00  0.00    -0.000 C 
BRANCH  13  14
ATOM     14  C   UNL     1      50.226  35.208  87.645  1.00  0.00    -0.000 C 
BRANCH  14  15
ATOM     15  C   UNL     1      50.258  34.334  86.385  1.00  0.00    -0.000 C 
BRANCH  15  16
ATOM     16  C   UNL     1      49.061  33.373  86.350  1.00  0.00    -0.000 C 
BRANCH  16  17
ATOM     17  C   UNL     1      48.216  33.435  87.631  1.00  0.00    -0.003 C 
ATOM     18  C   UNL     1      47.799  32.053  88.133  1.00  0.00     0.004 C 
ENDBRANCH  16  17
ENDBRANCH  15  16
ENDBRANCH  14  15
ENDBRANCH  13  14
ENDBRANCH  12  13
ENDBRANCH  11  12
ENDBRANCH   1  11
TORSDOF 14
ENDMDL
MODEL 4
REMARK VINA RESULT:    -3.202     17.147     18.896
REMARK INTER + INTRA:          -7.847
REMARK INTER:                  -6.154
REMARK INTRA:                  -1.694
REMARK UNBOUND:                -2.024
REMARK SMILES CCCCCCCCCCCCCCCC(=O)[O-]
REMARK SMILES IDX 9 1 10 2 11 3 12 4 13 5 14 6 15 7 16 8 17 9 18 10 8 11 7 12
REMARK SMILES IDX 6 13 5 14 4 15 3 16 2 17 1 18
REMARK H PARENT
REMARK Flexibility Score: inf
ROOT
ATOM      1  C   UNL     1      42.307  22.072  74.816  1.00  0.00     0.000 C 
ENDROOT
BRANCH   1   2
ATOM      2  C   UNL     1      43.524  21.187  75.148  1.00  0.00     0.000 C 
BRANCH   2   3
ATOM      3  C   UNL     1      44.559  21.824  76.099  1.00  0.00     0.000 C 
BRANCH   3   4
ATOM      4  C   UNL     1      44.107  21.954  77.565  1.00  0.00     0.000 C 
BRANCH   4   5
ATOM      5  C   UNL     1      44.875  21.016  78.511  1.00  0.00     0.000 C 
BRANCH   5   6
ATOM      6  C   UNL     1      44.622  19.531  78.200  1.00  0.00     0.006 C 
BRANCH   6   7
ATOM      7  C   UNL     1      45.919  18.753  77.935  1.00  0.00     0.053 C 
BRANCH   7   8
ATOM      8  C   UNL     1      45.800  17.955  76.675  1.00  0.00     0.041 C 
ATOM      9  O   UNL     1      45.572  16.719  76.728  1.00  0.00    -0.550 OA
ATOM     10  O   UNL     1      45.891  18.587  75.442  1.00  0.00    -0.550 OA
ENDBRANCH   7   8
ENDBRANCH   6   7
ENDBRANCH   5   6
ENDBRANCH   4   5
ENDBRANCH   3   4
ENDBRANCH   2   3
ENDBRANCH   1   2
BRANCH   1  11
ATOM     11  C   UNL     1      40.985  21.629  75.466  1.00  0.00     0.000 C 
BRANCH  11  12
ATOM     12  C   UNL     1      40.412  22.678  76.430  1.00  0.00    -0.000 C 
BRANCH  12  13
ATOM     13  C   UNL     1      40.510  22.200  77.884  1.00  0.00    -0.000 C 
BRANCH  13  14
ATOM     14  C   UNL     1      40.592  20.671  77.957  1.00  0.00    -0.000 C 
BRANCH  14  15
ATOM     15  C   UNL     1      40.497  20.182  79.407  1.00  0.00    -0.000 C 
BRANCH  15  16
ATOM     16  C   UNL     1      39.629  21.127  80.251  1.00  0.00    -0.000 C 
BRANCH  16  17
ATOM     17  C   UNL     1      38.159  20.686  80.307  1.00  0.00    -0.003 C 
ATOM     18  C   UNL     1      37.968  19.351  81.027  1.00  0.00     0.004 C 
ENDBRANCH  16  17
ENDBRANCH  15  16
ENDBRANCH  14  15
ENDBRANCH  13  14
ENDBRANCH  12  13
ENDBRANCH  11  12
ENDBRANCH   1  11
TORSDOF 14
ENDMDL
MODEL 5
REMARK VINA RESULT:    -3.194      2.848      6.898
REMARK INTER + INTRA:          -7.832
REMARK INTER:                  -5.613
REMARK INTRA:                  -2.219
REMARK UNBOUND:                -2.024
REMARK SMILES CCCCCCCCCCCCCCCC(=O)[O-]
REMARK SMILES IDX 9 1 10 2 11 3 12 4 13 5 14 6 15 7 16 8 17 9 18 10 8 11 7 12
REMARK SMILES IDX 6 13 5 14 4 15 3 16 2 17 1 18
REMARK H PARENT
REMARK Flexibility Score: inf
ROOT
ATOM      1  C   UNL     1      45.226  28.824  92.512  1.00  0.00     0.000 C 
ENDROOT
BRANCH   1   2
ATOM      2  C   UNL     1      45.451  27.873  91.320  1.00  0.00     0.000 C 
BRANCH   2   3
ATOM      3  C   UNL     1      46.853  27.943  90.680  1.00  0.00     0.000 C 
BRANCH   3   4
ATOM      4  C   UNL     1      47.950  28.548  91.575  1.00  0.00     0.000 C 
BRANCH   4   5
ATOM      5  C   UNL     1      48.942  29.425  90.792  1.00  0.00     0.000 C 
BRANCH   5   6
ATOM      6  C   UNL     1      49.189  30.783  91.470  1.00  0.00     0.006 C 
BRANCH   6   7
ATOM      7  C   UNL     1      50.602  31.324  91.213  1.00  0.00     0.053 C 
BRANCH   7   8
ATOM      8  C   UNL     1      51.269  31.676  92.506  1.00  0.00     0.041 C 
ATOM      9  O   UNL     1      52.443  31.287  92.739  1.00  0.00    -0.550 OA
ATOM     10  O   UNL     1      50.610  32.475  93.431  1.00  0.00    -0.550 OA
ENDBRANCH   7   8
ENDBRANCH   6   7
ENDBRANCH   5   6
ENDBRANCH   4   5
ENDBRANCH   3   4
ENDBRANCH   2   3
ENDBRANCH   1   2
BRANCH   1  11
ATOM     11  C   UNL     1      44.226  29.964  92.254  1.00  0.00     0.000 C 
BRANCH  11  12
ATOM     12  C   UNL     1      44.901  31.245  91.740  1.00  0.00    -0.000 C 
BRANCH  12  13
ATOM     13  C   UNL     1      44.870  31.305  90.208  1.00  0.00    -0.000 C 
BRANCH  13  14
ATOM     14  C   UNL     1      46.246  31.680  89.644  1.00  0.00    -0.000 C 
BRANCH  14  15
ATOM     15  C   UNL     1      46.574  30.851  88.396  1.00  0.00    -0.000 C 
BRANCH  15  16
ATOM     16  C   UNL     1      47.506  31.624  87.452  1.00  0.00    -0.000 C 
BRANCH  16  17
ATOM     17  C   UNL     1      48.561  32.446  88.205  1.00  0.00    -0.003 C 
ATOM     18  C   UNL     1      49.975  32.232  87.665  1.00  0.00     0.004 C 
ENDBRANCH  16  17
ENDBRANCH  15  16
ENDBRANCH  14  15
ENDBRANCH  13  14
ENDBRANCH  12  13
ENDBRANCH  11  12
ENDBRANCH   1  11
TORSDOF 14
ENDMDL
MODEL 6
REMARK VINA RESULT:    -3.153      1.556      4.028
REMARK INTER + INTRA:          -7.758
REMARK INTER:                  -5.392
REMARK INTRA:                  -2.365
REMARK UNBOUND:                -2.024
REMARK SMILES CCCCCCCCCCCCCCCC(=O)[O-]
REMARK SMILES IDX 9 1 10 2 11 3 12 4 13 5 14 6 15 7 16 8 17 9 18 10 8 11 7 12
REMARK SMILES IDX 6 13 5 14 4 15 3 16 2 17 1 18
REMARK H PARENT
REMARK Flexibility Score: inf
ROOT
ATOM      1  C   UNL     1      48.365  31.773  87.429  1.00  0.00     0.000 C 
ENDROOT
BRANCH   1   2
ATOM      2  C   UNL     1      49.318  30.561  87.445  1.00  0.00     0.000 C 
BRANCH   2   3
ATOM      3  C   UNL     1      49.834  30.151  88.840  1.00  0.00     0.000 C 
BRANCH   3   4
ATOM      4  C   UNL     1      49.681  31.223  89.935  1.00  0.00     0.000 C 
BRANCH   4   5
ATOM      5  C   UNL     1      48.834  30.742  91.125  1.00  0.00     0.000 C 
BRANCH   5   6
ATOM      6  C   UNL     1      47.463  30.199  90.690  1.00  0.00     0.006 C 
BRANCH   6   7
ATOM      7  C   UNL     1      46.392  31.295  90.604  1.00  0.00     0.053 C 
BRANCH   7   8
ATOM      8  C   UNL     1      45.128  30.843  91.266  1.00  0.00     0.041 C 
ATOM      9  O   UNL     1      44.026  31.356  90.944  1.00  0.00    -0.550 OA
ATOM     10  O   UNL     1      45.164  29.819  92.204  1.00  0.00    -0.550 OA
ENDBRANCH   7   8
ENDBRANCH   6   7
ENDBRANCH   5   6
ENDBRANCH   4   5
ENDBRANCH   3   4
ENDBRANCH   2   3
ENDBRANCH   1   2
BRANCH   1  11
ATOM     11  C   UNL     1      48.273  32.509  86.081  1.00  0.00     0.000 C 
BRANCH  11  12
ATOM     12  C   UNL     1      48.648  33.994  86.184  1.00  0.00    -0.000 C 
BRANCH  12  13
ATOM     13  C   UNL     1      48.725  34.441  87.650  1.00  0.00    -0.000 C 
BRANCH  13  14
ATOM     14  C   UNL     1      49.817  35.499  87.846  1.00  0.00    -0.000 C 
BRANCH  14  15
ATOM     15  C   UNL     1      51.188  34.963  87.417  1.00  0.00    -0.000 C 
BRANCH  15  16
ATOM     16  C   UNL     1      51.681  33.875  88.382  1.00  0.00    -0.000 C 
BRANCH  16  17
ATOM     17  C   UNL     1      52.324  32.686  87.654  1.00  0.00    -0.003 C 
ATOM     18  C   UNL     1      52.287  32.834  86.133  1.00  0.00     0.004 C 
ENDBRANCH  16  17
ENDBRANCH  15  16
ENDBRANCH  14  15
ENDBRANCH  13  14
ENDBRANCH  12  13
ENDBRANCH  11  12
ENDBRANCH   1  11
TORSDOF 14
ENDMDL
MODEL 7
REMARK VINA RESULT:    -3.064      4.751      6.833
REMARK INTER + INTRA:          -7.596
REMARK INTER:                  -5.028
REMARK INTRA:                  -2.569
REMARK UNBOUND:                -2.024
REMARK SMILES CCCCCCCCCCCCCCCC(=O)[O-]
REMARK SMILES IDX 9 1 10 2 11 3 12 4 13 5 14 6 15 7 16 8 17 9 18 10 8 11 7 12
REMARK SMILES IDX 6 13 5 14 4 15 3 16 2 17 1 18
REMARK H PARENT
REMARK Flexibility Score: inf
ROOT
ATOM      1  C   UNL     1      53.129  33.293  87.263  1.00  0.00     0.000 C 
ENDROOT
BRANCH   1   2
ATOM      2  C   UNL     1      52.326  32.016  87.579  1.00  0.00     0.000 C 
BRANCH   2   3
ATOM      3  C   UNL     1      51.760  31.275  86.350  1.00  0.00     0.000 C 
BRANCH   3   4
ATOM      4  C   UNL     1      52.323  31.736  84.993  1.00  0.00     0.000 C 
BRANCH   4   5
ATOM      5  C   UNL     1      51.258  32.397  84.101  1.00  0.00     0.000 C 
BRANCH   5   6
ATOM      6  C   UNL     1      51.599  33.857  83.761  1.00  0.00     0.006 C 
BRANCH   6   7
ATOM      7  C   UNL     1      53.111  34.111  83.688  1.00  0.00     0.053 C 
BRANCH   7   8
ATOM      8  C   UNL     1      53.500  34.557  82.314  1.00  0.00     0.041 C 
ATOM      9  O   UNL     1      54.615  35.105  82.118  1.00  0.00    -0.550 OA
ATOM     10  O   UNL     1      52.649  34.323  81.241  1.00  0.00    -0.550 OA
ENDBRANCH   7   8
ENDBRANCH   6   7
ENDBRANCH   5   6
ENDBRANCH   4   5
ENDBRANCH   3   4
ENDBRANCH   2   3
ENDBRANCH   1   2
BRANCH   1  11
ATOM     11  C   UNL     1      52.325  34.603  87.349  1.00  0.00     0.000 C 
BRANCH  11  12
ATOM     12  C   UNL     1      51.045  34.464  88.185  1.00  0.00    -0.000 C 
BRANCH  12  13
ATOM     13  C   UNL     1      50.004  35.513  87.775  1.00  0.00    -0.000 C 
BRANCH  13  14
ATOM     14  C   UNL     1      48.639  34.864  87.519  1.00  0.00    -0.000 C 
BRANCH  14  15
ATOM     15  C   UNL     1      48.689  33.938  86.298  1.00  0.00    -0.000 C 
BRANCH  15  16
ATOM     16  C   UNL     1      48.262  32.511  86.671  1.00  0.00    -0.000 C 
BRANCH  16  17
ATOM     17  C   UNL     1      47.886  32.376  88.154  1.00  0.00    -0.003 C 
ATOM     18  C   UNL     1      48.839  31.461  88.925  1.00  0.00     0.004 C 
ENDBRANCH  16  17
ENDBRANCH  15  16
ENDBRANCH  14  15
ENDBRANCH  13  14
ENDBRANCH  12  13
ENDBRANCH  11  12
ENDBRANCH   1  11
TORSDOF 14
ENDMDL
MODEL 8
REMARK VINA RESULT:    -3.063      1.704      4.270
REMARK INTER + INTRA:          -7.594
REMARK INTER:                  -4.880
REMARK INTRA:                  -2.714
REMARK UNBOUND:                -2.024
REMARK SMILES CCCCCCCCCCCCCCCC(=O)[O-]
REMARK SMILES IDX 9 1 10 2 11 3 12 4 13 5 14 6 15 7 16 8 17 9 18 10 8 11 7 12
REMARK SMILES IDX 6 13 5 14 4 15 3 16 2 17 1 18
REMARK H PARENT
REMARK Flexibility Score: inf
ROOT
ATOM      1  C   UNL     1      52.706  32.388  86.631  1.00  0.00     0.000 C 
ENDROOT
BRANCH   1   2
ATOM      2  C   UNL     1      51.928  31.423  87.547  1.00  0.00     0.000 C 
BRANCH   2   3
ATOM      3  C   UNL     1      50.724  30.718  86.887  1.00  0.00     0.000 C 
BRANCH   3   4
ATOM      4  C   UNL     1      49.502  30.518  87.802  1.00  0.00     0.000 C 
BRANCH   4   5
ATOM      5  C   UNL     1      49.759  30.977  89.247  1.00  0.00     0.000 C 
BRANCH   5   6
ATOM      6  C   UNL     1      48.462  31.106  90.063  1.00  0.00     0.006 C 
BRANCH   6   7
ATOM      7  C   UNL     1      47.282  31.616  89.223  1.00  0.00     0.053 C 
BRANCH   7   8
ATOM      8  C   UNL     1      45.987  31.328  89.915  1.00  0.00     0.041 C 
ATOM      9  O   UNL     1      45.856  31.574  91.141  1.00  0.00    -0.550 OA
ATOM     10  O   UNL     1      44.909  30.834  89.191  1.00  0.00    -0.550 OA
ENDBRANCH   7   8
ENDBRANCH   6   7
ENDBRANCH   5   6
ENDBRANCH   4   5
ENDBRANCH   3   4
ENDBRANCH   2   3
ENDBRANCH   1   2
BRANCH   1  11
ATOM     11  C   UNL     1      52.731  33.852  87.103  1.00  0.00     0.000 C 
BRANCH  11  12
ATOM     12  C   UNL     1      51.644  34.164  88.142  1.00  0.00    -0.000 C 
BRANCH  12  13
ATOM     13  C   UNL     1      50.534  35.029  87.534  1.00  0.00    -0.000 C 
BRANCH  13  14
ATOM     14  C   UNL     1      49.158  34.385  87.737  1.00  0.00    -0.000 C 
BRANCH  14  15
ATOM     15  C   UNL     1      48.638  33.772  86.431  1.00  0.00    -0.000 C 
BRANCH  15  16
ATOM     16  C   UNL     1      49.366  34.365  85.216  1.00  0.00    -0.000 C 
BRANCH  16  17
ATOM     17  C   UNL     1      49.932  33.285  84.282  1.00  0.00    -0.003 C 
ATOM     18  C   UNL     1      51.170  33.753  83.517  1.00  0.00     0.004 C 
ENDBRANCH  16  17
ENDBRANCH  15  16
ENDBRANCH  14  15
ENDBRANCH  13  14
ENDBRANCH  12  13
ENDBRANCH  11  12
ENDBRANCH   1  11
TORSDOF 14
ENDMDL
MODEL 9
REMARK VINA RESULT:    -3.053      2.371      4.836
REMARK INTER + INTRA:          -7.575
REMARK INTER:                  -5.071
REMARK INTRA:                  -2.504
REMARK UNBOUND:                -2.024
REMARK SMILES CCCCCCCCCCCCCCCC(=O)[O-]
REMARK SMILES IDX 9 1 10 2 11 3 12 4 13 5 14 6 15 7 16 8 17 9 18 10 8 11 7 12
REMARK SMILES IDX 6 13 5 14 4 15 3 16 2 17 1 18
REMARK H PARENT
REMARK Flexibility Score: inf
ROOT
ATOM      1  C   UNL     1      51.207  34.591  86.416  1.00  0.00     0.000 C 
ENDROOT
BRANCH   1   2
ATOM      2  C   UNL     1      52.642  34.079  86.184  1.00  0.00     0.000 C 
BRANCH   2   3
ATOM      3  C   UNL     1      53.505  33.944  87.456  1.00  0.00     0.000 C 
BRANCH   3   4
ATOM      4  C   UNL     1      52.714  33.844  88.774  1.00  0.00     0.000 C 
BRANCH   4   5
ATOM      5  C   UNL     1      53.054  32.578  89.578  1.00  0.00     0.000 C 
BRANCH   5   6
ATOM      6  C   UNL     1      52.612  32.677  91.047  1.00  0.00     0.006 C 
BRANCH   6   7
ATOM      7  C   UNL     1      52.135  31.333  91.614  1.00  0.00     0.053 C 
BRANCH   7   8
ATOM      8  C   UNL     1      50.803  31.490  92.278  1.00  0.00     0.041 C 
ATOM      9  O   UNL     1      49.807  30.847  91.857  1.00  0.00    -0.550 OA
ATOM     10  O   UNL     1      50.675  32.309  93.392  1.00  0.00    -0.550 OA
ENDBRANCH   7   8
ENDBRANCH   6   7
ENDBRANCH   5   6
ENDBRANCH   4   5
ENDBRANCH   3   4
ENDBRANCH   2   3
ENDBRANCH   1   2
BRANCH   1  11
ATOM     11  C   UNL     1      50.194  34.202  85.324  1.00  0.00     0.000 C 
BRANCH  11  12
ATOM     12  C   UNL     1      48.745  34.187  85.832  1.00  0.00    -0.000 C 
BRANCH  12  13
ATOM     13  C   UNL     1      48.700  34.198  87.365  1.00  0.00    -0.000 C 
BRANCH  13  14
ATOM     14  C   UNL     1      48.268  32.833  87.913  1.00  0.00    -0.000 C 
BRANCH  14  15
ATOM     15  C   UNL     1      49.396  32.182  88.722  1.00  0.00    -0.000 C 
BRANCH  15  16
ATOM     16  C   UNL     1      49.782  30.819  88.131  1.00  0.00    -0.000 C 
BRANCH  16  17
ATOM     17  C   UNL     1      50.886  30.926  87.070  1.00  0.00    -0.003 C 
ATOM     18  C   UNL     1      50.402  30.547  85.670  1.00  0.00     0.004 C 
ENDBRANCH  16  17
ENDBRANCH  15  16
ENDBRANCH  14  15
ENDBRANCH  13  14
ENDBRANCH  12  13
ENDBRANCH  11  12
ENDBRANCH   1  11
TORSDOF 14
ENDMDL
