MODEL 1
REMARK VINA RESULT:     3.504      0.000      0.000
REMARK INTER + INTRA:           5.888
REMARK INTER:                   5.143
REMARK INTRA:                   0.746
REMARK UNBOUND:                 0.746
REMARK SMILES OC[C@H]1O[C@H](O[C@@H]2[C@H](O)[C@H](O)[C@@H](O[C@H]3[C@@H](O)[C@@H](O)[C@H](O)O[C@@H]3CO)O[C@@H]2CO)[C@H](O)[C@H](O)[C@@H]1O
REMARK SMILES IDX 7 1 26 2 25 3 12 4 10 5 8 6 6 7 5 8 3 9 33 10 4 11 31 12
REMARK SMILES IDX 29 13 2 14 1 15 34 17 32 19 30 21 27 23 28 24 9 26 11 28
REMARK SMILES IDX 13 30 14 31 22 32 15 33 21 34 17 35 19 36 23 37 24 38 16 40
REMARK SMILES IDX 18 42 20 44
REMARK H PARENT 1 16 34 18 32 20 30 22 28 25 9 27 11 29 24 39 16 41 18 43
REMARK H PARENT 20 45
REMARK Flexibility Score: inf
ROOT
ATOM      1  C   UNL     1       9.289 -13.495  37.595  1.00  0.00     0.184 C 
ATOM      2  C   UNL     1      10.207 -14.191  38.684  1.00  0.00     0.178 C 
ATOM      3  O   UNL     1      11.568 -13.755  38.320  1.00  0.00    -0.341 OA
ATOM      4  C   UNL     1      12.122 -14.555  37.284  1.00  0.00     0.282 C 
ATOM      5  C   UNL     1      11.244 -14.287  36.038  1.00  0.00     0.202 C 
ATOM      6  C   UNL     1      10.137 -13.168  36.261  1.00  0.00     0.180 C 
ENDROOT
BRANCH   1   7
ATOM      7  O   UNL     1       8.191 -14.332  37.160  1.00  0.00    -0.341 OA
BRANCH   7   8
ATOM      8  C   UNL     1       6.966 -13.469  37.469  1.00  0.00     0.282 C 
ATOM      9  C   UNL     1       7.728 -10.667  38.352  1.00  0.00     0.178 C 
ATOM     10  C   UNL     1       6.068  -9.850  37.067  1.00  0.00     0.177 C 
ATOM     11  O   UNL     1       7.690 -12.350  38.154  1.00  0.00    -0.341 OA
ATOM     12  C   UNL     1       5.952 -11.140  35.857  1.00  0.00     0.179 C 
ATOM     13  C   UNL     1       6.494 -13.119  35.863  1.00  0.00     0.202 C 
BRANCH   9  14
ATOM     14  C   UNL     1       6.579 -10.225  39.716  1.00  0.00     0.191 C 
BRANCH  14  15
ATOM     15  O   UNL     1       7.454  -9.683  40.826  1.00  0.00    -0.394 OA
ATOM     16  H   UNL     1       7.787  -8.727  40.977  1.00  0.00     0.210 HD
ENDBRANCH  14  15
ENDBRANCH   9  14
BRANCH  10  17
ATOM     17  O   UNL     1       4.880  -8.703  36.259  1.00  0.00    -0.387 OA
ATOM     18  H   UNL     1       3.915  -7.945  35.596  1.00  0.00     0.211 HD
ENDBRANCH  10  17
BRANCH  12  19
ATOM     19  O   UNL     1       7.287 -10.896  35.302  1.00  0.00    -0.387 OA
ATOM     20  H   UNL     1       7.967 -10.942  36.065  1.00  0.00     0.211 HD
ENDBRANCH  12  19
BRANCH  13  21
ATOM     21  O   UNL     1       6.721 -14.271  34.704  1.00  0.00    -0.385 OA
ATOM     22  H   UNL     1       6.847 -14.599  33.559  1.00  0.00     0.211 HD
ENDBRANCH  13  21
ENDBRANCH   7   8
ENDBRANCH   1   7
BRANCH   2  23
ATOM     23  C   UNL     1      10.043 -15.806  38.792  1.00  0.00     0.191 C 
BRANCH  23  24
ATOM     24  O   UNL     1       9.011 -16.231  39.657  1.00  0.00    -0.394 OA
ATOM     25  H   UNL     1       9.432 -16.463  40.543  1.00  0.00     0.210 HD
ENDBRANCH  23  24
ENDBRANCH   2  23
BRANCH   6  26
ATOM     26  O   UNL     1       9.288 -13.179  35.154  1.00  0.00    -0.387 OA
ATOM     27  H   UNL     1       8.650 -12.408  35.231  1.00  0.00     0.211 HD
ENDBRANCH   6  26
BRANCH   5  28
ATOM     28  O   UNL     1      10.706 -15.493  35.537  1.00  0.00    -0.385 OA
ATOM     29  H   UNL     1      10.870 -15.510  34.555  1.00  0.00     0.211 HD
ENDBRANCH   5  28
BRANCH   4  30
ATOM     30  O   UNL     1      13.501 -14.343  36.977  1.00  0.00    -0.341 OA
BRANCH  30  31
ATOM     31  C   UNL     1      13.862 -13.113  36.302  1.00  0.00     0.184 C 
ATOM     32  C   UNL     1      15.123 -13.094  35.165  1.00  0.00     0.178 C 
ATOM     33  C   UNL     1      12.973 -11.857  37.051  1.00  0.00     0.180 C 
ATOM     34  O   UNL     1      14.283 -11.766  34.191  1.00  0.00    -0.342 OA
ATOM     35  C   UNL     1      13.001 -10.516  35.935  1.00  0.00     0.201 C 
ATOM     36  C   UNL     1      14.468 -10.743  35.420  1.00  0.00     0.279 C 
BRANCH  32  37
ATOM     37  C   UNL     1      14.828 -14.082  33.991  1.00  0.00     0.191 C 
BRANCH  37  38
ATOM     38  O   UNL     1      15.626 -15.395  33.746  1.00  0.00    -0.394 OA
ATOM     39  H   UNL     1      15.348 -16.670  34.217  1.00  0.00     0.210 HD
ENDBRANCH  37  38
ENDBRANCH  32  37
BRANCH  33  40
ATOM     40  O   UNL     1      13.657 -11.685  38.251  1.00  0.00    -0.387 OA
ATOM     41  H   UNL     1      13.709 -12.487  39.005  1.00  0.00     0.211 HD
ENDBRANCH  33  40
BRANCH  35  42
ATOM     42  O   UNL     1      12.542  -9.178  36.496  1.00  0.00    -0.385 OA
ATOM     43  H   UNL     1      11.779  -9.246  35.719  1.00  0.00     0.211 HD
ENDBRANCH  35  42
BRANCH  36  44
ATOM     44  O   UNL     1      15.224  -9.467  34.715  1.00  0.00    -0.366 OA
ATOM     45  H   UNL     1      15.483  -8.975  33.424  1.00  0.00     0.213 HD
ENDBRANCH  36  44
ENDBRANCH  30  31
ENDBRANCH   4  30
TORSDOF 18
ENDMDL
MODEL 2
REMARK VINA RESULT:     4.734      2.195      6.634
REMARK INTER + INTRA:           7.693
REMARK INTER:                   6.430
REMARK INTRA:                   1.263
REMARK UNBOUND:                 0.746
REMARK SMILES OC[C@H]1O[C@H](O[C@@H]2[C@H](O)[C@H](O)[C@@H](O[C@H]3[C@@H](O)[C@@H](O)[C@H](O)O[C@@H]3CO)O[C@@H]2CO)[C@H](O)[C@H](O)[C@@H]1O
REMARK SMILES IDX 7 1 26 2 25 3 12 4 10 5 8 6 6 7 5 8 3 9 33 10 4 11 31 12
REMARK SMILES IDX 29 13 2 14 1 15 34 17 32 19 30 21 27 23 28 24 9 26 11 28
REMARK SMILES IDX 13 30 14 31 22 32 15 33 21 34 17 35 19 36 23 37 24 38 16 40
REMARK SMILES IDX 18 42 20 44
REMARK H PARENT 1 16 34 18 32 20 30 22 28 25 9 27 11 29 24 39 16 41 18 43
REMARK H PARENT 20 45
REMARK Flexibility Score: inf
ROOT
ATOM      1  C   UNL     1      12.703 -12.116  35.521  1.00  0.00     0.184 C 
ATOM      2  C   UNL     1      12.961 -13.485  34.763  1.00  0.00     0.178 C 
ATOM      3  O   UNL     1      11.805 -14.317  35.147  1.00  0.00    -0.341 OA
ATOM      4  C   UNL     1      11.994 -14.936  36.413  1.00  0.00     0.282 C 
ATOM      5  C   UNL     1      12.043 -13.777  37.438  1.00  0.00     0.202 C 
ATOM      6  C   UNL     1      11.755 -12.348  36.807  1.00  0.00     0.180 C 
ENDROOT
BRANCH   1   7
ATOM      7  O   UNL     1      13.915 -11.517  36.038  1.00  0.00    -0.341 OA
BRANCH   7   8
ATOM      8  C   UNL     1      13.820 -10.076  35.532  1.00  0.00     0.282 C 
ATOM      9  C   UNL     1      11.097  -9.451  34.346  1.00  0.00     0.178 C 
ATOM     10  C   UNL     1      11.141  -7.457  35.391  1.00  0.00     0.177 C 
ATOM     11  O   UNL     1      12.545 -10.229  34.759  1.00  0.00    -0.341 OA
ATOM     12  C   UNL     1      12.213  -7.844  36.748  1.00  0.00     0.179 C 
ATOM     13  C   UNL     1      13.636  -9.293  37.041  1.00  0.00     0.202 C 
BRANCH   9  14
ATOM     14  C   UNL     1      11.407  -8.418  32.857  1.00  0.00     0.191 C 
BRANCH  14  15
ATOM     15  O   UNL     1      10.318  -8.787  31.872  1.00  0.00    -0.394 OA
ATOM     16  H   UNL     1       9.956  -8.249  31.080  1.00  0.00     0.210 HD
ENDBRANCH  14  15
ENDBRANCH   9  14
BRANCH  10  17
ATOM     17  O   UNL     1      10.697  -5.764  35.955  1.00  0.00    -0.387 OA
ATOM     18  H   UNL     1      10.284  -4.539  36.481  1.00  0.00     0.211 HD
ENDBRANCH  10  17
BRANCH  12  19
ATOM     19  O   UNL     1      11.282  -8.797  37.360  1.00  0.00    -0.387 OA
ATOM     20  H   UNL     1      10.477  -8.906  36.738  1.00  0.00     0.211 HD
ENDBRANCH  12  19
BRANCH  13  21
ATOM     21  O   UNL     1      14.420  -9.911  38.354  1.00  0.00    -0.385 OA
ATOM     22  H   UNL     1      15.347  -9.929  39.112  1.00  0.00     0.211 HD
ENDBRANCH  13  21
ENDBRANCH   7   8
ENDBRANCH   1   7
BRANCH   2  23
ATOM     23  C   UNL     1      14.400 -14.180  35.069  1.00  0.00     0.191 C 
BRANCH  23  24
ATOM     24  O   UNL     1      15.491 -13.577  34.407  1.00  0.00    -0.394 OA
ATOM     25  H   UNL     1      16.257 -13.530  35.061  1.00  0.00     0.210 HD
ENDBRANCH  23  24
ENDBRANCH   2  23
BRANCH   6  26
ATOM     26  O   UNL     1      12.040 -11.386  37.776  1.00  0.00    -0.387 OA
ATOM     27  H   UNL     1      11.214 -10.841  37.941  1.00  0.00     0.211 HD
ENDBRANCH   6  26
BRANCH   5  28
ATOM     28  O   UNL     1      13.245 -13.815  38.178  1.00  0.00    -0.385 OA
ATOM     29  H   UNL     1      13.108 -13.275  39.004  1.00  0.00     0.211 HD
ENDBRANCH   5  28
BRANCH   4  30
ATOM     30  O   UNL     1      11.023 -15.907  36.804  1.00  0.00    -0.341 OA
BRANCH  30  31
ATOM     31  C   UNL     1       9.790 -15.431  37.394  1.00  0.00     0.184 C 
ATOM     32  C   UNL     1       9.003 -16.339  38.594  1.00  0.00     0.178 C 
ATOM     33  C   UNL     1       9.308 -14.057  36.496  1.00  0.00     0.180 C 
ATOM     34  O   UNL     1       8.376 -14.802  39.407  1.00  0.00    -0.342 OA
ATOM     35  C   UNL     1       8.161 -13.204  37.497  1.00  0.00     0.201 C 
ATOM     36  C   UNL     1       7.478 -14.479  38.110  1.00  0.00     0.279 C 
BRANCH  32  37
ATOM     37  C   UNL     1       9.937 -16.557  39.828  1.00  0.00     0.191 C 
BRANCH  37  38
ATOM     38  O   UNL     1       9.537 -17.396  41.076  1.00  0.00    -0.394 OA
ATOM     39  H   UNL     1       8.833 -16.986  42.199  1.00  0.00     0.210 HD
ENDBRANCH  37  38
ENDBRANCH  32  37
BRANCH  33  40
ATOM     40  O   UNL     1       8.813 -14.626  35.326  1.00  0.00    -0.387 OA
ATOM     41  H   UNL     1       8.223 -15.557  35.342  1.00  0.00     0.211 HD
ENDBRANCH  33  40
BRANCH  35  42
ATOM     42  O   UNL     1       7.358 -12.114  36.802  1.00  0.00    -0.385 OA
ATOM     43  H   UNL     1       6.790 -12.102  37.733  1.00  0.00     0.211 HD
ENDBRANCH  35  42
BRANCH  36  44
ATOM     44  O   UNL     1       5.976 -14.294  38.748  1.00  0.00    -0.366 OA
ATOM     45  H   UNL     1       4.639 -14.536  38.388  1.00  0.00     0.213 HD
ENDBRANCH  36  44
ENDBRANCH  30  31
ENDBRANCH   4  30
TORSDOF 18
ENDMDL
MODEL 3
REMARK VINA RESULT:     5.574      1.087      2.367
REMARK INTER + INTRA:           8.927
REMARK INTER:                   6.896
REMARK INTRA:                   2.031
REMARK UNBOUND:                 0.746
REMARK SMILES OC[C@H]1O[C@H](O[C@@H]2[C@H](O)[C@H](O)[C@@H](O[C@H]3[C@@H](O)[C@@H](O)[C@H](O)O[C@@H]3CO)O[C@@H]2CO)[C@H](O)[C@H](O)[C@@H]1O
REMARK SMILES IDX 7 1 26 2 25 3 12 4 10 5 8 6 6 7 5 8 3 9 33 10 4 11 31 12
REMARK SMILES IDX 29 13 2 14 1 15 34 17 32 19 30 21 27 23 28 24 9 26 11 28
REMARK SMILES IDX 13 30 14 31 22 32 15 33 21 34 17 35 19 36 23 37 24 38 16 40
REMARK SMILES IDX 18 42 20 44
REMARK H PARENT 1 16 34 18 32 20 30 22 28 25 9 27 11 29 24 39 16 41 18 43
REMARK H PARENT 20 45
REMARK Flexibility Score: inf
ROOT
ATOM      1  C   UNL     1       9.144 -13.844  38.151  1.00  0.00     0.184 C 
ATOM      2  C   UNL     1      10.187 -14.839  38.812  1.00  0.00     0.178 C 
ATOM      3  O   UNL     1      11.487 -14.179  38.586  1.00  0.00    -0.341 OA
ATOM      4  C   UNL     1      11.998 -14.444  37.286  1.00  0.00     0.282 C 
ATOM      5  C   UNL     1      11.005 -13.774  36.306  1.00  0.00     0.202 C 
ATOM      6  C   UNL     1       9.860 -12.938  37.022  1.00  0.00     0.180 C 
ENDROOT
BRANCH   1   7
ATOM      7  O   UNL     1       8.064 -14.525  37.471  1.00  0.00    -0.341 OA
BRANCH   7   8
ATOM      8  C   UNL     1       6.871 -13.599  37.720  1.00  0.00     0.282 C 
ATOM      9  C   UNL     1       7.738 -10.807  38.537  1.00  0.00     0.178 C 
ATOM     10  C   UNL     1       6.150  -9.958  37.184  1.00  0.00     0.177 C 
ATOM     11  O   UNL     1       7.628 -12.492  38.391  1.00  0.00    -0.341 OA
ATOM     12  C   UNL     1       6.007 -11.279  36.012  1.00  0.00     0.179 C 
ATOM     13  C   UNL     1       6.458 -13.279  36.092  1.00  0.00     0.202 C 
BRANCH   9  14
ATOM     14  C   UNL     1       6.575 -10.271  39.856  1.00  0.00     0.191 C 
BRANCH  14  15
ATOM     15  O   UNL     1       7.441  -9.668  40.941  1.00  0.00    -0.394 OA
ATOM     16  H   UNL     1       8.332  -9.171  40.855  1.00  0.00     0.210 HD
ENDBRANCH  14  15
ENDBRANCH   9  14
BRANCH  10  17
ATOM     17  O   UNL     1       5.037  -8.785  36.310  1.00  0.00    -0.387 OA
ATOM     18  H   UNL     1       4.179  -7.991  35.548  1.00  0.00     0.211 HD
ENDBRANCH  10  17
BRANCH  12  19
ATOM     19  O   UNL     1       7.365 -11.113  35.485  1.00  0.00    -0.387 OA
ATOM     20  H   UNL     1       8.000 -11.686  36.046  1.00  0.00     0.211 HD
ENDBRANCH  12  19
BRANCH  13  21
ATOM     21  O   UNL     1       6.661 -14.477  34.975  1.00  0.00    -0.385 OA
ATOM     22  H   UNL     1       6.428 -15.575  34.559  1.00  0.00     0.211 HD
ENDBRANCH  13  21
ENDBRANCH   7   8
ENDBRANCH   1   7
BRANCH   2  23
ATOM     23  C   UNL     1      10.123 -16.368  38.261  1.00  0.00     0.191 C 
BRANCH  23  24
ATOM     24  O   UNL     1       9.105 -17.155  38.842  1.00  0.00    -0.394 OA
ATOM     25  H   UNL     1       8.314 -17.138  38.218  1.00  0.00     0.210 HD
ENDBRANCH  23  24
ENDBRANCH   2  23
BRANCH   6  26
ATOM     26  O   UNL     1       8.924 -12.575  36.054  1.00  0.00    -0.387 OA
ATOM     27  H   UNL     1       8.014 -12.559  36.476  1.00  0.00     0.211 HD
ENDBRANCH   6  26
BRANCH   5  28
ATOM     28  O   UNL     1      10.497 -14.718  35.386  1.00  0.00    -0.385 OA
ATOM     29  H   UNL     1       9.808 -15.259  35.860  1.00  0.00     0.211 HD
ENDBRANCH   5  28
BRANCH   4  30
ATOM     30  O   UNL     1      13.332 -14.010  37.020  1.00  0.00    -0.341 OA
BRANCH  30  31
ATOM     31  C   UNL     1      13.535 -12.616  36.685  1.00  0.00     0.184 C 
ATOM     32  C   UNL     1      12.974 -11.392  37.719  1.00  0.00     0.178 C 
ATOM     33  C   UNL     1      14.163 -12.575  35.094  1.00  0.00     0.180 C 
ATOM     34  O   UNL     1      14.377 -10.287  37.243  1.00  0.00    -0.342 OA
ATOM     35  C   UNL     1      14.881 -10.996  34.900  1.00  0.00     0.201 C 
ATOM     36  C   UNL     1      13.810 -10.210  35.738  1.00  0.00     0.279 C 
BRANCH  32  37
ATOM     37  C   UNL     1      13.617 -11.524  39.137  1.00  0.00     0.191 C 
BRANCH  37  38
ATOM     38  O   UNL     1      13.315 -10.554  40.316  1.00  0.00    -0.394 OA
ATOM     39  H   UNL     1      12.164  -9.816  40.550  1.00  0.00     0.210 HD
ENDBRANCH  37  38
ENDBRANCH  32  37
BRANCH  33  40
ATOM     40  O   UNL     1      13.037 -12.848  34.323  1.00  0.00    -0.387 OA
ATOM     41  H   UNL     1      12.838 -13.857  33.930  1.00  0.00     0.211 HD
ENDBRANCH  33  40
BRANCH  35  42
ATOM     42  O   UNL     1      15.238 -10.602  33.474  1.00  0.00    -0.385 OA
ATOM     43  H   UNL     1      16.165 -10.250  33.927  1.00  0.00     0.211 HD
ENDBRANCH  35  42
BRANCH  36  44
ATOM     44  O   UNL     1      13.692  -8.593  35.480  1.00  0.00    -0.366 OA
ATOM     45  H   UNL     1      12.969  -7.703  34.666  1.00  0.00     0.213 HD
ENDBRANCH  36  44
ENDBRANCH  30  31
ENDBRANCH   4  30
TORSDOF 18
ENDMDL
