MODEL 1
REMARK VINA RESULT:    -3.888      0.000      0.000
REMARK INTER + INTRA:         -10.570
REMARK INTER:                  -8.433
REMARK INTRA:                  -2.137
REMARK UNBOUND:                -2.137
REMARK SMILES CCCCCCCCCCCCCCCCCCCCCC(=O)[O-]
REMARK SMILES IDX 12 1 11 2 10 3 9 4 8 5 7 6 6 7 5 8 4 9 3 10 2 11 1 12 13 13
REMARK SMILES IDX 14 14 15 15 16 16 17 17 18 18 19 19 20 20 21 21 22 22 23 23
REMARK SMILES IDX 24 24
REMARK H PARENT
REMARK Flexibility Score: inf
ROOT
ATOM      1  C   UNL     1      -4.640   1.660   9.197  1.00  0.00     0.000 C 
ENDROOT
BRANCH   1   2
ATOM      2  C   UNL     1      -5.761   2.644   9.553  1.00  0.00     0.000 C 
BRANCH   2   3
ATOM      3  C   UNL     1      -5.194   4.030   9.879  1.00  0.00     0.000 C 
BRANCH   3   4
ATOM      4  C   UNL     1      -5.071   4.886   8.609  1.00  0.00    -0.000 C 
BRANCH   4   5
ATOM      5  C   UNL     1      -6.035   6.083   8.604  1.00  0.00    -0.000 C 
BRANCH   5   6
ATOM      6  C   UNL     1      -5.489   7.289   9.382  1.00  0.00    -0.000 C 
BRANCH   6   7
ATOM      7  C   UNL     1      -5.650   8.582   8.572  1.00  0.00    -0.000 C 
BRANCH   7   8
ATOM      8  C   UNL     1      -7.107   9.064   8.586  1.00  0.00    -0.000 C 
BRANCH   8   9
ATOM      9  C   UNL     1      -7.508   9.753   7.263  1.00  0.00    -0.000 C 
BRANCH   9  10
ATOM     10  C   UNL     1      -7.502   8.808   6.046  1.00  0.00    -0.000 C 
BRANCH  10  11
ATOM     11  C   UNL     1      -8.429   7.588   6.177  1.00  0.00    -0.003 C 
ATOM     12  C   UNL     1      -9.863   7.882   5.734  1.00  0.00     0.004 C 
ENDBRANCH  10  11
ENDBRANCH   9  10
ENDBRANCH   8   9
ENDBRANCH   7   8
ENDBRANCH   6   7
ENDBRANCH   5   6
ENDBRANCH   4   5
ENDBRANCH   3   4
ENDBRANCH   2   3
ENDBRANCH   1   2
BRANCH   1  13
ATOM     13  C   UNL     1      -3.389   1.919  10.050  1.00  0.00     0.000 C 
BRANCH  13  14
ATOM     14  C   UNL     1      -2.142   2.232   9.202  1.00  0.00     0.000 C 
BRANCH  14  15
ATOM     15  C   UNL     1      -1.257   3.372   9.746  1.00  0.00     0.000 C 
BRANCH  15  16
ATOM     16  C   UNL     1      -1.447   4.738   9.057  1.00  0.00     0.000 C 
BRANCH  16  17
ATOM     17  C   UNL     1      -1.884   5.885   9.988  1.00  0.00     0.000 C 
BRANCH  17  18
ATOM     18  C   UNL     1      -1.563   7.274   9.413  1.00  0.00     0.000 C 
BRANCH  18  19
ATOM     19  C   UNL     1      -0.278   7.285   8.570  1.00  0.00     0.000 C 
BRANCH  19  20
ATOM     20  C   UNL     1       0.223   8.708   8.262  1.00  0.00     0.006 C 
BRANCH  20  21
ATOM     21  C   UNL     1       1.750   8.819   8.366  1.00  0.00     0.053 C 
BRANCH  21  22
ATOM     22  C   UNL     1       2.431   8.277   7.145  1.00  0.00     0.041 C 
ATOM     23  O   UNL     1       3.489   7.604   7.255  1.00  0.00    -0.550 OA
ATOM     24  O   UNL     1       1.914   8.547   5.883  1.00  0.00    -0.550 OA
ENDBRANCH  21  22
ENDBRANCH  20  21
ENDBRANCH  19  20
ENDBRANCH  18  19
ENDBRANCH  17  18
ENDBRANCH  16  17
ENDBRANCH  15  16
ENDBRANCH  14  15
ENDBRANCH  13  14
ENDBRANCH   1  13
TORSDOF 20
ENDMDL
MODEL 2
REMARK VINA RESULT:    -3.816      1.299      2.124
REMARK INTER + INTRA:         -10.415
REMARK INTER:                  -8.094
REMARK INTRA:                  -2.320
REMARK UNBOUND:                -2.137
REMARK SMILES CCCCCCCCCCCCCCCCCCCCCC(=O)[O-]
REMARK SMILES IDX 12 1 11 2 10 3 9 4 8 5 7 6 6 7 5 8 4 9 3 10 2 11 1 12 13 13
REMARK SMILES IDX 14 14 15 15 16 16 17 17 18 18 19 19 20 20 21 21 22 22 23 23
REMARK SMILES IDX 24 24
REMARK H PARENT
REMARK Flexibility Score: inf
ROOT
ATOM      1  C   UNL     1      -3.013   2.238  10.069  1.00  0.00     0.000 C 
ENDROOT
BRANCH   1   2
ATOM      2  C   UNL     1      -4.087   1.701   9.115  1.00  0.00     0.000 C 
BRANCH   2   3
ATOM      3  C   UNL     1      -5.469   2.258   9.473  1.00  0.00     0.000 C 
BRANCH   3   4
ATOM      4  C   UNL     1      -5.362   3.692  10.012  1.00  0.00    -0.000 C 
BRANCH   4   5
ATOM      5  C   UNL     1      -5.561   4.755   8.919  1.00  0.00    -0.000 C 
BRANCH   5   6
ATOM      6  C   UNL     1      -6.119   6.075   9.469  1.00  0.00    -0.000 C 
BRANCH   6   7
ATOM      7  C   UNL     1      -5.789   7.243   8.532  1.00  0.00    -0.000 C 
BRANCH   7   8
ATOM      8  C   UNL     1      -7.069   7.884   7.977  1.00  0.00    -0.000 C 
BRANCH   8   9
ATOM      9  C   UNL     1      -7.278   7.572   6.479  1.00  0.00    -0.000 C 
BRANCH   9  10
ATOM     10  C   UNL     1      -8.441   6.600   6.206  1.00  0.00    -0.000 C 
BRANCH  10  11
ATOM     11  C   UNL     1      -9.283   6.243   7.442  1.00  0.00    -0.003 C 
ATOM     12  C   UNL     1      -9.223   4.757   7.793  1.00  0.00     0.004 C 
ENDBRANCH  10  11
ENDBRANCH   9  10
ENDBRANCH   8   9
ENDBRANCH   7   8
ENDBRANCH   6   7
ENDBRANCH   5   6
ENDBRANCH   4   5
ENDBRANCH   3   4
ENDBRANCH   2   3
ENDBRANCH   1   2
BRANCH   1  13
ATOM     13  C   UNL     1      -1.749   2.650   9.300  1.00  0.00     0.000 C 
BRANCH  13  14
ATOM     14  C   UNL     1      -1.231   4.043   9.703  1.00  0.00     0.000 C 
BRANCH  14  15
ATOM     15  C   UNL     1      -1.667   5.192   8.771  1.00  0.00     0.000 C 
BRANCH  15  16
ATOM     16  C   UNL     1      -2.268   6.422   9.480  1.00  0.00     0.000 C 
BRANCH  16  17
ATOM     17  C   UNL     1      -1.393   7.690   9.444  1.00  0.00     0.000 C 
BRANCH  17  18
ATOM     18  C   UNL     1       0.046   7.407   8.982  1.00  0.00     0.000 C 
BRANCH  18  19
ATOM     19  C   UNL     1       0.408   8.145   7.684  1.00  0.00     0.000 C 
BRANCH  19  20
ATOM     20  C   UNL     1       1.691   8.987   7.813  1.00  0.00     0.006 C 
BRANCH  20  21
ATOM     21  C   UNL     1       2.929   8.237   7.305  1.00  0.00     0.053 C 
BRANCH  21  22
ATOM     22  C   UNL     1       4.038   8.247   8.314  1.00  0.00     0.041 C 
ATOM     23  O   UNL     1       5.206   8.565   7.969  1.00  0.00    -0.550 OA
ATOM     24  O   UNL     1       3.786   7.871   9.628  1.00  0.00    -0.550 OA
ENDBRANCH  21  22
ENDBRANCH  20  21
ENDBRANCH  19  20
ENDBRANCH  18  19
ENDBRANCH  17  18
ENDBRANCH  16  17
ENDBRANCH  15  16
ENDBRANCH  14  15
ENDBRANCH  13  14
ENDBRANCH   1  13
TORSDOF 20
ENDMDL
MODEL 3
REMARK VINA RESULT:    -3.653      1.246      2.331
REMARK INTER + INTRA:         -10.062
REMARK INTER:                  -7.941
REMARK INTRA:                  -2.121
REMARK UNBOUND:                -2.137
REMARK SMILES CCCCCCCCCCCCCCCCCCCCCC(=O)[O-]
REMARK SMILES IDX 12 1 11 2 10 3 9 4 8 5 7 6 6 7 5 8 4 9 3 10 2 11 1 12 13 13
REMARK SMILES IDX 14 14 15 15 16 16 17 17 18 18 19 19 20 20 21 21 22 22 23 23
REMARK SMILES IDX 24 24
REMARK H PARENT
REMARK Flexibility Score: inf
ROOT
ATOM      1  C   UNL     1      -3.756   1.432   9.057  1.00  0.00     0.000 C 
ENDROOT
BRANCH   1   2
ATOM      2  C   UNL     1      -4.830   0.727   9.894  1.00  0.00     0.000 C 
BRANCH   2   3
ATOM      3  C   UNL     1      -6.185   0.743   9.177  1.00  0.00     0.000 C 
BRANCH   3   4
ATOM      4  C   UNL     1      -7.175   1.674   9.892  1.00  0.00    -0.000 C 
BRANCH   4   5
ATOM      5  C   UNL     1      -7.707   2.790   8.978  1.00  0.00    -0.000 C 
BRANCH   5   6
ATOM      6  C   UNL     1      -7.407   4.195   9.520  1.00  0.00    -0.000 C 
BRANCH   6   7
ATOM      7  C   UNL     1      -5.896   4.410   9.682  1.00  0.00    -0.000 C 
BRANCH   7   8
ATOM      8  C   UNL     1      -5.528   5.891   9.515  1.00  0.00    -0.000 C 
BRANCH   8   9
ATOM      9  C   UNL     1      -5.575   6.342   8.039  1.00  0.00    -0.000 C 
BRANCH   9  10
ATOM     10  C   UNL     1      -6.701   7.349   7.735  1.00  0.00    -0.000 C 
BRANCH  10  11
ATOM     11  C   UNL     1      -7.844   6.792   6.870  1.00  0.00    -0.003 C 
ATOM     12  C   UNL     1      -8.118   7.642   5.629  1.00  0.00     0.004 C 
ENDBRANCH  10  11
ENDBRANCH   9  10
ENDBRANCH   8   9
ENDBRANCH   7   8
ENDBRANCH   6   7
ENDBRANCH   5   6
ENDBRANCH   4   5
ENDBRANCH   3   4
ENDBRANCH   2   3
ENDBRANCH   1   2
BRANCH   1  13
ATOM     13  C   UNL     1      -2.952   2.421   9.915  1.00  0.00     0.000 C 
BRANCH  13  14
ATOM     14  C   UNL     1      -1.549   2.703   9.345  1.00  0.00     0.000 C 
BRANCH  14  15
ATOM     15  C   UNL     1      -0.941   4.059   9.759  1.00  0.00     0.000 C 
BRANCH  15  16
ATOM     16  C   UNL     1      -1.568   5.295   9.083  1.00  0.00     0.000 C 
BRANCH  16  17
ATOM     17  C   UNL     1      -1.953   6.438  10.040  1.00  0.00     0.000 C 
BRANCH  17  18
ATOM     18  C   UNL     1      -1.798   7.828   9.401  1.00  0.00     0.000 C 
BRANCH  18  19
ATOM     19  C   UNL     1      -0.614   8.618   9.981  1.00  0.00     0.000 C 
BRANCH  19  20
ATOM     20  C   UNL     1       0.352   9.129   8.897  1.00  0.00     0.006 C 
BRANCH  20  21
ATOM     21  C   UNL     1       0.664   8.055   7.847  1.00  0.00     0.053 C 
BRANCH  21  22
ATOM     22  C   UNL     1       1.902   8.382   7.066  1.00  0.00     0.041 C 
ATOM     23  O   UNL     1       2.995   8.574   7.661  1.00  0.00    -0.550 OA
ATOM     24  O   UNL     1       1.838   8.509   5.684  1.00  0.00    -0.550 OA
ENDBRANCH  21  22
ENDBRANCH  20  21
ENDBRANCH  19  20
ENDBRANCH  18  19
ENDBRANCH  17  18
ENDBRANCH  16  17
ENDBRANCH  15  16
ENDBRANCH  14  15
ENDBRANCH  13  14
ENDBRANCH   1  13
TORSDOF 20
ENDMDL
MODEL 4
REMARK VINA RESULT:    -3.476      1.233      2.421
REMARK INTER + INTRA:          -9.677
REMARK INTER:                  -7.735
REMARK INTRA:                  -1.943
REMARK UNBOUND:                -2.137
REMARK SMILES CCCCCCCCCCCCCCCCCCCCCC(=O)[O-]
REMARK SMILES IDX 12 1 11 2 10 3 9 4 8 5 7 6 6 7 5 8 4 9 3 10 2 11 1 12 13 13
REMARK SMILES IDX 14 14 15 15 16 16 17 17 18 18 19 19 20 20 21 21 22 22 23 23
REMARK SMILES IDX 24 24
REMARK H PARENT
REMARK Flexibility Score: inf
ROOT
ATOM      1  C   UNL     1      -1.398   3.062   9.103  1.00  0.00     0.000 C 
ENDROOT
BRANCH   1   2
ATOM      2  C   UNL     1      -2.720   2.324   9.349  1.00  0.00     0.000 C 
BRANCH   2   3
ATOM      3  C   UNL     1      -3.780   3.271   9.923  1.00  0.00     0.000 C 
BRANCH   3   4
ATOM      4  C   UNL     1      -5.153   3.009   9.286  1.00  0.00    -0.000 C 
BRANCH   4   5
ATOM      5  C   UNL     1      -6.043   4.262   9.258  1.00  0.00    -0.000 C 
BRANCH   5   6
ATOM      6  C   UNL     1      -5.416   5.418   8.464  1.00  0.00    -0.000 C 
BRANCH   6   7
ATOM      7  C   UNL     1      -5.829   6.774   9.051  1.00  0.00    -0.000 C 
BRANCH   7   8
ATOM      8  C   UNL     1      -7.080   7.321   8.349  1.00  0.00    -0.000 C 
BRANCH   8   9
ATOM      9  C   UNL     1      -6.876   7.476   6.826  1.00  0.00    -0.000 C 
BRANCH   9  10
ATOM     10  C   UNL     1      -8.008   6.859   5.984  1.00  0.00    -0.000 C 
BRANCH  10  11
ATOM     11  C   UNL     1      -9.309   6.588   6.758  1.00  0.00    -0.003 C 
ATOM     12  C   UNL     1      -9.415   5.146   7.254  1.00  0.00     0.004 C 
ENDBRANCH  10  11
ENDBRANCH   9  10
ENDBRANCH   8   9
ENDBRANCH   7   8
ENDBRANCH   6   7
ENDBRANCH   5   6
ENDBRANCH   4   5
ENDBRANCH   3   4
ENDBRANCH   2   3
ENDBRANCH   1   2
BRANCH   1  13
ATOM     13  C   UNL     1      -1.207   4.201  10.115  1.00  0.00     0.000 C 
BRANCH  13  14
ATOM     14  C   UNL     1      -0.959   5.564   9.442  1.00  0.00     0.000 C 
BRANCH  14  15
ATOM     15  C   UNL     1      -2.145   6.547   9.512  1.00  0.00     0.000 C 
BRANCH  15  16
ATOM     16  C   UNL     1      -1.816   7.932  10.107  1.00  0.00     0.000 C 
BRANCH  16  17
ATOM     17  C   UNL     1      -1.695   9.073   9.079  1.00  0.00     0.000 C 
BRANCH  17  18
ATOM     18  C   UNL     1      -0.311   9.743   9.094  1.00  0.00     0.000 C 
BRANCH  18  19
ATOM     19  C   UNL     1       0.725   8.946   9.901  1.00  0.00     0.000 C 
BRANCH  19  20
ATOM     20  C   UNL     1       2.162   9.133   9.379  1.00  0.00     0.006 C 
BRANCH  20  21
ATOM     21  C   UNL     1       2.191   9.591   7.915  1.00  0.00     0.053 C 
BRANCH  21  22
ATOM     22  C   UNL     1       2.475   8.454   6.981  1.00  0.00     0.041 C 
ATOM     23  O   UNL     1       3.294   7.555   7.307  1.00  0.00    -0.550 OA
ATOM     24  O   UNL     1       1.859   8.406   5.736  1.00  0.00    -0.550 OA
ENDBRANCH  21  22
ENDBRANCH  20  21
ENDBRANCH  19  20
ENDBRANCH  18  19
ENDBRANCH  17  18
ENDBRANCH  16  17
ENDBRANCH  15  16
ENDBRANCH  14  15
ENDBRANCH  13  14
ENDBRANCH   1  13
TORSDOF 20
ENDMDL
MODEL 5
REMARK VINA RESULT:    -3.455      1.776      3.559
REMARK INTER + INTRA:          -9.632
REMARK INTER:                  -7.730
REMARK INTRA:                  -1.901
REMARK UNBOUND:                -2.137
REMARK SMILES CCCCCCCCCCCCCCCCCCCCCC(=O)[O-]
REMARK SMILES IDX 12 1 11 2 10 3 9 4 8 5 7 6 6 7 5 8 4 9 3 10 2 11 1 12 13 13
REMARK SMILES IDX 14 14 15 15 16 16 17 17 18 18 19 19 20 20 21 21 22 22 23 23
REMARK SMILES IDX 24 24
REMARK H PARENT
REMARK Flexibility Score: inf
ROOT
ATOM      1  C   UNL     1      -3.617   2.203   9.084  1.00  0.00     0.000 C 
ENDROOT
BRANCH   1   2
ATOM      2  C   UNL     1      -4.211   0.802   9.273  1.00  0.00     0.000 C 
BRANCH   2   3
ATOM      3  C   UNL     1      -5.565   0.870   9.988  1.00  0.00     0.000 C 
BRANCH   3   4
ATOM      4  C   UNL     1      -6.704   0.447   9.049  1.00  0.00    -0.000 C 
BRANCH   4   5
ATOM      5  C   UNL     1      -8.095   0.686   9.658  1.00  0.00    -0.000 C 
BRANCH   5   6
ATOM      6  C   UNL     1      -8.798   1.918   9.069  1.00  0.00    -0.000 C 
BRANCH   6   7
ATOM      7  C   UNL     1      -8.379   3.194   9.811  1.00  0.00    -0.000 C 
BRANCH   7   8
ATOM      8  C   UNL     1      -7.683   4.180   8.862  1.00  0.00    -0.000 C 
BRANCH   8   9
ATOM      9  C   UNL     1      -6.302   4.625   9.391  1.00  0.00    -0.000 C 
BRANCH   9  10
ATOM     10  C   UNL     1      -5.586   5.637   8.477  1.00  0.00    -0.000 C 
BRANCH  10  11
ATOM     11  C   UNL     1      -6.476   6.783   7.967  1.00  0.00    -0.003 C 
ATOM     12  C   UNL     1      -6.054   8.149   8.508  1.00  0.00     0.004 C 
ENDBRANCH  10  11
ENDBRANCH   9  10
ENDBRANCH   8   9
ENDBRANCH   7   8
ENDBRANCH   6   7
ENDBRANCH   5   6
ENDBRANCH   4   5
ENDBRANCH   3   4
ENDBRANCH   2   3
ENDBRANCH   1   2
BRANCH   1  13
ATOM     13  C   UNL     1      -2.084   2.145   9.008  1.00  0.00     0.000 C 
BRANCH  13  14
ATOM     14  C   UNL     1      -1.408   3.383   9.626  1.00  0.00     0.000 C 
BRANCH  14  15
ATOM     15  C   UNL     1      -2.360   4.558   9.930  1.00  0.00     0.000 C 
BRANCH  15  16
ATOM     16  C   UNL     1      -2.023   5.880   9.210  1.00  0.00     0.000 C 
BRANCH  16  17
ATOM     17  C   UNL     1      -0.849   6.673   9.815  1.00  0.00     0.000 C 
BRANCH  17  18
ATOM     18  C   UNL     1       0.365   6.750   8.876  1.00  0.00     0.000 C 
BRANCH  18  19
ATOM     19  C   UNL     1       0.304   7.957   7.926  1.00  0.00     0.000 C 
BRANCH  19  20
ATOM     20  C   UNL     1       1.534   8.876   8.047  1.00  0.00     0.006 C 
BRANCH  20  21
ATOM     21  C   UNL     1       2.779   8.266   7.388  1.00  0.00     0.053 C 
BRANCH  21  22
ATOM     22  C   UNL     1       3.941   8.217   8.333  1.00  0.00     0.041 C 
ATOM     23  O   UNL     1       5.119   8.186   7.889  1.00  0.00    -0.550 OA
ATOM     24  O   UNL     1       3.720   8.172   9.705  1.00  0.00    -0.550 OA
ENDBRANCH  21  22
ENDBRANCH  20  21
ENDBRANCH  19  20
ENDBRANCH  18  19
ENDBRANCH  17  18
ENDBRANCH  16  17
ENDBRANCH  15  16
ENDBRANCH  14  15
ENDBRANCH  13  14
ENDBRANCH   1  13
TORSDOF 20
ENDMDL
MODEL 6
REMARK VINA RESULT:    -3.419      3.427      7.717
REMARK INTER + INTRA:          -9.553
REMARK INTER:                  -7.788
REMARK INTRA:                  -1.765
REMARK UNBOUND:                -2.137
REMARK SMILES CCCCCCCCCCCCCCCCCCCCCC(=O)[O-]
REMARK SMILES IDX 12 1 11 2 10 3 9 4 8 5 7 6 6 7 5 8 4 9 3 10 2 11 1 12 13 13
REMARK SMILES IDX 14 14 15 15 16 16 17 17 18 18 19 19 20 20 21 21 22 22 23 23
REMARK SMILES IDX 24 24
REMARK H PARENT
REMARK Flexibility Score: inf
ROOT
ATOM      1  C   UNL     1      -3.184   3.064   8.997  1.00  0.00     0.000 C 
ENDROOT
BRANCH   1   2
ATOM      2  C   UNL     1      -1.853   2.642   9.631  1.00  0.00     0.000 C 
BRANCH   2   3
ATOM      3  C   UNL     1      -0.965   3.860   9.910  1.00  0.00     0.000 C 
BRANCH   3   4
ATOM      4  C   UNL     1      -1.540   5.123   9.251  1.00  0.00    -0.000 C 
BRANCH   4   5
ATOM      5  C   UNL     1      -0.550   6.298   9.254  1.00  0.00    -0.000 C 
BRANCH   5   6
ATOM      6  C   UNL     1      -1.247   7.662   9.158  1.00  0.00    -0.000 C 
BRANCH   6   7
ATOM      7  C   UNL     1      -0.300   8.724   8.584  1.00  0.00    -0.000 C 
BRANCH   7   8
ATOM      8  C   UNL     1       0.724   8.092   7.630  1.00  0.00    -0.000 C 
BRANCH   8   9
ATOM      9  C   UNL     1       2.045   8.891   7.577  1.00  0.00    -0.000 C 
BRANCH   9  10
ATOM     10  C   UNL     1       3.298   8.006   7.448  1.00  0.00    -0.000 C 
BRANCH  10  11
ATOM     11  C   UNL     1       4.420   8.332   8.448  1.00  0.00    -0.003 C 
ATOM     12  C   UNL     1       3.995   8.131   9.903  1.00  0.00     0.004 C 
ENDBRANCH  10  11
ENDBRANCH   9  10
ENDBRANCH   8   9
ENDBRANCH   7   8
ENDBRANCH   6   7
ENDBRANCH   5   6
ENDBRANCH   4   5
ENDBRANCH   3   4
ENDBRANCH   2   3
ENDBRANCH   1   2
BRANCH   1  13
ATOM     13  C   UNL     1      -4.370   2.649   9.880  1.00  0.00     0.000 C 
BRANCH  13  14
ATOM     14  C   UNL     1      -5.588   3.578   9.722  1.00  0.00     0.000 C 
BRANCH  14  15
ATOM     15  C   UNL     1      -5.293   4.919   9.018  1.00  0.00     0.000 C 
BRANCH  15  16
ATOM     16  C   UNL     1      -5.690   6.180   9.814  1.00  0.00     0.000 C 
BRANCH  16  17
ATOM     17  C   UNL     1      -4.878   7.445   9.479  1.00  0.00     0.000 C 
BRANCH  17  18
ATOM     18  C   UNL     1      -5.720   8.730   9.556  1.00  0.00     0.000 C 
BRANCH  18  19
ATOM     19  C   UNL     1      -5.743   9.504   8.229  1.00  0.00     0.000 C 
BRANCH  19  20
ATOM     20  C   UNL     1      -7.058   9.315   7.449  1.00  0.00     0.006 C 
BRANCH  20  21
ATOM     21  C   UNL     1      -7.149   7.931   6.794  1.00  0.00     0.053 C 
BRANCH  21  22
ATOM     22  C   UNL     1      -8.331   7.826   5.878  1.00  0.00     0.041 C 
ATOM     23  O   UNL     1      -9.100   6.832   5.947  1.00  0.00    -0.550 OA
ATOM     24  O   UNL     1      -8.561   8.811   4.924  1.00  0.00    -0.550 OA
ENDBRANCH  21  22
ENDBRANCH  20  21
ENDBRANCH  19  20
ENDBRANCH  18  19
ENDBRANCH  17  18
ENDBRANCH  16  17
ENDBRANCH  15  16
ENDBRANCH  14  15
ENDBRANCH  13  14
ENDBRANCH   1  13
TORSDOF 20
ENDMDL
MODEL 7
REMARK VINA RESULT:    -3.335      2.110      3.563
REMARK INTER + INTRA:          -9.370
REMARK INTER:                  -7.777
REMARK INTRA:                  -1.593
REMARK UNBOUND:                -2.137
REMARK SMILES CCCCCCCCCCCCCCCCCCCCCC(=O)[O-]
REMARK SMILES IDX 12 1 11 2 10 3 9 4 8 5 7 6 6 7 5 8 4 9 3 10 2 11 1 12 13 13
REMARK SMILES IDX 14 14 15 15 16 16 17 17 18 18 19 19 20 20 21 21 22 22 23 23
REMARK SMILES IDX 24 24
REMARK H PARENT
REMARK Flexibility Score: inf
ROOT
ATOM      1  C   UNL     1      -1.431   5.242   8.948  1.00  0.00     0.000 C 
ENDROOT
BRANCH   1   2
ATOM      2  C   UNL     1      -2.722   4.955   9.723  1.00  0.00     0.000 C 
BRANCH   2   3
ATOM      3  C   UNL     1      -3.825   5.949   9.343  1.00  0.00     0.000 C 
BRANCH   3   4
ATOM      4  C   UNL     1      -4.923   5.263   8.517  1.00  0.00    -0.000 C 
BRANCH   4   5
ATOM      5  C   UNL     1      -5.866   4.407   9.378  1.00  0.00    -0.000 C 
BRANCH   5   6
ATOM      6  C   UNL     1      -7.348   4.667   9.071  1.00  0.00    -0.000 C 
BRANCH   6   7
ATOM      7  C   UNL     1      -7.720   6.128   9.355  1.00  0.00    -0.000 C 
BRANCH   7   8
ATOM      8  C   UNL     1      -7.773   6.946   8.057  1.00  0.00    -0.000 C 
BRANCH   8   9
ATOM      9  C   UNL     1      -9.168   6.902   7.396  1.00  0.00    -0.000 C 
BRANCH   9  10
ATOM     10  C   UNL     1      -9.165   7.327   5.915  1.00  0.00    -0.000 C 
BRANCH  10  11
ATOM     11  C   UNL     1      -7.881   8.039   5.455  1.00  0.00    -0.003 C 
ATOM     12  C   UNL     1      -8.153   9.403   4.822  1.00  0.00     0.004 C 
ENDBRANCH  10  11
ENDBRANCH   9  10
ENDBRANCH   8   9
ENDBRANCH   7   8
ENDBRANCH   6   7
ENDBRANCH   5   6
ENDBRANCH   4   5
ENDBRANCH   3   4
ENDBRANCH   2   3
ENDBRANCH   1   2
BRANCH   1  13
ATOM     13  C   UNL     1      -0.221   5.297   9.893  1.00  0.00     0.000 C 
BRANCH  13  14
ATOM     14  C   UNL     1       0.548   6.628   9.803  1.00  0.00     0.000 C 
BRANCH  14  15
ATOM     15  C   UNL     1      -0.336   7.878   9.614  1.00  0.00     0.000 C 
BRANCH  15  16
ATOM     16  C   UNL     1      -0.133   8.632   8.284  1.00  0.00     0.000 C 
BRANCH  16  17
ATOM     17  C   UNL     1       0.686   7.874   7.222  1.00  0.00     0.000 C 
BRANCH  17  18
ATOM     18  C   UNL     1       1.969   8.618   6.817  1.00  0.00     0.000 C 
BRANCH  18  19
ATOM     19  C   UNL     1       2.372   9.700   7.831  1.00  0.00     0.000 C 
BRANCH  19  20
ATOM     20  C   UNL     1       3.309   9.169   8.931  1.00  0.00     0.006 C 
BRANCH  20  21
ATOM     21  C   UNL     1       4.411   8.263   8.366  1.00  0.00     0.053 C 
BRANCH  21  22
ATOM     22  C   UNL     1       5.764   8.899   8.475  1.00  0.00     0.041 C 
ATOM     23  O   UNL     1       6.675   8.342   9.142  1.00  0.00    -0.550 OA
ATOM     24  O   UNL     1       6.007  10.125   7.866  1.00  0.00    -0.550 OA
ENDBRANCH  21  22
ENDBRANCH  20  21
ENDBRANCH  19  20
ENDBRANCH  18  19
ENDBRANCH  17  18
ENDBRANCH  16  17
ENDBRANCH  15  16
ENDBRANCH  14  15
ENDBRANCH  13  14
ENDBRANCH   1  13
TORSDOF 20
ENDMDL
MODEL 8
REMARK VINA RESULT:    -3.228      1.643      5.523
REMARK INTER + INTRA:          -9.139
REMARK INTER:                  -7.052
REMARK INTRA:                  -2.087
REMARK UNBOUND:                -2.137
REMARK SMILES CCCCCCCCCCCCCCCCCCCCCC(=O)[O-]
REMARK SMILES IDX 12 1 11 2 10 3 9 4 8 5 7 6 6 7 5 8 4 9 3 10 2 11 1 12 13 13
REMARK SMILES IDX 14 14 15 15 16 16 17 17 18 18 19 19 20 20 21 21 22 22 23 23
REMARK SMILES IDX 24 24
REMARK H PARENT
REMARK Flexibility Score: inf
ROOT
ATOM      1  C   UNL     1      -8.174   6.989   6.301  1.00  0.00     0.000 C 
ENDROOT
BRANCH   1   2
ATOM      2  C   UNL     1      -8.486   6.542   7.734  1.00  0.00     0.000 C 
BRANCH   2   3
ATOM      3  C   UNL     1      -8.873   5.060   7.778  1.00  0.00     0.000 C 
BRANCH   3   4
ATOM      4  C   UNL     1      -8.687   4.484   9.190  1.00  0.00    -0.000 C 
BRANCH   4   5
ATOM      5  C   UNL     1      -7.993   3.112   9.185  1.00  0.00    -0.000 C 
BRANCH   5   6
ATOM      6  C   UNL     1      -6.466   3.219   9.307  1.00  0.00    -0.000 C 
BRANCH   6   7
ATOM      7  C   UNL     1      -6.042   4.654   9.645  1.00  0.00    -0.000 C 
BRANCH   7   8
ATOM      8  C   UNL     1      -4.863   5.102   8.769  1.00  0.00    -0.000 C 
BRANCH   8   9
ATOM      9  C   UNL     1      -3.574   5.321   9.590  1.00  0.00    -0.000 C 
BRANCH   9  10
ATOM     10  C   UNL     1      -2.281   5.084   8.787  1.00  0.00    -0.000 C 
BRANCH  10  11
ATOM     11  C   UNL     1      -1.330   4.039   9.395  1.00  0.00    -0.003 C 
ATOM     12  C   UNL     1      -1.776   2.602   9.125  1.00  0.00     0.004 C 
ENDBRANCH  10  11
ENDBRANCH   9  10
ENDBRANCH   8   9
ENDBRANCH   7   8
ENDBRANCH   6   7
ENDBRANCH   5   6
ENDBRANCH   4   5
ENDBRANCH   3   4
ENDBRANCH   2   3
ENDBRANCH   1   2
BRANCH   1  13
ATOM     13  C   UNL     1      -7.257   8.221   6.295  1.00  0.00     0.000 C 
BRANCH  13  14
ATOM     14  C   UNL     1      -6.579   8.468   7.655  1.00  0.00     0.000 C 
BRANCH  14  15
ATOM     15  C   UNL     1      -6.096   9.914   7.887  1.00  0.00     0.000 C 
BRANCH  15  16
ATOM     16  C   UNL     1      -4.877  10.059   8.821  1.00  0.00     0.000 C 
BRANCH  16  17
ATOM     17  C   UNL     1      -4.282   8.731   9.327  1.00  0.00     0.000 C 
BRANCH  17  18
ATOM     18  C   UNL     1      -2.814   8.866   9.766  1.00  0.00     0.000 C 
BRANCH  18  19
ATOM     19  C   UNL     1      -2.039   9.898   8.932  1.00  0.00     0.000 C 
BRANCH  19  20
ATOM     20  C   UNL     1      -0.523   9.629   8.907  1.00  0.00     0.006 C 
BRANCH  20  21
ATOM     21  C   UNL     1      -0.161   8.436   8.014  1.00  0.00     0.053 C 
BRANCH  21  22
ATOM     22  C   UNL     1       1.322   8.296   7.846  1.00  0.00     0.041 C 
ATOM     23  O   UNL     1       1.843   8.385   6.704  1.00  0.00    -0.550 OA
ATOM     24  O   UNL     1       2.124   8.032   8.951  1.00  0.00    -0.550 OA
ENDBRANCH  21  22
ENDBRANCH  20  21
ENDBRANCH  19  20
ENDBRANCH  18  19
ENDBRANCH  17  18
ENDBRANCH  16  17
ENDBRANCH  15  16
ENDBRANCH  14  15
ENDBRANCH  13  14
ENDBRANCH   1  13
TORSDOF 20
ENDMDL
MODEL 9
REMARK VINA RESULT:    -1.555      3.910      8.651
REMARK INTER + INTRA:          -5.510
REMARK INTER:                  -3.908
REMARK INTRA:                  -1.602
REMARK UNBOUND:                -2.137
REMARK SMILES CCCCCCCCCCCCCCCCCCCCCC(=O)[O-]
REMARK SMILES IDX 12 1 11 2 10 3 9 4 8 5 7 6 6 7 5 8 4 9 3 10 2 11 1 12 13 13
REMARK SMILES IDX 14 14 15 15 16 16 17 17 18 18 19 19 20 20 21 21 22 22 23 23
REMARK SMILES IDX 24 24
REMARK H PARENT
REMARK Flexibility Score: inf
ROOT
ATOM      1  C   UNL     1      -2.412   3.710   9.143  1.00  0.00     0.000 C 
ENDROOT
BRANCH   1   2
ATOM      2  C   UNL     1      -1.124   3.172   9.777  1.00  0.00     0.000 C 
BRANCH   2   3
ATOM      3  C   UNL     1      -0.162   4.314  10.125  1.00  0.00     0.000 C 
BRANCH   3   4
ATOM      4  C   UNL     1      -0.779   5.677   9.780  1.00  0.00    -0.000 C 
BRANCH   4   5
ATOM      5  C   UNL     1       0.259   6.810   9.755  1.00  0.00    -0.000 C 
BRANCH   5   6
ATOM      6  C   UNL     1      -0.383   8.202   9.676  1.00  0.00    -0.000 C 
BRANCH   6   7
ATOM      7  C   UNL     1       0.239   9.030   8.544  1.00  0.00    -0.000 C 
BRANCH   7   8
ATOM      8  C   UNL     1       0.663   8.132   7.373  1.00  0.00    -0.000 C 
BRANCH   8   9
ATOM      9  C   UNL     1       1.986   8.599   6.727  1.00  0.00    -0.000 C 
BRANCH   9  10
ATOM     10  C   UNL     1       2.906   9.372   7.691  1.00  0.00    -0.000 C 
BRANCH  10  11
ATOM     11  C   UNL     1       3.857   8.489   8.517  1.00  0.00    -0.003 C 
ATOM     12  C   UNL     1       5.326   8.689   8.144  1.00  0.00     0.004 C 
ENDBRANCH  10  11
ENDBRANCH   9  10
ENDBRANCH   8   9
ENDBRANCH   7   8
ENDBRANCH   6   7
ENDBRANCH   5   6
ENDBRANCH   4   5
ENDBRANCH   3   4
ENDBRANCH   2   3
ENDBRANCH   1   2
BRANCH   1  13
ATOM     13  C   UNL     1      -3.652   3.109   9.820  1.00  0.00     0.000 C 
BRANCH  13  14
ATOM     14  C   UNL     1      -4.963   3.777   9.366  1.00  0.00     0.000 C 
BRANCH  14  15
ATOM     15  C   UNL     1      -4.821   5.243   8.908  1.00  0.00     0.000 C 
BRANCH  15  16
ATOM     16  C   UNL     1      -6.143   6.029   8.800  1.00  0.00     0.000 C 
BRANCH  16  17
ATOM     17  C   UNL     1      -6.338   6.802   7.481  1.00  0.00     0.000 C 
BRANCH  17  18
ATOM     18  C   UNL     1      -7.734   7.433   7.361  1.00  0.00     0.000 C 
BRANCH  18  19
ATOM     19  C   UNL     1      -8.491   6.965   6.108  1.00  0.00     0.000 C 
BRANCH  19  20
ATOM     20  C   UNL     1      -9.922   6.487   6.417  1.00  0.00     0.006 C 
BRANCH  20  21
ATOM     21  C   UNL     1      -9.981   5.615   7.678  1.00  0.00     0.053 C 
BRANCH  21  22
ATOM     22  C   UNL     1      -9.541   4.208   7.404  1.00  0.00     0.041 C 
ATOM     23  O   UNL     1     -10.025   3.570   6.432  1.00  0.00    -0.550 OA
ATOM     24  O   UNL     1      -8.621   3.591   8.243  1.00  0.00    -0.550 OA
ENDBRANCH  21  22
ENDBRANCH  20  21
ENDBRANCH  19  20
ENDBRANCH  18  19
ENDBRANCH  17  18
ENDBRANCH  16  17
ENDBRANCH  15  16
ENDBRANCH  14  15
ENDBRANCH  13  14
ENDBRANCH   1  13
TORSDOF 20
ENDMDL
