MODEL 1
REMARK VINA RESULT:    -9.615      0.000      0.000
REMARK INTER + INTRA:         -11.039
REMARK INTER:                 -10.739
REMARK INTRA:                  -0.299
REMARK UNBOUND:                -0.299
REMARK SMILES C=C(C)[C@@H]1CC[C@@]2(C(=O)[O-])CC[C@]3(C)[C@H](CC[C@@H]4[C@]5(C)CCC(=O)C(C)(C)[C@@H]5CC[C@@]43C)[C@@H]12
REMARK SMILES IDX 7 1 6 2 33 3 11 4 5 5 15 6 4 7 12 8 16 9 13 10 17 11 31 12
REMARK SMILES IDX 14 13 18 14 30 15 32 16 19 17 29 18 21 19 20 20 28 21 22 22
REMARK SMILES IDX 25 23 23 24 26 25 27 26 24 27 8 28 9 29 10 30 2 31 3 32 1 33
REMARK H PARENT
REMARK Flexibility Score: inf
ROOT
ATOM      1  C   UNL     1      26.359  53.250  10.019  1.00  0.00     0.014 C 
ATOM      2  C   UNL     1      25.612  54.572   9.774  1.00  0.00     0.014 C 
ATOM      3  C   UNL     1      25.335  52.419  10.868  1.00  0.00     0.012 C 
ATOM      4  C   UNL     1      27.748  53.500  10.670  1.00  0.00     0.014 C 
ATOM      5  C   UNL     1      24.169  54.166   9.525  1.00  0.00     0.009 C 
ATOM      6  C   UNL     1      25.524  52.529  12.425  1.00  0.00     0.000 C 
ATOM      7  C   UNL     1      23.928  52.977  10.461  1.00  0.00     0.018 C 
ATOM      8  C   UNL     1      27.724  53.669  12.189  1.00  0.00     0.008 C 
ATOM      9  C   UNL     1      24.686  51.460  13.135  1.00  0.00     0.005 C 
ATOM     10  C   UNL     1      27.004  52.491  12.927  1.00  0.00    -0.024 C 
ATOM     11  C   UNL     1      24.664  51.697  14.636  1.00  0.00     0.005 C 
ATOM     12  C   UNL     1      27.076  52.661  14.544  1.00  0.00    -0.024 C 
ATOM     13  C   UNL     1      27.683  51.144  12.496  1.00  0.00     0.012 C 
ATOM     14  C   UNL     1      26.081  51.654  15.287  1.00  0.00     0.002 C 
ATOM     15  C   UNL     1      26.745  54.134  14.982  1.00  0.00     0.008 C 
ATOM     16  C   UNL     1      28.546  52.366  14.991  1.00  0.00     0.012 C 
ATOM     17  C   UNL     1      26.044  51.781  16.897  1.00  0.00    -0.025 C 
ATOM     18  C   UNL     1      25.995  54.307  16.314  1.00  0.00     0.006 C 
ATOM     19  C   UNL     1      24.672  51.300  17.480  1.00  0.00     0.015 C 
ATOM     20  C   UNL     1      27.122  50.810  17.488  1.00  0.00     0.012 C 
ATOM     21  C   UNL     1      26.327  53.258  17.397  1.00  0.00     0.008 C 
ATOM     22  C   UNL     1      24.619  51.266  19.014  1.00  0.00     0.077 C 
ATOM     23  C   UNL     1      25.701  53.655  18.816  1.00  0.00     0.027 C 
ATOM     24  C   UNL     1      25.356  52.416  19.634  1.00  0.00     0.138 C 
ATOM     25  C   UNL     1      24.391  54.483  18.719  1.00  0.00     0.020 C 
ATOM     26  C   UNL     1      26.731  54.519  19.592  1.00  0.00     0.020 C 
ATOM     27  O   UNL     1      25.603  52.368  20.830  1.00  0.00    -0.299 OA
ENDROOT
BRANCH   1  28
ATOM     28  C   UNL     1      26.632  52.551   8.689  1.00  0.00     0.048 C 
ATOM     29  O   UNL     1      27.494  51.632   8.623  1.00  0.00    -0.550 OA
ATOM     30  O   UNL     1      26.010  52.964   7.514  1.00  0.00    -0.550 OA
ENDBRANCH   1  28
BRANCH   7  31
ATOM     31  C   UNL     1      22.995  51.924   9.865  1.00  0.00    -0.077 C 
ATOM     32  C   UNL     1      23.416  51.042   8.718  1.00  0.00     0.039 C 
ATOM     33  C   UNL     1      21.760  51.759  10.368  1.00  0.00     0.008 C 
ENDBRANCH   7  31
TORSDOF 2
ENDMDL
MODEL 2
REMARK VINA RESULT:    -9.483      1.470      8.032
REMARK INTER + INTRA:         -10.891
REMARK INTER:                 -10.572
REMARK INTRA:                  -0.319
REMARK UNBOUND:                -0.299
REMARK SMILES C=C(C)[C@@H]1CC[C@@]2(C(=O)[O-])CC[C@]3(C)[C@H](CC[C@@H]4[C@]5(C)CCC(=O)C(C)(C)[C@@H]5CC[C@@]43C)[C@@H]12
REMARK SMILES IDX 7 1 6 2 33 3 11 4 5 5 15 6 4 7 12 8 16 9 13 10 17 11 31 12
REMARK SMILES IDX 14 13 18 14 30 15 32 16 19 17 29 18 21 19 20 20 28 21 22 22
REMARK SMILES IDX 25 23 23 24 26 25 27 26 24 27 8 28 9 29 10 30 2 31 3 32 1 33
REMARK H PARENT
REMARK Flexibility Score: inf
ROOT
ATOM      1  C   UNL     1      26.343  52.740  17.669  1.00  0.00     0.014 C 
ATOM      2  C   UNL     1      25.604  51.410  17.897  1.00  0.00     0.014 C 
ATOM      3  C   UNL     1      25.314  53.574  16.828  1.00  0.00     0.012 C 
ATOM      4  C   UNL     1      27.734  52.507  17.017  1.00  0.00     0.014 C 
ATOM      5  C   UNL     1      24.159  51.803  18.149  1.00  0.00     0.009 C 
ATOM      6  C   UNL     1      25.506  53.483  15.270  1.00  0.00     0.000 C 
ATOM      7  C   UNL     1      23.910  53.001  17.226  1.00  0.00     0.018 C 
ATOM      8  C   UNL     1      27.714  52.355  15.496  1.00  0.00     0.008 C 
ATOM      9  C   UNL     1      24.662  54.554  14.571  1.00  0.00     0.005 C 
ATOM     10  C   UNL     1      26.987  53.537  14.771  1.00  0.00    -0.024 C 
ATOM     11  C   UNL     1      24.644  54.334  13.067  1.00  0.00     0.005 C 
ATOM     12  C   UNL     1      27.062  53.386  13.152  1.00  0.00    -0.024 C 
ATOM     13  C   UNL     1      27.655  54.883  15.218  1.00  0.00     0.012 C 
ATOM     14  C   UNL     1      26.061  54.394  12.419  1.00  0.00     0.002 C 
ATOM     15  C   UNL     1      26.743  51.916  12.696  1.00  0.00     0.008 C 
ATOM     16  C   UNL     1      28.531  53.696  12.710  1.00  0.00     0.012 C 
ATOM     17  C   UNL     1      26.027  54.286  10.808  1.00  0.00    -0.025 C 
ATOM     18  C   UNL     1      25.996  51.753  11.362  1.00  0.00     0.006 C 
ATOM     19  C   UNL     1      24.654  54.764  10.228  1.00  0.00     0.015 C 
ATOM     20  C   UNL     1      27.099  55.271  10.230  1.00  0.00     0.012 C 
ATOM     21  C   UNL     1      26.322  52.817  10.291  1.00  0.00     0.008 C 
ATOM     22  C   UNL     1      24.602  54.815   8.695  1.00  0.00     0.077 C 
ATOM     23  C   UNL     1      25.701  52.432   8.866  1.00  0.00     0.027 C 
ATOM     24  C   UNL     1      25.348  53.677   8.063  1.00  0.00     0.138 C 
ATOM     25  C   UNL     1      24.396  51.593   8.952  1.00  0.00     0.020 C 
ATOM     26  C   UNL     1      26.738  51.583   8.082  1.00  0.00     0.020 C 
ATOM     27  O   UNL     1      25.597  53.741   6.867  1.00  0.00    -0.299 OA
ENDROOT
BRANCH   1  28
ATOM     28  C   UNL     1      26.609  53.426  19.007  1.00  0.00     0.048 C 
ATOM     29  O   UNL     1      27.449  54.364  19.081  1.00  0.00    -0.550 OA
ATOM     30  O   UNL     1      26.006  52.980  20.180  1.00  0.00    -0.550 OA
ENDBRANCH   1  28
BRANCH   7  31
ATOM     31  C   UNL     1      22.969  54.041  17.832  1.00  0.00    -0.077 C 
ATOM     32  C   UNL     1      23.388  54.923  18.980  1.00  0.00     0.039 C 
ATOM     33  C   UNL     1      21.729  54.192  17.339  1.00  0.00     0.008 C 
ENDBRANCH   7  31
TORSDOF 2
ENDMDL
MODEL 3
REMARK VINA RESULT:    -9.372      2.090      3.475
REMARK INTER + INTRA:         -10.767
REMARK INTER:                 -10.101
REMARK INTRA:                  -0.666
REMARK UNBOUND:                -0.299
REMARK SMILES C=C(C)[C@@H]1CC[C@@]2(C(=O)[O-])CC[C@]3(C)[C@H](CC[C@@H]4[C@]5(C)CCC(=O)C(C)(C)[C@@H]5CC[C@@]43C)[C@@H]12
REMARK SMILES IDX 7 1 6 2 33 3 11 4 5 5 15 6 4 7 12 8 16 9 13 10 17 11 31 12
REMARK SMILES IDX 14 13 18 14 30 15 32 16 19 17 29 18 21 19 20 20 28 21 22 22
REMARK SMILES IDX 25 23 23 24 26 25 27 26 24 27 8 28 9 29 10 30 2 31 3 32 1 33
REMARK H PARENT
REMARK Flexibility Score: inf
ROOT
ATOM      1  C   UNL     1      28.507  52.200  11.624  1.00  0.00     0.014 C 
ATOM      2  C   UNL     1      29.877  52.841  11.903  1.00  0.00     0.014 C 
ATOM      3  C   UNL     1      27.500  53.331  12.035  1.00  0.00     0.012 C 
ATOM      4  C   UNL     1      28.357  50.844  12.367  1.00  0.00     0.014 C 
ATOM      5  C   UNL     1      29.730  54.287  11.464  1.00  0.00     0.009 C 
ATOM      6  C   UNL     1      26.968  53.238  13.512  1.00  0.00     0.000 C 
ATOM      7  C   UNL     1      28.294  54.668  11.838  1.00  0.00     0.018 C 
ATOM      8  C   UNL     1      27.912  50.956  13.825  1.00  0.00     0.008 C 
ATOM      9  C   UNL     1      25.783  54.190  13.706  1.00  0.00     0.005 C 
ATOM     10  C   UNL     1      26.606  51.800  14.006  1.00  0.00    -0.024 C 
ATOM     11  C   UNL     1      25.407  54.295  15.175  1.00  0.00     0.005 C 
ATOM     12  C   UNL     1      26.114  51.823  15.558  1.00  0.00    -0.024 C 
ATOM     13  C   UNL     1      25.485  51.186  13.096  1.00  0.00     0.012 C 
ATOM     14  C   UNL     1      24.987  52.930  15.802  1.00  0.00     0.002 C 
ATOM     15  C   UNL     1      27.316  52.083  16.537  1.00  0.00     0.008 C 
ATOM     16  C   UNL     1      25.540  50.408  15.899  1.00  0.00     0.012 C 
ATOM     17  C   UNL     1      24.469  53.064  17.326  1.00  0.00    -0.025 C 
ATOM     18  C   UNL     1      27.013  52.905  17.800  1.00  0.00     0.006 C 
ATOM     19  C   UNL     1      23.918  54.499  17.622  1.00  0.00     0.015 C 
ATOM     20  C   UNL     1      23.253  52.094  17.516  1.00  0.00     0.012 C 
ATOM     21  C   UNL     1      25.596  52.716  18.385  1.00  0.00     0.008 C 
ATOM     22  C   UNL     1      23.284  54.656  19.011  1.00  0.00     0.077 C 
ATOM     23  C   UNL     1      25.452  53.406  19.822  1.00  0.00     0.027 C 
ATOM     24  C   UNL     1      24.026  53.886  20.064  1.00  0.00     0.138 C 
ATOM     25  C   UNL     1      26.362  54.649  20.021  1.00  0.00     0.020 C 
ATOM     26  C   UNL     1      25.845  52.374  20.913  1.00  0.00     0.020 C 
ATOM     27  O   UNL     1      23.487  53.721  21.149  1.00  0.00    -0.299 OA
ENDROOT
BRANCH   1  28
ATOM     28  C   UNL     1      28.370  51.888  10.135  1.00  0.00     0.048 C 
ATOM     29  O   UNL     1      29.349  51.414   9.497  1.00  0.00    -0.550 OA
ATOM     30  O   UNL     1      27.208  52.198   9.436  1.00  0.00    -0.550 OA
ENDBRANCH   1  28
BRANCH   7  31
ATOM     31  C   UNL     1      27.649  55.629  10.840  1.00  0.00    -0.077 C 
ATOM     32  C   UNL     1      26.311  55.342  10.208  1.00  0.00     0.039 C 
ATOM     33  C   UNL     1      28.273  56.770  10.507  1.00  0.00     0.008 C 
ENDBRANCH   7  31
TORSDOF 2
ENDMDL
MODEL 4
REMARK VINA RESULT:    -9.236      2.068      8.038
REMARK INTER + INTRA:         -10.616
REMARK INTER:                  -9.930
REMARK INTRA:                  -0.686
REMARK UNBOUND:                -0.299
REMARK SMILES C=C(C)[C@@H]1CC[C@@]2(C(=O)[O-])CC[C@]3(C)[C@H](CC[C@@H]4[C@]5(C)CCC(=O)C(C)(C)[C@@H]5CC[C@@]43C)[C@@H]12
REMARK SMILES IDX 7 1 6 2 33 3 11 4 5 5 15 6 4 7 12 8 16 9 13 10 17 11 31 12
REMARK SMILES IDX 14 13 18 14 30 15 32 16 19 17 29 18 21 19 20 20 28 21 22 22
REMARK SMILES IDX 25 23 23 24 26 25 27 26 24 27 8 28 9 29 10 30 2 31 3 32 1 33
REMARK H PARENT
REMARK Flexibility Score: inf
ROOT
ATOM      1  C   UNL     1      28.610  53.847  15.977  1.00  0.00     0.014 C 
ATOM      2  C   UNL     1      29.992  53.256  15.652  1.00  0.00     0.014 C 
ATOM      3  C   UNL     1      27.630  52.688  15.579  1.00  0.00     0.012 C 
ATOM      4  C   UNL     1      28.394  55.207  15.255  1.00  0.00     0.014 C 
ATOM      5  C   UNL     1      29.905  51.800  16.077  1.00  0.00     0.009 C 
ATOM      6  C   UNL     1      27.054  52.781  14.119  1.00  0.00     0.000 C 
ATOM      7  C   UNL     1      28.472  51.376  15.738  1.00  0.00     0.018 C 
ATOM      8  C   UNL     1      27.914  55.097  13.808  1.00  0.00     0.008 C 
ATOM      9  C   UNL     1      25.896  51.793  13.945  1.00  0.00     0.005 C 
ATOM     10  C   UNL     1      26.631  54.212  13.652  1.00  0.00    -0.024 C 
ATOM     11  C   UNL     1      25.484  51.693  12.485  1.00  0.00     0.005 C 
ATOM     12  C   UNL     1      26.098  54.191  12.115  1.00  0.00    -0.024 C 
ATOM     13  C   UNL     1      25.517  54.779  14.600  1.00  0.00     0.012 C 
ATOM     14  C   UNL     1      25.001  53.051  11.887  1.00  0.00     0.002 C 
ATOM     15  C   UNL     1      27.281  53.983  11.100  1.00  0.00     0.008 C 
ATOM     16  C   UNL     1      25.468  55.590  11.807  1.00  0.00     0.012 C 
ATOM     17  C   UNL     1      24.446  52.917  10.376  1.00  0.00    -0.025 C 
ATOM     18  C   UNL     1      26.969  53.165   9.835  1.00  0.00     0.006 C 
ATOM     19  C   UNL     1      23.935  51.468  10.077  1.00  0.00     0.015 C 
ATOM     20  C   UNL     1      23.195  53.849  10.232  1.00  0.00     0.012 C 
ATOM     21  C   UNL     1      25.532  53.315   9.292  1.00  0.00     0.008 C 
ATOM     22  C   UNL     1      23.268  51.307   8.704  1.00  0.00     0.077 C 
ATOM     23  C   UNL     1      25.371  52.637   7.850  1.00  0.00     0.027 C 
ATOM     24  C   UNL     1      23.955  52.113   7.641  1.00  0.00     0.138 C 
ATOM     25  C   UNL     1      26.315  51.427   7.611  1.00  0.00     0.020 C 
ATOM     26  C   UNL     1      25.700  53.694   6.762  1.00  0.00     0.020 C 
ATOM     27  O   UNL     1      23.381  52.273   6.573  1.00  0.00    -0.299 OA
ENDROOT
BRANCH   1  28
ATOM     28  C   UNL     1      28.504  54.138  17.473  1.00  0.00     0.048 C 
ATOM     29  O   UNL     1      27.477  53.782  18.114  1.00  0.00    -0.550 OA
ATOM     30  O   UNL     1      29.482  54.870  18.137  1.00  0.00    -0.550 OA
ENDBRANCH   1  28
BRANCH   7  31
ATOM     31  C   UNL     1      27.886  50.384  16.740  1.00  0.00    -0.077 C 
ATOM     32  C   UNL     1      26.545  50.606  17.392  1.00  0.00     0.039 C 
ATOM     33  C   UNL     1      28.567  49.271  17.061  1.00  0.00     0.008 C 
ENDBRANCH   7  31
TORSDOF 2
ENDMDL
MODEL 5
REMARK VINA RESULT:    -8.942      2.222      7.809
REMARK INTER + INTRA:         -10.287
REMARK INTER:                  -9.651
REMARK INTRA:                  -0.636
REMARK UNBOUND:                -0.299
REMARK SMILES C=C(C)[C@@H]1CC[C@@]2(C(=O)[O-])CC[C@]3(C)[C@H](CC[C@@H]4[C@]5(C)CCC(=O)C(C)(C)[C@@H]5CC[C@@]43C)[C@@H]12
REMARK SMILES IDX 7 1 6 2 33 3 11 4 5 5 15 6 4 7 12 8 16 9 13 10 17 11 31 12
REMARK SMILES IDX 14 13 18 14 30 15 32 16 19 17 29 18 21 19 20 20 28 21 22 22
REMARK SMILES IDX 25 23 23 24 26 25 27 26 24 27 8 28 9 29 10 30 2 31 3 32 1 33
REMARK H PARENT
REMARK Flexibility Score: inf
ROOT
ATOM      1  C   UNL     1      27.978  50.198  15.467  1.00  0.00     0.014 C 
ATOM      2  C   UNL     1      26.903  49.098  15.486  1.00  0.00     0.014 C 
ATOM      3  C   UNL     1      27.132  51.517  15.556  1.00  0.00     0.012 C 
ATOM      4  C   UNL     1      28.906  50.059  14.228  1.00  0.00     0.014 C 
ATOM      5  C   UNL     1      25.865  49.582  16.484  1.00  0.00     0.009 C 
ATOM      6  C   UNL     1      26.786  52.174  14.169  1.00  0.00     0.000 C 
ATOM      7  C   UNL     1      25.813  51.101  16.292  1.00  0.00     0.018 C 
ATOM      8  C   UNL     1      28.363  50.686  12.945  1.00  0.00     0.008 C 
ATOM      9  C   UNL     1      26.235  53.588  14.379  1.00  0.00     0.005 C 
ATOM     10  C   UNL     1      27.947  52.186  13.122  1.00  0.00    -0.024 C 
ATOM     11  C   UNL     1      25.673  54.149  13.083  1.00  0.00     0.005 C 
ATOM     12  C   UNL     1      27.457  52.844  11.716  1.00  0.00    -0.024 C 
ATOM     13  C   UNL     1      29.174  52.980  13.690  1.00  0.00     0.012 C 
ATOM     14  C   UNL     1      26.735  54.252  11.945  1.00  0.00     0.002 C 
ATOM     15  C   UNL     1      26.486  51.883  10.939  1.00  0.00     0.008 C 
ATOM     16  C   UNL     1      28.721  53.046  10.817  1.00  0.00     0.012 C 
ATOM     17  C   UNL     1      26.168  54.963  10.610  1.00  0.00    -0.025 C 
ATOM     18  C   UNL     1      25.361  52.547  10.128  1.00  0.00     0.006 C 
ATOM     19  C   UNL     1      24.968  55.916  10.931  1.00  0.00     0.015 C 
ATOM     20  C   UNL     1      27.297  55.881  10.029  1.00  0.00     0.012 C 
ATOM     21  C   UNL     1      25.715  53.916   9.509  1.00  0.00     0.008 C 
ATOM     22  C   UNL     1      24.470  56.728   9.728  1.00  0.00     0.077 C 
ATOM     23  C   UNL     1      24.588  54.412   8.485  1.00  0.00     0.027 C 
ATOM     24  C   UNL     1      24.500  55.933   8.455  1.00  0.00     0.138 C 
ATOM     25  C   UNL     1      23.159  53.907   8.824  1.00  0.00     0.020 C 
ATOM     26  C   UNL     1      24.935  53.884   7.067  1.00  0.00     0.020 C 
ATOM     27  O   UNL     1      24.373  56.531   7.396  1.00  0.00    -0.299 OA
ENDROOT
BRANCH   1  28
ATOM     28  C   UNL     1      28.880  50.068  16.692  1.00  0.00     0.048 C 
ATOM     29  O   UNL     1      29.604  51.037  17.050  1.00  0.00    -0.550 OA
ATOM     30  O   UNL     1      28.993  48.864  17.382  1.00  0.00    -0.550 OA
ENDBRANCH   1  28
BRANCH   7  31
ATOM     31  C   UNL     1      25.567  51.862  17.594  1.00  0.00    -0.077 C 
ATOM     32  C   UNL     1      26.437  53.017  18.020  1.00  0.00     0.039 C 
ATOM     33  C   UNL     1      24.548  51.510  18.395  1.00  0.00     0.008 C 
ENDBRANCH   7  31
TORSDOF 2
ENDMDL
MODEL 6
REMARK VINA RESULT:    -8.927      2.069      2.937
REMARK INTER + INTRA:         -10.270
REMARK INTER:                  -9.664
REMARK INTRA:                  -0.606
REMARK UNBOUND:                -0.299
REMARK SMILES C=C(C)[C@@H]1CC[C@@]2(C(=O)[O-])CC[C@]3(C)[C@H](CC[C@@H]4[C@]5(C)CCC(=O)C(C)(C)[C@@H]5CC[C@@]43C)[C@@H]12
REMARK SMILES IDX 7 1 6 2 33 3 11 4 5 5 15 6 4 7 12 8 16 9 13 10 17 11 31 12
REMARK SMILES IDX 14 13 18 14 30 15 32 16 19 17 29 18 21 19 20 20 28 21 22 22
REMARK SMILES IDX 25 23 23 24 26 25 27 26 24 27 8 28 9 29 10 30 2 31 3 32 1 33
REMARK H PARENT
REMARK Flexibility Score: inf
ROOT
ATOM      1  C   UNL     1      27.993  55.843  12.256  1.00  0.00     0.014 C 
ATOM      2  C   UNL     1      26.996  57.012  12.327  1.00  0.00     0.014 C 
ATOM      3  C   UNL     1      27.057  54.585  12.203  1.00  0.00     0.012 C 
ATOM      4  C   UNL     1      29.007  55.895  13.433  1.00  0.00     0.014 C 
ATOM      5  C   UNL     1      25.865  56.619  11.393  1.00  0.00     0.009 C 
ATOM      6  C   UNL     1      26.759  53.923  13.598  1.00  0.00     0.000 C 
ATOM      7  C   UNL     1      25.724  55.102  11.562  1.00  0.00     0.018 C 
ATOM      8  C   UNL     1      28.508  55.278  14.739  1.00  0.00     0.008 C 
ATOM      9  C   UNL     1      26.101  52.553  13.401  1.00  0.00     0.005 C 
ATOM     10  C   UNL     1      27.981  53.814  14.566  1.00  0.00    -0.024 C 
ATOM     11  C   UNL     1      25.589  52.004  14.723  1.00  0.00     0.005 C 
ATOM     12  C   UNL     1      27.541  53.160  15.989  1.00  0.00    -0.024 C 
ATOM     13  C   UNL     1      29.114  52.953  13.905  1.00  0.00     0.012 C 
ATOM     14  C   UNL     1      26.713  51.808  15.786  1.00  0.00     0.002 C 
ATOM     15  C   UNL     1      26.689  54.166  16.845  1.00  0.00     0.008 C 
ATOM     16  C   UNL     1      28.845  52.856  16.800  1.00  0.00     0.012 C 
ATOM     17  C   UNL     1      26.188  51.108  17.143  1.00  0.00    -0.025 C 
ATOM     18  C   UNL     1      25.577  53.561  17.718  1.00  0.00     0.006 C 
ATOM     19  C   UNL     1      24.908  50.243  16.887  1.00  0.00     0.015 C 
ATOM     20  C   UNL     1      27.288  50.106  17.633  1.00  0.00     0.012 C 
ATOM     21  C   UNL     1      25.878  52.159  18.289  1.00  0.00     0.008 C 
ATOM     22  C   UNL     1      24.436  49.441  18.107  1.00  0.00     0.077 C 
ATOM     23  C   UNL     1      24.790  51.717  19.378  1.00  0.00     0.027 C 
ATOM     24  C   UNL     1      24.602  50.205  19.388  1.00  0.00     0.138 C 
ATOM     25  C   UNL     1      23.379  52.322  19.142  1.00  0.00     0.020 C 
ATOM     26  C   UNL     1      25.263  52.192  20.778  1.00  0.00     0.020 C 
ATOM     27  O   UNL     1      24.505  49.594  20.443  1.00  0.00    -0.299 OA
ENDROOT
BRANCH   1  28
ATOM     28  C   UNL     1      28.821  55.939  10.976  1.00  0.00     0.048 C 
ATOM     29  O   UNL     1      29.525  54.962  10.604  1.00  0.00    -0.550 OA
ATOM     30  O   UNL     1      28.888  57.123  10.247  1.00  0.00    -0.550 OA
ENDBRANCH   1  28
BRANCH   7  31
ATOM     31  C   UNL     1      25.343  54.387  10.266  1.00  0.00    -0.077 C 
ATOM     32  C   UNL     1      24.106  54.753   9.487  1.00  0.00     0.039 C 
ATOM     33  C   UNL     1      26.123  53.403   9.788  1.00  0.00     0.008 C 
ENDBRANCH   7  31
TORSDOF 2
ENDMDL
MODEL 7
REMARK VINA RESULT:    -8.746      1.398      2.049
REMARK INTER + INTRA:         -10.068
REMARK INTER:                 -10.118
REMARK INTRA:                   0.050
REMARK UNBOUND:                -0.299
REMARK SMILES C=C(C)[C@@H]1CC[C@@]2(C(=O)[O-])CC[C@]3(C)[C@H](CC[C@@H]4[C@]5(C)CCC(=O)C(C)(C)[C@@H]5CC[C@@]43C)[C@@H]12
REMARK SMILES IDX 7 1 6 2 33 3 11 4 5 5 15 6 4 7 12 8 16 9 13 10 17 11 31 12
REMARK SMILES IDX 14 13 18 14 30 15 32 16 19 17 29 18 21 19 20 20 28 21 22 22
REMARK SMILES IDX 25 23 23 24 26 25 27 26 24 27 8 28 9 29 10 30 2 31 3 32 1 33
REMARK H PARENT
REMARK Flexibility Score: inf
ROOT
ATOM      1  C   UNL     1      28.556  52.469  11.342  1.00  0.00     0.014 C 
ATOM      2  C   UNL     1      28.616  53.973  11.027  1.00  0.00     0.014 C 
ATOM      3  C   UNL     1      27.045  52.245  11.700  1.00  0.00     0.012 C 
ATOM      4  C   UNL     1      29.586  52.081  12.439  1.00  0.00     0.014 C 
ATOM      5  C   UNL     1      27.333  54.267  10.270  1.00  0.00     0.009 C 
ATOM      6  C   UNL     1      26.709  52.329  13.235  1.00  0.00     0.000 C 
ATOM      7  C   UNL     1      26.276  53.370  10.924  1.00  0.00     0.018 C 
ATOM      8  C   UNL     1      29.115  52.314  13.874  1.00  0.00     0.008 C 
ATOM      9  C   UNL     1      25.294  51.803  13.494  1.00  0.00     0.005 C 
ATOM     10  C   UNL     1      27.738  51.637  14.187  1.00  0.00    -0.024 C 
ATOM     11  C   UNL     1      24.861  52.095  14.922  1.00  0.00     0.005 C 
ATOM     12  C   UNL     1      27.312  51.832  15.745  1.00  0.00    -0.024 C 
ATOM     13  C   UNL     1      27.844  50.110  13.843  1.00  0.00     0.012 C 
ATOM     14  C   UNL     1      25.783  51.434  15.992  1.00  0.00     0.002 C 
ATOM     15  C   UNL     1      27.547  53.310  16.225  1.00  0.00     0.008 C 
ATOM     16  C   UNL     1      28.236  50.913  16.612  1.00  0.00     0.012 C 
ATOM     17  C   UNL     1      25.251  51.640  17.503  1.00  0.00    -0.025 C 
ATOM     18  C   UNL     1      26.545  53.872  17.247  1.00  0.00     0.006 C 
ATOM     19  C   UNL     1      23.703  51.875  17.541  1.00  0.00     0.015 C 
ATOM     20  C   UNL     1      25.499  50.311  18.294  1.00  0.00     0.012 C 
ATOM     21  C   UNL     1      25.973  52.842  18.244  1.00  0.00     0.008 C 
ATOM     22  C   UNL     1      23.111  51.942  18.955  1.00  0.00     0.077 C 
ATOM     23  C   UNL     1      25.142  53.550  19.415  1.00  0.00     0.027 C 
ATOM     24  C   UNL     1      24.019  52.651  19.918  1.00  0.00     0.138 C 
ATOM     25  C   UNL     1      24.467  54.884  18.994  1.00  0.00     0.020 C 
ATOM     26  C   UNL     1      26.108  53.878  20.585  1.00  0.00     0.020 C 
ATOM     27  O   UNL     1      23.786  52.551  21.114  1.00  0.00    -0.299 OA
ENDROOT
BRANCH   1  28
ATOM     28  C   UNL     1      28.929  51.660  10.102  1.00  0.00     0.048 C 
ATOM     29  O   UNL     1      30.077  51.146  10.004  1.00  0.00    -0.550 OA
ATOM     30  O   UNL     1      28.056  51.547   9.024  1.00  0.00    -0.550 OA
ENDBRANCH   1  28
BRANCH   7  31
ATOM     31  C   UNL     1      25.242  52.839   9.932  1.00  0.00    -0.077 C 
ATOM     32  C   UNL     1      25.103  53.408   8.543  1.00  0.00     0.039 C 
ATOM     33  C   UNL     1      24.427  51.832  10.286  1.00  0.00     0.008 C 
ENDBRANCH   7  31
TORSDOF 2
ENDMDL
MODEL 8
REMARK VINA RESULT:    -8.536      1.994      8.036
REMARK INTER + INTRA:          -9.834
REMARK INTER:                  -9.681
REMARK INTRA:                  -0.153
REMARK UNBOUND:                -0.299
REMARK SMILES C=C(C)[C@@H]1CC[C@@]2(C(=O)[O-])CC[C@]3(C)[C@H](CC[C@@H]4[C@]5(C)CCC(=O)C(C)(C)[C@@H]5CC[C@@]43C)[C@@H]12
REMARK SMILES IDX 7 1 6 2 33 3 11 4 5 5 15 6 4 7 12 8 16 9 13 10 17 11 31 12
REMARK SMILES IDX 14 13 18 14 30 15 32 16 19 17 29 18 21 19 20 20 28 21 22 22
REMARK SMILES IDX 25 23 23 24 26 25 27 26 24 27 8 28 9 29 10 30 2 31 3 32 1 33
REMARK H PARENT
REMARK Flexibility Score: inf
ROOT
ATOM      1  C   UNL     1      28.643  53.609  16.118  1.00  0.00     0.014 C 
ATOM      2  C   UNL     1      28.880  52.108  16.357  1.00  0.00     0.014 C 
ATOM      3  C   UNL     1      27.102  53.680  15.834  1.00  0.00     0.012 C 
ATOM      4  C   UNL     1      29.574  54.155  14.999  1.00  0.00     0.014 C 
ATOM      5  C   UNL     1      27.672  51.643  17.152  1.00  0.00     0.009 C 
ATOM      6  C   UNL     1      26.707  53.627  14.312  1.00  0.00     0.000 C 
ATOM      7  C   UNL     1      26.496  52.446  16.586  1.00  0.00     0.018 C 
ATOM      8  C   UNL     1      29.065  53.934  13.575  1.00  0.00     0.008 C 
ATOM      9  C   UNL     1      25.232  54.005  14.137  1.00  0.00     0.005 C 
ATOM     10  C   UNL     1      27.609  54.468  13.353  1.00  0.00    -0.024 C 
ATOM     11  C   UNL     1      24.768  53.730  12.716  1.00  0.00     0.005 C 
ATOM     12  C   UNL     1      27.135  54.296  11.806  1.00  0.00    -0.024 C 
ATOM     13  C   UNL     1      27.566  55.981  13.764  1.00  0.00     0.012 C 
ATOM     14  C   UNL     1      25.563  54.534  11.641  1.00  0.00     0.002 C 
ATOM     15  C   UNL     1      27.506  52.875  11.246  1.00  0.00     0.008 C 
ATOM     16  C   UNL     1      27.914  55.347  10.947  1.00  0.00     0.012 C 
ATOM     17  C   UNL     1      24.986  54.336  10.146  1.00  0.00    -0.025 C 
ATOM     18  C   UNL     1      26.523  52.250  10.241  1.00  0.00     0.006 C 
ATOM     19  C   UNL     1      23.473  53.935  10.161  1.00  0.00     0.015 C 
ATOM     20  C   UNL     1      25.053  55.718   9.410  1.00  0.00     0.012 C 
ATOM     21  C   UNL     1      25.798  53.254   9.319  1.00  0.00     0.008 C 
ATOM     22  C   UNL     1      22.827  53.864   8.770  1.00  0.00     0.077 C 
ATOM     23  C   UNL     1      24.995  52.510   8.150  1.00  0.00     0.027 C 
ATOM     24  C   UNL     1      23.760  53.302   7.738  1.00  0.00     0.138 C 
ATOM     25  C   UNL     1      24.488  51.093   8.535  1.00  0.00     0.020 C 
ATOM     26  C   UNL     1      25.936  52.342   6.927  1.00  0.00     0.020 C 
ATOM     27  O   UNL     1      23.462  53.427   6.559  1.00  0.00    -0.299 OA
ENDROOT
BRANCH   1  28
ATOM     28  C   UNL     1      28.984  54.400  17.379  1.00  0.00     0.048 C 
ATOM     29  O   UNL     1      30.127  54.915  17.512  1.00  0.00    -0.550 OA
ATOM     30  O   UNL     1      28.085  54.493  18.437  1.00  0.00    -0.550 OA
ENDBRANCH   1  28
BRANCH   7  31
ATOM     31  C   UNL     1      25.458  52.817  17.644  1.00  0.00    -0.077 C 
ATOM     32  C   UNL     1      24.691  54.113  17.589  1.00  0.00     0.039 C 
ATOM     33  C   UNL     1      25.202  51.974  18.658  1.00  0.00     0.008 C 
ENDBRANCH   7  31
TORSDOF 2
ENDMDL
MODEL 9
REMARK VINA RESULT:    -7.594      2.203      3.708
REMARK INTER + INTRA:          -8.781
REMARK INTER:                  -8.569
REMARK INTRA:                  -0.212
REMARK UNBOUND:                -0.299
REMARK SMILES C=C(C)[C@@H]1CC[C@@]2(C(=O)[O-])CC[C@]3(C)[C@H](CC[C@@H]4[C@]5(C)CCC(=O)C(C)(C)[C@@H]5CC[C@@]43C)[C@@H]12
REMARK SMILES IDX 7 1 6 2 33 3 11 4 5 5 15 6 4 7 12 8 16 9 13 10 17 11 31 12
REMARK SMILES IDX 14 13 18 14 30 15 32 16 19 17 29 18 21 19 20 20 28 21 22 22
REMARK SMILES IDX 25 23 23 24 26 25 27 26 24 27 8 28 9 29 10 30 2 31 3 32 1 33
REMARK H PARENT
REMARK Flexibility Score: inf
ROOT
ATOM      1  C   UNL     1      24.388  55.518   8.987  1.00  0.00     0.014 C 
ATOM      2  C   UNL     1      22.907  55.224   9.280  1.00  0.00     0.014 C 
ATOM      3  C   UNL     1      25.051  54.099   9.067  1.00  0.00     0.012 C 
ATOM      4  C   UNL     1      24.951  56.595   9.955  1.00  0.00     0.014 C 
ATOM      5  C   UNL     1      22.617  53.918   8.561  1.00  0.00     0.009 C 
ATOM      6  C   UNL     1      25.657  53.731  10.471  1.00  0.00     0.000 C 
ATOM      7  C   UNL     1      23.902  53.096   8.704  1.00  0.00     0.018 C 
ATOM      8  C   UNL     1      25.414  56.063  11.310  1.00  0.00     0.008 C 
ATOM      9  C   UNL     1      26.531  52.478  10.356  1.00  0.00     0.005 C 
ATOM     10  C   UNL     1      26.435  54.881  11.190  1.00  0.00    -0.024 C 
ATOM     11  C   UNL     1      26.930  51.968  11.732  1.00  0.00     0.005 C 
ATOM     12  C   UNL     1      26.971  54.399  12.649  1.00  0.00    -0.024 C 
ATOM     13  C   UNL     1      27.639  55.351  10.301  1.00  0.00     0.012 C 
ATOM     14  C   UNL     1      27.750  53.005  12.559  1.00  0.00     0.002 C 
ATOM     15  C   UNL     1      25.793  54.270  13.681  1.00  0.00     0.008 C 
ATOM     16  C   UNL     1      27.939  55.503  13.191  1.00  0.00     0.012 C 
ATOM     17  C   UNL     1      28.279  52.418  13.967  1.00  0.00    -0.025 C 
ATOM     18  C   UNL     1      25.910  53.147  14.726  1.00  0.00     0.006 C 
ATOM     19  C   UNL     1      28.414  50.858  13.926  1.00  0.00     0.015 C 
ATOM     20  C   UNL     1      29.728  52.964  14.210  1.00  0.00     0.012 C 
ATOM     21  C   UNL     1      27.348  52.823  15.185  1.00  0.00     0.008 C 
ATOM     22  C   UNL     1      29.042  50.247  15.186  1.00  0.00     0.077 C 
ATOM     23  C   UNL     1      27.358  51.831  16.442  1.00  0.00     0.027 C 
ATOM     24  C   UNL     1      28.599  50.947  16.438  1.00  0.00     0.138 C 
ATOM     25  C   UNL     1      26.143  50.864  16.494  1.00  0.00     0.020 C 
ATOM     26  C   UNL     1      27.325  52.675  17.744  1.00  0.00     0.020 C 
ATOM     27  O   UNL     1      29.213  50.727  17.472  1.00  0.00    -0.299 OA
ENDROOT
BRANCH   1  28
ATOM     28  C   UNL     1      24.537  56.091   7.578  1.00  0.00     0.048 C 
ATOM     29  O   UNL     1      25.307  55.534   6.749  1.00  0.00    -0.550 OA
ATOM     30  O   UNL     1      23.906  57.275   7.210  1.00  0.00    -0.550 OA
ENDBRANCH   1  28
BRANCH   7  31
ATOM     31  C   UNL     1      24.201  52.232   7.480  1.00  0.00    -0.077 C 
ATOM     32  C   UNL     1      24.468  52.835   6.124  1.00  0.00     0.039 C 
ATOM     33  C   UNL     1      24.238  50.895   7.594  1.00  0.00     0.008 C 
ENDBRANCH   7  31
TORSDOF 2
ENDMDL
