MODEL 1
REMARK VINA RESULT:    -3.479      0.000      0.000
REMARK INTER + INTRA:          -7.280
REMARK INTER:                  -6.530
REMARK INTRA:                  -0.750
REMARK UNBOUND:                -0.750
REMARK SMILES O=C([O-])CCCCCCCCCCCCCCC(=O)[O-]
REMARK SMILES IDX 10 1 9 2 8 3 7 4 6 5 5 6 4 7 2 8 1 9 3 10 11 11 12 12 13 13
REMARK SMILES IDX 14 14 15 15 16 16 17 17 18 18 19 19 20 20
REMARK H PARENT
REMARK Flexibility Score: inf
ROOT
ATOM      1  C   UNL     1      -8.942  15.582 -12.405  1.00  0.00     0.000 C 
ENDROOT
BRANCH   1   2
ATOM      2  C   UNL     1      -7.777  14.658 -12.011  1.00  0.00     0.000 C 
BRANCH   2   3
ATOM      3  C   UNL     1      -7.651  13.426 -12.928  1.00  0.00     0.000 C 
BRANCH   3   4
ATOM      4  C   UNL     1      -6.403  13.401 -13.830  1.00  0.00     0.000 C 
BRANCH   4   5
ATOM      5  C   UNL     1      -6.398  12.218 -14.813  1.00  0.00     0.000 C 
BRANCH   5   6
ATOM      6  C   UNL     1      -7.187  12.515 -16.099  1.00  0.00     0.006 C 
BRANCH   6   7
ATOM      7  C   UNL     1      -8.574  11.858 -16.107  1.00  0.00     0.053 C 
BRANCH   7   8
ATOM      8  C   UNL     1      -9.642  12.893 -15.939  1.00  0.00     0.041 C 
ATOM      9  O   UNL     1      -9.347  14.117 -15.963  1.00  0.00    -0.550 OA
ATOM     10  O   UNL     1     -10.956  12.506 -15.708  1.00  0.00    -0.550 OA
ENDBRANCH   7   8
ENDBRANCH   6   7
ENDBRANCH   5   6
ENDBRANCH   4   5
ENDBRANCH   3   4
ENDBRANCH   2   3
ENDBRANCH   1   2
BRANCH   1  11
ATOM     11  C   UNL     1      -8.674  16.371 -13.701  1.00  0.00     0.000 C 
BRANCH  11  12
ATOM     12  C   UNL     1      -7.206  16.410 -14.161  1.00  0.00     0.000 C 
BRANCH  12  13
ATOM     13  C   UNL     1      -6.998  17.237 -15.442  1.00  0.00     0.000 C 
BRANCH  13  14
ATOM     14  C   UNL     1      -5.914  18.314 -15.278  1.00  0.00     0.000 C 
BRANCH  14  15
ATOM     15  C   UNL     1      -6.259  19.623 -16.009  1.00  0.00     0.000 C 
BRANCH  15  16
ATOM     16  C   UNL     1      -7.658  20.159 -15.653  1.00  0.00     0.006 C 
BRANCH  16  17
ATOM     17  C   UNL     1      -7.671  21.123 -14.454  1.00  0.00     0.053 C 
BRANCH  17  18
ATOM     18  C   UNL     1      -7.375  20.437 -13.156  1.00  0.00     0.041 C 
ATOM     19  O   UNL     1      -8.134  19.526 -12.731  1.00  0.00    -0.550 OA
ATOM     20  O   UNL     1      -6.273  20.819 -12.403  1.00  0.00    -0.550 OA
ENDBRANCH  17  18
ENDBRANCH  16  17
ENDBRANCH  15  16
ENDBRANCH  14  15
ENDBRANCH  13  14
ENDBRANCH  12  13
ENDBRANCH  11  12
ENDBRANCH   1  11
TORSDOF 15
ENDMDL
MODEL 2
REMARK VINA RESULT:    -3.124      1.687      6.202
REMARK INTER + INTRA:          -6.613
REMARK INTER:                  -5.685
REMARK INTRA:                  -0.928
REMARK UNBOUND:                -0.750
REMARK SMILES O=C([O-])CCCCCCCCCCCCCCC(=O)[O-]
REMARK SMILES IDX 10 1 9 2 8 3 7 4 6 5 5 6 4 7 2 8 1 9 3 10 11 11 12 12 13 13
REMARK SMILES IDX 14 14 15 15 16 16 17 17 18 18 19 19 20 20
REMARK H PARENT
REMARK Flexibility Score: inf
ROOT
ATOM      1  C   UNL     1      -8.424  15.382 -15.396  1.00  0.00     0.000 C 
ENDROOT
BRANCH   1   2
ATOM      2  C   UNL     1      -7.166  15.884 -16.125  1.00  0.00     0.000 C 
BRANCH   2   3
ATOM      3  C   UNL     1      -6.201  16.650 -15.201  1.00  0.00     0.000 C 
BRANCH   3   4
ATOM      4  C   UNL     1      -6.042  18.150 -15.512  1.00  0.00     0.000 C 
BRANCH   4   5
ATOM      5  C   UNL     1      -7.324  18.784 -16.076  1.00  0.00     0.000 C 
BRANCH   5   6
ATOM      6  C   UNL     1      -7.508  20.243 -15.628  1.00  0.00     0.006 C 
BRANCH   6   7
ATOM      7  C   UNL     1      -6.397  20.714 -14.678  1.00  0.00     0.053 C 
BRANCH   7   8
ATOM      8  C   UNL     1      -6.892  20.731 -13.266  1.00  0.00     0.041 C 
ATOM      9  O   UNL     1      -8.128  20.742 -13.027  1.00  0.00    -0.550 OA
ATOM     10  O   UNL     1      -5.987  20.784 -12.213  1.00  0.00    -0.550 OA
ENDBRANCH   7   8
ENDBRANCH   6   7
ENDBRANCH   5   6
ENDBRANCH   4   5
ENDBRANCH   3   4
ENDBRANCH   2   3
ENDBRANCH   1   2
BRANCH   1  11
ATOM     11  C   UNL     1      -9.112  14.208 -16.118  1.00  0.00     0.000 C 
BRANCH  11  12
ATOM     12  C   UNL     1      -8.723  12.804 -15.619  1.00  0.00     0.000 C 
BRANCH  12  13
ATOM     13  C   UNL     1      -7.220  12.665 -15.321  1.00  0.00     0.000 C 
BRANCH  13  14
ATOM     14  C   UNL     1      -6.932  12.490 -13.822  1.00  0.00     0.000 C 
BRANCH  14  15
ATOM     15  C   UNL     1      -6.910  13.826 -13.059  1.00  0.00     0.000 C 
BRANCH  15  16
ATOM     16  C   UNL     1      -8.161  14.040 -12.186  1.00  0.00     0.006 C 
BRANCH  16  17
ATOM     17  C   UNL     1      -8.195  15.400 -11.467  1.00  0.00     0.053 C 
BRANCH  17  18
ATOM     18  C   UNL     1      -9.044  16.409 -12.177  1.00  0.00     0.041 C 
ATOM     19  O   UNL     1     -10.171  16.083 -12.635  1.00  0.00    -0.550 OA
ATOM     20  O   UNL     1      -8.579  17.706 -12.356  1.00  0.00    -0.550 OA
ENDBRANCH  17  18
ENDBRANCH  16  17
ENDBRANCH  15  16
ENDBRANCH  14  15
ENDBRANCH  13  14
ENDBRANCH  12  13
ENDBRANCH  11  12
ENDBRANCH   1  11
TORSDOF 15
ENDMDL
MODEL 3
REMARK VINA RESULT:    -3.035      0.990      6.896
REMARK INTER + INTRA:          -6.447
REMARK INTER:                  -5.461
REMARK INTRA:                  -0.986
REMARK UNBOUND:                -0.750
REMARK SMILES O=C([O-])CCCCCCCCCCCCCCC(=O)[O-]
REMARK SMILES IDX 10 1 9 2 8 3 7 4 6 5 5 6 4 7 2 8 1 9 3 10 11 11 12 12 13 13
REMARK SMILES IDX 14 14 15 15 16 16 17 17 18 18 19 19 20 20
REMARK H PARENT
REMARK Flexibility Score: inf
ROOT
ATOM      1  C   UNL     1      -9.115  16.083 -13.416  1.00  0.00     0.000 C 
ENDROOT
BRANCH   1   2
ATOM      2  C   UNL     1      -8.933  17.610 -13.433  1.00  0.00     0.000 C 
BRANCH   2   3
ATOM      3  C   UNL     1      -8.745  18.177 -14.853  1.00  0.00     0.000 C 
BRANCH   3   4
ATOM      4  C   UNL     1      -7.463  17.726 -15.579  1.00  0.00     0.000 C 
BRANCH   4   5
ATOM      5  C   UNL     1      -6.275  18.674 -15.341  1.00  0.00     0.000 C 
BRANCH   5   6
ATOM      6  C   UNL     1      -6.670  20.156 -15.452  1.00  0.00     0.006 C 
BRANCH   6   7
ATOM      7  C   UNL     1      -5.959  21.036 -14.415  1.00  0.00     0.053 C 
BRANCH   7   8
ATOM      8  C   UNL     1      -6.645  20.937 -13.089  1.00  0.00     0.041 C 
ATOM      9  O   UNL     1      -7.902  20.936 -13.024  1.00  0.00    -0.550 OA
ATOM     10  O   UNL     1      -5.896  20.894 -11.919  1.00  0.00    -0.550 OA
ENDBRANCH   7   8
ENDBRANCH   6   7
ENDBRANCH   5   6
ENDBRANCH   4   5
ENDBRANCH   3   4
ENDBRANCH   2   3
ENDBRANCH   1   2
BRANCH   1  11
ATOM     11  C   UNL     1      -8.207  15.378 -12.390  1.00  0.00     0.000 C 
BRANCH  11  12
ATOM     12  C   UNL     1      -7.019  14.597 -12.983  1.00  0.00     0.000 C 
BRANCH  12  13
ATOM     13  C   UNL     1      -7.168  13.073 -12.837  1.00  0.00     0.000 C 
BRANCH  13  14
ATOM     14  C   UNL     1      -6.179  12.299 -13.722  1.00  0.00     0.000 C 
BRANCH  14  15
ATOM     15  C   UNL     1      -5.980  12.949 -15.103  1.00  0.00     0.000 C 
BRANCH  15  16
ATOM     16  C   UNL     1      -7.053  12.529 -16.125  1.00  0.00     0.006 C 
BRANCH  16  17
ATOM     17  C   UNL     1      -8.408  12.166 -15.494  1.00  0.00     0.053 C 
BRANCH  17  18
ATOM     18  C   UNL     1      -9.473  13.178 -15.787  1.00  0.00     0.041 C 
ATOM     19  O   UNL     1     -10.689  12.850 -15.749  1.00  0.00    -0.550 OA
ATOM     20  O   UNL     1      -9.122  14.478 -16.125  1.00  0.00    -0.550 OA
ENDBRANCH  17  18
ENDBRANCH  16  17
ENDBRANCH  15  16
ENDBRANCH  14  15
ENDBRANCH  13  14
ENDBRANCH  12  13
ENDBRANCH  11  12
ENDBRANCH   1  11
TORSDOF 15
ENDMDL
MODEL 4
REMARK VINA RESULT:    -2.845      0.893      7.026
REMARK INTER + INTRA:          -6.089
REMARK INTER:                  -5.644
REMARK INTRA:                  -0.445
REMARK UNBOUND:                -0.750
REMARK SMILES O=C([O-])CCCCCCCCCCCCCCC(=O)[O-]
REMARK SMILES IDX 10 1 9 2 8 3 7 4 6 5 5 6 4 7 2 8 1 9 3 10 11 11 12 12 13 13
REMARK SMILES IDX 14 14 15 15 16 16 17 17 18 18 19 19 20 20
REMARK H PARENT
REMARK Flexibility Score: inf
ROOT
ATOM      1  C   UNL     1      -8.865  16.121 -14.692  1.00  0.00     0.000 C 
ENDROOT
BRANCH   1   2
ATOM      2  C   UNL     1      -8.091  16.524 -15.958  1.00  0.00     0.000 C 
BRANCH   2   3
ATOM      3  C   UNL     1      -6.676  17.052 -15.654  1.00  0.00     0.000 C 
BRANCH   3   4
ATOM      4  C   UNL     1      -6.511  18.581 -15.738  1.00  0.00     0.000 C 
BRANCH   4   5
ATOM      5  C   UNL     1      -7.818  19.306 -16.102  1.00  0.00     0.000 C 
BRANCH   5   6
ATOM      6  C   UNL     1      -7.991  20.631 -15.340  1.00  0.00     0.006 C 
BRANCH   6   7
ATOM      7  C   UNL     1      -6.772  20.976 -14.473  1.00  0.00     0.053 C 
BRANCH   7   8
ATOM      8  C   UNL     1      -7.005  20.554 -13.056  1.00  0.00     0.041 C 
ATOM      9  O   UNL     1      -8.067  19.957 -12.739  1.00  0.00    -0.550 OA
ATOM     10  O   UNL     1      -6.070  20.862 -12.076  1.00  0.00    -0.550 OA
ENDBRANCH   7   8
ENDBRANCH   6   7
ENDBRANCH   5   6
ENDBRANCH   4   5
ENDBRANCH   3   4
ENDBRANCH   2   3
ENDBRANCH   1   2
BRANCH   1  11
ATOM     11  C   UNL     1      -8.218  16.647 -13.396  1.00  0.00     0.000 C 
BRANCH  11  12
ATOM     12  C   UNL     1      -8.465  15.794 -12.138  1.00  0.00     0.000 C 
BRANCH  12  13
ATOM     13  C   UNL     1      -7.784  14.416 -12.201  1.00  0.00     0.000 C 
BRANCH  13  14
ATOM     14  C   UNL     1      -7.052  14.183 -13.533  1.00  0.00     0.000 C 
BRANCH  14  15
ATOM     15  C   UNL     1      -6.448  12.772 -13.641  1.00  0.00     0.000 C 
BRANCH  15  16
ATOM     16  C   UNL     1      -7.056  11.945 -14.790  1.00  0.00     0.006 C 
BRANCH  16  17
ATOM     17  C   UNL     1      -7.964  12.756 -15.731  1.00  0.00     0.053 C 
BRANCH  17  18
ATOM     18  C   UNL     1      -9.421  12.532 -15.465  1.00  0.00     0.041 C 
ATOM     19  O   UNL     1     -10.034  13.250 -14.633  1.00  0.00    -0.550 OA
ATOM     20  O   UNL     1     -10.097  11.511 -16.121  1.00  0.00    -0.550 OA
ENDBRANCH  17  18
ENDBRANCH  16  17
ENDBRANCH  15  16
ENDBRANCH  14  15
ENDBRANCH  13  14
ENDBRANCH  12  13
ENDBRANCH  11  12
ENDBRANCH   1  11
TORSDOF 15
ENDMDL
MODEL 5
REMARK VINA RESULT:    -2.611      1.697      2.481
REMARK INTER + INTRA:          -5.651
REMARK INTER:                  -5.233
REMARK INTRA:                  -0.417
REMARK UNBOUND:                -0.750
REMARK SMILES O=C([O-])CCCCCCCCCCCCCCC(=O)[O-]
REMARK SMILES IDX 10 1 9 2 8 3 7 4 6 5 5 6 4 7 2 8 1 9 3 10 11 11 12 12 13 13
REMARK SMILES IDX 14 14 15 15 16 16 17 17 18 18 19 19 20 20
REMARK H PARENT
REMARK Flexibility Score: inf
ROOT
ATOM      1  C   UNL     1      -9.014  15.692 -12.696  1.00  0.00     0.000 C 
ENDROOT
BRANCH   1   2
ATOM      2  C   UNL     1      -8.349  14.671 -11.756  1.00  0.00     0.000 C 
BRANCH   2   3
ATOM      3  C   UNL     1      -7.421  13.689 -12.495  1.00  0.00     0.000 C 
BRANCH   3   4
ATOM      4  C   UNL     1      -7.088  14.065 -13.951  1.00  0.00     0.000 C 
BRANCH   4   5
ATOM      5  C   UNL     1      -6.585  12.870 -14.779  1.00  0.00     0.000 C 
BRANCH   5   6
ATOM      6  C   UNL     1      -7.315  12.736 -16.125  1.00  0.00     0.006 C 
BRANCH   6   7
ATOM      7  C   UNL     1      -8.629  11.950 -16.008  1.00  0.00     0.053 C 
BRANCH   7   8
ATOM      8  C   UNL     1      -9.788  12.889 -15.887  1.00  0.00     0.041 C 
ATOM      9  O   UNL     1     -10.967  12.457 -15.982  1.00  0.00    -0.550 OA
ATOM     10  O   UNL     1      -9.565  14.250 -15.718  1.00  0.00    -0.550 OA
ENDBRANCH   7   8
ENDBRANCH   6   7
ENDBRANCH   5   6
ENDBRANCH   4   5
ENDBRANCH   3   4
ENDBRANCH   2   3
ENDBRANCH   1   2
BRANCH   1  11
ATOM     11  C   UNL     1      -8.246  17.025 -12.777  1.00  0.00     0.000 C 
BRANCH  11  12
ATOM     12  C   UNL     1      -9.121  18.285 -12.917  1.00  0.00     0.000 C 
BRANCH  12  13
ATOM     13  C   UNL     1      -8.396  19.572 -12.486  1.00  0.00     0.000 C 
BRANCH  13  14
ATOM     14  C   UNL     1      -7.417  20.082 -13.555  1.00  0.00     0.000 C 
BRANCH  14  15
ATOM     15  C   UNL     1      -8.119  20.861 -14.682  1.00  0.00     0.000 C 
BRANCH  15  16
ATOM     16  C   UNL     1      -8.079  20.127 -16.035  1.00  0.00     0.006 C 
BRANCH  16  17
ATOM     17  C   UNL     1      -6.992  19.041 -16.125  1.00  0.00     0.053 C 
BRANCH  17  18
ATOM     18  C   UNL     1      -7.545  17.656 -15.992  1.00  0.00     0.041 C 
ATOM     19  O   UNL     1      -8.787  17.458 -16.057  1.00  0.00    -0.550 OA
ATOM     20  O   UNL     1      -6.690  16.584 -15.773  1.00  0.00    -0.550 OA
ENDBRANCH  17  18
ENDBRANCH  16  17
ENDBRANCH  15  16
ENDBRANCH  14  15
ENDBRANCH  13  14
ENDBRANCH  12  13
ENDBRANCH  11  12
ENDBRANCH   1  11
TORSDOF 15
ENDMDL
MODEL 6
REMARK VINA RESULT:    -1.627      1.816      3.009
REMARK INTER + INTRA:          -3.804
REMARK INTER:                  -5.042
REMARK INTRA:                   1.238
REMARK UNBOUND:                -0.750
REMARK SMILES O=C([O-])CCCCCCCCCCCCCCC(=O)[O-]
REMARK SMILES IDX 10 1 9 2 8 3 7 4 6 5 5 6 4 7 2 8 1 9 3 10 11 11 12 12 13 13
REMARK SMILES IDX 14 14 15 15 16 16 17 17 18 18 19 19 20 20
REMARK H PARENT
REMARK Flexibility Score: inf
ROOT
ATOM      1  C   UNL     1      -9.942  13.726 -15.241  1.00  0.00     0.000 C 
ENDROOT
BRANCH   1   2
ATOM      2  C   UNL     1      -9.260  12.438 -15.732  1.00  0.00     0.000 C 
BRANCH   2   3
ATOM      3  C   UNL     1      -7.771  12.638 -16.074  1.00  0.00     0.000 C 
BRANCH   3   4
ATOM      4  C   UNL     1      -6.802  12.543 -14.881  1.00  0.00     0.000 C 
BRANCH   4   5
ATOM      5  C   UNL     1      -7.523  12.551 -13.521  1.00  0.00     0.000 C 
BRANCH   5   6
ATOM      6  C   UNL     1      -6.892  13.536 -12.524  1.00  0.00     0.006 C 
BRANCH   6   7
ATOM      7  C   UNL     1      -7.931  14.196 -11.608  1.00  0.00     0.053 C 
BRANCH   7   8
ATOM      8  C   UNL     1      -8.260  15.571 -12.098  1.00  0.00     0.041 C 
ATOM      9  O   UNL     1      -7.342  16.346 -12.475  1.00  0.00    -0.550 OA
ATOM     10  O   UNL     1      -9.576  16.016 -12.093  1.00  0.00    -0.550 OA
ENDBRANCH   7   8
ENDBRANCH   6   7
ENDBRANCH   5   6
ENDBRANCH   4   5
ENDBRANCH   3   4
ENDBRANCH   2   3
ENDBRANCH   1   2
BRANCH   1  11
ATOM     11  C   UNL     1      -8.941  14.853 -14.919  1.00  0.00     0.000 C 
BRANCH  11  12
ATOM     12  C   UNL     1      -8.511  15.719 -16.117  1.00  0.00     0.000 C 
BRANCH  12  13
ATOM     13  C   UNL     1      -7.110  16.333 -15.945  1.00  0.00     0.000 C 
BRANCH  13  14
ATOM     14  C   UNL     1      -7.114  17.861 -16.104  1.00  0.00     0.000 C 
BRANCH  14  15
ATOM     15  C   UNL     1      -8.285  18.534 -15.366  1.00  0.00     0.000 C 
BRANCH  15  16
ATOM     16  C   UNL     1      -8.297  20.066 -15.530  1.00  0.00     0.006 C 
BRANCH  16  17
ATOM     17  C   UNL     1      -7.294  20.799 -14.622  1.00  0.00     0.053 C 
BRANCH  17  18
ATOM     18  C   UNL     1      -7.326  20.307 -13.207  1.00  0.00     0.041 C 
ATOM     19  O   UNL     1      -8.255  19.550 -12.818  1.00  0.00    -0.550 OA
ATOM     20  O   UNL     1      -6.342  20.703 -12.311  1.00  0.00    -0.550 OA
ENDBRANCH  17  18
ENDBRANCH  16  17
ENDBRANCH  15  16
ENDBRANCH  14  15
ENDBRANCH  13  14
ENDBRANCH  12  13
ENDBRANCH  11  12
ENDBRANCH   1  11
TORSDOF 15
ENDMDL
