MODEL 1
REMARK VINA RESULT:    -3.383      0.000      0.000
REMARK INTER + INTRA:          -4.664
REMARK INTER:                  -4.768
REMARK INTRA:                   0.104
REMARK UNBOUND:                 0.104
REMARK SMILES CC1=CCC(=C(C)C)C(=O)CC(C)=CCC1
REMARK SMILES IDX 12 1 14 2 13 3 15 4 16 5 2 6 1 7 3 8 11 10 9 11 10 12 5 13
REMARK SMILES IDX 6 14 7 15 8 16 4 17
REMARK H PARENT
REMARK Flexibility Score: 60.00
ROOT
ATOM      1  C   UNL     1      -6.332  33.862  43.488  1.00  0.00    -0.070 C 
ATOM      2  C   UNL     1      -5.388  33.610  42.536  1.00  0.00    -0.027 C 
ATOM      3  C   UNL     1      -6.728  32.703  44.371  1.00  0.00     0.039 C 
ENDROOT
BRANCH   2   4
ATOM      4  C   UNL     1      -4.791  34.495  41.448  1.00  0.00     0.032 C 
BRANCH   4   5
ATOM      5  C   UNL     1      -3.731  35.518  41.876  1.00  0.00     0.034 C 
BRANCH   5   6
ATOM      6  C   UNL     1      -3.981  37.000  41.561  1.00  0.00    -0.077 C 
ATOM      7  C   UNL     1      -3.708  37.415  40.132  1.00  0.00     0.039 C 
ATOM      8  C   UNL     1      -4.337  38.011  42.409  1.00  0.00    -0.023 CG0
ATOM      9  G   UNL     1      -4.630  38.002  43.897  1.00  0.00     0.000 G0
ENDBRANCH   5   6
ENDBRANCH   4   5
ENDBRANCH   2   4
BRANCH   1  10
ATOM     10  C   UNL     1      -7.022  35.190  43.759  1.00  0.00     0.111 C 
BRANCH  10  11
ATOM     11  C   UNL     1      -6.167  36.104  44.585  1.00  0.00     0.163 C 
ATOM     12  O   UNL     1      -5.594  35.644  45.609  1.00  0.00    -0.294 OA
BRANCH  11  13
ATOM     13  C   UNL     1      -6.027  37.539  44.230  1.00  0.00    -0.002 C 
ATOM     14  C   UNL     1      -7.110  38.368  44.174  1.00  0.00    -0.069 C 
ATOM     15  C   UNL     1      -8.483  37.890  44.592  1.00  0.00     0.039 C 
ATOM     16  C   UNL     1      -6.989  39.802  43.709  1.00  0.00     0.039 C 
BRANCH  13  17
ATOM     17  C   UNL     1      -4.624  38.014  43.919  1.00  0.00     0.066 CG0
ATOM     18  G   UNL     1      -4.342  38.016  42.428  1.00  0.00     0.000 G0
ENDBRANCH  13  17
ENDBRANCH  11  13
ENDBRANCH  10  11
ENDBRANCH   1  10
TORSDOF 0
ENDMDL
MODEL 2
REMARK VINA RESULT:    -3.278      7.412      9.110
REMARK INTER + INTRA:          -4.515
REMARK INTER:                  -4.633
REMARK INTRA:                   0.118
REMARK UNBOUND:                 0.104
REMARK SMILES CC1=CCC(=C(C)C)C(=O)CC(C)=CCC1
REMARK SMILES IDX 12 1 14 2 13 3 15 4 16 5 2 6 1 7 3 8 11 10 9 11 10 12 5 13
REMARK SMILES IDX 6 14 7 15 8 16 4 17
REMARK H PARENT
REMARK Flexibility Score: 60.00
ROOT
ATOM      1  C   UNL     1       0.458  28.443  41.421  1.00  0.00    -0.070 C 
ATOM      2  C   UNL     1       1.622  29.126  41.618  1.00  0.00    -0.027 C 
ATOM      3  C   UNL     1       0.571  27.091  40.758  1.00  0.00     0.039 C 
ENDROOT
BRANCH   2   4
ATOM      4  C   UNL     1       1.894  30.512  42.192  1.00  0.00     0.032 C 
BRANCH   4   5
ATOM      5  C   UNL     1       2.693  30.588  43.499  1.00  0.00     0.034 C 
BRANCH   5   6
ATOM      6  C   UNL     1       1.961  30.294  44.817  1.00  0.00    -0.077 C 
ATOM      7  C   UNL     1       2.787  29.595  45.874  1.00  0.00     0.039 C 
ATOM      8  C   UNL     1       0.649  30.500  45.136  1.00  0.00    -0.023 CG0
ATOM      9  G   UNL     1      -0.486  31.105  44.332  1.00  0.00     0.000 G0
ENDBRANCH   5   6
ENDBRANCH   4   5
ENDBRANCH   2   4
BRANCH   1  10
ATOM     10  C   UNL     1      -0.942  28.897  41.807  1.00  0.00     0.111 C 
BRANCH  10  11
ATOM     11  C   UNL     1      -1.145  28.874  43.292  1.00  0.00     0.163 C 
ATOM     12  O   UNL     1      -0.972  27.792  43.915  1.00  0.00    -0.294 OA
BRANCH  11  13
ATOM     13  C   UNL     1      -1.585  30.093  44.017  1.00  0.00    -0.002 C 
ATOM     14  C   UNL     1      -2.894  30.290  44.352  1.00  0.00    -0.069 C 
ATOM     15  C   UNL     1      -3.932  29.217  44.111  1.00  0.00     0.039 C 
ATOM     16  C   UNL     1      -3.363  31.577  44.993  1.00  0.00     0.039 C 
BRANCH  13  17
ATOM     17  C   UNL     1      -0.503  31.103  44.338  1.00  0.00     0.066 CG0
ATOM     18  G   UNL     1       0.645  30.478  45.109  1.00  0.00     0.000 G0
ENDBRANCH  13  17
ENDBRANCH  11  13
ENDBRANCH  10  11
ENDBRANCH   1  10
TORSDOF 0
ENDMDL
MODEL 3
REMARK VINA RESULT:    -3.247     13.637     15.094
REMARK INTER + INTRA:          -4.471
REMARK INTER:                  -4.534
REMARK INTRA:                   0.063
REMARK UNBOUND:                 0.104
REMARK SMILES CC1=CCC(=C(C)C)C(=O)CC(C)=CCC1
REMARK SMILES IDX 12 1 14 2 13 3 15 4 16 5 2 6 1 7 3 8 11 10 9 11 10 12 5 13
REMARK SMILES IDX 6 14 7 15 8 16 4 17
REMARK H PARENT
REMARK Flexibility Score: 60.00
ROOT
ATOM      1  C   UNL     1      -6.463  30.907  58.235  1.00  0.00    -0.070 C 
ATOM      2  C   UNL     1      -6.217  29.566  58.176  1.00  0.00    -0.027 C 
ATOM      3  C   UNL     1      -5.953  31.635  59.456  1.00  0.00     0.039 C 
ENDROOT
BRANCH   2   4
ATOM      4  C   UNL     1      -6.617  28.511  57.151  1.00  0.00     0.032 C 
BRANCH   4   5
ATOM      5  C   UNL     1      -8.099  28.433  56.764  1.00  0.00     0.034 C 
BRANCH   5   6
ATOM      6  C   UNL     1      -8.514  28.931  55.371  1.00  0.00    -0.077 C 
ATOM      7  C   UNL     1      -7.752  28.327  54.213  1.00  0.00     0.039 C 
ATOM      8  C   UNL     1      -9.417  29.901  55.040  1.00  0.00    -0.023 CG0
ATOM      9  G   UNL     1     -10.313  30.763  55.909  1.00  0.00     0.000 G0
ENDBRANCH   5   6
ENDBRANCH   4   5
ENDBRANCH   2   4
BRANCH   1  10
ATOM     10  C   UNL     1      -7.190  31.747  57.196  1.00  0.00     0.111 C 
BRANCH  10  11
ATOM     11  C   UNL     1      -8.654  31.863  57.498  1.00  0.00     0.163 C 
ATOM     12  O   UNL     1      -9.040  31.773  58.695  1.00  0.00    -0.294 OA
BRANCH  11  13
ATOM     13  C   UNL     1      -9.642  32.037  56.404  1.00  0.00    -0.002 C 
ATOM     14  C   UNL     1      -9.926  33.269  55.888  1.00  0.00    -0.069 C 
ATOM     15  C   UNL     1      -9.154  34.494  56.324  1.00  0.00     0.039 C 
ATOM     16  C   UNL     1     -11.008  33.465  54.851  1.00  0.00     0.039 C 
BRANCH  13  17
ATOM     17  C   UNL     1     -10.324  30.776  55.915  1.00  0.00     0.066 CG0
ATOM     18  G   UNL     1      -9.402  29.928  55.060  1.00  0.00     0.000 G0
ENDBRANCH  13  17
ENDBRANCH  11  13
ENDBRANCH  10  11
ENDBRANCH   1  10
TORSDOF 0
ENDMDL
MODEL 4
REMARK VINA RESULT:    -3.157      1.791      3.759
REMARK INTER + INTRA:          -4.345
REMARK INTER:                  -4.385
REMARK INTRA:                   0.040
REMARK UNBOUND:                 0.104
REMARK SMILES CC1=CCC(=C(C)C)C(=O)CC(C)=CCC1
REMARK SMILES IDX 12 1 14 2 13 3 15 4 16 5 2 6 1 7 3 8 11 10 9 11 10 12 5 13
REMARK SMILES IDX 6 14 7 15 8 16 4 17
REMARK H PARENT
REMARK Flexibility Score: 60.00
ROOT
ATOM      1  C   UNL     1      -4.820  33.867  42.716  1.00  0.00    -0.070 C 
ATOM      2  C   UNL     1      -5.985  33.182  42.898  1.00  0.00    -0.027 C 
ATOM      3  C   UNL     1      -3.540  33.086  42.902  1.00  0.00     0.039 C 
ENDROOT
BRANCH   2   4
ATOM      4  C   UNL     1      -7.440  33.636  42.853  1.00  0.00     0.032 C 
BRANCH   4   5
ATOM      5  C   UNL     1      -8.193  33.720  44.186  1.00  0.00     0.034 C 
BRANCH   5   6
ATOM      6  C   UNL     1      -7.673  34.693  45.255  1.00  0.00    -0.077 C 
ATOM      7  C   UNL     1      -7.666  34.158  46.670  1.00  0.00     0.039 C 
ATOM      8  C   UNL     1      -7.295  35.998  45.118  1.00  0.00    -0.023 CG0
ATOM      9  G   UNL     1      -7.228  36.890  43.893  1.00  0.00     0.000 G0
ENDBRANCH   5   6
ENDBRANCH   4   5
ENDBRANCH   2   4
BRANCH   1  10
ATOM     10  C   UNL     1      -4.673  35.333  42.336  1.00  0.00     0.111 C 
BRANCH  10  11
ATOM     11  C   UNL     1      -4.766  36.230  43.534  1.00  0.00     0.163 C 
ATOM     12  O   UNL     1      -3.995  36.027  44.511  1.00  0.00    -0.294 OA
BRANCH  11  13
ATOM     13  C   UNL     1      -5.779  37.315  43.592  1.00  0.00    -0.002 C 
ATOM     14  C   UNL     1      -5.435  38.622  43.398  1.00  0.00    -0.069 C 
ATOM     15  C   UNL     1      -4.031  39.008  42.992  1.00  0.00     0.039 C 
ATOM     16  C   UNL     1      -6.440  39.739  43.562  1.00  0.00     0.039 C 
BRANCH  13  17
ATOM     17  C   UNL     1      -7.198  36.885  43.897  1.00  0.00     0.066 CG0
ATOM     18  G   UNL     1      -7.273  36.006  45.131  1.00  0.00     0.000 G0
ENDBRANCH  13  17
ENDBRANCH  11  13
ENDBRANCH  10  11
ENDBRANCH   1  10
TORSDOF 0
ENDMDL
MODEL 5
REMARK VINA RESULT:    -3.048     13.030     15.265
REMARK INTER + INTRA:          -4.191
REMARK INTER:                  -4.326
REMARK INTRA:                   0.136
REMARK UNBOUND:                 0.104
REMARK SMILES CC1=CCC(=C(C)C)C(=O)CC(C)=CCC1
REMARK SMILES IDX 12 1 14 2 13 3 15 4 16 5 2 6 1 7 3 8 11 10 9 11 10 12 5 13
REMARK SMILES IDX 6 14 7 15 8 16 4 17
REMARK H PARENT
REMARK Flexibility Score: 60.00
ROOT
ATOM      1  C   UNL     1      -7.885  27.002  55.390  1.00  0.00    -0.070 C 
ATOM      2  C   UNL     1      -9.183  27.356  55.162  1.00  0.00    -0.027 C 
ATOM      3  C   UNL     1      -7.522  25.559  55.128  1.00  0.00     0.039 C 
ENDROOT
BRANCH   2   4
ATOM      4  C   UNL     1      -9.919  28.676  55.363  1.00  0.00     0.032 C 
BRANCH   4   5
ATOM      5  C   UNL     1      -9.702  29.769  54.309  1.00  0.00     0.034 C 
BRANCH   5   6
ATOM      6  C   UNL     1      -8.576  30.787  54.538  1.00  0.00    -0.077 C 
ATOM      7  C   UNL     1      -8.040  31.452  53.289  1.00  0.00     0.039 C 
ATOM      8  C   UNL     1      -7.936  31.115  55.699  1.00  0.00    -0.023 CG0
ATOM      9  G   UNL     1      -8.142  30.624  57.120  1.00  0.00     0.000 G0
ENDBRANCH   5   6
ENDBRANCH   4   5
ENDBRANCH   2   4
BRANCH   1  10
ATOM     10  C   UNL     1      -6.764  27.909  55.872  1.00  0.00     0.111 C 
BRANCH  10  11
ATOM     11  C   UNL     1      -6.982  28.363  57.284  1.00  0.00     0.163 C 
ATOM     12  O   UNL     1      -7.224  27.502  58.172  1.00  0.00    -0.294 OA
BRANCH  11  13
ATOM     13  C   UNL     1      -6.959  29.807  57.629  1.00  0.00    -0.002 C 
ATOM     14  C   UNL     1      -5.943  30.349  58.364  1.00  0.00    -0.069 C 
ATOM     15  C   UNL     1      -4.736  29.526  58.752  1.00  0.00     0.039 C 
ATOM     16  C   UNL     1      -5.969  31.793  58.809  1.00  0.00     0.039 C 
BRANCH  13  17
ATOM     17  C   UNL     1      -8.131  30.629  57.135  1.00  0.00     0.066 CG0
ATOM     18  G   UNL     1      -7.933  31.100  55.707  1.00  0.00     0.000 G0
ENDBRANCH  13  17
ENDBRANCH  11  13
ENDBRANCH  10  11
ENDBRANCH   1  10
TORSDOF 0
ENDMDL
MODEL 6
REMARK VINA RESULT:    -2.987      2.290      4.205
REMARK INTER + INTRA:          -4.106
REMARK INTER:                  -4.002
REMARK INTRA:                  -0.104
REMARK UNBOUND:                 0.104
REMARK SMILES CC1=CCC(=C(C)C)C(=O)CC(C)=CCC1
REMARK SMILES IDX 12 1 14 2 13 3 15 4 16 5 2 6 1 7 3 8 11 10 9 11 10 12 5 13
REMARK SMILES IDX 6 14 7 15 8 16 4 17
REMARK H PARENT
REMARK Flexibility Score: 60.00
ROOT
ATOM      1  C   UNL     1      -4.467  36.071  42.926  1.00  0.00    -0.070 C 
ATOM      2  C   UNL     1      -5.115  34.881  42.775  1.00  0.00    -0.027 C 
ATOM      3  C   UNL     1      -3.612  36.528  41.768  1.00  0.00     0.039 C 
ENDROOT
BRANCH   2   4
ATOM      4  C   UNL     1      -6.002  34.086  43.727  1.00  0.00     0.032 C 
BRANCH   4   5
ATOM      5  C   UNL     1      -7.384  34.666  44.051  1.00  0.00     0.034 C 
BRANCH   5   6
ATOM      6  C   UNL     1      -7.648  35.161  45.481  1.00  0.00    -0.077 C 
ATOM      7  C   UNL     1      -7.805  34.075  46.523  1.00  0.00     0.039 C 
ATOM      8  C   UNL     1      -7.842  36.437  45.927  1.00  0.00    -0.023 CG0
ATOM      9  G   UNL     1      -7.826  37.761  45.187  1.00  0.00     0.000 G0
ENDBRANCH   5   6
ENDBRANCH   4   5
ENDBRANCH   2   4
BRANCH   1  10
ATOM     10  C   UNL     1      -4.521  36.991  44.137  1.00  0.00     0.111 C 
BRANCH  10  11
ATOM     11  C   UNL     1      -5.589  38.034  43.996  1.00  0.00     0.163 C 
ATOM     12  O   UNL     1      -5.733  38.616  42.887  1.00  0.00    -0.294 OA
BRANCH  11  13
ATOM     13  C   UNL     1      -6.440  38.409  45.154  1.00  0.00    -0.002 C 
ATOM     14  C   UNL     1      -5.987  39.250  46.129  1.00  0.00    -0.069 C 
ATOM     15  C   UNL     1      -4.644  39.934  46.008  1.00  0.00     0.039 C 
ATOM     16  C   UNL     1      -6.807  39.549  47.363  1.00  0.00     0.039 C 
BRANCH  13  17
ATOM     17  C   UNL     1      -7.821  37.789  45.194  1.00  0.00     0.066 CG0
ATOM     18  G   UNL     1      -7.825  36.458  45.922  1.00  0.00     0.000 G0
ENDBRANCH  13  17
ENDBRANCH  11  13
ENDBRANCH  10  11
ENDBRANCH   1  10
TORSDOF 0
ENDMDL
MODEL 7
REMARK VINA RESULT:    -2.941      1.986      4.927
REMARK INTER + INTRA:          -4.040
REMARK INTER:                  -4.276
REMARK INTRA:                   0.236
REMARK UNBOUND:                 0.104
REMARK SMILES CC1=CCC(=C(C)C)C(=O)CC(C)=CCC1
REMARK SMILES IDX 12 1 14 2 13 3 15 4 16 5 2 6 1 7 3 8 11 10 9 11 10 12 5 13
REMARK SMILES IDX 6 14 7 15 8 16 4 17
REMARK H PARENT
REMARK Flexibility Score: 60.00
ROOT
ATOM      1  C   UNL     1      -7.504  38.635  44.927  1.00  0.00    -0.070 C 
ATOM      2  C   UNL     1      -8.051  37.643  45.688  1.00  0.00    -0.027 C 
ATOM      3  C   UNL     1      -7.708  40.050  45.413  1.00  0.00     0.039 C 
ENDROOT
BRANCH   2   4
ATOM      4  C   UNL     1      -8.101  36.132  45.493  1.00  0.00     0.032 C 
BRANCH   4   5
ATOM      5  C   UNL     1      -7.355  35.265  46.514  1.00  0.00     0.034 C 
BRANCH   5   6
ATOM      6  C   UNL     1      -5.917  34.834  46.191  1.00  0.00    -0.077 C 
ATOM      7  C   UNL     1      -5.074  34.442  47.384  1.00  0.00     0.039 C 
ATOM      8  C   UNL     1      -5.269  34.833  44.988  1.00  0.00    -0.023 CG0
ATOM      9  G   UNL     1      -5.751  35.214  43.601  1.00  0.00     0.000 G0
ENDBRANCH   5   6
ENDBRANCH   4   5
ENDBRANCH   2   4
BRANCH   1  10
ATOM     10  C   UNL     1      -6.704  38.464  43.645  1.00  0.00     0.111 C 
BRANCH  10  11
ATOM     11  C   UNL     1      -5.422  37.724  43.883  1.00  0.00     0.163 C 
ATOM     12  O   UNL     1      -4.602  38.179  44.726  1.00  0.00    -0.294 OA
BRANCH  11  13
ATOM     13  C   UNL     1      -5.098  36.498  43.110  1.00  0.00    -0.002 C 
ATOM     14  C   UNL     1      -4.283  36.539  42.016  1.00  0.00    -0.069 C 
ATOM     15  C   UNL     1      -3.575  37.815  41.617  1.00  0.00     0.039 C 
ATOM     16  C   UNL     1      -4.037  35.315  41.163  1.00  0.00     0.039 C 
BRANCH  13  17
ATOM     17  C   UNL     1      -5.739  35.216  43.598  1.00  0.00     0.066 CG0
ATOM     18  G   UNL     1      -5.259  34.832  44.984  1.00  0.00     0.000 G0
ENDBRANCH  13  17
ENDBRANCH  11  13
ENDBRANCH  10  11
ENDBRANCH   1  10
TORSDOF 0
ENDMDL
MODEL 8
REMARK VINA RESULT:    -2.847      1.321      4.063
REMARK INTER + INTRA:          -3.909
REMARK INTER:                  -4.086
REMARK INTRA:                   0.178
REMARK UNBOUND:                 0.104
REMARK SMILES CC1=CCC(=C(C)C)C(=O)CC(C)=CCC1
REMARK SMILES IDX 12 1 14 2 13 3 15 4 16 5 2 6 1 7 3 8 11 10 9 11 10 12 5 13
REMARK SMILES IDX 6 14 7 15 8 16 4 17
REMARK H PARENT
REMARK Flexibility Score: 60.00
ROOT
ATOM      1  C   UNL     1      -7.382  37.718  44.491  1.00  0.00    -0.070 C 
ATOM      2  C   UNL     1      -6.814  38.947  44.328  1.00  0.00    -0.027 C 
ATOM      3  C   UNL     1      -8.367  37.574  45.627  1.00  0.00     0.039 C 
ENDROOT
BRANCH   2   4
ATOM      4  C   UNL     1      -5.759  39.449  43.349  1.00  0.00     0.032 C 
BRANCH   4   5
ATOM      5  C   UNL     1      -4.383  39.812  43.922  1.00  0.00     0.034 C 
BRANCH   5   6
ATOM      6  C   UNL     1      -3.247  38.786  43.793  1.00  0.00    -0.077 C 
ATOM      7  C   UNL     1      -1.969  39.140  44.520  1.00  0.00     0.039 C 
ATOM      8  C   UNL     1      -3.203  37.642  43.048  1.00  0.00    -0.023 CG0
ATOM      9  G   UNL     1      -4.244  37.000  42.151  1.00  0.00     0.000 G0
ENDBRANCH   5   6
ENDBRANCH   4   5
ENDBRANCH   2   4
BRANCH   1  10
ATOM     10  C   UNL     1      -7.134  36.479  43.644  1.00  0.00     0.111 C 
BRANCH  10  11
ATOM     11  C   UNL     1      -5.767  35.909  43.878  1.00  0.00     0.163 C 
ATOM     12  O   UNL     1      -5.419  35.621  45.055  1.00  0.00    -0.294 OA
BRANCH  11  13
ATOM     13  C   UNL     1      -4.819  35.724  42.751  1.00  0.00    -0.002 C 
ATOM     14  C   UNL     1      -4.478  34.480  42.302  1.00  0.00    -0.069 C 
ATOM     15  C   UNL     1      -5.146  33.241  42.853  1.00  0.00     0.039 C 
ATOM     16  C   UNL     1      -3.432  34.284  41.228  1.00  0.00     0.039 C 
BRANCH  13  17
ATOM     17  C   UNL     1      -4.245  36.990  42.149  1.00  0.00     0.066 CG0
ATOM     18  G   UNL     1      -3.217  37.635  43.058  1.00  0.00     0.000 G0
ENDBRANCH  13  17
ENDBRANCH  11  13
ENDBRANCH  10  11
ENDBRANCH   1  10
TORSDOF 0
ENDMDL
MODEL 9
REMARK VINA RESULT:    -2.844      1.832      3.693
REMARK INTER + INTRA:          -3.904
REMARK INTER:                  -4.172
REMARK INTRA:                   0.268
REMARK UNBOUND:                 0.104
REMARK SMILES CC1=CCC(=C(C)C)C(=O)CC(C)=CCC1
REMARK SMILES IDX 12 1 14 2 13 3 15 4 16 5 2 6 1 7 3 8 11 10 9 11 10 12 5 13
REMARK SMILES IDX 6 14 7 15 8 16 4 17
REMARK H PARENT
REMARK Flexibility Score: 60.00
ROOT
ATOM      1  C   UNL     1      -3.114  37.503  40.917  1.00  0.00    -0.070 C 
ATOM      2  C   UNL     1      -3.026  36.174  40.622  1.00  0.00    -0.027 C 
ATOM      3  C   UNL     1      -1.880  38.335  40.662  1.00  0.00     0.039 C 
ENDROOT
BRANCH   2   4
ATOM      4  C   UNL     1      -4.023  35.034  40.795  1.00  0.00     0.032 C 
BRANCH   4   5
ATOM      5  C   UNL     1      -3.791  34.067  41.962  1.00  0.00     0.034 C 
BRANCH   5   6
ATOM      6  C   UNL     1      -3.571  34.656  43.363  1.00  0.00    -0.077 C 
ATOM      7  C   UNL     1      -2.307  34.208  44.063  1.00  0.00     0.039 C 
ATOM      8  C   UNL     1      -4.395  35.462  44.096  1.00  0.00    -0.023 CG0
ATOM      9  G   UNL     1      -5.751  36.057  43.768  1.00  0.00     0.000 G0
ENDBRANCH   5   6
ENDBRANCH   4   5
ENDBRANCH   2   4
BRANCH   1  10
ATOM     10  C   UNL     1      -4.328  38.236  41.468  1.00  0.00     0.111 C 
BRANCH  10  11
ATOM     11  C   UNL     1      -4.440  38.088  42.956  1.00  0.00     0.163 C 
ATOM     12  O   UNL     1      -3.447  38.381  43.675  1.00  0.00    -0.294 OA
BRANCH  11  13
ATOM     13  C   UNL     1      -5.684  37.563  43.574  1.00  0.00    -0.002 C 
ATOM     14  C   UNL     1      -6.693  38.397  43.963  1.00  0.00    -0.069 C 
ATOM     15  C   UNL     1      -6.640  39.879  43.668  1.00  0.00     0.039 C 
ATOM     16  C   UNL     1      -7.913  37.879  44.691  1.00  0.00     0.039 C 
BRANCH  13  17
ATOM     17  C   UNL     1      -5.753  36.062  43.761  1.00  0.00     0.066 CG0
ATOM     18  G   UNL     1      -4.396  35.468  44.089  1.00  0.00     0.000 G0
ENDBRANCH  13  17
ENDBRANCH  11  13
ENDBRANCH  10  11
ENDBRANCH   1  10
TORSDOF 0
ENDMDL
