MODEL 1
REMARK VINA RESULT:    -5.724      0.000      0.000
REMARK INTER + INTRA:         -11.872
REMARK INTER:                 -10.409
REMARK INTRA:                  -1.463
REMARK UNBOUND:                -1.463
REMARK SMILES CCCCCCCCCCCCCCCC(=O)[O-]
REMARK SMILES IDX 9 1 10 2 11 3 12 4 13 5 14 6 15 7 16 8 17 9 18 10 8 11 7 12
REMARK SMILES IDX 6 13 5 14 4 15 3 16 2 17 1 18
REMARK H PARENT
REMARK Flexibility Score: inf
ROOT
ATOM      1  C   UNL     1     136.272 134.548 133.466  1.00  0.00     0.000 C 
ENDROOT
BRANCH   1   2
ATOM      2  C   UNL     1     135.645 133.280 132.855  1.00  0.00     0.000 C 
BRANCH   2   3
ATOM      3  C   UNL     1     134.680 132.522 133.786  1.00  0.00     0.000 C 
BRANCH   3   4
ATOM      4  C   UNL     1     134.272 131.118 133.301  1.00  0.00     0.000 C 
BRANCH   4   5
ATOM      5  C   UNL     1     135.374 130.052 133.483  1.00  0.00     0.000 C 
BRANCH   5   6
ATOM      6  C   UNL     1     136.088 129.714 132.163  1.00  0.00     0.006 C 
BRANCH   6   7
ATOM      7  C   UNL     1     135.259 130.116 130.935  1.00  0.00     0.053 C 
BRANCH   7   8
ATOM      8  C   UNL     1     136.126 130.583 129.806  1.00  0.00     0.041 C 
ATOM      9  O   UNL     1     136.379 131.809 129.668  1.00  0.00    -0.550 OA
ATOM     10  O   UNL     1     136.628 129.669 128.888  1.00  0.00    -0.550 OA
ENDBRANCH   7   8
ENDBRANCH   6   7
ENDBRANCH   5   6
ENDBRANCH   4   5
ENDBRANCH   3   4
ENDBRANCH   2   3
ENDBRANCH   1   2
BRANCH   1  11
ATOM     11  C   UNL     1     135.457 135.819 133.176  1.00  0.00     0.000 C 
BRANCH  11  12
ATOM     12  C   UNL     1     134.282 135.565 132.214  1.00  0.00    -0.000 C 
BRANCH  12  13
ATOM     13  C   UNL     1     132.977 136.304 132.576  1.00  0.00    -0.000 C 
BRANCH  13  14
ATOM     14  C   UNL     1     131.919 135.444 133.295  1.00  0.00    -0.000 C 
BRANCH  14  15
ATOM     15  C   UNL     1     131.678 134.053 132.677  1.00  0.00    -0.000 C 
BRANCH  15  16
ATOM     16  C   UNL     1     130.968 133.047 133.601  1.00  0.00    -0.000 C 
BRANCH  16  17
ATOM     17  C   UNL     1     130.757 131.677 132.942  1.00  0.00    -0.003 C 
ATOM     18  C   UNL     1     129.306 131.224 133.066  1.00  0.00     0.004 C 
ENDBRANCH  16  17
ENDBRANCH  15  16
ENDBRANCH  14  15
ENDBRANCH  13  14
ENDBRANCH  12  13
ENDBRANCH  11  12
ENDBRANCH   1  11
TORSDOF 14
ENDMDL
MODEL 2
REMARK VINA RESULT:    -5.671      2.405      4.614
REMARK INTER + INTRA:         -11.775
REMARK INTER:                 -10.132
REMARK INTRA:                  -1.644
REMARK UNBOUND:                -1.463
REMARK SMILES CCCCCCCCCCCCCCCC(=O)[O-]
REMARK SMILES IDX 9 1 10 2 11 3 12 4 13 5 14 6 15 7 16 8 17 9 18 10 8 11 7 12
REMARK SMILES IDX 6 13 5 14 4 15 3 16 2 17 1 18
REMARK H PARENT
REMARK Flexibility Score: inf
ROOT
ATOM      1  C   UNL     1     135.492 131.996 132.489  1.00  0.00     0.000 C 
ENDROOT
BRANCH   1   2
ATOM      2  C   UNL     1     135.568 133.011 133.645  1.00  0.00     0.000 C 
BRANCH   2   3
ATOM      3  C   UNL     1     136.445 134.247 133.365  1.00  0.00     0.000 C 
BRANCH   3   4
ATOM      4  C   UNL     1     135.679 135.497 132.890  1.00  0.00     0.000 C 
BRANCH   4   5
ATOM      5  C   UNL     1     135.205 135.416 131.423  1.00  0.00     0.000 C 
BRANCH   5   6
ATOM      6  C   UNL     1     136.321 134.960 130.468  1.00  0.00     0.006 C 
BRANCH   6   7
ATOM      7  C   UNL     1     137.450 135.994 130.359  1.00  0.00     0.053 C 
BRANCH   7   8
ATOM      8  C   UNL     1     138.353 135.713 129.197  1.00  0.00     0.041 C 
ATOM      9  O   UNL     1     138.844 136.663 128.532  1.00  0.00    -0.550 OA
ATOM     10  O   UNL     1     138.626 134.401 128.828  1.00  0.00    -0.550 OA
ENDBRANCH   7   8
ENDBRANCH   6   7
ENDBRANCH   5   6
ENDBRANCH   4   5
ENDBRANCH   3   4
ENDBRANCH   2   3
ENDBRANCH   1   2
BRANCH   1  11
ATOM     11  C   UNL     1     134.050 131.581 132.151  1.00  0.00     0.000 C 
BRANCH  11  12
ATOM     12  C   UNL     1     133.127 131.578 133.384  1.00  0.00    -0.000 C 
BRANCH  12  13
ATOM     13  C   UNL     1     131.627 131.748 133.070  1.00  0.00    -0.000 C 
BRANCH  13  14
ATOM     14  C   UNL     1     131.028 133.112 133.466  1.00  0.00    -0.000 C 
BRANCH  14  15
ATOM     15  C   UNL     1     132.052 134.253 133.627  1.00  0.00    -0.000 C 
BRANCH  15  16
ATOM     16  C   UNL     1     131.771 135.502 132.772  1.00  0.00    -0.000 C 
BRANCH  16  17
ATOM     17  C   UNL     1     132.178 136.807 133.471  1.00  0.00    -0.003 C 
ATOM     18  C   UNL     1     131.248 137.952 133.082  1.00  0.00     0.004 C 
ENDBRANCH  16  17
ENDBRANCH  15  16
ENDBRANCH  14  15
ENDBRANCH  13  14
ENDBRANCH  12  13
ENDBRANCH  11  12
ENDBRANCH   1  11
TORSDOF 14
ENDMDL
MODEL 3
REMARK VINA RESULT:    -5.625      2.047      5.555
REMARK INTER + INTRA:         -11.691
REMARK INTER:                  -9.861
REMARK INTRA:                  -1.830
REMARK UNBOUND:                -1.463
REMARK SMILES CCCCCCCCCCCCCCCC(=O)[O-]
REMARK SMILES IDX 9 1 10 2 11 3 12 4 13 5 14 6 15 7 16 8 17 9 18 10 8 11 7 12
REMARK SMILES IDX 6 13 5 14 4 15 3 16 2 17 1 18
REMARK H PARENT
REMARK Flexibility Score: inf
ROOT
ATOM      1  C   UNL     1     131.316 133.344 133.701  1.00  0.00     0.000 C 
ENDROOT
BRANCH   1   2
ATOM      2  C   UNL     1     131.517 134.489 132.690  1.00  0.00     0.000 C 
BRANCH   2   3
ATOM      3  C   UNL     1     131.553 135.899 133.308  1.00  0.00     0.000 C 
BRANCH   3   4
ATOM      4  C   UNL     1     132.960 136.507 133.468  1.00  0.00     0.000 C 
BRANCH   4   5
ATOM      5  C   UNL     1     134.064 135.726 132.722  1.00  0.00     0.000 C 
BRANCH   5   6
ATOM      6  C   UNL     1     135.074 135.074 133.681  1.00  0.00     0.006 C 
BRANCH   6   7
ATOM      7  C   UNL     1     136.300 134.519 132.943  1.00  0.00     0.053 C 
BRANCH   7   8
ATOM      8  C   UNL     1     137.142 135.613 132.360  1.00  0.00     0.041 C 
ATOM      9  O   UNL     1     137.815 136.363 133.113  1.00  0.00    -0.550 OA
ATOM     10  O   UNL     1     137.158 135.823 130.987  1.00  0.00    -0.550 OA
ENDBRANCH   7   8
ENDBRANCH   6   7
ENDBRANCH   5   6
ENDBRANCH   4   5
ENDBRANCH   3   4
ENDBRANCH   2   3
ENDBRANCH   1   2
BRANCH   1  11
ATOM     11  C   UNL     1     131.296 131.957 133.038  1.00  0.00     0.000 C 
BRANCH  11  12
ATOM     12  C   UNL     1     132.691 131.499 132.574  1.00  0.00    -0.000 C 
BRANCH  12  13
ATOM     13  C   UNL     1     133.813 131.684 133.615  1.00  0.00    -0.000 C 
BRANCH  13  14
ATOM     14  C   UNL     1     134.808 130.511 133.718  1.00  0.00    -0.000 C 
BRANCH  14  15
ATOM     15  C   UNL     1     135.998 130.575 132.740  1.00  0.00    -0.000 C 
BRANCH  15  16
ATOM     16  C   UNL     1     135.893 129.632 131.529  1.00  0.00    -0.000 C 
BRANCH  16  17
ATOM     17  C   UNL     1     135.444 130.352 130.249  1.00  0.00    -0.003 C 
ATOM     18  C   UNL     1     135.666 131.857 130.357  1.00  0.00     0.004 C 
ENDBRANCH  16  17
ENDBRANCH  15  16
ENDBRANCH  14  15
ENDBRANCH  13  14
ENDBRANCH  12  13
ENDBRANCH  11  12
ENDBRANCH   1  11
TORSDOF 14
ENDMDL
MODEL 4
REMARK VINA RESULT:    -5.575      3.247      5.438
REMARK INTER + INTRA:         -11.601
REMARK INTER:                  -9.983
REMARK INTRA:                  -1.617
REMARK UNBOUND:                -1.463
REMARK SMILES CCCCCCCCCCCCCCCC(=O)[O-]
REMARK SMILES IDX 9 1 10 2 11 3 12 4 13 5 14 6 15 7 16 8 17 9 18 10 8 11 7 12
REMARK SMILES IDX 6 13 5 14 4 15 3 16 2 17 1 18
REMARK H PARENT
REMARK Flexibility Score: inf
ROOT
ATOM      1  C   UNL     1     133.063 131.756 133.138  1.00  0.00     0.000 C 
ENDROOT
BRANCH   1   2
ATOM      2  C   UNL     1     132.259 132.906 133.773  1.00  0.00     0.000 C 
BRANCH   2   3
ATOM      3  C   UNL     1     130.749 132.886 133.468  1.00  0.00     0.000 C 
BRANCH   3   4
ATOM      4  C   UNL     1     130.176 131.505 133.095  1.00  0.00     0.000 C 
BRANCH   4   5
ATOM      5  C   UNL     1     129.481 131.472 131.717  1.00  0.00     0.000 C 
BRANCH   5   6
ATOM      6  C   UNL     1     130.473 131.644 130.554  1.00  0.00     0.006 C 
BRANCH   6   7
ATOM      7  C   UNL     1     129.968 130.990 129.260  1.00  0.00     0.053 C 
BRANCH   7   8
ATOM      8  C   UNL     1     128.808 131.736 128.674  1.00  0.00     0.041 C 
ATOM      9  O   UNL     1     127.793 131.111 128.269  1.00  0.00    -0.550 OA
ATOM     10  O   UNL     1     128.861 133.119 128.548  1.00  0.00    -0.550 OA
ENDBRANCH   7   8
ENDBRANCH   6   7
ENDBRANCH   5   6
ENDBRANCH   4   5
ENDBRANCH   3   4
ENDBRANCH   2   3
ENDBRANCH   1   2
BRANCH   1  11
ATOM     11  C   UNL     1     134.465 131.596 133.749  1.00  0.00     0.000 C 
BRANCH  11  12
ATOM     12  C   UNL     1     135.559 132.292 132.920  1.00  0.00    -0.000 C 
BRANCH  12  13
ATOM     13  C   UNL     1     135.958 133.695 133.421  1.00  0.00    -0.000 C 
BRANCH  13  14
ATOM     14  C   UNL     1     135.866 134.815 132.366  1.00  0.00    -0.000 C 
BRANCH  14  15
ATOM     15  C   UNL     1     134.482 135.482 132.241  1.00  0.00    -0.000 C 
BRANCH  15  16
ATOM     16  C   UNL     1     133.959 136.138 133.531  1.00  0.00    -0.000 C 
BRANCH  16  17
ATOM     17  C   UNL     1     132.511 136.634 133.404  1.00  0.00    -0.003 C 
ATOM     18  C   UNL     1     131.924 136.275 132.043  1.00  0.00     0.004 C 
ENDBRANCH  16  17
ENDBRANCH  15  16
ENDBRANCH  14  15
ENDBRANCH  13  14
ENDBRANCH  12  13
ENDBRANCH  11  12
ENDBRANCH   1  11
TORSDOF 14
ENDMDL
MODEL 5
REMARK VINA RESULT:    -5.475      3.339      5.354
REMARK INTER + INTRA:         -11.419
REMARK INTER:                 -10.027
REMARK INTRA:                  -1.392
REMARK UNBOUND:                -1.463
REMARK SMILES CCCCCCCCCCCCCCCC(=O)[O-]
REMARK SMILES IDX 9 1 10 2 11 3 12 4 13 5 14 6 15 7 16 8 17 9 18 10 8 11 7 12
REMARK SMILES IDX 6 13 5 14 4 15 3 16 2 17 1 18
REMARK H PARENT
REMARK Flexibility Score: inf
ROOT
ATOM      1  C   UNL     1     131.540 135.175 133.112  1.00  0.00     0.000 C 
ENDROOT
BRANCH   1   2
ATOM      2  C   UNL     1     131.840 133.770 133.668  1.00  0.00     0.000 C 
BRANCH   2   3
ATOM      3  C   UNL     1     130.684 132.760 133.533  1.00  0.00     0.000 C 
BRANCH   3   4
ATOM      4  C   UNL     1     130.868 131.700 132.429  1.00  0.00     0.000 C 
BRANCH   4   5
ATOM      5  C   UNL     1     130.665 132.248 131.000  1.00  0.00     0.000 C 
BRANCH   5   6
ATOM      6  C   UNL     1     129.892 131.270 130.099  1.00  0.00     0.006 C 
BRANCH   6   7
ATOM      7  C   UNL     1     128.771 131.966 129.315  1.00  0.00     0.053 C 
BRANCH   7   8
ATOM      8  C   UNL     1     128.564 131.344 127.967  1.00  0.00     0.041 C 
ATOM      9  O   UNL     1     128.440 132.069 126.947  1.00  0.00    -0.550 OA
ATOM     10  O   UNL     1     128.476 129.962 127.845  1.00  0.00    -0.550 OA
ENDBRANCH   7   8
ENDBRANCH   6   7
ENDBRANCH   5   6
ENDBRANCH   4   5
ENDBRANCH   3   4
ENDBRANCH   2   3
ENDBRANCH   1   2
BRANCH   1  11
ATOM     11  C   UNL     1     132.793 136.062 133.022  1.00  0.00     0.000 C 
BRANCH  11  12
ATOM     12  C   UNL     1     133.993 135.477 133.788  1.00  0.00    -0.000 C 
BRANCH  12  13
ATOM     13  C   UNL     1     135.363 135.703 133.118  1.00  0.00    -0.000 C 
BRANCH  13  14
ATOM     14  C   UNL     1     136.400 134.588 133.358  1.00  0.00    -0.000 C 
BRANCH  14  15
ATOM     15  C   UNL     1     135.820 133.162 133.429  1.00  0.00    -0.000 C 
BRANCH  15  16
ATOM     16  C   UNL     1     135.363 132.580 132.080  1.00  0.00    -0.000 C 
BRANCH  16  17
ATOM     17  C   UNL     1     134.484 131.331 132.235  1.00  0.00    -0.003 C 
ATOM     18  C   UNL     1     134.861 130.545 133.487  1.00  0.00     0.004 C 
ENDBRANCH  16  17
ENDBRANCH  15  16
ENDBRANCH  14  15
ENDBRANCH  13  14
ENDBRANCH  12  13
ENDBRANCH  11  12
ENDBRANCH   1  11
TORSDOF 14
ENDMDL
MODEL 6
REMARK VINA RESULT:    -5.440      3.786      6.068
REMARK INTER + INTRA:         -11.355
REMARK INTER:                 -10.054
REMARK INTRA:                  -1.301
REMARK UNBOUND:                -1.463
REMARK SMILES CCCCCCCCCCCCCCCC(=O)[O-]
REMARK SMILES IDX 9 1 10 2 11 3 12 4 13 5 14 6 15 7 16 8 17 9 18 10 8 11 7 12
REMARK SMILES IDX 6 13 5 14 4 15 3 16 2 17 1 18
REMARK H PARENT
REMARK Flexibility Score: inf
ROOT
ATOM      1  C   UNL     1     135.113 134.500 133.762  1.00  0.00     0.000 C 
ENDROOT
BRANCH   1   2
ATOM      2  C   UNL     1     134.281 135.618 133.105  1.00  0.00     0.000 C 
BRANCH   2   3
ATOM      3  C   UNL     1     132.902 135.861 133.746  1.00  0.00     0.000 C 
BRANCH   3   4
ATOM      4  C   UNL     1     132.023 136.906 133.031  1.00  0.00     0.000 C 
BRANCH   4   5
ATOM      5  C   UNL     1     131.769 136.591 131.541  1.00  0.00     0.000 C 
BRANCH   5   6
ATOM      6  C   UNL     1     131.689 137.860 130.677  1.00  0.00     0.006 C 
BRANCH   6   7
ATOM      7  C   UNL     1     131.503 137.537 129.188  1.00  0.00     0.053 C 
BRANCH   7   8
ATOM      8  C   UNL     1     130.357 138.296 128.591  1.00  0.00     0.041 C 
ATOM      9  O   UNL     1     129.174 138.011 128.911  1.00  0.00    -0.550 OA
ATOM     10  O   UNL     1     130.595 139.297 127.658  1.00  0.00    -0.550 OA
ENDBRANCH   7   8
ENDBRANCH   6   7
ENDBRANCH   5   6
ENDBRANCH   4   5
ENDBRANCH   3   4
ENDBRANCH   2   3
ENDBRANCH   1   2
BRANCH   1  11
ATOM     11  C   UNL     1     135.878 133.644 132.739  1.00  0.00     0.000 C 
BRANCH  11  12
ATOM     12  C   UNL     1     135.314 132.217 132.618  1.00  0.00    -0.000 C 
BRANCH  12  13
ATOM     13  C   UNL     1     134.363 131.796 133.756  1.00  0.00    -0.000 C 
BRANCH  13  14
ATOM     14  C   UNL     1     132.950 131.374 133.305  1.00  0.00    -0.000 C 
BRANCH  14  15
ATOM     15  C   UNL     1     132.055 132.524 132.801  1.00  0.00    -0.000 C 
BRANCH  15  16
ATOM     16  C   UNL     1     130.666 132.599 133.459  1.00  0.00    -0.000 C 
BRANCH  16  17
ATOM     17  C   UNL     1     129.717 131.492 132.977  1.00  0.00    -0.003 C 
ATOM     18  C   UNL     1     129.594 131.497 131.456  1.00  0.00     0.004 C 
ENDBRANCH  16  17
ENDBRANCH  15  16
ENDBRANCH  14  15
ENDBRANCH  13  14
ENDBRANCH  12  13
ENDBRANCH  11  12
ENDBRANCH   1  11
TORSDOF 14
ENDMDL
MODEL 7
REMARK VINA RESULT:    -5.422      3.386      6.816
REMARK INTER + INTRA:         -11.323
REMARK INTER:                  -9.785
REMARK INTRA:                  -1.538
REMARK UNBOUND:                -1.463
REMARK SMILES CCCCCCCCCCCCCCCC(=O)[O-]
REMARK SMILES IDX 9 1 10 2 11 3 12 4 13 5 14 6 15 7 16 8 17 9 18 10 8 11 7 12
REMARK SMILES IDX 6 13 5 14 4 15 3 16 2 17 1 18
REMARK H PARENT
REMARK Flexibility Score: inf
ROOT
ATOM      1  C   UNL     1     131.469 133.618 132.008  1.00  0.00     0.000 C 
ENDROOT
BRANCH   1   2
ATOM      2  C   UNL     1     131.561 134.414 133.324  1.00  0.00     0.000 C 
BRANCH   2   3
ATOM      3  C   UNL     1     132.344 135.737 133.226  1.00  0.00     0.000 C 
BRANCH   3   4
ATOM      4  C   UNL     1     131.476 137.010 133.205  1.00  0.00     0.000 C 
BRANCH   4   5
ATOM      5  C   UNL     1     131.384 137.677 131.815  1.00  0.00     0.000 C 
BRANCH   5   6
ATOM      6  C   UNL     1     132.267 136.978 130.768  1.00  0.00     0.006 C 
BRANCH   6   7
ATOM      7  C   UNL     1     132.047 137.538 129.356  1.00  0.00     0.053 C 
BRANCH   7   8
ATOM      8  C   UNL     1     130.631 137.358 128.899  1.00  0.00     0.041 C 
ATOM      9  O   UNL     1     130.132 136.205 128.824  1.00  0.00    -0.550 OA
ATOM     10  O   UNL     1     129.874 138.462 128.526  1.00  0.00    -0.550 OA
ENDBRANCH   7   8
ENDBRANCH   6   7
ENDBRANCH   5   6
ENDBRANCH   4   5
ENDBRANCH   3   4
ENDBRANCH   2   3
ENDBRANCH   1   2
BRANCH   1  11
ATOM     11  C   UNL     1     132.451 132.436 131.953  1.00  0.00     0.000 C 
BRANCH  11  12
ATOM     12  C   UNL     1     132.626 131.744 133.317  1.00  0.00    -0.000 C 
BRANCH  12  13
ATOM     13  C   UNL     1     134.051 131.234 133.608  1.00  0.00    -0.000 C 
BRANCH  13  14
ATOM     14  C   UNL     1     135.121 131.669 132.586  1.00  0.00    -0.000 C 
BRANCH  14  15
ATOM     15  C   UNL     1     136.121 132.724 133.097  1.00  0.00    -0.000 C 
BRANCH  15  16
ATOM     16  C   UNL     1     135.480 133.998 133.677  1.00  0.00    -0.000 C 
BRANCH  16  17
ATOM     17  C   UNL     1     135.908 135.272 132.935  1.00  0.00    -0.003 C 
ATOM     18  C   UNL     1     137.343 135.656 133.283  1.00  0.00     0.004 C 
ENDBRANCH  16  17
ENDBRANCH  15  16
ENDBRANCH  14  15
ENDBRANCH  13  14
ENDBRANCH  12  13
ENDBRANCH  11  12
ENDBRANCH   1  11
TORSDOF 14
ENDMDL
MODEL 8
REMARK VINA RESULT:    -5.418      3.170      4.931
REMARK INTER + INTRA:         -11.315
REMARK INTER:                  -9.832
REMARK INTRA:                  -1.483
REMARK UNBOUND:                -1.463
REMARK SMILES CCCCCCCCCCCCCCCC(=O)[O-]
REMARK SMILES IDX 9 1 10 2 11 3 12 4 13 5 14 6 15 7 16 8 17 9 18 10 8 11 7 12
REMARK SMILES IDX 6 13 5 14 4 15 3 16 2 17 1 18
REMARK H PARENT
REMARK Flexibility Score: inf
ROOT
ATOM      1  C   UNL     1     134.059 135.986 132.763  1.00  0.00     0.000 C 
ENDROOT
BRANCH   1   2
ATOM      2  C   UNL     1     135.391 135.486 133.354  1.00  0.00     0.000 C 
BRANCH   2   3
ATOM      3  C   UNL     1     136.449 135.080 132.311  1.00  0.00     0.000 C 
BRANCH   3   4
ATOM      4  C   UNL     1     135.888 134.449 131.021  1.00  0.00     0.000 C 
BRANCH   4   5
ATOM      5  C   UNL     1     136.456 135.070 129.727  1.00  0.00     0.000 C 
BRANCH   5   6
ATOM      6  C   UNL     1     137.748 135.867 129.974  1.00  0.00     0.006 C 
BRANCH   6   7
ATOM      7  C   UNL     1     138.929 135.323 129.159  1.00  0.00     0.053 C 
BRANCH   7   8
ATOM      8  C   UNL     1     139.075 136.033 127.847  1.00  0.00     0.041 C 
ATOM      9  O   UNL     1     139.388 135.390 126.811  1.00  0.00    -0.550 OA
ATOM     10  O   UNL     1     138.897 137.409 127.776  1.00  0.00    -0.550 OA
ENDBRANCH   7   8
ENDBRANCH   6   7
ENDBRANCH   5   6
ENDBRANCH   4   5
ENDBRANCH   3   4
ENDBRANCH   2   3
ENDBRANCH   1   2
BRANCH   1  11
ATOM     11  C   UNL     1     132.855 135.704 133.678  1.00  0.00     0.000 C 
BRANCH  11  12
ATOM     12  C   UNL     1     131.805 134.794 133.017  1.00  0.00    -0.000 C 
BRANCH  12  13
ATOM     13  C   UNL     1     131.637 133.411 133.677  1.00  0.00    -0.000 C 
BRANCH  13  14
ATOM     14  C   UNL     1     131.983 132.210 132.775  1.00  0.00    -0.000 C 
BRANCH  14  15
ATOM     15  C   UNL     1     133.092 131.285 133.314  1.00  0.00    -0.000 C 
BRANCH  15  16
ATOM     16  C   UNL     1     134.398 131.999 133.706  1.00  0.00    -0.000 C 
BRANCH  16  17
ATOM     17  C   UNL     1     135.632 131.413 133.004  1.00  0.00    -0.003 C 
ATOM     18  C   UNL     1     135.712 129.902 133.202  1.00  0.00     0.004 C 
ENDBRANCH  16  17
ENDBRANCH  15  16
ENDBRANCH  14  15
ENDBRANCH  13  14
ENDBRANCH  12  13
ENDBRANCH  11  12
ENDBRANCH   1  11
TORSDOF 14
ENDMDL
MODEL 9
REMARK VINA RESULT:    -5.408      1.319      3.727
REMARK INTER + INTRA:         -11.296
REMARK INTER:                  -9.356
REMARK INTRA:                  -1.940
REMARK UNBOUND:                -1.463
REMARK SMILES CCCCCCCCCCCCCCCC(=O)[O-]
REMARK SMILES IDX 9 1 10 2 11 3 12 4 13 5 14 6 15 7 16 8 17 9 18 10 8 11 7 12
REMARK SMILES IDX 6 13 5 14 4 15 3 16 2 17 1 18
REMARK H PARENT
REMARK Flexibility Score: inf
ROOT
ATOM      1  C   UNL     1     132.128 131.685 133.274  1.00  0.00     0.000 C 
ENDROOT
BRANCH   1   2
ATOM      2  C   UNL     1     133.586 132.036 133.628  1.00  0.00     0.000 C 
BRANCH   2   3
ATOM      3  C   UNL     1     134.560 130.842 133.617  1.00  0.00     0.000 C 
BRANCH   3   4
ATOM      4  C   UNL     1     135.777 131.000 132.685  1.00  0.00     0.000 C 
BRANCH   4   5
ATOM      5  C   UNL     1     135.474 131.793 131.395  1.00  0.00     0.000 C 
BRANCH   5   6
ATOM      6  C   UNL     1     134.852 130.915 130.297  1.00  0.00     0.006 C 
BRANCH   6   7
ATOM      7  C   UNL     1     135.581 129.573 130.145  1.00  0.00     0.053 C 
BRANCH   7   8
ATOM      8  C   UNL     1     136.071 129.360 128.745  1.00  0.00     0.041 C 
ATOM      9  O   UNL     1     136.473 128.224 128.380  1.00  0.00    -0.550 OA
ATOM     10  O   UNL     1     136.114 130.424 127.852  1.00  0.00    -0.550 OA
ENDBRANCH   7   8
ENDBRANCH   6   7
ENDBRANCH   5   6
ENDBRANCH   4   5
ENDBRANCH   3   4
ENDBRANCH   2   3
ENDBRANCH   1   2
BRANCH   1  11
ATOM     11  C   UNL     1     131.264 132.927 133.001  1.00  0.00     0.000 C 
BRANCH  11  12
ATOM     12  C   UNL     1     131.746 133.732 131.780  1.00  0.00    -0.000 C 
BRANCH  12  13
ATOM     13  C   UNL     1     131.878 135.250 132.016  1.00  0.00    -0.000 C 
BRANCH  13  14
ATOM     14  C   UNL     1     132.462 135.649 133.386  1.00  0.00    -0.000 C 
BRANCH  14  15
ATOM     15  C   UNL     1     133.986 135.882 133.404  1.00  0.00    -0.000 C 
BRANCH  15  16
ATOM     16  C   UNL     1     134.726 135.426 132.134  1.00  0.00    -0.000 C 
BRANCH  16  17
ATOM     17  C   UNL     1     136.248 135.355 132.324  1.00  0.00    -0.003 C 
ATOM     18  C   UNL     1     136.611 134.556 133.572  1.00  0.00     0.004 C 
ENDBRANCH  16  17
ENDBRANCH  15  16
ENDBRANCH  14  15
ENDBRANCH  13  14
ENDBRANCH  12  13
ENDBRANCH  11  12
ENDBRANCH   1  11
TORSDOF 14
ENDMDL
