MODEL 1
REMARK VINA RESULT:    -5.171      0.000      0.000
REMARK INTER + INTRA:         -10.550
REMARK INTER:                  -9.403
REMARK INTRA:                  -1.147
REMARK UNBOUND:                -1.147
REMARK SMILES CCCCCCCCCCCCCCCC(=O)[O-]
REMARK SMILES IDX 9 1 10 2 11 3 12 4 13 5 14 6 15 7 16 8 17 9 18 10 8 11 7 12
REMARK SMILES IDX 6 13 5 14 4 15 3 16 2 17 1 18
REMARK H PARENT
REMARK Flexibility Score: inf
ROOT
ATOM      1  C   UNL     1      46.470  50.784  11.620  1.00  0.00     0.000 C 
ENDROOT
BRANCH   1   2
ATOM      2  C   UNL     1      45.007  50.890  11.154  1.00  0.00     0.000 C 
BRANCH   2   3
ATOM      3  C   UNL     1      44.025  50.235  12.139  1.00  0.00     0.000 C 
BRANCH   3   4
ATOM      4  C   UNL     1      43.414  48.936  11.593  1.00  0.00     0.000 C 
BRANCH   4   5
ATOM      5  C   UNL     1      42.015  48.700  12.175  1.00  0.00     0.000 C 
BRANCH   5   6
ATOM      6  C   UNL     1      41.642  49.803  13.177  1.00  0.00     0.006 C 
BRANCH   6   7
ATOM      7  C   UNL     1      40.225  50.344  12.946  1.00  0.00     0.053 C 
BRANCH   7   8
ATOM      8  C   UNL     1      39.776  51.227  14.070  1.00  0.00     0.041 C 
ATOM      9  O   UNL     1      38.737  51.928  13.949  1.00  0.00    -0.550 OA
ATOM     10  O   UNL     1      40.486  51.248  15.265  1.00  0.00    -0.550 OA
ENDBRANCH   7   8
ENDBRANCH   6   7
ENDBRANCH   5   6
ENDBRANCH   4   5
ENDBRANCH   3   4
ENDBRANCH   2   3
ENDBRANCH   1   2
BRANCH   1  11
ATOM     11  C   UNL     1      47.397  50.222  10.529  1.00  0.00     0.000 C 
BRANCH  11  12
ATOM     12  C   UNL     1      47.709  48.730  10.724  1.00  0.00    -0.000 C 
BRANCH  12  13
ATOM     13  C   UNL     1      46.642  47.855  10.049  1.00  0.00    -0.000 C 
BRANCH  13  14
ATOM     14  C   UNL     1      46.449  46.503  10.754  1.00  0.00    -0.000 C 
BRANCH  14  15
ATOM     15  C   UNL     1      45.137  45.810  10.357  1.00  0.00    -0.000 C 
BRANCH  15  16
ATOM     16  C   UNL     1      45.219  45.260   8.925  1.00  0.00    -0.000 C 
BRANCH  16  17
ATOM     17  C   UNL     1      46.386  44.279   8.734  1.00  0.00    -0.003 C 
ATOM     18  C   UNL     1      47.542  44.882   7.938  1.00  0.00     0.004 C 
ENDBRANCH  16  17
ENDBRANCH  15  16
ENDBRANCH  14  15
ENDBRANCH  13  14
ENDBRANCH  12  13
ENDBRANCH  11  12
ENDBRANCH   1  11
TORSDOF 14
ENDMDL
MODEL 2
REMARK VINA RESULT:    -5.157      3.321      7.093
REMARK INTER + INTRA:         -10.524
REMARK INTER:                  -8.913
REMARK INTRA:                  -1.611
REMARK UNBOUND:                -1.147
REMARK SMILES CCCCCCCCCCCCCCCC(=O)[O-]
REMARK SMILES IDX 9 1 10 2 11 3 12 4 13 5 14 6 15 7 16 8 17 9 18 10 8 11 7 12
REMARK SMILES IDX 6 13 5 14 4 15 3 16 2 17 1 18
REMARK H PARENT
REMARK Flexibility Score: inf
ROOT
ATOM      1  C   UNL     1      44.563  50.364  11.745  1.00  0.00     0.000 C 
ENDROOT
BRANCH   1   2
ATOM      2  C   UNL     1      46.060  50.715  11.682  1.00  0.00     0.000 C 
BRANCH   2   3
ATOM      3  C   UNL     1      46.550  50.953  10.245  1.00  0.00     0.000 C 
BRANCH   3   4
ATOM      4  C   UNL     1      47.232  49.718   9.638  1.00  0.00     0.000 C 
BRANCH   4   5
ATOM      5  C   UNL     1      47.522  48.666  10.715  1.00  0.00     0.000 C 
BRANCH   5   6
ATOM      6  C   UNL     1      46.904  47.310  10.342  1.00  0.00     0.006 C 
BRANCH   6   7
ATOM      7  C   UNL     1      45.909  47.423   9.179  1.00  0.00     0.053 C 
BRANCH   7   8
ATOM      8  C   UNL     1      45.153  46.147   8.967  1.00  0.00     0.041 C 
ATOM      9  O   UNL     1      45.242  45.534   7.872  1.00  0.00    -0.550 OA
ATOM     10  O   UNL     1      44.379  45.617   9.993  1.00  0.00    -0.550 OA
ENDBRANCH   7   8
ENDBRANCH   6   7
ENDBRANCH   5   6
ENDBRANCH   4   5
ENDBRANCH   3   4
ENDBRANCH   2   3
ENDBRANCH   1   2
BRANCH   1  11
ATOM     11  C   UNL     1      43.886  50.415  10.366  1.00  0.00     0.000 C 
BRANCH  11  12
ATOM     12  C   UNL     1      42.852  49.296  10.167  1.00  0.00    -0.000 C 
BRANCH  12  13
ATOM     13  C   UNL     1      42.717  48.445  11.439  1.00  0.00    -0.000 C 
BRANCH  13  14
ATOM     14  C   UNL     1      41.316  48.531  12.066  1.00  0.00    -0.000 C 
BRANCH  14  15
ATOM     15  C   UNL     1      41.165  49.726  13.018  1.00  0.00    -0.000 C 
BRANCH  15  16
ATOM     16  C   UNL     1      39.736  50.289  12.970  1.00  0.00    -0.000 C 
BRANCH  16  17
ATOM     17  C   UNL     1      39.521  51.441  13.962  1.00  0.00    -0.003 C 
ATOM     18  C   UNL     1      40.514  51.416  15.124  1.00  0.00     0.004 C 
ENDBRANCH  16  17
ENDBRANCH  15  16
ENDBRANCH  14  15
ENDBRANCH  13  14
ENDBRANCH  12  13
ENDBRANCH  11  12
ENDBRANCH   1  11
TORSDOF 14
ENDMDL
MODEL 3
REMARK VINA RESULT:    -5.128      3.915      6.310
REMARK INTER + INTRA:         -10.472
REMARK INTER:                  -8.673
REMARK INTRA:                  -1.799
REMARK UNBOUND:                -1.147
REMARK SMILES CCCCCCCCCCCCCCCC(=O)[O-]
REMARK SMILES IDX 9 1 10 2 11 3 12 4 13 5 14 6 15 7 16 8 17 9 18 10 8 11 7 12
REMARK SMILES IDX 6 13 5 14 4 15 3 16 2 17 1 18
REMARK H PARENT
REMARK Flexibility Score: inf
ROOT
ATOM      1  C   UNL     1      44.164  50.248  12.117  1.00  0.00     0.000 C 
ENDROOT
BRANCH   1   2
ATOM      2  C   UNL     1      45.506  50.864  11.684  1.00  0.00     0.000 C 
BRANCH   2   3
ATOM      3  C   UNL     1      46.085  50.194  10.427  1.00  0.00     0.000 C 
BRANCH   3   4
ATOM      4  C   UNL     1      47.448  49.534  10.680  1.00  0.00     0.000 C 
BRANCH   4   5
ATOM      5  C   UNL     1      47.336  48.006  10.630  1.00  0.00     0.000 C 
BRANCH   5   6
ATOM      6  C   UNL     1      46.023  47.571   9.962  1.00  0.00     0.006 C 
BRANCH   6   7
ATOM      7  C   UNL     1      45.610  46.148  10.364  1.00  0.00     0.053 C 
BRANCH   7   8
ATOM      8  C   UNL     1      44.880  45.448   9.259  1.00  0.00     0.041 C 
ATOM      9  O   UNL     1      45.505  44.699   8.463  1.00  0.00    -0.550 OA
ATOM     10  O   UNL     1      43.504  45.595   9.130  1.00  0.00    -0.550 OA
ENDBRANCH   7   8
ENDBRANCH   6   7
ENDBRANCH   5   6
ENDBRANCH   4   5
ENDBRANCH   3   4
ENDBRANCH   2   3
ENDBRANCH   1   2
BRANCH   1  11
ATOM     11  C   UNL     1      43.176  50.105  10.948  1.00  0.00     0.000 C 
BRANCH  11  12
ATOM     12  C   UNL     1      42.622  48.679  10.807  1.00  0.00    -0.000 C 
BRANCH  12  13
ATOM     13  C   UNL     1      42.857  47.872  12.093  1.00  0.00    -0.000 C 
BRANCH  13  14
ATOM     14  C   UNL     1      41.932  46.649  12.205  1.00  0.00    -0.000 C 
BRANCH  14  15
ATOM     15  C   UNL     1      40.447  47.015  12.062  1.00  0.00    -0.000 C 
BRANCH  15  16
ATOM     16  C   UNL     1      39.658  45.862  11.421  1.00  0.00    -0.000 C 
BRANCH  16  17
ATOM     17  C   UNL     1      39.857  45.784   9.900  1.00  0.00    -0.003 C 
ATOM     18  C   UNL     1      38.572  45.431   9.152  1.00  0.00     0.004 C 
ENDBRANCH  16  17
ENDBRANCH  15  16
ENDBRANCH  14  15
ENDBRANCH  13  14
ENDBRANCH  12  13
ENDBRANCH  11  12
ENDBRANCH   1  11
TORSDOF 14
ENDMDL
MODEL 4
REMARK VINA RESULT:    -5.125      3.712      7.239
REMARK INTER + INTRA:         -10.466
REMARK INTER:                  -8.560
REMARK INTRA:                  -1.906
REMARK UNBOUND:                -1.147
REMARK SMILES CCCCCCCCCCCCCCCC(=O)[O-]
REMARK SMILES IDX 9 1 10 2 11 3 12 4 13 5 14 6 15 7 16 8 17 9 18 10 8 11 7 12
REMARK SMILES IDX 6 13 5 14 4 15 3 16 2 17 1 18
REMARK H PARENT
REMARK Flexibility Score: inf
ROOT
ATOM      1  C   UNL     1      43.360  50.441  10.013  1.00  0.00     0.000 C 
ENDROOT
BRANCH   1   2
ATOM      2  C   UNL     1      44.536  51.128   9.296  1.00  0.00     0.000 C 
BRANCH   2   3
ATOM      3  C   UNL     1      45.800  51.196  10.168  1.00  0.00     0.000 C 
BRANCH   3   4
ATOM      4  C   UNL     1      46.983  50.429   9.559  1.00  0.00     0.000 C 
BRANCH   4   5
ATOM      5  C   UNL     1      47.621  49.494  10.593  1.00  0.00     0.000 C 
BRANCH   5   6
ATOM      6  C   UNL     1      46.976  48.100  10.549  1.00  0.00     0.006 C 
BRANCH   6   7
ATOM      7  C   UNL     1      46.581  47.687   9.125  1.00  0.00     0.053 C 
BRANCH   7   8
ATOM      8  C   UNL     1      46.520  46.198   8.975  1.00  0.00     0.041 C 
ATOM      9  O   UNL     1      45.412  45.602   9.021  1.00  0.00    -0.550 OA
ATOM     10  O   UNL     1      47.684  45.472   8.749  1.00  0.00    -0.550 OA
ENDBRANCH   7   8
ENDBRANCH   6   7
ENDBRANCH   5   6
ENDBRANCH   4   5
ENDBRANCH   3   4
ENDBRANCH   2   3
ENDBRANCH   1   2
BRANCH   1  11
ATOM     11  C   UNL     1      43.167  48.983   9.564  1.00  0.00     0.000 C 
BRANCH  11  12
ATOM     12  C   UNL     1      43.042  48.009  10.745  1.00  0.00    -0.000 C 
BRANCH  12  13
ATOM     13  C   UNL     1      43.663  48.607  12.016  1.00  0.00    -0.000 C 
BRANCH  13  14
ATOM     14  C   UNL     1      42.721  48.534  13.229  1.00  0.00    -0.000 C 
BRANCH  14  15
ATOM     15  C   UNL     1      42.065  49.884  13.553  1.00  0.00    -0.000 C 
BRANCH  15  16
ATOM     16  C   UNL     1      40.695  50.006  12.868  1.00  0.00    -0.000 C 
BRANCH  16  17
ATOM     17  C   UNL     1      39.759  50.988  13.589  1.00  0.00    -0.003 C 
ATOM     18  C   UNL     1      40.263  51.374  14.979  1.00  0.00     0.004 C 
ENDBRANCH  16  17
ENDBRANCH  15  16
ENDBRANCH  14  15
ENDBRANCH  13  14
ENDBRANCH  12  13
ENDBRANCH  11  12
ENDBRANCH   1  11
TORSDOF 14
ENDMDL
MODEL 5
REMARK VINA RESULT:    -5.095      1.590      2.970
REMARK INTER + INTRA:         -10.412
REMARK INTER:                  -8.261
REMARK INTRA:                  -2.150
REMARK UNBOUND:                -1.147
REMARK SMILES CCCCCCCCCCCCCCCC(=O)[O-]
REMARK SMILES IDX 9 1 10 2 11 3 12 4 13 5 14 6 15 7 16 8 17 9 18 10 8 11 7 12
REMARK SMILES IDX 6 13 5 14 4 15 3 16 2 17 1 18
REMARK H PARENT
REMARK Flexibility Score: inf
ROOT
ATOM      1  C   UNL     1      42.612  50.264   9.075  1.00  0.00     0.000 C 
ENDROOT
BRANCH   1   2
ATOM      2  C   UNL     1      42.880  48.749   9.062  1.00  0.00     0.000 C 
BRANCH   2   3
ATOM      3  C   UNL     1      42.362  48.047  10.328  1.00  0.00     0.000 C 
BRANCH   3   4
ATOM      4  C   UNL     1      43.444  47.898  11.409  1.00  0.00     0.000 C 
BRANCH   4   5
ATOM      5  C   UNL     1      42.896  48.277  12.789  1.00  0.00     0.000 C 
BRANCH   5   6
ATOM      6  C   UNL     1      42.851  49.802  12.965  1.00  0.00     0.006 C 
BRANCH   6   7
ATOM      7  C   UNL     1      42.178  50.217  14.281  1.00  0.00     0.053 C 
BRANCH   7   8
ATOM      8  C   UNL     1      40.764  50.664  14.065  1.00  0.00     0.041 C 
ATOM      9  O   UNL     1      40.110  50.240  13.077  1.00  0.00    -0.550 OA
ATOM     10  O   UNL     1      40.159  51.523  14.975  1.00  0.00    -0.550 OA
ENDBRANCH   7   8
ENDBRANCH   6   7
ENDBRANCH   5   6
ENDBRANCH   4   5
ENDBRANCH   3   4
ENDBRANCH   2   3
ENDBRANCH   1   2
BRANCH   1  11
ATOM     11  C   UNL     1      43.890  51.091   8.861  1.00  0.00     0.000 C 
BRANCH  11  12
ATOM     12  C   UNL     1      44.585  51.464  10.180  1.00  0.00    -0.000 C 
BRANCH  12  13
ATOM     13  C   UNL     1      46.058  51.030  10.165  1.00  0.00    -0.000 C 
BRANCH  13  14
ATOM     14  C   UNL     1      46.385  49.996  11.254  1.00  0.00    -0.000 C 
BRANCH  14  15
ATOM     15  C   UNL     1      47.226  48.825  10.726  1.00  0.00    -0.000 C 
BRANCH  15  16
ATOM     16  C   UNL     1      46.573  48.197   9.484  1.00  0.00    -0.000 C 
BRANCH  16  17
ATOM     17  C   UNL     1      46.886  46.699   9.345  1.00  0.00    -0.003 C 
ATOM     18  C   UNL     1      46.452  45.887  10.564  1.00  0.00     0.004 C 
ENDBRANCH  16  17
ENDBRANCH  15  16
ENDBRANCH  14  15
ENDBRANCH  13  14
ENDBRANCH  12  13
ENDBRANCH  11  12
ENDBRANCH   1  11
TORSDOF 14
ENDMDL
MODEL 6
REMARK VINA RESULT:    -5.084      1.552      2.473
REMARK INTER + INTRA:         -10.391
REMARK INTER:                  -8.661
REMARK INTRA:                  -1.730
REMARK UNBOUND:                -1.147
REMARK SMILES CCCCCCCCCCCCCCCC(=O)[O-]
REMARK SMILES IDX 9 1 10 2 11 3 12 4 13 5 14 6 15 7 16 8 17 9 18 10 8 11 7 12
REMARK SMILES IDX 6 13 5 14 4 15 3 16 2 17 1 18
REMARK H PARENT
REMARK Flexibility Score: inf
ROOT
ATOM      1  C   UNL     1      46.629  50.645   9.576  1.00  0.00     0.000 C 
ENDROOT
BRANCH   1   2
ATOM      2  C   UNL     1      45.617  51.558  10.291  1.00  0.00     0.000 C 
BRANCH   2   3
ATOM      3  C   UNL     1      44.308  50.830  10.638  1.00  0.00     0.000 C 
BRANCH   3   4
ATOM      4  C   UNL     1      44.288  50.301  12.080  1.00  0.00     0.000 C 
BRANCH   4   5
ATOM      5  C   UNL     1      43.093  49.366  12.304  1.00  0.00     0.000 C 
BRANCH   5   6
ATOM      6  C   UNL     1      42.182  49.895  13.422  1.00  0.00     0.006 C 
BRANCH   6   7
ATOM      7  C   UNL     1      40.746  50.137  12.937  1.00  0.00     0.053 C 
BRANCH   7   8
ATOM      8  C   UNL     1      39.970  50.984  13.898  1.00  0.00     0.041 C 
ATOM      9  O   UNL     1      38.810  51.374  13.604  1.00  0.00    -0.550 OA
ATOM     10  O   UNL     1      40.514  51.311  15.134  1.00  0.00    -0.550 OA
ENDBRANCH   7   8
ENDBRANCH   6   7
ENDBRANCH   5   6
ENDBRANCH   4   5
ENDBRANCH   3   4
ENDBRANCH   2   3
ENDBRANCH   1   2
BRANCH   1  11
ATOM     11  C   UNL     1      47.656  50.032  10.543  1.00  0.00     0.000 C 
BRANCH  11  12
ATOM     12  C   UNL     1      47.505  48.509  10.683  1.00  0.00    -0.000 C 
BRANCH  12  13
ATOM     13  C   UNL     1      46.571  47.949   9.600  1.00  0.00    -0.000 C 
BRANCH  13  14
ATOM     14  C   UNL     1      45.349  47.223  10.186  1.00  0.00    -0.000 C 
BRANCH  14  15
ATOM     15  C   UNL     1      44.094  47.381   9.316  1.00  0.00    -0.000 C 
BRANCH  15  16
ATOM     16  C   UNL     1      43.070  46.277   9.625  1.00  0.00    -0.000 C 
BRANCH  16  17
ATOM     17  C   UNL     1      41.699  46.840  10.031  1.00  0.00    -0.003 C 
ATOM     18  C   UNL     1      40.549  46.234   9.227  1.00  0.00     0.004 C 
ENDBRANCH  16  17
ENDBRANCH  15  16
ENDBRANCH  14  15
ENDBRANCH  13  14
ENDBRANCH  12  13
ENDBRANCH  11  12
ENDBRANCH   1  11
TORSDOF 14
ENDMDL
MODEL 7
REMARK VINA RESULT:    -5.078      1.582      3.971
REMARK INTER + INTRA:         -10.382
REMARK INTER:                  -8.038
REMARK INTRA:                  -2.344
REMARK UNBOUND:                -1.147
REMARK SMILES CCCCCCCCCCCCCCCC(=O)[O-]
REMARK SMILES IDX 9 1 10 2 11 3 12 4 13 5 14 6 15 7 16 8 17 9 18 10 8 11 7 12
REMARK SMILES IDX 6 13 5 14 4 15 3 16 2 17 1 18
REMARK H PARENT
REMARK Flexibility Score: inf
ROOT
ATOM      1  C   UNL     1      46.492  47.681   9.123  1.00  0.00     0.000 C 
ENDROOT
BRANCH   1   2
ATOM      2  C   UNL     1      45.073  47.109   9.288  1.00  0.00     0.000 C 
BRANCH   2   3
ATOM      3  C   UNL     1      44.744  46.759  10.748  1.00  0.00     0.000 C 
BRANCH   3   4
ATOM      4  C   UNL     1      43.251  46.474  10.968  1.00  0.00     0.000 C 
BRANCH   4   5
ATOM      5  C   UNL     1      42.813  46.899  12.375  1.00  0.00     0.000 C 
BRANCH   5   6
ATOM      6  C   UNL     1      41.794  48.047  12.313  1.00  0.00     0.006 C 
BRANCH   6   7
ATOM      7  C   UNL     1      42.028  49.093  13.411  1.00  0.00     0.053 C 
BRANCH   7   8
ATOM      8  C   UNL     1      41.056  50.229  13.313  1.00  0.00     0.041 C 
ATOM      9  O   UNL     1      40.508  50.501  12.212  1.00  0.00    -0.550 OA
ATOM     10  O   UNL     1      40.729  50.966  14.445  1.00  0.00    -0.550 OA
ENDBRANCH   7   8
ENDBRANCH   6   7
ENDBRANCH   5   6
ENDBRANCH   4   5
ENDBRANCH   3   4
ENDBRANCH   2   3
ENDBRANCH   1   2
BRANCH   1  11
ATOM     11  C   UNL     1      47.249  47.776  10.458  1.00  0.00     0.000 C 
BRANCH  11  12
ATOM     12  C   UNL     1      47.818  49.178  10.722  1.00  0.00    -0.000 C 
BRANCH  12  13
ATOM     13  C   UNL     1      47.265  50.192   9.709  1.00  0.00    -0.000 C 
BRANCH  13  14
ATOM     14  C   UNL     1      46.573  51.388  10.382  1.00  0.00    -0.000 C 
BRANCH  14  15
ATOM     15  C   UNL     1      45.876  51.006  11.696  1.00  0.00    -0.000 C 
BRANCH  15  16
ATOM     16  C   UNL     1      44.503  50.373  11.425  1.00  0.00    -0.000 C 
BRANCH  16  17
ATOM     17  C   UNL     1      43.766  51.038  10.252  1.00  0.00    -0.003 C 
ATOM     18  C   UNL     1      42.884  50.061   9.476  1.00  0.00     0.004 C 
ENDBRANCH  16  17
ENDBRANCH  15  16
ENDBRANCH  14  15
ENDBRANCH  13  14
ENDBRANCH  12  13
ENDBRANCH  11  12
ENDBRANCH   1  11
TORSDOF 14
ENDMDL
MODEL 8
REMARK VINA RESULT:    -5.003      3.725      6.470
REMARK INTER + INTRA:         -10.245
REMARK INTER:                  -7.446
REMARK INTRA:                  -2.799
REMARK UNBOUND:                -1.147
REMARK SMILES CCCCCCCCCCCCCCCC(=O)[O-]
REMARK SMILES IDX 9 1 10 2 11 3 12 4 13 5 14 6 15 7 16 8 17 9 18 10 8 11 7 12
REMARK SMILES IDX 6 13 5 14 4 15 3 16 2 17 1 18
REMARK H PARENT
REMARK Flexibility Score: inf
ROOT
ATOM      1  C   UNL     1      42.401  49.198   9.055  1.00  0.00     0.000 C 
ENDROOT
BRANCH   1   2
ATOM      2  C   UNL     1      42.942  50.616   8.798  1.00  0.00     0.000 C 
BRANCH   2   3
ATOM      3  C   UNL     1      44.341  50.832   9.398  1.00  0.00     0.000 C 
BRANCH   3   4
ATOM      4  C   UNL     1      44.361  50.686  10.926  1.00  0.00     0.000 C 
BRANCH   4   5
ATOM      5  C   UNL     1      45.541  49.818  11.379  1.00  0.00     0.000 C 
BRANCH   5   6
ATOM      6  C   UNL     1      46.263  49.196  10.175  1.00  0.00     0.006 C 
BRANCH   6   7
ATOM      7  C   UNL     1      47.269  48.116  10.594  1.00  0.00     0.053 C 
BRANCH   7   8
ATOM      8  C   UNL     1      46.896  46.769  10.053  1.00  0.00     0.041 C 
ATOM      9  O   UNL     1      46.588  45.835  10.839  1.00  0.00    -0.550 OA
ATOM     10  O   UNL     1      46.856  46.557   8.680  1.00  0.00    -0.550 OA
ENDBRANCH   7   8
ENDBRANCH   6   7
ENDBRANCH   5   6
ENDBRANCH   4   5
ENDBRANCH   3   4
ENDBRANCH   2   3
ENDBRANCH   1   2
BRANCH   1  11
ATOM     11  C   UNL     1      43.255  48.110   8.384  1.00  0.00     0.000 C 
BRANCH  11  12
ATOM     12  C   UNL     1      43.283  46.798   9.183  1.00  0.00    -0.000 C 
BRANCH  12  13
ATOM     13  C   UNL     1      42.468  46.929  10.478  1.00  0.00    -0.000 C 
BRANCH  13  14
ATOM     14  C   UNL     1      43.343  46.858  11.740  1.00  0.00    -0.000 C 
BRANCH  14  15
ATOM     15  C   UNL     1      42.779  47.694  12.899  1.00  0.00    -0.000 C 
BRANCH  15  16
ATOM     16  C   UNL     1      41.457  48.366  12.497  1.00  0.00    -0.000 C 
BRANCH  16  17
ATOM     17  C   UNL     1      41.411  49.854  12.876  1.00  0.00    -0.003 C 
ATOM     18  C   UNL     1      42.305  50.190  14.068  1.00  0.00     0.004 C 
ENDBRANCH  16  17
ENDBRANCH  15  16
ENDBRANCH  14  15
ENDBRANCH  13  14
ENDBRANCH  12  13
ENDBRANCH  11  12
ENDBRANCH   1  11
TORSDOF 14
ENDMDL
MODEL 9
REMARK VINA RESULT:    -4.967      2.333      3.566
REMARK INTER + INTRA:         -10.179
REMARK INTER:                  -7.748
REMARK INTRA:                  -2.432
REMARK UNBOUND:                -1.147
REMARK SMILES CCCCCCCCCCCCCCCC(=O)[O-]
REMARK SMILES IDX 9 1 10 2 11 3 12 4 13 5 14 6 15 7 16 8 17 9 18 10 8 11 7 12
REMARK SMILES IDX 6 13 5 14 4 15 3 16 2 17 1 18
REMARK H PARENT
REMARK Flexibility Score: inf
ROOT
ATOM      1  C   UNL     1      43.551  50.238  11.247  1.00  0.00     0.000 C 
ENDROOT
BRANCH   1   2
ATOM      2  C   UNL     1      43.580  50.923   9.869  1.00  0.00     0.000 C 
BRANCH   2   3
ATOM      3  C   UNL     1      43.042  50.019   8.748  1.00  0.00     0.000 C 
BRANCH   3   4
ATOM      4  C   UNL     1      43.247  48.525   9.041  1.00  0.00     0.000 C 
BRANCH   4   5
ATOM      5  C   UNL     1      41.904  47.817   9.252  1.00  0.00     0.000 C 
BRANCH   5   6
ATOM      6  C   UNL     1      42.074  46.553  10.108  1.00  0.00     0.006 C 
BRANCH   6   7
ATOM      7  C   UNL     1      42.063  46.862  11.611  1.00  0.00     0.053 C 
BRANCH   7   8
ATOM      8  C   UNL     1      40.737  47.397  12.059  1.00  0.00     0.041 C 
ATOM      9  O   UNL     1      39.729  46.644  12.093  1.00  0.00    -0.550 OA
ATOM     10  O   UNL     1      40.623  48.719  12.473  1.00  0.00    -0.550 OA
ENDBRANCH   7   8
ENDBRANCH   6   7
ENDBRANCH   5   6
ENDBRANCH   4   5
ENDBRANCH   3   4
ENDBRANCH   2   3
ENDBRANCH   1   2
BRANCH   1  11
ATOM     11  C   UNL     1      44.869  50.409  12.019  1.00  0.00     0.000 C 
BRANCH  11  12
ATOM     12  C   UNL     1      45.867  51.328  11.297  1.00  0.00    -0.000 C 
BRANCH  12  13
ATOM     13  C   UNL     1      47.163  50.574  10.966  1.00  0.00    -0.000 C 
BRANCH  13  14
ATOM     14  C   UNL     1      47.270  50.200   9.478  1.00  0.00    -0.000 C 
BRANCH  14  15
ATOM     15  C   UNL     1      46.836  48.754   9.198  1.00  0.00    -0.000 C 
BRANCH  15  16
ATOM     16  C   UNL     1      47.116  47.853  10.411  1.00  0.00    -0.000 C 
BRANCH  16  17
ATOM     17  C   UNL     1      46.086  46.724  10.558  1.00  0.00    -0.003 C 
ATOM     18  C   UNL     1      45.894  45.925   9.270  1.00  0.00     0.004 C 
ENDBRANCH  16  17
ENDBRANCH  15  16
ENDBRANCH  14  15
ENDBRANCH  13  14
ENDBRANCH  12  13
ENDBRANCH  11  12
ENDBRANCH   1  11
TORSDOF 14
ENDMDL
