MODEL 1
REMARK VINA RESULT:    -4.687      0.000      0.000
REMARK INTER + INTRA:          -5.028
REMARK INTER:                  -5.782
REMARK INTRA:                   0.754
REMARK UNBOUND:                 0.754
REMARK SMILES CC1=CC=CC(C)(C)CC1=O
REMARK SMILES IDX 1 1 2 2 3 3 10 4 11 5 9 6 4 8 5 9 6 10 7 11 8 12
REMARK H PARENT
REMARK Flexibility Score: 80.00
ROOT
ATOM      1  C   UNL     1      33.229  20.792  21.151  1.00  0.00     0.048 C 
ATOM      2  C   UNL     1      33.237  21.061  19.664  1.00  0.00    -0.008 C 
ATOM      3  C   UNL     1      34.375  21.544  19.122  1.00  0.00     0.007 C 
ENDROOT
BRANCH   2   4
ATOM      4  C   UNL     1      32.014  20.700  18.906  1.00  0.00     0.159 C 
ATOM      5  O   UNL     1      31.126  20.007  19.476  1.00  0.00    -0.295 OA
BRANCH   4   6
ATOM      6  C   UNL     1      31.764  21.124  17.492  1.00  0.00     0.091 CG0
ATOM      7  G   UNL     1      32.833  20.611  16.502  1.00  0.00     0.000 G0
ENDBRANCH   4   6
ENDBRANCH   2   4
BRANCH   3   8
ATOM      8  C   UNL     1      34.692  21.876  17.713  1.00  0.00    -0.003 C 
ATOM      9  C   UNL     1      34.067  21.490  16.594  1.00  0.00    -0.020 C 
BRANCH   9  10
ATOM     10  C   UNL     1      32.837  20.617  16.508  1.00  0.00    -0.010 CG0
ATOM     11  C   UNL     1      33.218  19.140  16.754  1.00  0.00     0.016 C 
ATOM     12  C   UNL     1      32.261  20.730  15.078  1.00  0.00     0.016 C 
ATOM     13  G   UNL     1      31.767  21.129  17.499  1.00  0.00     0.000 G0
ENDBRANCH   9  10
ENDBRANCH   3   8
TORSDOF 0
ENDMDL
MODEL 2
REMARK VINA RESULT:    -4.529      9.155     11.565
REMARK INTER + INTRA:          -4.833
REMARK INTER:                  -5.587
REMARK INTRA:                   0.754
REMARK UNBOUND:                 0.754
REMARK SMILES CC1=CC=CC(C)(C)CC1=O
REMARK SMILES IDX 1 1 2 2 3 3 10 4 11 5 9 6 4 8 5 9 6 10 7 11 8 12
REMARK H PARENT
REMARK Flexibility Score: 80.00
ROOT
ATOM      1  C   UNL     1      31.108  18.483  25.863  1.00  0.00     0.048 C 
ATOM      2  C   UNL     1      29.980  18.344  26.859  1.00  0.00    -0.008 C 
ATOM      3  C   UNL     1      30.253  17.736  28.033  1.00  0.00     0.007 C 
ENDROOT
BRANCH   2   4
ATOM      4  C   UNL     1      28.678  18.955  26.494  1.00  0.00     0.159 C 
ATOM      5  O   UNL     1      28.621  19.708  25.483  1.00  0.00    -0.295 OA
BRANCH   4   6
ATOM      6  C   UNL     1      27.412  18.720  27.258  1.00  0.00     0.091 CG0
ATOM      7  G   UNL     1      27.510  19.132  28.745  1.00  0.00     0.000 G0
ENDBRANCH   4   6
ENDBRANCH   2   4
BRANCH   3   8
ATOM      8  C   UNL     1      29.375  17.479  29.199  1.00  0.00    -0.003 C 
ATOM      9  C   UNL     1      28.216  18.063  29.527  1.00  0.00    -0.020 C 
BRANCH   9  10
ATOM     10  C   UNL     1      27.498  19.138  28.744  1.00  0.00    -0.010 CG0
ATOM     11  C   UNL     1      28.199  20.500  28.952  1.00  0.00     0.016 C 
ATOM     12  C   UNL     1      26.057  19.254  29.288  1.00  0.00     0.016 C 
ATOM     13  G   UNL     1      27.420  18.731  27.256  1.00  0.00     0.000 G0
ENDBRANCH   9  10
ENDBRANCH   3   8
TORSDOF 0
ENDMDL
MODEL 3
REMARK VINA RESULT:    -4.342      2.348      3.260
REMARK INTER + INTRA:          -4.603
REMARK INTER:                  -5.368
REMARK INTRA:                   0.766
REMARK UNBOUND:                 0.754
REMARK SMILES CC1=CC=CC(C)(C)CC1=O
REMARK SMILES IDX 1 1 2 2 3 3 10 4 11 5 9 6 4 8 5 9 6 10 7 11 8 12
REMARK H PARENT
REMARK Flexibility Score: 80.00
ROOT
ATOM      1  C   UNL     1      34.680  22.246  16.707  1.00  0.00     0.048 C 
ATOM      2  C   UNL     1      34.096  20.919  16.280  1.00  0.00    -0.008 C 
ATOM      3  C   UNL     1      34.946  19.881  16.130  1.00  0.00     0.007 C 
ENDROOT
BRANCH   2   4
ATOM      4  C   UNL     1      32.621  20.847  16.133  1.00  0.00     0.159 C 
ATOM      5  O   UNL     1      31.919  21.803  16.563  1.00  0.00    -0.295 OA
BRANCH   4   6
ATOM      6  C   UNL     1      31.912  19.698  15.486  1.00  0.00     0.091 CG0
ATOM      7  G   UNL     1      32.183  18.344  16.179  1.00  0.00     0.000 G0
ENDBRANCH   4   6
ENDBRANCH   2   4
BRANCH   3   8
ATOM      8  C   UNL     1      34.672  18.474  15.753  1.00  0.00    -0.003 C 
ATOM      9  C   UNL     1      33.515  17.801  15.785  1.00  0.00    -0.020 C 
BRANCH   9  10
ATOM     10  C   UNL     1      32.170  18.349  16.201  1.00  0.00    -0.010 CG0
ATOM     11  C   UNL     1      32.104  18.473  17.741  1.00  0.00     0.016 C 
ATOM     12  C   UNL     1      31.080  17.348  15.756  1.00  0.00     0.016 C 
ATOM     13  G   UNL     1      31.911  19.693  15.485  1.00  0.00     0.000 G0
ENDBRANCH   9  10
ENDBRANCH   3   8
TORSDOF 0
ENDMDL
MODEL 4
REMARK VINA RESULT:    -4.290     10.798     12.128
REMARK INTER + INTRA:          -4.539
REMARK INTER:                  -5.278
REMARK INTRA:                   0.739
REMARK UNBOUND:                 0.754
REMARK SMILES CC1=CC=CC(C)(C)CC1=O
REMARK SMILES IDX 1 1 2 2 3 3 10 4 11 5 9 6 4 8 5 9 6 10 7 11 8 12
REMARK H PARENT
REMARK Flexibility Score: 80.00
ROOT
ATOM      1  C   UNL     1      29.897  17.270  29.332  1.00  0.00     0.048 C 
ATOM      2  C   UNL     1      29.057  18.348  28.687  1.00  0.00    -0.008 C 
ATOM      3  C   UNL     1      28.871  18.280  27.351  1.00  0.00     0.007 C 
ENDROOT
BRANCH   2   4
ATOM      4  C   UNL     1      28.441  19.354  29.587  1.00  0.00     0.159 C 
ATOM      5  O   UNL     1      28.475  19.157  30.833  1.00  0.00    -0.295 OA
BRANCH   4   6
ATOM      6  C   UNL     1      27.784  20.607  29.098  1.00  0.00     0.091 CG0
ATOM      7  G   UNL     1      26.599  20.343  28.143  1.00  0.00     0.000 G0
ENDBRANCH   4   6
ENDBRANCH   2   4
BRANCH   3   8
ATOM      8  C   UNL     1      28.087  19.161  26.454  1.00  0.00    -0.003 C 
ATOM      9  C   UNL     1      27.120  20.035  26.762  1.00  0.00    -0.020 C 
BRANCH   9  10
ATOM     10  C   UNL     1      26.606  20.353  28.146  1.00  0.00    -0.010 CG0
ATOM     11  C   UNL     1      25.660  19.229  28.630  1.00  0.00     0.016 C 
ATOM     12  C   UNL     1      25.790  21.663  28.071  1.00  0.00     0.016 C 
ATOM     13  G   UNL     1      27.797  20.582  29.104  1.00  0.00     0.000 G0
ENDBRANCH   9  10
ENDBRANCH   3   8
TORSDOF 0
ENDMDL
MODEL 5
REMARK VINA RESULT:    -4.286      1.095      1.437
REMARK INTER + INTRA:          -4.534
REMARK INTER:                  -5.587
REMARK INTRA:                   1.053
REMARK UNBOUND:                 0.754
REMARK SMILES CC1=CC=CC(C)(C)CC1=O
REMARK SMILES IDX 1 1 2 2 3 3 10 4 11 5 9 6 4 8 5 9 6 10 7 11 8 12
REMARK H PARENT
REMARK Flexibility Score: 80.00
ROOT
ATOM      1  C   UNL     1      32.859  20.752  20.557  1.00  0.00     0.048 C 
ATOM      2  C   UNL     1      33.312  20.685  19.117  1.00  0.00    -0.008 C 
ATOM      3  C   UNL     1      34.260  21.559  18.718  1.00  0.00     0.007 C 
ENDROOT
BRANCH   2   4
ATOM      4  C   UNL     1      32.729  19.610  18.276  1.00  0.00     0.159 C 
ATOM      5  O   UNL     1      31.711  18.994  18.695  1.00  0.00    -0.295 OA
BRANCH   4   6
ATOM      6  C   UNL     1      33.280  19.218  16.940  1.00  0.00     0.091 CG0
ATOM      7  G   UNL     1      33.339  20.391  15.935  1.00  0.00     0.000 G0
ENDBRANCH   4   6
ENDBRANCH   2   4
BRANCH   3   8
ATOM      8  C   UNL     1      34.913  21.717  17.397  1.00  0.00    -0.003 C 
ATOM      9  C   UNL     1      34.546  21.220  16.209  1.00  0.00    -0.020 C 
BRANCH   9  10
ATOM     10  C   UNL     1      33.324  20.378  15.927  1.00  0.00    -0.010 CG0
ATOM     11  C   UNL     1      33.339  19.902  14.456  1.00  0.00     0.016 C 
ATOM     12  C   UNL     1      32.071  21.259  16.131  1.00  0.00     0.016 C 
ATOM     13  G   UNL     1      33.257  19.206  16.931  1.00  0.00     0.000 G0
ENDBRANCH   9  10
ENDBRANCH   3   8
TORSDOF 0
ENDMDL
MODEL 6
REMARK VINA RESULT:    -4.273      1.582      2.533
REMARK INTER + INTRA:          -4.517
REMARK INTER:                  -5.271
REMARK INTRA:                   0.754
REMARK UNBOUND:                 0.754
REMARK SMILES CC1=CC=CC(C)(C)CC1=O
REMARK SMILES IDX 1 1 2 2 3 3 10 4 11 5 9 6 4 8 5 9 6 10 7 11 8 12
REMARK H PARENT
REMARK Flexibility Score: 80.00
ROOT
ATOM      1  C   UNL     1      32.802  20.827  20.582  1.00  0.00     0.048 C 
ATOM      2  C   UNL     1      32.953  20.258  19.190  1.00  0.00    -0.008 C 
ATOM      3  C   UNL     1      32.227  19.163  18.880  1.00  0.00     0.007 C 
ENDROOT
BRANCH   2   4
ATOM      4  C   UNL     1      33.832  20.997  18.251  1.00  0.00     0.159 C 
ATOM      5  O   UNL     1      34.255  22.139  18.583  1.00  0.00    -0.295 OA
BRANCH   4   6
ATOM      6  C   UNL     1      34.261  20.456  16.922  1.00  0.00     0.091 CG0
ATOM      7  G   UNL     1      33.076  20.124  15.987  1.00  0.00     0.000 G0
ENDBRANCH   4   6
ENDBRANCH   2   4
BRANCH   3   8
ATOM      8  C   UNL     1      32.144  18.405  17.609  1.00  0.00    -0.003 C 
ATOM      9  C   UNL     1      32.484  18.791  16.373  1.00  0.00    -0.020 C 
BRANCH   9  10
ATOM     10  C   UNL     1      33.078  20.123  15.979  1.00  0.00    -0.010 CG0
ATOM     11  C   UNL     1      31.979  21.210  15.973  1.00  0.00     0.016 C 
ATOM     12  C   UNL     1      33.636  20.001  14.544  1.00  0.00     0.016 C 
ATOM     13  G   UNL     1      34.252  20.468  16.924  1.00  0.00     0.000 G0
ENDBRANCH   9  10
ENDBRANCH   3   8
TORSDOF 0
ENDMDL
MODEL 7
REMARK VINA RESULT:    -4.268     10.881     12.157
REMARK INTER + INTRA:          -4.511
REMARK INTER:                  -5.527
REMARK INTRA:                   1.016
REMARK UNBOUND:                 0.754
REMARK SMILES CC1=CC=CC(C)(C)CC1=O
REMARK SMILES IDX 1 1 2 2 3 3 10 4 11 5 9 6 4 8 5 9 6 10 7 11 8 12
REMARK H PARENT
REMARK Flexibility Score: 80.00
ROOT
ATOM      1  C   UNL     1      30.146  17.276  28.839  1.00  0.00     0.048 C 
ATOM      2  C   UNL     1      29.146  18.406  28.928  1.00  0.00    -0.008 C 
ATOM      3  C   UNL     1      28.700  18.751  30.154  1.00  0.00     0.007 C 
ENDROOT
BRANCH   2   4
ATOM      4  C   UNL     1      28.793  19.096  27.662  1.00  0.00     0.159 C 
ATOM      5  O   UNL     1      29.101  18.552  26.566  1.00  0.00    -0.295 OA
BRANCH   4   6
ATOM      6  C   UNL     1      28.076  20.409  27.610  1.00  0.00     0.091 CG0
ATOM      7  G   UNL     1      26.696  20.379  28.306  1.00  0.00     0.000 G0
ENDBRANCH   4   6
ENDBRANCH   2   4
BRANCH   3   8
ATOM      8  C   UNL     1      27.753  19.818  30.557  1.00  0.00    -0.003 C 
ATOM      9  C   UNL     1      26.912  20.531  29.797  1.00  0.00    -0.020 C 
BRANCH   9  10
ATOM     10  C   UNL     1      26.708  20.388  28.307  1.00  0.00    -0.010 CG0
ATOM     11  C   UNL     1      25.769  21.504  27.793  1.00  0.00     0.016 C 
ATOM     12  C   UNL     1      26.024  19.029  28.039  1.00  0.00     0.016 C 
ATOM     13  G   UNL     1      28.078  20.387  27.592  1.00  0.00     0.000 G0
ENDBRANCH   9  10
ENDBRANCH   3   8
TORSDOF 0
ENDMDL
MODEL 8
REMARK VINA RESULT:    -4.251      2.065      3.111
REMARK INTER + INTRA:          -4.491
REMARK INTER:                  -5.244
REMARK INTRA:                   0.753
REMARK UNBOUND:                 0.754
REMARK SMILES CC1=CC=CC(C)(C)CC1=O
REMARK SMILES IDX 1 1 2 2 3 3 10 4 11 5 9 6 4 8 5 9 6 10 7 11 8 12
REMARK H PARENT
REMARK Flexibility Score: 80.00
ROOT
ATOM      1  C   UNL     1      34.808  22.286  18.610  1.00  0.00     0.048 C 
ATOM      2  C   UNL     1      34.033  21.013  18.360  1.00  0.00    -0.008 C 
ATOM      3  C   UNL     1      32.991  20.744  19.175  1.00  0.00     0.007 C 
ENDROOT
BRANCH   2   4
ATOM      4  C   UNL     1      34.436  20.197  17.187  1.00  0.00     0.159 C 
ATOM      5  O   UNL     1      35.258  20.683  16.361  1.00  0.00    -0.295 OA
BRANCH   4   6
ATOM      6  C   UNL     1      33.928  18.813  16.931  1.00  0.00     0.091 CG0
ATOM      7  G   UNL     1      32.390  18.741  16.797  1.00  0.00     0.000 G0
ENDBRANCH   4   6
ENDBRANCH   2   4
BRANCH   3   8
ATOM      8  C   UNL     1      32.043  19.606  19.162  1.00  0.00    -0.003 C 
ATOM      9  C   UNL     1      31.764  18.749  18.170  1.00  0.00    -0.020 C 
BRANCH   9  10
ATOM     10  C   UNL     1      32.395  18.730  16.798  1.00  0.00    -0.010 CG0
ATOM     11  C   UNL     1      31.803  19.863  15.928  1.00  0.00     0.016 C 
ATOM     12  C   UNL     1      32.051  17.382  16.125  1.00  0.00     0.016 C 
ATOM     13  G   UNL     1      33.932  18.823  16.931  1.00  0.00     0.000 G0
ENDBRANCH   9  10
ENDBRANCH   3   8
TORSDOF 0
ENDMDL
MODEL 9
REMARK VINA RESULT:    -4.247      1.649      3.302
REMARK INTER + INTRA:          -4.486
REMARK INTER:                  -5.235
REMARK INTRA:                   0.749
REMARK UNBOUND:                 0.754
REMARK SMILES CC1=CC=CC(C)(C)CC1=O
REMARK SMILES IDX 1 1 2 2 3 3 10 4 11 5 9 6 4 8 5 9 6 10 7 11 8 12
REMARK H PARENT
REMARK Flexibility Score: 80.00
ROOT
ATOM      1  C   UNL     1      31.372  17.001  16.500  1.00  0.00     0.048 C 
ATOM      2  C   UNL     1      32.469  18.026  16.680  1.00  0.00    -0.008 C 
ATOM      3  C   UNL     1      33.376  18.151  15.687  1.00  0.00     0.007 C 
ENDROOT
BRANCH   2   4
ATOM      4  C   UNL     1      32.415  18.865  17.902  1.00  0.00     0.159 C 
ATOM      5  O   UNL     1      31.371  18.843  18.610  1.00  0.00    -0.295 OA
BRANCH   4   6
ATOM      6  C   UNL     1      33.545  19.738  18.354  1.00  0.00     0.091 CG0
ATOM      7  G   UNL     1      33.936  20.817  17.320  1.00  0.00     0.000 G0
ENDBRANCH   4   6
ENDBRANCH   2   4
BRANCH   3   8
ATOM      8  C   UNL     1      34.531  19.070  15.565  1.00  0.00    -0.003 C 
ATOM      9  C   UNL     1      34.782  20.205  16.231  1.00  0.00    -0.020 C 
BRANCH   9  10
ATOM     10  C   UNL     1      33.927  20.815  17.317  1.00  0.00    -0.010 CG0
ATOM     11  C   UNL     1      32.697  21.514  16.692  1.00  0.00     0.016 C 
ATOM     12  C   UNL     1      34.765  21.889  18.048  1.00  0.00     0.016 C 
ATOM     13  G   UNL     1      33.536  19.729  18.344  1.00  0.00     0.000 G0
ENDBRANCH   9  10
ENDBRANCH   3   8
TORSDOF 0
ENDMDL
