MODEL 1
REMARK VINA RESULT:    -2.713      0.000      0.000
REMARK INTER + INTRA:          -6.684
REMARK INTER:                  -4.933
REMARK INTRA:                  -1.751
REMARK UNBOUND:                -1.751
REMARK SMILES CCCCCCCCCCCCCCCC(=O)[O-]
REMARK SMILES IDX 9 1 10 2 11 3 12 4 13 5 14 6 15 7 16 8 17 9 18 10 8 11 7 12
REMARK SMILES IDX 6 13 5 14 4 15 3 16 2 17 1 18
REMARK H PARENT
REMARK Flexibility Score: inf
ROOT
ATOM      1  C   UNL     1      29.309  13.123  47.407  1.00  0.00     0.000 C 
ENDROOT
BRANCH   1   2
ATOM      2  C   UNL     1      28.324  12.604  48.467  1.00  0.00     0.000 C 
BRANCH   2   3
ATOM      3  C   UNL     1      27.967  13.707  49.470  1.00  0.00     0.000 C 
BRANCH   3   4
ATOM      4  C   UNL     1      26.481  13.651  49.845  1.00  0.00     0.000 C 
BRANCH   4   5
ATOM      5  C   UNL     1      25.594  13.710  48.596  1.00  0.00     0.000 C 
BRANCH   5   6
ATOM      6  C   UNL     1      24.709  14.964  48.608  1.00  0.00     0.006 C 
BRANCH   6   7
ATOM      7  C   UNL     1      25.078  15.924  49.748  1.00  0.00     0.053 C 
BRANCH   7   8
ATOM      8  C   UNL     1      25.708  17.181  49.234  1.00  0.00     0.041 C 
ATOM      9  O   UNL     1      25.763  17.404  47.995  1.00  0.00    -0.550 OA
ATOM     10  O   UNL     1      26.206  18.124  50.124  1.00  0.00    -0.550 OA
ENDBRANCH   7   8
ENDBRANCH   6   7
ENDBRANCH   5   6
ENDBRANCH   4   5
ENDBRANCH   3   4
ENDBRANCH   2   3
ENDBRANCH   1   2
BRANCH   1  11
ATOM     11  C   UNL     1      30.688  12.450  47.498  1.00  0.00     0.000 C 
BRANCH  11  12
ATOM     12  C   UNL     1      31.791  13.420  47.955  1.00  0.00    -0.000 C 
BRANCH  12  13
ATOM     13  C   UNL     1      31.329  14.343  49.093  1.00  0.00    -0.000 C 
BRANCH  13  14
ATOM     14  C   UNL     1      32.059  15.698  49.093  1.00  0.00    -0.000 C 
BRANCH  14  15
ATOM     15  C   UNL     1      31.214  16.829  49.705  1.00  0.00    -0.000 C 
BRANCH  15  16
ATOM     16  C   UNL     1      29.725  16.823  49.299  1.00  0.00    -0.000 C 
BRANCH  16  17
ATOM     17  C   UNL     1      29.393  17.636  48.035  1.00  0.00    -0.003 C 
ATOM     18  C   UNL     1      28.972  16.758  46.856  1.00  0.00     0.004 C 
ENDBRANCH  16  17
ENDBRANCH  15  16
ENDBRANCH  14  15
ENDBRANCH  13  14
ENDBRANCH  12  13
ENDBRANCH  11  12
ENDBRANCH   1  11
TORSDOF 14
ENDMDL
MODEL 2
REMARK VINA RESULT:    -2.706      2.257      2.631
REMARK INTER + INTRA:          -6.673
REMARK INTER:                  -4.649
REMARK INTRA:                  -2.024
REMARK UNBOUND:                -1.751
REMARK SMILES CCCCCCCCCCCCCCCC(=O)[O-]
REMARK SMILES IDX 9 1 10 2 11 3 12 4 13 5 14 6 15 7 16 8 17 9 18 10 8 11 7 12
REMARK SMILES IDX 6 13 5 14 4 15 3 16 2 17 1 18
REMARK H PARENT
REMARK Flexibility Score: inf
ROOT
ATOM      1  C   UNL     1      28.498  13.198  47.806  1.00  0.00     0.000 C 
ENDROOT
BRANCH   1   2
ATOM      2  C   UNL     1      28.341  13.361  49.326  1.00  0.00     0.000 C 
BRANCH   2   3
ATOM      3  C   UNL     1      27.891  14.783  49.681  1.00  0.00     0.000 C 
BRANCH   3   4
ATOM      4  C   UNL     1      27.104  15.417  48.527  1.00  0.00     0.000 C 
BRANCH   4   5
ATOM      5  C   UNL     1      25.816  16.077  49.035  1.00  0.00     0.000 C 
BRANCH   5   6
ATOM      6  C   UNL     1      24.616  15.131  48.883  1.00  0.00     0.006 C 
BRANCH   6   7
ATOM      7  C   UNL     1      24.409  14.253  50.125  1.00  0.00     0.053 C 
BRANCH   7   8
ATOM      8  C   UNL     1      24.161  12.822  49.758  1.00  0.00     0.041 C 
ATOM      9  O   UNL     1      25.040  12.163  49.141  1.00  0.00    -0.550 OA
ATOM     10  O   UNL     1      22.971  12.207  50.125  1.00  0.00    -0.550 OA
ENDBRANCH   7   8
ENDBRANCH   6   7
ENDBRANCH   5   6
ENDBRANCH   4   5
ENDBRANCH   3   4
ENDBRANCH   2   3
ENDBRANCH   1   2
BRANCH   1  11
ATOM     11  C   UNL     1      29.949  12.910  47.387  1.00  0.00     0.000 C 
BRANCH  11  12
ATOM     12  C   UNL     1      30.912  12.859  48.587  1.00  0.00    -0.000 C 
BRANCH  12  13
ATOM     13  C   UNL     1      31.888  14.045  48.609  1.00  0.00    -0.000 C 
BRANCH  13  14
ATOM     14  C   UNL     1      31.757  14.897  49.884  1.00  0.00    -0.000 C 
BRANCH  14  15
ATOM     15  C   UNL     1      31.887  16.406  49.607  1.00  0.00    -0.000 C 
BRANCH  15  16
ATOM     16  C   UNL     1      31.395  16.857  48.217  1.00  0.00    -0.000 C 
BRANCH  16  17
ATOM     17  C   UNL     1      30.001  17.509  48.200  1.00  0.00    -0.003 C 
ATOM     18  C   UNL     1      29.424  17.645  46.791  1.00  0.00     0.004 C 
ENDBRANCH  16  17
ENDBRANCH  15  16
ENDBRANCH  14  15
ENDBRANCH  13  14
ENDBRANCH  12  13
ENDBRANCH  11  12
ENDBRANCH   1  11
TORSDOF 14
ENDMDL
MODEL 3
REMARK VINA RESULT:    -2.615     16.423     18.021
REMARK INTER + INTRA:          -6.507
REMARK INTER:                  -5.726
REMARK INTRA:                  -0.781
REMARK UNBOUND:                -1.751
REMARK SMILES CCCCCCCCCCCCCCCC(=O)[O-]
REMARK SMILES IDX 9 1 10 2 11 3 12 4 13 5 14 6 15 7 16 8 17 9 18 10 8 11 7 12
REMARK SMILES IDX 6 13 5 14 4 15 3 16 2 17 1 18
REMARK H PARENT
REMARK Flexibility Score: inf
ROOT
ATOM      1  C   UNL     1      31.693   2.064  38.477  1.00  0.00     0.000 C 
ENDROOT
BRANCH   1   2
ATOM      2  C   UNL     1      31.999   2.051  39.983  1.00  0.00     0.000 C 
BRANCH   2   3
ATOM      3  C   UNL     1      30.893   1.329  40.761  1.00  0.00     0.000 C 
BRANCH   3   4
ATOM      4  C   UNL     1      31.478   0.503  41.913  1.00  0.00     0.000 C 
BRANCH   4   5
ATOM      5  C   UNL     1      31.303  -0.999  41.659  1.00  0.00     0.000 C 
BRANCH   5   6
ATOM      6  C   UNL     1      30.684  -1.696  42.879  1.00  0.00     0.006 C 
BRANCH   6   7
ATOM      7  C   UNL     1      30.389  -0.713  44.021  1.00  0.00     0.053 C 
BRANCH   7   8
ATOM      8  C   UNL     1      29.988  -1.424  45.276  1.00  0.00     0.041 C 
ATOM      9  O   UNL     1      28.942  -2.125  45.302  1.00  0.00    -0.550 OA
ATOM     10  O   UNL     1      30.787  -1.340  46.409  1.00  0.00    -0.550 OA
ENDBRANCH   7   8
ENDBRANCH   6   7
ENDBRANCH   5   6
ENDBRANCH   4   5
ENDBRANCH   3   4
ENDBRANCH   2   3
ENDBRANCH   1   2
BRANCH   1  11
ATOM     11  C   UNL     1      31.133   0.724  37.973  1.00  0.00     0.000 C 
BRANCH  11  12
ATOM     12  C   UNL     1      29.738   0.868  37.339  1.00  0.00    -0.000 C 
BRANCH  12  13
ATOM     13  C   UNL     1      28.776  -0.246  37.778  1.00  0.00    -0.000 C 
BRANCH  13  14
ATOM     14  C   UNL     1      28.767  -0.458  39.302  1.00  0.00    -0.000 C 
BRANCH  14  15
ATOM     15  C   UNL     1      28.097  -1.780  39.716  1.00  0.00    -0.000 C 
BRANCH  15  16
ATOM     16  C   UNL     1      27.463  -1.776  41.123  1.00  0.00    -0.000 C 
BRANCH  16  17
ATOM     17  C   UNL     1      27.958  -0.655  42.054  1.00  0.00    -0.003 C 
ATOM     18  C   UNL     1      26.876  -0.157  43.013  1.00  0.00     0.004 C 
ENDBRANCH  16  17
ENDBRANCH  15  16
ENDBRANCH  14  15
ENDBRANCH  13  14
ENDBRANCH  12  13
ENDBRANCH  11  12
ENDBRANCH   1  11
TORSDOF 14
ENDMDL
MODEL 4
REMARK VINA RESULT:    -1.820     16.733     17.926
REMARK INTER + INTRA:          -5.060
REMARK INTER:                  -5.117
REMARK INTRA:                   0.057
REMARK UNBOUND:                -1.751
REMARK SMILES CCCCCCCCCCCCCCCC(=O)[O-]
REMARK SMILES IDX 9 1 10 2 11 3 12 4 13 5 14 6 15 7 16 8 17 9 18 10 8 11 7 12
REMARK SMILES IDX 6 13 5 14 4 15 3 16 2 17 1 18
REMARK H PARENT
REMARK Flexibility Score: inf
ROOT
ATOM      1  C   UNL     1      32.068   0.585  40.410  1.00  0.00     0.000 C 
ENDROOT
BRANCH   1   2
ATOM      2  C   UNL     1      31.522   0.463  41.840  1.00  0.00     0.000 C 
BRANCH   2   3
ATOM      3  C   UNL     1      31.449  -1.005  42.276  1.00  0.00     0.000 C 
BRANCH   3   4
ATOM      4  C   UNL     1      30.083  -1.330  42.895  1.00  0.00     0.000 C 
BRANCH   4   5
ATOM      5  C   UNL     1      29.948  -0.709  44.290  1.00  0.00     0.000 C 
BRANCH   5   6
ATOM      6  C   UNL     1      30.638  -1.581  45.349  1.00  0.00     0.006 C 
BRANCH   6   7
ATOM      7  C   UNL     1      29.687  -1.970  46.490  1.00  0.00     0.053 C 
BRANCH   7   8
ATOM      8  C   UNL     1      30.403  -2.068  47.801  1.00  0.00     0.041 C 
ATOM      9  O   UNL     1      31.661  -2.125  47.835  1.00  0.00    -0.550 OA
ATOM     10  O   UNL     1      29.683  -2.064  48.989  1.00  0.00    -0.550 OA
ENDBRANCH   7   8
ENDBRANCH   6   7
ENDBRANCH   5   6
ENDBRANCH   4   5
ENDBRANCH   3   4
ENDBRANCH   2   3
ENDBRANCH   1   2
BRANCH   1  11
ATOM     11  C   UNL     1      31.704   1.923  39.747  1.00  0.00     0.000 C 
BRANCH  11  12
ATOM     12  C   UNL     1      30.298   1.911  39.123  1.00  0.00    -0.000 C 
BRANCH  12  13
ATOM     13  C   UNL     1      30.211   1.007  37.884  1.00  0.00    -0.000 C 
BRANCH  13  14
ATOM     14  C   UNL     1      29.174  -0.119  38.042  1.00  0.00    -0.000 C 
BRANCH  14  15
ATOM     15  C   UNL     1      29.190  -0.752  39.445  1.00  0.00    -0.000 C 
BRANCH  15  16
ATOM     16  C   UNL     1      27.831  -1.299  39.927  1.00  0.00    -0.000 C 
BRANCH  16  17
ATOM     17  C   UNL     1      27.777  -1.685  41.416  1.00  0.00    -0.003 C 
ATOM     18  C   UNL     1      27.122  -0.611  42.286  1.00  0.00     0.004 C 
ENDBRANCH  16  17
ENDBRANCH  15  16
ENDBRANCH  14  15
ENDBRANCH  13  14
ENDBRANCH  12  13
ENDBRANCH  11  12
ENDBRANCH   1  11
TORSDOF 14
ENDMDL
MODEL 5
REMARK VINA RESULT:    -1.582     16.457     17.722
REMARK INTER + INTRA:          -4.629
REMARK INTER:                  -3.915
REMARK INTRA:                  -0.714
REMARK UNBOUND:                -1.751
REMARK SMILES CCCCCCCCCCCCCCCC(=O)[O-]
REMARK SMILES IDX 9 1 10 2 11 3 12 4 13 5 14 6 15 7 16 8 17 9 18 10 8 11 7 12
REMARK SMILES IDX 6 13 5 14 4 15 3 16 2 17 1 18
REMARK H PARENT
REMARK Flexibility Score: inf
ROOT
ATOM      1  C   UNL     1      29.762   1.680  38.266  1.00  0.00     0.000 C 
ENDROOT
BRANCH   1   2
ATOM      2  C   UNL     1      28.676   0.734  38.803  1.00  0.00     0.000 C 
BRANCH   2   3
ATOM      3  C   UNL     1      28.675  -0.592  38.034  1.00  0.00     0.000 C 
BRANCH   3   4
ATOM      4  C   UNL     1      28.783  -1.785  38.992  1.00  0.00     0.000 C 
BRANCH   4   5
ATOM      5  C   UNL     1      27.515  -1.928  39.841  1.00  0.00     0.000 C 
BRANCH   5   6
ATOM      6  C   UNL     1      27.846  -1.877  41.339  1.00  0.00     0.006 C 
BRANCH   6   7
ATOM      7  C   UNL     1      27.820  -0.445  41.891  1.00  0.00     0.053 C 
BRANCH   7   8
ATOM      8  C   UNL     1      27.225  -0.390  43.264  1.00  0.00     0.041 C 
ATOM      9  O   UNL     1      27.648  -1.156  44.170  1.00  0.00    -0.550 OA
ATOM     10  O   UNL     1      26.225   0.530  43.552  1.00  0.00    -0.550 OA
ENDBRANCH   7   8
ENDBRANCH   6   7
ENDBRANCH   5   6
ENDBRANCH   4   5
ENDBRANCH   3   4
ENDBRANCH   2   3
ENDBRANCH   1   2
BRANCH   1  11
ATOM     11  C   UNL     1      31.179   1.102  38.412  1.00  0.00     0.000 C 
BRANCH  11  12
ATOM     12  C   UNL     1      32.009   1.837  39.479  1.00  0.00    -0.000 C 
BRANCH  12  13
ATOM     13  C   UNL     1      32.125   1.040  40.787  1.00  0.00    -0.000 C 
BRANCH  13  14
ATOM     14  C   UNL     1      31.922  -0.471  40.581  1.00  0.00    -0.000 C 
BRANCH  14  15
ATOM     15  C   UNL     1      30.918  -1.079  41.577  1.00  0.00    -0.000 C 
BRANCH  15  16
ATOM     16  C   UNL     1      31.094  -0.619  43.040  1.00  0.00    -0.000 C 
BRANCH  16  17
ATOM     17  C   UNL     1      30.531  -1.586  44.097  1.00  0.00    -0.003 C 
ATOM     18  C   UNL     1      30.570  -1.008  45.512  1.00  0.00     0.004 C 
ENDBRANCH  16  17
ENDBRANCH  15  16
ENDBRANCH  14  15
ENDBRANCH  13  14
ENDBRANCH  12  13
ENDBRANCH  11  12
ENDBRANCH   1  11
TORSDOF 14
ENDMDL
MODEL 6
REMARK VINA RESULT:    -1.374      1.840      2.662
REMARK INTER + INTRA:          -4.250
REMARK INTER:                  -2.927
REMARK INTRA:                  -1.323
REMARK UNBOUND:                -1.751
REMARK SMILES CCCCCCCCCCCCCCCC(=O)[O-]
REMARK SMILES IDX 9 1 10 2 11 3 12 4 13 5 14 6 15 7 16 8 17 9 18 10 8 11 7 12
REMARK SMILES IDX 6 13 5 14 4 15 3 16 2 17 1 18
REMARK H PARENT
REMARK Flexibility Score: inf
ROOT
ATOM      1  C   UNL     1      28.829  13.505  46.846  1.00  0.00     0.000 C 
ENDROOT
BRANCH   1   2
ATOM      2  C   UNL     1      29.016  15.028  46.939  1.00  0.00     0.000 C 
BRANCH   2   3
ATOM      3  C   UNL     1      27.665  15.740  47.070  1.00  0.00     0.000 C 
BRANCH   3   4
ATOM      4  C   UNL     1      27.836  17.141  47.670  1.00  0.00     0.000 C 
BRANCH   4   5
ATOM      5  C   UNL     1      26.604  17.543  48.490  1.00  0.00     0.000 C 
BRANCH   5   6
ATOM      6  C   UNL     1      26.393  16.585  49.671  1.00  0.00     0.006 C 
BRANCH   6   7
ATOM      7  C   UNL     1      24.927  16.537  50.124  1.00  0.00     0.053 C 
BRANCH   7   8
ATOM      8  C   UNL     1      24.162  15.464  49.413  1.00  0.00     0.041 C 
ATOM      9  O   UNL     1      24.760  14.645  48.667  1.00  0.00    -0.550 OA
ATOM     10  O   UNL     1      22.790  15.348  49.601  1.00  0.00    -0.550 OA
ENDBRANCH   7   8
ENDBRANCH   6   7
ENDBRANCH   5   6
ENDBRANCH   4   5
ENDBRANCH   3   4
ENDBRANCH   2   3
ENDBRANCH   1   2
BRANCH   1  11
ATOM     11  C   UNL     1      29.577  12.746  47.954  1.00  0.00     0.000 C 
BRANCH  11  12
ATOM     12  C   UNL     1      30.946  12.220  47.489  1.00  0.00    -0.000 C 
BRANCH  12  13
ATOM     13  C   UNL     1      32.110  12.816  48.295  1.00  0.00    -0.000 C 
BRANCH  13  14
ATOM     14  C   UNL     1      32.124  14.355  48.268  1.00  0.00    -0.000 C 
BRANCH  14  15
ATOM     15  C   UNL     1      31.710  14.978  49.613  1.00  0.00    -0.000 C 
BRANCH  15  16
ATOM     16  C   UNL     1      32.104  16.459  49.793  1.00  0.00    -0.000 C 
BRANCH  16  17
ATOM     17  C   UNL     1      31.066  17.474  49.283  1.00  0.00    -0.003 C 
ATOM     18  C   UNL     1      31.384  17.998  47.882  1.00  0.00     0.004 C 
ENDBRANCH  16  17
ENDBRANCH  15  16
ENDBRANCH  14  15
ENDBRANCH  13  14
ENDBRANCH  12  13
ENDBRANCH  11  12
ENDBRANCH   1  11
TORSDOF 14
ENDMDL
MODEL 7
REMARK VINA RESULT:    -1.331      2.932      3.415
REMARK INTER + INTRA:          -4.171
REMARK INTER:                  -2.711
REMARK INTRA:                  -1.460
REMARK UNBOUND:                -1.751
REMARK SMILES CCCCCCCCCCCCCCCC(=O)[O-]
REMARK SMILES IDX 9 1 10 2 11 3 12 4 13 5 14 6 15 7 16 8 17 9 18 10 8 11 7 12
REMARK SMILES IDX 6 13 5 14 4 15 3 16 2 17 1 18
REMARK H PARENT
REMARK Flexibility Score: inf
ROOT
ATOM      1  C   UNL     1      28.961  13.531  47.781  1.00  0.00     0.000 C 
ENDROOT
BRANCH   1   2
ATOM      2  C   UNL     1      27.881  13.221  48.828  1.00  0.00     0.000 C 
BRANCH   2   3
ATOM      3  C   UNL     1      27.594  14.449  49.701  1.00  0.00     0.000 C 
BRANCH   3   4
ATOM      4  C   UNL     1      26.085  14.663  49.873  1.00  0.00     0.000 C 
BRANCH   4   5
ATOM      5  C   UNL     1      25.293  13.876  48.822  1.00  0.00     0.000 C 
BRANCH   5   6
ATOM      6  C   UNL     1      24.192  13.033  49.480  1.00  0.00     0.006 C 
BRANCH   6   7
ATOM      7  C   UNL     1      24.747  11.755  50.125  1.00  0.00     0.053 C 
BRANCH   7   8
ATOM      8  C   UNL     1      23.966  10.544  49.719  1.00  0.00     0.041 C 
ATOM      9  O   UNL     1      24.526   9.608  49.089  1.00  0.00    -0.550 OA
ATOM     10  O   UNL     1      22.625  10.433  50.065  1.00  0.00    -0.550 OA
ENDBRANCH   7   8
ENDBRANCH   6   7
ENDBRANCH   5   6
ENDBRANCH   4   5
ENDBRANCH   3   4
ENDBRANCH   2   3
ENDBRANCH   1   2
BRANCH   1  11
ATOM     11  C   UNL     1      30.097  12.496  47.774  1.00  0.00     0.000 C 
BRANCH  11  12
ATOM     12  C   UNL     1      31.431  13.080  48.272  1.00  0.00    -0.000 C 
BRANCH  12  13
ATOM     13  C   UNL     1      31.234  14.221  49.281  1.00  0.00    -0.000 C 
BRANCH  13  14
ATOM     14  C   UNL     1      32.015  15.492  48.901  1.00  0.00    -0.000 C 
BRANCH  14  15
ATOM     15  C   UNL     1      31.335  16.780  49.399  1.00  0.00    -0.000 C 
BRANCH  15  16
ATOM     16  C   UNL     1      29.809  16.837  49.181  1.00  0.00    -0.000 C 
BRANCH  16  17
ATOM     17  C   UNL     1      29.349  17.774  48.050  1.00  0.00    -0.003 C 
ATOM     18  C   UNL     1      28.427  17.084  47.044  1.00  0.00     0.004 C 
ENDBRANCH  16  17
ENDBRANCH  15  16
ENDBRANCH  14  15
ENDBRANCH  13  14
ENDBRANCH  12  13
ENDBRANCH  11  12
ENDBRANCH   1  11
TORSDOF 14
ENDMDL
MODEL 8
REMARK VINA RESULT:    -0.941      1.749      4.423
REMARK INTER + INTRA:          -3.463
REMARK INTER:                  -2.432
REMARK INTRA:                  -1.031
REMARK UNBOUND:                -1.751
REMARK SMILES CCCCCCCCCCCCCCCC(=O)[O-]
REMARK SMILES IDX 9 1 10 2 11 3 12 4 13 5 14 6 15 7 16 8 17 9 18 10 8 11 7 12
REMARK SMILES IDX 6 13 5 14 4 15 3 16 2 17 1 18
REMARK H PARENT
REMARK Flexibility Score: inf
ROOT
ATOM      1  C   UNL     1      29.408  13.135  46.886  1.00  0.00     0.000 C 
ENDROOT
BRANCH   1   2
ATOM      2  C   UNL     1      29.929  14.579  46.822  1.00  0.00     0.000 C 
BRANCH   2   3
ATOM      3  C   UNL     1      28.768  15.578  46.758  1.00  0.00     0.000 C 
BRANCH   3   4
ATOM      4  C   UNL     1      29.157  16.917  47.398  1.00  0.00     0.000 C 
BRANCH   4   5
ATOM      5  C   UNL     1      27.943  17.590  48.049  1.00  0.00     0.000 C 
BRANCH   5   6
ATOM      6  C   UNL     1      27.555  16.881  49.354  1.00  0.00     0.006 C 
BRANCH   6   7
ATOM      7  C   UNL     1      26.444  17.622  50.110  1.00  0.00     0.053 C 
BRANCH   7   8
ATOM      8  C   UNL     1      25.087  17.288  49.570  1.00  0.00     0.041 C 
ATOM      9  O   UNL     1      24.911  16.235  48.903  1.00  0.00    -0.550 OA
ATOM     10  O   UNL     1      24.010  18.125  49.832  1.00  0.00    -0.550 OA
ENDBRANCH   7   8
ENDBRANCH   6   7
ENDBRANCH   5   6
ENDBRANCH   4   5
ENDBRANCH   3   4
ENDBRANCH   2   3
ENDBRANCH   1   2
BRANCH   1  11
ATOM     11  C   UNL     1      29.993  12.343  48.066  1.00  0.00     0.000 C 
BRANCH  11  12
ATOM     12  C   UNL     1      29.934  13.126  49.390  1.00  0.00    -0.000 C 
BRANCH  12  13
ATOM     13  C   UNL     1      28.597  12.943  50.124  1.00  0.00    -0.000 C 
BRANCH  13  14
ATOM     14  C   UNL     1      27.405  13.515  49.336  1.00  0.00    -0.000 C 
BRANCH  14  15
ATOM     15  C   UNL     1      26.061  13.311  50.059  1.00  0.00    -0.000 C 
BRANCH  15  16
ATOM     16  C   UNL     1      24.922  12.766  49.173  1.00  0.00    -0.000 C 
BRANCH  16  17
ATOM     17  C   UNL     1      23.874  11.915  49.912  1.00  0.00    -0.003 C 
ATOM     18  C   UNL     1      24.139  10.413  49.798  1.00  0.00     0.004 C 
ENDBRANCH  16  17
ENDBRANCH  15  16
ENDBRANCH  14  15
ENDBRANCH  13  14
ENDBRANCH  12  13
ENDBRANCH  11  12
ENDBRANCH   1  11
TORSDOF 14
ENDMDL
