MODEL 1
REMARK VINA RESULT:    -1.972      0.000      0.000
REMARK INTER + INTRA:          -1.972
REMARK INTER:                  -1.972
REMARK INTRA:                   0.000
REMARK UNBOUND:                 0.000
REMARK SMILES CC(=O)[O-]
REMARK SMILES IDX 1 1 2 2 3 3 4 4
REMARK H PARENT
REMARK Flexibility Score: inf
ROOT
ATOM      1  C   UNL     1       5.375  26.626  10.049  1.00  0.00     0.063 C 
ATOM      2  C   UNL     1       5.014  27.513   8.907  1.00  0.00     0.038 C 
ATOM      3  O   UNL     1       5.734  27.537   7.875  1.00  0.00    -0.550 OA
ATOM      4  O   UNL     1       3.913  28.354   9.000  1.00  0.00    -0.550 OA
ENDROOT
TORSDOF 0
ENDMDL
MODEL 2
REMARK VINA RESULT:    -1.854     12.254     12.711
REMARK INTER + INTRA:          -1.854
REMARK INTER:                  -1.854
REMARK INTRA:                   0.000
REMARK UNBOUND:                 0.000
REMARK SMILES CC(=O)[O-]
REMARK SMILES IDX 1 1 2 2 3 3 4 4
REMARK H PARENT
REMARK Flexibility Score: inf
ROOT
ATOM      1  C   UNL     1      -4.568  20.152  13.164  1.00  0.00     0.063 C 
ATOM      2  C   UNL     1      -4.066  20.731  14.443  1.00  0.00     0.038 C 
ATOM      3  O   UNL     1      -2.828  20.823  14.650  1.00  0.00    -0.550 OA
ATOM      4  O   UNL     1      -4.962  21.122  15.430  1.00  0.00    -0.550 OA
ENDROOT
TORSDOF 0
ENDMDL
MODEL 3
REMARK VINA RESULT:    -1.829     12.226     12.436
REMARK INTER + INTRA:          -1.829
REMARK INTER:                  -1.829
REMARK INTRA:                   0.000
REMARK UNBOUND:                 0.000
REMARK SMILES CC(=O)[O-]
REMARK SMILES IDX 1 1 2 2 3 3 4 4
REMARK H PARENT
REMARK Flexibility Score: inf
ROOT
ATOM      1  C   UNL     1      -3.154  20.760  14.778  1.00  0.00     0.063 C 
ATOM      2  C   UNL     1      -4.217  20.687  13.735  1.00  0.00     0.038 C 
ATOM      3  O   UNL     1      -4.375  19.630  13.069  1.00  0.00    -0.550 OA
ATOM      4  O   UNL     1      -5.000  21.800  13.460  1.00  0.00    -0.550 OA
ENDROOT
TORSDOF 0
ENDMDL
MODEL 4
REMARK VINA RESULT:    -1.821     15.170     15.412
REMARK INTER + INTRA:          -1.821
REMARK INTER:                  -1.821
REMARK INTRA:                   0.000
REMARK UNBOUND:                 0.000
REMARK SMILES CC(=O)[O-]
REMARK SMILES IDX 1 1 2 2 3 3 4 4
REMARK H PARENT
REMARK Flexibility Score: inf
ROOT
ATOM      1  C   UNL     1      -0.908  12.275  10.572  1.00  0.00     0.063 C 
ATOM      2  C   UNL     1      -1.401  13.681  10.586  1.00  0.00     0.038 C 
ATOM      3  O   UNL     1      -2.574  13.943  10.211  1.00  0.00    -0.550 OA
ATOM      4  O   UNL     1      -0.551  14.713  10.962  1.00  0.00    -0.550 OA
ENDROOT
TORSDOF 0
ENDMDL
MODEL 5
REMARK VINA RESULT:    -1.739     15.176     15.382
REMARK INTER + INTRA:          -1.739
REMARK INTER:                  -1.739
REMARK INTRA:                   0.000
REMARK UNBOUND:                 0.000
REMARK SMILES CC(=O)[O-]
REMARK SMILES IDX 1 1 2 2 3 3 4 4
REMARK H PARENT
REMARK Flexibility Score: inf
ROOT
ATOM      1  C   UNL     1      -2.555  13.997   9.917  1.00  0.00     0.063 C 
ATOM      2  C   UNL     1      -1.238  13.731  10.563  1.00  0.00     0.038 C 
ATOM      3  O   UNL     1      -0.539  14.687  10.989  1.00  0.00    -0.550 OA
ATOM      4  O   UNL     1      -0.756  12.431  10.651  1.00  0.00    -0.550 OA
ENDROOT
TORSDOF 0
ENDMDL
MODEL 6
REMARK VINA RESULT:    -1.704      1.335      2.136
REMARK INTER + INTRA:          -1.704
REMARK INTER:                  -1.704
REMARK INTRA:                   0.000
REMARK UNBOUND:                 0.000
REMARK SMILES CC(=O)[O-]
REMARK SMILES IDX 1 1 2 2 3 3 4 4
REMARK H PARENT
REMARK Flexibility Score: inf
ROOT
ATOM      1  C   UNL     1       3.492  28.003   8.589  1.00  0.00     0.063 C 
ATOM      2  C   UNL     1       4.857  27.459   8.842  1.00  0.00     0.038 C 
ATOM      3  O   UNL     1       5.128  26.925   9.949  1.00  0.00    -0.550 OA
ATOM      4  O   UNL     1       5.847  27.586   7.876  1.00  0.00    -0.550 OA
ENDROOT
TORSDOF 0
ENDMDL
MODEL 7
REMARK VINA RESULT:    -1.647     16.256     16.441
REMARK INTER + INTRA:          -1.647
REMARK INTER:                  -1.647
REMARK INTRA:                   0.000
REMARK UNBOUND:                 0.000
REMARK SMILES CC(=O)[O-]
REMARK SMILES IDX 1 1 2 2 3 3 4 4
REMARK H PARENT
REMARK Flexibility Score: inf
ROOT
ATOM      1  C   UNL     1      -1.023  13.942  10.869  1.00  0.00     0.063 C 
ATOM      2  C   UNL     1      -1.315  12.483  10.773  1.00  0.00     0.038 C 
ATOM      3  O   UNL     1      -0.515  11.717  10.176  1.00  0.00    -0.550 OA
ATOM      4  O   UNL     1      -2.496  11.974  11.299  1.00  0.00    -0.550 OA
ENDROOT
TORSDOF 0
ENDMDL
MODEL 8
REMARK VINA RESULT:    -1.621      2.949      3.332
REMARK INTER + INTRA:          -1.621
REMARK INTER:                  -1.621
REMARK INTRA:                   0.000
REMARK UNBOUND:                 0.000
REMARK SMILES CC(=O)[O-]
REMARK SMILES IDX 1 1 2 2 3 3 4 4
REMARK H PARENT
REMARK Flexibility Score: inf
ROOT
ATOM      1  C   UNL     1       3.897  28.559   8.690  1.00  0.00     0.063 C 
ATOM      2  C   UNL     1       3.005  29.753   8.725  1.00  0.00     0.038 C 
ATOM      3  O   UNL     1       1.781  29.634   8.460  1.00  0.00    -0.550 OA
ATOM      4  O   UNL     1       3.533  31.008   8.999  1.00  0.00    -0.550 OA
ENDROOT
TORSDOF 0
ENDMDL
MODEL 9
REMARK VINA RESULT:    -1.563      7.699      8.110
REMARK INTER + INTRA:          -1.563
REMARK INTER:                  -1.563
REMARK INTRA:                   0.000
REMARK UNBOUND:                 0.000
REMARK SMILES CC(=O)[O-]
REMARK SMILES IDX 1 1 2 2 3 3 4 4
REMARK H PARENT
REMARK Flexibility Score: inf
ROOT
ATOM      1  C   UNL     1      13.268  26.318   9.737  1.00  0.00     0.063 C 
ATOM      2  C   UNL     1      13.028  27.785   9.848  1.00  0.00     0.038 C 
ATOM      3  O   UNL     1      13.971  28.596   9.655  1.00  0.00    -0.550 OA
ATOM      4  O   UNL     1      11.775  28.260  10.216  1.00  0.00    -0.550 OA
ENDROOT
TORSDOF 0
ENDMDL
