MODEL 1
REMARK VINA RESULT:    -6.169      0.000      0.000
REMARK INTER + INTRA:          -7.802
REMARK INTER:                  -7.612
REMARK INTRA:                  -0.191
REMARK UNBOUND:                -0.191
REMARK SMILES CCOC(=O)c1ccc(O)c(O)c1
REMARK SMILES IDX 4 1 5 2 3 3 2 4 1 5 6 6 13 7 7 8 11 9 8 10 9 11 12 12 10 14
REMARK H PARENT 12 13 10 15
REMARK Flexibility Score: inf
ROOT
ATOM      1  C   UNL     1     -31.218  -4.183 -16.819  1.00  0.00     0.338 C 
ATOM      2  O   UNL     1     -32.144  -3.818 -16.044  1.00  0.00    -0.246 OA
ENDROOT
BRANCH   1   3
ATOM      3  O   UNL     1     -30.332  -5.195 -16.427  1.00  0.00    -0.462 OA
BRANCH   3   4
ATOM      4  C   UNL     1     -30.579  -6.584 -16.638  1.00  0.00     0.230 C 
ATOM      5  C   UNL     1     -29.303  -7.394 -16.439  1.00  0.00     0.049 C 
ENDBRANCH   3   4
ENDBRANCH   1   3
BRANCH   1   6
ATOM      6  C   UNL     1     -31.059  -3.538 -18.142  1.00  0.00     0.064 A 
ATOM      7  C   UNL     1     -32.179  -3.056 -18.845  1.00  0.00     0.065 A 
ATOM      8  C   UNL     1     -29.784  -3.399 -18.713  1.00  0.00     0.020 A 
ATOM      9  C   UNL     1     -32.024  -2.446 -20.098  1.00  0.00     0.158 A 
ATOM     10  C   UNL     1     -29.630  -2.791 -19.963  1.00  0.00     0.051 A 
ATOM     11  C   UNL     1     -30.748  -2.313 -20.658  1.00  0.00     0.157 A 
BRANCH   9  12
ATOM     12  O   UNL     1     -33.135  -1.971 -20.793  1.00  0.00    -0.504 OA
ATOM     13  H   UNL     1     -33.039  -1.452 -21.658  1.00  0.00     0.293 HD
ENDBRANCH   9  12
BRANCH  11  14
ATOM     14  O   UNL     1     -30.598  -1.706 -21.903  1.00  0.00    -0.504 OA
ATOM     15  H   UNL     1     -30.352  -2.242 -22.728  1.00  0.00     0.293 HD
ENDBRANCH  11  14
ENDBRANCH   1   6
TORSDOF 5
ENDMDL
MODEL 2
REMARK VINA RESULT:    -5.879      1.695      2.448
REMARK INTER + INTRA:          -7.445
REMARK INTER:                  -7.201
REMARK INTRA:                  -0.243
REMARK UNBOUND:                -0.191
REMARK SMILES CCOC(=O)c1ccc(O)c(O)c1
REMARK SMILES IDX 4 1 5 2 3 3 2 4 1 5 6 6 13 7 7 8 11 9 8 10 9 11 12 12 10 14
REMARK H PARENT 12 13 10 15
REMARK Flexibility Score: inf
ROOT
ATOM      1  C   UNL     1     -32.326  -4.053 -16.863  1.00  0.00     0.338 C 
ATOM      2  O   UNL     1     -31.528  -4.417 -15.955  1.00  0.00    -0.246 OA
ENDROOT
BRANCH   1   3
ATOM      3  O   UNL     1     -33.707  -4.212 -16.689  1.00  0.00    -0.462 OA
BRANCH   3   4
ATOM      4  C   UNL     1     -34.374  -5.469 -16.785  1.00  0.00     0.230 C 
ATOM      5  C   UNL     1     -35.635  -5.346 -17.633  1.00  0.00     0.049 C 
ENDBRANCH   3   4
ENDBRANCH   1   3
BRANCH   1   6
ATOM      6  C   UNL     1     -31.806  -3.465 -18.117  1.00  0.00     0.064 A 
ATOM      7  C   UNL     1     -32.684  -2.944 -19.085  1.00  0.00     0.065 A 
ATOM      8  C   UNL     1     -30.423  -3.420 -18.358  1.00  0.00     0.020 A 
ATOM      9  C   UNL     1     -32.187  -2.388 -20.273  1.00  0.00     0.158 A 
ATOM     10  C   UNL     1     -29.928  -2.866 -19.542  1.00  0.00     0.051 A 
ATOM     11  C   UNL     1     -30.806  -2.349 -20.501  1.00  0.00     0.157 A 
BRANCH   9  12
ATOM     12  O   UNL     1     -33.060  -1.874 -21.230  1.00  0.00    -0.504 OA
ATOM     13  H   UNL     1     -33.329  -0.897 -21.234  1.00  0.00     0.293 HD
ENDBRANCH   9  12
BRANCH  11  14
ATOM     14  O   UNL     1     -30.316  -1.796 -21.682  1.00  0.00    -0.504 OA
ATOM     15  H   UNL     1     -29.707  -0.986 -21.676  1.00  0.00     0.293 HD
ENDBRANCH  11  14
ENDBRANCH   1   6
TORSDOF 5
ENDMDL
MODEL 3
REMARK VINA RESULT:    -5.862      0.969      2.019
REMARK INTER + INTRA:          -7.424
REMARK INTER:                  -7.262
REMARK INTRA:                  -0.162
REMARK UNBOUND:                -0.191
REMARK SMILES CCOC(=O)c1ccc(O)c(O)c1
REMARK SMILES IDX 4 1 5 2 3 3 2 4 1 5 6 6 13 7 7 8 11 9 8 10 9 11 12 12 10 14
REMARK H PARENT 12 13 10 15
REMARK Flexibility Score: inf
ROOT
ATOM      1  C   UNL     1     -31.630  -4.483 -16.400  1.00  0.00     0.338 C 
ATOM      2  O   UNL     1     -32.380  -4.366 -15.392  1.00  0.00    -0.246 OA
ENDROOT
BRANCH   1   3
ATOM      3  O   UNL     1     -30.466  -5.258 -16.323  1.00  0.00    -0.462 OA
BRANCH   3   4
ATOM      4  C   UNL     1     -30.436  -6.662 -16.572  1.00  0.00     0.230 C 
ATOM      5  C   UNL     1     -29.334  -7.330 -15.756  1.00  0.00     0.049 C 
ENDBRANCH   3   4
ENDBRANCH   1   3
BRANCH   1   6
ATOM      6  C   UNL     1     -31.974  -3.796 -17.665  1.00  0.00     0.064 A 
ATOM      7  C   UNL     1     -30.969  -3.245 -18.479  1.00  0.00     0.065 A 
ATOM      8  C   UNL     1     -33.315  -3.686 -18.069  1.00  0.00     0.020 A 
ATOM      9  C   UNL     1     -31.299  -2.594 -19.677  1.00  0.00     0.158 A 
ATOM     10  C   UNL     1     -33.644  -3.037 -19.262  1.00  0.00     0.051 A 
ATOM     11  C   UNL     1     -32.639  -2.490 -20.069  1.00  0.00     0.157 A 
BRANCH   9  12
ATOM     12  O   UNL     1     -30.300  -2.047 -20.481  1.00  0.00    -0.504 OA
ATOM     13  H   UNL     1     -29.588  -1.435 -20.101  1.00  0.00     0.293 HD
ENDBRANCH   9  12
BRANCH  11  14
ATOM     14  O   UNL     1     -32.963  -1.843 -21.259  1.00  0.00    -0.504 OA
ATOM     15  H   UNL     1     -33.291  -0.884 -21.269  1.00  0.00     0.293 HD
ENDBRANCH  11  14
ENDBRANCH   1   6
TORSDOF 5
ENDMDL
MODEL 4
REMARK VINA RESULT:    -5.750      2.300      3.277
REMARK INTER + INTRA:          -7.285
REMARK INTER:                  -7.053
REMARK INTRA:                  -0.232
REMARK UNBOUND:                -0.191
REMARK SMILES CCOC(=O)c1ccc(O)c(O)c1
REMARK SMILES IDX 4 1 5 2 3 3 2 4 1 5 6 6 13 7 7 8 11 9 8 10 9 11 12 12 10 14
REMARK H PARENT 12 13 10 15
REMARK Flexibility Score: inf
ROOT
ATOM      1  C   UNL     1     -33.827  -4.115 -16.885  1.00  0.00     0.338 C 
ATOM      2  O   UNL     1     -33.397  -4.464 -15.751  1.00  0.00    -0.246 OA
ENDROOT
BRANCH   1   3
ATOM      3  O   UNL     1     -35.176  -4.299 -17.213  1.00  0.00    -0.462 OA
BRANCH   3   4
ATOM      4  C   UNL     1     -35.691  -5.499 -17.787  1.00  0.00     0.230 C 
ATOM      5  C   UNL     1     -36.368  -5.209 -19.122  1.00  0.00     0.049 C 
ENDBRANCH   3   4
ENDBRANCH   1   3
BRANCH   1   6
ATOM      6  C   UNL     1     -32.904  -3.516 -17.876  1.00  0.00     0.064 A 
ATOM      7  C   UNL     1     -33.393  -2.985 -19.083  1.00  0.00     0.065 A 
ATOM      8  C   UNL     1     -31.523  -3.472 -17.622  1.00  0.00     0.020 A 
ATOM      9  C   UNL     1     -32.515  -2.419 -20.020  1.00  0.00     0.158 A 
ATOM     10  C   UNL     1     -30.649  -2.909 -18.555  1.00  0.00     0.051 A 
ATOM     11  C   UNL     1     -31.141  -2.381 -19.755  1.00  0.00     0.157 A 
BRANCH   9  12
ATOM     12  O   UNL     1     -33.003  -1.895 -21.216  1.00  0.00    -0.504 OA
ATOM     13  H   UNL     1     -33.964  -1.587 -21.308  1.00  0.00     0.293 HD
ENDBRANCH   9  12
BRANCH  11  14
ATOM     14  O   UNL     1     -30.273  -1.819 -20.688  1.00  0.00    -0.504 OA
ATOM     15  H   UNL     1     -30.017  -2.308 -21.538  1.00  0.00     0.293 HD
ENDBRANCH  11  14
ENDBRANCH   1   6
TORSDOF 5
ENDMDL
MODEL 5
REMARK VINA RESULT:    -5.438      8.311     10.297
REMARK INTER + INTRA:          -6.900
REMARK INTER:                  -6.605
REMARK INTRA:                  -0.296
REMARK UNBOUND:                -0.191
REMARK SMILES CCOC(=O)c1ccc(O)c(O)c1
REMARK SMILES IDX 4 1 5 2 3 3 2 4 1 5 6 6 13 7 7 8 11 9 8 10 9 11 12 12 10 14
REMARK H PARENT 12 13 10 15
REMARK Flexibility Score: inf
ROOT
ATOM      1  C   UNL     1     -36.445  -6.673 -13.357  1.00  0.00     0.338 C 
ATOM      2  O   UNL     1     -35.641  -7.385 -12.693  1.00  0.00    -0.246 OA
ENDROOT
BRANCH   1   3
ATOM      3  O   UNL     1     -35.972  -5.574 -14.085  1.00  0.00    -0.462 OA
BRANCH   3   4
ATOM      4  C   UNL     1     -35.111  -5.689 -15.216  1.00  0.00     0.230 C 
ATOM      5  C   UNL     1     -35.799  -6.454 -16.342  1.00  0.00     0.049 C 
ENDBRANCH   3   4
ENDBRANCH   1   3
BRANCH   1   6
ATOM      6  C   UNL     1     -37.890  -6.993 -13.363  1.00  0.00     0.064 A 
ATOM      7  C   UNL     1     -38.330  -8.328 -13.321  1.00  0.00     0.065 A 
ATOM      8  C   UNL     1     -38.843  -5.962 -13.411  1.00  0.00     0.020 A 
ATOM      9  C   UNL     1     -39.701  -8.627 -13.327  1.00  0.00     0.158 A 
ATOM     10  C   UNL     1     -40.208  -6.260 -13.418  1.00  0.00     0.051 A 
ATOM     11  C   UNL     1     -40.641  -7.591 -13.375  1.00  0.00     0.157 A 
BRANCH   9  12
ATOM     12  O   UNL     1     -40.134  -9.951 -13.286  1.00  0.00    -0.504 OA
ATOM     13  H   UNL     1     -39.776 -10.647 -13.930  1.00  0.00     0.293 HD
ENDBRANCH   9  12
BRANCH  11  14
ATOM     14  O   UNL     1     -42.001  -7.892 -13.381  1.00  0.00    -0.504 OA
ATOM     15  H   UNL     1     -42.333  -8.849 -13.382  1.00  0.00     0.293 HD
ENDBRANCH  11  14
ENDBRANCH   1   6
TORSDOF 5
ENDMDL
MODEL 6
REMARK VINA RESULT:    -5.422      7.804      9.878
REMARK INTER + INTRA:          -6.881
REMARK INTER:                  -6.585
REMARK INTRA:                  -0.296
REMARK UNBOUND:                -0.191
REMARK SMILES CCOC(=O)c1ccc(O)c(O)c1
REMARK SMILES IDX 4 1 5 2 3 3 2 4 1 5 6 6 13 7 7 8 11 9 8 10 9 11 12 12 10 14
REMARK H PARENT 12 13 10 15
REMARK Flexibility Score: inf
ROOT
ATOM      1  C   UNL     1     -36.476  -5.676 -13.379  1.00  0.00     0.338 C 
ATOM      2  O   UNL     1     -36.737  -4.596 -12.781  1.00  0.00    -0.246 OA
ENDROOT
BRANCH   1   3
ATOM      3  O   UNL     1     -35.261  -5.826 -14.060  1.00  0.00    -0.462 OA
BRANCH   3   4
ATOM      4  C   UNL     1     -35.038  -5.352 -15.386  1.00  0.00     0.230 C 
ATOM      5  C   UNL     1     -35.519  -6.374 -16.411  1.00  0.00     0.049 C 
ENDBRANCH   3   4
ENDBRANCH   1   3
BRANCH   1   6
ATOM      6  C   UNL     1     -37.456  -6.785 -13.369  1.00  0.00     0.064 A 
ATOM      7  C   UNL     1     -38.838  -6.522 -13.352  1.00  0.00     0.065 A 
ATOM      8  C   UNL     1     -37.016  -8.119 -13.376  1.00  0.00     0.020 A 
ATOM      9  C   UNL     1     -39.764  -7.576 -13.342  1.00  0.00     0.158 A 
ATOM     10  C   UNL     1     -37.939  -9.169 -13.366  1.00  0.00     0.051 A 
ATOM     11  C   UNL     1     -39.313  -8.901 -13.349  1.00  0.00     0.157 A 
BRANCH   9  12
ATOM     12  O   UNL     1     -41.132  -7.312 -13.323  1.00  0.00    -0.504 OA
ATOM     13  H   UNL     1     -41.499  -6.434 -12.974  1.00  0.00     0.293 HD
ENDBRANCH   9  12
BRANCH  11  14
ATOM     14  O   UNL     1     -40.236  -9.945 -13.340  1.00  0.00    -0.504 OA
ATOM     15  H   UNL     1     -40.021 -10.846 -13.751  1.00  0.00     0.293 HD
ENDBRANCH  11  14
ENDBRANCH   1   6
TORSDOF 5
ENDMDL
MODEL 7
REMARK VINA RESULT:    -5.378      6.440      8.619
REMARK INTER + INTRA:          -6.826
REMARK INTER:                  -6.645
REMARK INTRA:                  -0.181
REMARK UNBOUND:                -0.191
REMARK SMILES CCOC(=O)c1ccc(O)c(O)c1
REMARK SMILES IDX 4 1 5 2 3 3 2 4 1 5 6 6 13 7 7 8 11 9 8 10 9 11 12 12 10 14
REMARK H PARENT 12 13 10 15
REMARK Flexibility Score: inf
ROOT
ATOM      1  C   UNL     1     -35.594  -6.085 -16.117  1.00  0.00     0.338 C 
ATOM      2  O   UNL     1     -35.922  -5.817 -17.306  1.00  0.00    -0.246 OA
ENDROOT
BRANCH   1   3
ATOM      3  O   UNL     1     -34.455  -5.497 -15.553  1.00  0.00    -0.462 OA
BRANCH   3   4
ATOM      4  C   UNL     1     -33.550  -4.671 -16.284  1.00  0.00     0.230 C 
ATOM      5  C   UNL     1     -32.327  -5.468 -16.721  1.00  0.00     0.049 C 
ENDBRANCH   3   4
ENDBRANCH   1   3
BRANCH   1   6
ATOM      6  C   UNL     1     -36.407  -7.029 -15.318  1.00  0.00     0.064 A 
ATOM      7  C   UNL     1     -37.583  -7.591 -15.848  1.00  0.00     0.065 A 
ATOM      8  C   UNL     1     -36.013  -7.376 -14.015  1.00  0.00     0.020 A 
ATOM      9  C   UNL     1     -38.351  -8.485 -15.087  1.00  0.00     0.158 A 
ATOM     10  C   UNL     1     -36.779  -8.266 -13.257  1.00  0.00     0.051 A 
ATOM     11  C   UNL     1     -37.948  -8.823 -13.790  1.00  0.00     0.157 A 
BRANCH   9  12
ATOM     12  O   UNL     1     -39.516  -9.040 -15.615  1.00  0.00    -0.504 OA
ATOM     13  H   UNL     1     -39.664  -9.111 -16.615  1.00  0.00     0.293 HD
ENDBRANCH   9  12
BRANCH  11  14
ATOM     14  O   UNL     1     -38.713  -9.711 -13.037  1.00  0.00    -0.504 OA
ATOM     15  H   UNL     1     -38.605 -10.714 -13.129  1.00  0.00     0.293 HD
ENDBRANCH  11  14
ENDBRANCH   1   6
TORSDOF 5
ENDMDL
MODEL 8
REMARK VINA RESULT:    -5.267      8.121     10.271
REMARK INTER + INTRA:          -6.689
REMARK INTER:                  -6.411
REMARK INTRA:                  -0.278
REMARK UNBOUND:                -0.191
REMARK SMILES CCOC(=O)c1ccc(O)c(O)c1
REMARK SMILES IDX 4 1 5 2 3 3 2 4 1 5 6 6 13 7 7 8 11 9 8 10 9 11 12 12 10 14
REMARK H PARENT 12 13 10 15
REMARK Flexibility Score: inf
ROOT
ATOM      1  C   UNL     1     -36.412  -5.706 -13.517  1.00  0.00     0.338 C 
ATOM      2  O   UNL     1     -35.952  -5.319 -14.627  1.00  0.00    -0.246 OA
ENDROOT
BRANCH   1   3
ATOM      3  O   UNL     1     -35.992  -5.092 -12.330  1.00  0.00    -0.462 OA
BRANCH   3   4
ATOM      4  C   UNL     1     -36.233  -3.720 -12.024  1.00  0.00     0.230 C 
ATOM      5  C   UNL     1     -37.653  -3.526 -11.503  1.00  0.00     0.049 C 
ENDBRANCH   3   4
ENDBRANCH   1   3
BRANCH   1   6
ATOM      6  C   UNL     1     -37.391  -6.814 -13.466  1.00  0.00     0.064 A 
ATOM      7  C   UNL     1     -38.772  -6.551 -13.394  1.00  0.00     0.065 A 
ATOM      8  C   UNL     1     -36.953  -8.149 -13.487  1.00  0.00     0.020 A 
ATOM      9  C   UNL     1     -39.696  -7.605 -13.344  1.00  0.00     0.158 A 
ATOM     10  C   UNL     1     -37.875  -9.198 -13.438  1.00  0.00     0.051 A 
ATOM     11  C   UNL     1     -39.247  -8.930 -13.367  1.00  0.00     0.157 A 
BRANCH   9  12
ATOM     12  O   UNL     1     -41.063  -7.340 -13.272  1.00  0.00    -0.504 OA
ATOM     13  H   UNL     1     -41.694  -7.941 -12.754  1.00  0.00     0.293 HD
ENDBRANCH   9  12
BRANCH  11  14
ATOM     14  O   UNL     1     -40.168  -9.974 -13.318  1.00  0.00    -0.504 OA
ATOM     15  H   UNL     1     -40.053 -10.810 -13.879  1.00  0.00     0.293 HD
ENDBRANCH  11  14
ENDBRANCH   1   6
TORSDOF 5
ENDMDL
MODEL 9
REMARK VINA RESULT:    -5.239      6.331      7.707
REMARK INTER + INTRA:          -6.656
REMARK INTER:                  -6.530
REMARK INTRA:                  -0.126
REMARK UNBOUND:                -0.191
REMARK SMILES CCOC(=O)c1ccc(O)c(O)c1
REMARK SMILES IDX 4 1 5 2 3 3 2 4 1 5 6 6 13 7 7 8 11 9 8 10 9 11 12 12 10 14
REMARK H PARENT 12 13 10 15
REMARK Flexibility Score: inf
ROOT
ATOM      1  C   UNL     1     -36.703  -7.779 -13.391  1.00  0.00     0.338 C 
ATOM      2  O   UNL     1     -36.025  -8.570 -12.678  1.00  0.00    -0.246 OA
ENDROOT
BRANCH   1   3
ATOM      3  O   UNL     1     -38.096  -7.905 -13.450  1.00  0.00    -0.462 OA
BRANCH   3   4
ATOM      4  C   UNL     1     -38.775  -9.159 -13.440  1.00  0.00     0.230 C 
ATOM      5  C   UNL     1     -40.286  -8.953 -13.418  1.00  0.00     0.049 C 
ENDBRANCH   3   4
ENDBRANCH   1   3
BRANCH   1   6
ATOM      6  C   UNL     1     -36.025  -6.720 -14.172  1.00  0.00     0.064 A 
ATOM      7  C   UNL     1     -35.891  -6.832 -15.568  1.00  0.00     0.065 A 
ATOM      8  C   UNL     1     -35.506  -5.586 -13.527  1.00  0.00     0.020 A 
ATOM      9  C   UNL     1     -35.248  -5.827 -16.305  1.00  0.00     0.158 A 
ATOM     10  C   UNL     1     -34.865  -4.585 -14.262  1.00  0.00     0.051 A 
ATOM     11  C   UNL     1     -34.734  -4.701 -15.650  1.00  0.00     0.157 A 
BRANCH   9  12
ATOM     12  O   UNL     1     -35.116  -5.941 -17.688  1.00  0.00    -0.504 OA
ATOM     13  H   UNL     1     -34.876  -5.144 -18.267  1.00  0.00     0.293 HD
ENDBRANCH   9  12
BRANCH  11  14
ATOM     14  O   UNL     1     -34.096  -3.704 -16.386  1.00  0.00    -0.504 OA
ATOM     15  H   UNL     1     -33.421  -3.928 -17.107  1.00  0.00     0.293 HD
ENDBRANCH  11  14
ENDBRANCH   1   6
TORSDOF 5
ENDMDL
