MODEL 1
REMARK VINA RESULT:    -3.306      0.000      0.000
REMARK INTER + INTRA:         -10.696
REMARK INTER:                  -7.558
REMARK INTRA:                  -3.138
REMARK UNBOUND:                -3.138
REMARK SMILES CCCCCCCCCCCCCCCCCCCCCCCC(=O)[O-]
REMARK SMILES IDX 13 1 14 2 15 3 16 4 17 5 18 6 19 7 20 8 21 9 22 10 23 11
REMARK SMILES IDX 24 12 25 13 26 14 12 15 11 16 10 17 9 18 8 19 7 20 6 21 5 22
REMARK SMILES IDX 4 23 3 24 2 25 1 26
REMARK H PARENT
REMARK Flexibility Score: inf
ROOT
ATOM      1  C   UNL     1      10.007  -6.158  20.355  1.00  0.00     0.000 C 
ENDROOT
BRANCH   1   2
ATOM      2  C   UNL     1      10.973  -4.994  20.625  1.00  0.00     0.000 C 
BRANCH   2   3
ATOM      3  C   UNL     1      11.055  -4.005  19.453  1.00  0.00     0.000 C 
BRANCH   3   4
ATOM      4  C   UNL     1      10.673  -2.589  19.909  1.00  0.00     0.000 C 
BRANCH   4   5
ATOM      5  C   UNL     1       9.592  -2.584  21.003  1.00  0.00     0.000 C 
BRANCH   5   6
ATOM      6  C   UNL     1       8.971  -1.204  21.304  1.00  0.00     0.000 C 
BRANCH   6   7
ATOM      7  C   UNL     1       9.474  -0.523  22.590  1.00  0.00     0.000 C 
BRANCH   7   8
ATOM      8  C   UNL     1      10.149  -1.500  23.565  1.00  0.00     0.000 C 
BRANCH   8   9
ATOM      9  C   UNL     1       9.423  -1.517  24.916  1.00  0.00     0.000 C 
BRANCH   9  10
ATOM     10  C   UNL     1       7.905  -1.405  24.727  1.00  0.00     0.006 C 
BRANCH  10  11
ATOM     11  C   UNL     1       7.174  -1.547  26.066  1.00  0.00     0.053 C 
BRANCH  11  12
ATOM     12  C   UNL     1       7.117  -2.983  26.483  1.00  0.00     0.041 C 
ATOM     13  O   UNL     1       6.202  -3.734  26.053  1.00  0.00    -0.550 OA
ATOM     14  O   UNL     1       8.058  -3.484  27.375  1.00  0.00    -0.550 OA
ENDBRANCH  11  12
ENDBRANCH  10  11
ENDBRANCH   9  10
ENDBRANCH   8   9
ENDBRANCH   7   8
ENDBRANCH   6   7
ENDBRANCH   5   6
ENDBRANCH   4   5
ENDBRANCH   3   4
ENDBRANCH   2   3
ENDBRANCH   1   2
BRANCH   1  15
ATOM     15  C   UNL     1      10.273  -6.849  19.005  1.00  0.00     0.000 C 
BRANCH  15  16
ATOM     16  C   UNL     1       8.999  -6.948  18.139  1.00  0.00     0.000 C 
BRANCH  16  17
ATOM     17  C   UNL     1       9.223  -6.583  16.661  1.00  0.00     0.000 C 
BRANCH  17  18
ATOM     18  C   UNL     1      10.604  -5.961  16.403  1.00  0.00    -0.000 C 
BRANCH  18  19
ATOM     19  C   UNL     1      10.591  -4.912  15.274  1.00  0.00    -0.000 C 
BRANCH  19  20
ATOM     20  C   UNL     1       9.335  -4.020  15.220  1.00  0.00    -0.000 C 
BRANCH  20  21
ATOM     21  C   UNL     1       9.118  -3.112  16.447  1.00  0.00    -0.000 C 
BRANCH  21  22
ATOM     22  C   UNL     1       7.646  -3.015  16.899  1.00  0.00    -0.000 C 
BRANCH  22  23
ATOM     23  C   UNL     1       7.425  -3.572  18.314  1.00  0.00    -0.000 C 
BRANCH  23  24
ATOM     24  C   UNL     1       6.403  -2.725  19.082  1.00  0.00    -0.000 C 
BRANCH  24  25
ATOM     25  C   UNL     1       5.526  -1.914  18.122  1.00  0.00    -0.003 C 
ATOM     26  C   UNL     1       5.198  -0.540  18.701  1.00  0.00     0.004 C 
ENDBRANCH  24  25
ENDBRANCH  23  24
ENDBRANCH  22  23
ENDBRANCH  21  22
ENDBRANCH  20  21
ENDBRANCH  19  20
ENDBRANCH  18  19
ENDBRANCH  17  18
ENDBRANCH  16  17
ENDBRANCH  15  16
ENDBRANCH   1  15
TORSDOF 22
ENDMDL
MODEL 2
REMARK VINA RESULT:    -3.284      4.000      7.653
REMARK INTER + INTRA:         -10.645
REMARK INTER:                  -6.822
REMARK INTRA:                  -3.824
REMARK UNBOUND:                -3.138
REMARK SMILES CCCCCCCCCCCCCCCCCCCCCCCC(=O)[O-]
REMARK SMILES IDX 13 1 14 2 15 3 16 4 17 5 18 6 19 7 20 8 21 9 22 10 23 11
REMARK SMILES IDX 24 12 25 13 26 14 12 15 11 16 10 17 9 18 8 19 7 20 6 21 5 22
REMARK SMILES IDX 4 23 3 24 2 25 1 26
REMARK H PARENT
REMARK Flexibility Score: inf
ROOT
ATOM      1  C   UNL     1       6.360   1.611  18.296  1.00  0.00     0.000 C 
ENDROOT
BRANCH   1   2
ATOM      2  C   UNL     1       7.569   1.382  17.376  1.00  0.00     0.000 C 
BRANCH   2   3
ATOM      3  C   UNL     1       8.666   0.532  18.036  1.00  0.00     0.000 C 
BRANCH   3   4
ATOM      4  C   UNL     1       8.918  -0.751  17.229  1.00  0.00     0.000 C 
BRANCH   4   5
ATOM      5  C   UNL     1       7.836  -1.012  16.167  1.00  0.00     0.000 C 
BRANCH   5   6
ATOM      6  C   UNL     1       6.883  -2.184  16.478  1.00  0.00     0.000 C 
BRANCH   6   7
ATOM      7  C   UNL     1       5.520  -1.784  17.071  1.00  0.00     0.000 C 
BRANCH   7   8
ATOM      8  C   UNL     1       5.492  -1.835  18.606  1.00  0.00     0.000 C 
BRANCH   8   9
ATOM      9  C   UNL     1       6.453  -2.906  19.137  1.00  0.00     0.000 C 
BRANCH   9  10
ATOM     10  C   UNL     1       7.421  -2.315  20.171  1.00  0.00     0.006 C 
BRANCH  10  11
ATOM     11  C   UNL     1       8.745  -3.084  20.186  1.00  0.00     0.053 C 
BRANCH  11  12
ATOM     12  C   UNL     1       9.816  -2.270  20.842  1.00  0.00     0.041 C 
ATOM     13  O   UNL     1      10.899  -2.810  21.193  1.00  0.00    -0.550 OA
ATOM     14  O   UNL     1       9.604  -0.921  21.097  1.00  0.00    -0.550 OA
ENDBRANCH  11  12
ENDBRANCH  10  11
ENDBRANCH   9  10
ENDBRANCH   8   9
ENDBRANCH   7   8
ENDBRANCH   6   7
ENDBRANCH   5   6
ENDBRANCH   4   5
ENDBRANCH   3   4
ENDBRANCH   2   3
ENDBRANCH   1   2
BRANCH   1  15
ATOM     15  C   UNL     1       5.088   1.995  17.519  1.00  0.00     0.000 C 
BRANCH  15  16
ATOM     16  C   UNL     1       5.257   1.815  15.995  1.00  0.00     0.000 C 
BRANCH  16  17
ATOM     17  C   UNL     1       4.271   0.809  15.375  1.00  0.00     0.000 C 
BRANCH  17  18
ATOM     18  C   UNL     1       3.500   1.389  14.179  1.00  0.00    -0.000 C 
BRANCH  18  19
ATOM     19  C   UNL     1       2.042   1.752  14.521  1.00  0.00    -0.000 C 
BRANCH  19  20
ATOM     20  C   UNL     1       1.814   3.212  14.962  1.00  0.00    -0.000 C 
BRANCH  20  21
ATOM     21  C   UNL     1       1.313   3.392  16.409  1.00  0.00    -0.000 C 
BRANCH  21  22
ATOM     22  C   UNL     1       1.180   2.069  17.193  1.00  0.00    -0.000 C 
BRANCH  22  23
ATOM     23  C   UNL     1       1.510   2.232  18.684  1.00  0.00    -0.000 C 
BRANCH  23  24
ATOM     24  C   UNL     1       2.114   0.943  19.255  1.00  0.00    -0.000 C 
BRANCH  24  25
ATOM     25  C   UNL     1       1.053   0.114  19.987  1.00  0.00    -0.003 C 
ATOM     26  C   UNL     1       0.631   0.785  21.292  1.00  0.00     0.004 C 
ENDBRANCH  24  25
ENDBRANCH  23  24
ENDBRANCH  22  23
ENDBRANCH  21  22
ENDBRANCH  20  21
ENDBRANCH  19  20
ENDBRANCH  18  19
ENDBRANCH  17  18
ENDBRANCH  16  17
ENDBRANCH  15  16
ENDBRANCH   1  15
TORSDOF 22
ENDMDL
MODEL 3
REMARK VINA RESULT:    -3.255      9.828     12.951
REMARK INTER + INTRA:         -10.580
REMARK INTER:                  -5.765
REMARK INTRA:                  -4.815
REMARK UNBOUND:                -3.138
REMARK SMILES CCCCCCCCCCCCCCCCCCCCCCCC(=O)[O-]
REMARK SMILES IDX 13 1 14 2 15 3 16 4 17 5 18 6 19 7 20 8 21 9 22 10 23 11
REMARK SMILES IDX 24 12 25 13 26 14 12 15 11 16 10 17 9 18 8 19 7 20 6 21 5 22
REMARK SMILES IDX 4 23 3 24 2 25 1 26
REMARK H PARENT
REMARK Flexibility Score: inf
ROOT
ATOM      1  C   UNL     1      -3.057  -1.468  21.244  1.00  0.00     0.000 C 
ENDROOT
BRANCH   1   2
ATOM      2  C   UNL     1      -1.873  -0.539  20.932  1.00  0.00     0.000 C 
BRANCH   2   3
ATOM      3  C   UNL     1      -0.512  -1.232  21.100  1.00  0.00     0.000 C 
BRANCH   3   4
ATOM      4  C   UNL     1       0.624  -0.199  21.123  1.00  0.00     0.000 C 
BRANCH   4   5
ATOM      5  C   UNL     1       0.223   1.146  20.493  1.00  0.00     0.000 C 
BRANCH   5   6
ATOM      6  C   UNL     1       0.385   2.373  21.414  1.00  0.00     0.000 C 
BRANCH   6   7
ATOM      7  C   UNL     1      -0.693   3.461  21.255  1.00  0.00     0.000 C 
BRANCH   7   8
ATOM      8  C   UNL     1      -1.960   3.178  22.077  1.00  0.00     0.000 C 
BRANCH   8   9
ATOM      9  C   UNL     1      -3.138   2.816  21.164  1.00  0.00     0.000 C 
BRANCH   9  10
ATOM     10  C   UNL     1      -4.428   2.636  21.975  1.00  0.00     0.006 C 
BRANCH  10  11
ATOM     11  C   UNL     1      -5.194   1.391  21.518  1.00  0.00     0.053 C 
BRANCH  11  12
ATOM     12  C   UNL     1      -5.570   1.507  20.074  1.00  0.00     0.041 C 
ATOM     13  O   UNL     1      -6.170   2.531  19.654  1.00  0.00    -0.550 OA
ATOM     14  O   UNL     1      -5.286   0.467  19.197  1.00  0.00    -0.550 OA
ENDBRANCH  11  12
ENDBRANCH  10  11
ENDBRANCH   9  10
ENDBRANCH   8   9
ENDBRANCH   7   8
ENDBRANCH   6   7
ENDBRANCH   5   6
ENDBRANCH   4   5
ENDBRANCH   3   4
ENDBRANCH   2   3
ENDBRANCH   1   2
BRANCH   1  15
ATOM     15  C   UNL     1      -2.932  -2.147  22.619  1.00  0.00     0.000 C 
BRANCH  15  16
ATOM     16  C   UNL     1      -3.692  -1.378  23.722  1.00  0.00     0.000 C 
BRANCH  16  17
ATOM     17  C   UNL     1      -2.784  -0.833  24.838  1.00  0.00     0.000 C 
BRANCH  17  18
ATOM     18  C   UNL     1      -2.167   0.532  24.491  1.00  0.00    -0.000 C 
BRANCH  18  19
ATOM     19  C   UNL     1      -0.626   0.512  24.480  1.00  0.00    -0.000 C 
BRANCH  19  20
ATOM     20  C   UNL     1       0.020  -0.724  25.137  1.00  0.00    -0.000 C 
BRANCH  20  21
ATOM     21  C   UNL     1       1.351  -1.183  24.510  1.00  0.00    -0.000 C 
BRANCH  21  22
ATOM     22  C   UNL     1       1.594  -2.704  24.603  1.00  0.00    -0.000 C 
BRANCH  22  23
ATOM     23  C   UNL     1       0.547  -3.516  23.826  1.00  0.00    -0.000 C 
BRANCH  23  24
ATOM     24  C   UNL     1      -0.034  -4.636  24.699  1.00  0.00    -0.000 C 
BRANCH  24  25
ATOM     25  C   UNL     1      -1.399  -4.237  25.270  1.00  0.00    -0.003 C 
ATOM     26  C   UNL     1      -1.286  -3.827  26.736  1.00  0.00     0.004 C 
ENDBRANCH  24  25
ENDBRANCH  23  24
ENDBRANCH  22  23
ENDBRANCH  21  22
ENDBRANCH  20  21
ENDBRANCH  19  20
ENDBRANCH  18  19
ENDBRANCH  17  18
ENDBRANCH  16  17
ENDBRANCH  15  16
ENDBRANCH   1  15
TORSDOF 22
ENDMDL
MODEL 4
REMARK VINA RESULT:    -3.246      5.176      8.814
REMARK INTER + INTRA:         -10.559
REMARK INTER:                  -7.015
REMARK INTRA:                  -3.544
REMARK UNBOUND:                -3.138
REMARK SMILES CCCCCCCCCCCCCCCCCCCCCCCC(=O)[O-]
REMARK SMILES IDX 13 1 14 2 15 3 16 4 17 5 18 6 19 7 20 8 21 9 22 10 23 11
REMARK SMILES IDX 24 12 25 13 26 14 12 15 11 16 10 17 9 18 8 19 7 20 6 21 5 22
REMARK SMILES IDX 4 23 3 24 2 25 1 26
REMARK H PARENT
REMARK Flexibility Score: inf
ROOT
ATOM      1  C   UNL     1       5.569  -1.657  18.185  1.00  0.00     0.000 C 
ENDROOT
BRANCH   1   2
ATOM      2  C   UNL     1       6.007  -1.579  16.715  1.00  0.00     0.000 C 
BRANCH   2   3
ATOM      3  C   UNL     1       7.182  -2.516  16.393  1.00  0.00     0.000 C 
BRANCH   3   4
ATOM      4  C   UNL     1       8.395  -1.715  15.898  1.00  0.00     0.000 C 
BRANCH   4   5
ATOM      5  C   UNL     1       8.273  -0.207  16.180  1.00  0.00     0.000 C 
BRANCH   5   6
ATOM      6  C   UNL     1       8.331   0.699  14.933  1.00  0.00     0.000 C 
BRANCH   6   7
ATOM      7  C   UNL     1       7.427   0.267  13.764  1.00  0.00     0.000 C 
BRANCH   7   8
ATOM      8  C   UNL     1       6.033   0.911  13.811  1.00  0.00     0.000 C 
BRANCH   8   9
ATOM      9  C   UNL     1       5.064   0.192  12.864  1.00  0.00     0.000 C 
BRANCH   9  10
ATOM     10  C   UNL     1       3.921  -0.470  13.645  1.00  0.00     0.006 C 
BRANCH  10  11
ATOM     11  C   UNL     1       2.566   0.117  13.238  1.00  0.00     0.053 C 
BRANCH  11  12
ATOM     12  C   UNL     1       1.822  -0.842  12.362  1.00  0.00     0.041 C 
ATOM     13  O   UNL     1       1.471  -0.501  11.202  1.00  0.00    -0.550 OA
ATOM     14  O   UNL     1       1.485  -2.102  12.842  1.00  0.00    -0.550 OA
ENDBRANCH  11  12
ENDBRANCH  10  11
ENDBRANCH   9  10
ENDBRANCH   8   9
ENDBRANCH   7   8
ENDBRANCH   6   7
ENDBRANCH   5   6
ENDBRANCH   4   5
ENDBRANCH   3   4
ENDBRANCH   2   3
ENDBRANCH   1   2
BRANCH   1  15
ATOM     15  C   UNL     1       6.325  -2.743  18.972  1.00  0.00     0.000 C 
BRANCH  15  16
ATOM     16  C   UNL     1       7.215  -2.145  20.084  1.00  0.00     0.000 C 
BRANCH  16  17
ATOM     17  C   UNL     1       7.313  -0.610  20.044  1.00  0.00     0.000 C 
BRANCH  17  18
ATOM     18  C   UNL     1       8.741  -0.110  19.775  1.00  0.00    -0.000 C 
BRANCH  18  19
ATOM     19  C   UNL     1       9.809  -1.203  19.976  1.00  0.00    -0.000 C 
BRANCH  19  20
ATOM     20  C   UNL     1      10.654  -1.534  18.730  1.00  0.00    -0.000 C 
BRANCH  20  21
ATOM     21  C   UNL     1      10.768  -3.033  18.391  1.00  0.00    -0.000 C 
BRANCH  21  22
ATOM     22  C   UNL     1      10.623  -3.963  19.613  1.00  0.00    -0.000 C 
BRANCH  22  23
ATOM     23  C   UNL     1       9.407  -4.896  19.503  1.00  0.00    -0.000 C 
BRANCH  23  24
ATOM     24  C   UNL     1       9.836  -6.366  19.582  1.00  0.00    -0.000 C 
BRANCH  24  25
ATOM     25  C   UNL     1       9.379  -7.141  18.342  1.00  0.00    -0.003 C 
ATOM     26  C   UNL     1       8.219  -6.434  17.646  1.00  0.00     0.004 C 
ENDBRANCH  24  25
ENDBRANCH  23  24
ENDBRANCH  22  23
ENDBRANCH  21  22
ENDBRANCH  20  21
ENDBRANCH  19  20
ENDBRANCH  18  19
ENDBRANCH  17  18
ENDBRANCH  16  17
ENDBRANCH  15  16
ENDBRANCH   1  15
TORSDOF 22
ENDMDL
MODEL 5
REMARK VINA RESULT:    -3.239      4.516      7.560
REMARK INTER + INTRA:         -10.543
REMARK INTER:                  -6.280
REMARK INTRA:                  -4.263
REMARK UNBOUND:                -3.138
REMARK SMILES CCCCCCCCCCCCCCCCCCCCCCCC(=O)[O-]
REMARK SMILES IDX 13 1 14 2 15 3 16 4 17 5 18 6 19 7 20 8 21 9 22 10 23 11
REMARK SMILES IDX 24 12 25 13 26 14 12 15 11 16 10 17 9 18 8 19 7 20 6 21 5 22
REMARK SMILES IDX 4 23 3 24 2 25 1 26
REMARK H PARENT
REMARK Flexibility Score: inf
ROOT
ATOM      1  C   UNL     1       9.744  -1.984  20.416  1.00  0.00     0.000 C 
ENDROOT
BRANCH   1   2
ATOM      2  C   UNL     1       9.441  -0.657  19.703  1.00  0.00     0.000 C 
BRANCH   2   3
ATOM      3  C   UNL     1       9.539   0.558  20.638  1.00  0.00     0.000 C 
BRANCH   3   4
ATOM      4  C   UNL     1       8.488   1.615  20.267  1.00  0.00     0.000 C 
BRANCH   4   5
ATOM      5  C   UNL     1       7.690   1.248  19.005  1.00  0.00     0.000 C 
BRANCH   5   6
ATOM      6  C   UNL     1       6.157   1.312  19.158  1.00  0.00     0.000 C 
BRANCH   6   7
ATOM      7  C   UNL     1       5.496   2.598  18.630  1.00  0.00     0.000 C 
BRANCH   7   8
ATOM      8  C   UNL     1       4.565   2.350  17.434  1.00  0.00     0.000 C 
BRANCH   8   9
ATOM      9  C   UNL     1       5.343   1.783  16.240  1.00  0.00     0.000 C 
BRANCH   9  10
ATOM     10  C   UNL     1       4.420   0.989  15.307  1.00  0.00     0.006 C 
BRANCH  10  11
ATOM     11  C   UNL     1       5.012   0.895  13.898  1.00  0.00     0.053 C 
BRANCH  11  12
ATOM     12  C   UNL     1       4.677  -0.423  13.275  1.00  0.00     0.041 C 
ATOM     13  O   UNL     1       4.117  -1.323  13.955  1.00  0.00    -0.550 OA
ATOM     14  O   UNL     1       5.014  -0.670  11.950  1.00  0.00    -0.550 OA
ENDBRANCH  11  12
ENDBRANCH  10  11
ENDBRANCH   9  10
ENDBRANCH   8   9
ENDBRANCH   7   8
ENDBRANCH   6   7
ENDBRANCH   5   6
ENDBRANCH   4   5
ENDBRANCH   3   4
ENDBRANCH   2   3
ENDBRANCH   1   2
BRANCH   1  15
ATOM     15  C   UNL     1       8.553  -2.960  20.384  1.00  0.00     0.000 C 
BRANCH  15  16
ATOM     16  C   UNL     1       7.223  -2.248  20.055  1.00  0.00     0.000 C 
BRANCH  16  17
ATOM     17  C   UNL     1       6.407  -2.937  18.947  1.00  0.00     0.000 C 
BRANCH  17  18
ATOM     18  C   UNL     1       5.638  -1.940  18.066  1.00  0.00    -0.000 C 
BRANCH  18  19
ATOM     19  C   UNL     1       6.163  -1.884  16.619  1.00  0.00    -0.000 C 
BRANCH  19  20
ATOM     20  C   UNL     1       7.661  -1.552  16.475  1.00  0.00    -0.000 C 
BRANCH  20  21
ATOM     21  C   UNL     1       8.546  -2.704  15.960  1.00  0.00    -0.000 C 
BRANCH  21  22
ATOM     22  C   UNL     1       9.765  -3.004  16.856  1.00  0.00    -0.000 C 
BRANCH  22  23
ATOM     23  C   UNL     1       9.882  -4.494  17.213  1.00  0.00    -0.000 C 
BRANCH  23  24
ATOM     24  C   UNL     1       8.528  -5.199  17.069  1.00  0.00    -0.000 C 
BRANCH  24  25
ATOM     25  C   UNL     1       8.389  -6.339  18.084  1.00  0.00    -0.003 C 
ATOM     26  C   UNL     1       9.467  -6.253  19.161  1.00  0.00     0.004 C 
ENDBRANCH  24  25
ENDBRANCH  23  24
ENDBRANCH  22  23
ENDBRANCH  21  22
ENDBRANCH  20  21
ENDBRANCH  19  20
ENDBRANCH  18  19
ENDBRANCH  17  18
ENDBRANCH  16  17
ENDBRANCH  15  16
ENDBRANCH   1  15
TORSDOF 22
ENDMDL
MODEL 6
REMARK VINA RESULT:    -3.239      4.173      8.169
REMARK INTER + INTRA:         -10.542
REMARK INTER:                  -6.391
REMARK INTRA:                  -4.151
REMARK UNBOUND:                -3.138
REMARK SMILES CCCCCCCCCCCCCCCCCCCCCCCC(=O)[O-]
REMARK SMILES IDX 13 1 14 2 15 3 16 4 17 5 18 6 19 7 20 8 21 9 22 10 23 11
REMARK SMILES IDX 24 12 25 13 26 14 12 15 11 16 10 17 9 18 8 19 7 20 6 21 5 22
REMARK SMILES IDX 4 23 3 24 2 25 1 26
REMARK H PARENT
REMARK Flexibility Score: inf
ROOT
ATOM      1  C   UNL     1       7.284   0.855  20.488  1.00  0.00     0.000 C 
ENDROOT
BRANCH   1   2
ATOM      2  C   UNL     1       8.433   1.501  19.698  1.00  0.00     0.000 C 
BRANCH   2   3
ATOM      3  C   UNL     1       9.064   0.543  18.675  1.00  0.00     0.000 C 
BRANCH   3   4
ATOM      4  C   UNL     1      10.454   0.088  19.144  1.00  0.00     0.000 C 
BRANCH   4   5
ATOM      5  C   UNL     1      10.487  -1.388  19.576  1.00  0.00     0.000 C 
BRANCH   5   6
ATOM      6  C   UNL     1       9.314  -2.248  19.060  1.00  0.00     0.000 C 
BRANCH   6   7
ATOM      7  C   UNL     1       8.510  -2.983  20.147  1.00  0.00     0.000 C 
BRANCH   7   8
ATOM      8  C   UNL     1       6.994  -2.762  20.028  1.00  0.00     0.000 C 
BRANCH   8   9
ATOM      9  C   UNL     1       6.560  -2.718  18.557  1.00  0.00     0.000 C 
BRANCH   9  10
ATOM     10  C   UNL     1       5.391  -1.745  18.356  1.00  0.00     0.006 C 
BRANCH  10  11
ATOM     11  C   UNL     1       5.760  -0.643  17.358  1.00  0.00     0.053 C 
BRANCH  11  12
ATOM     12  C   UNL     1       5.982  -1.223  15.996  1.00  0.00     0.041 C 
ATOM     13  O   UNL     1       7.127  -1.198  15.474  1.00  0.00    -0.550 OA
ATOM     14  O   UNL     1       4.913  -1.761  15.289  1.00  0.00    -0.550 OA
ENDBRANCH  11  12
ENDBRANCH  10  11
ENDBRANCH   9  10
ENDBRANCH   8   9
ENDBRANCH   7   8
ENDBRANCH   6   7
ENDBRANCH   5   6
ENDBRANCH   4   5
ENDBRANCH   3   4
ENDBRANCH   2   3
ENDBRANCH   1   2
BRANCH   1  15
ATOM     15  C   UNL     1       7.715   0.392  21.891  1.00  0.00     0.000 C 
BRANCH  15  16
ATOM     16  C   UNL     1       7.597   1.518  22.940  1.00  0.00     0.000 C 
BRANCH  16  17
ATOM     17  C   UNL     1       8.946   1.965  23.528  1.00  0.00     0.000 C 
BRANCH  17  18
ATOM     18  C   UNL     1      10.142   1.228  22.903  1.00  0.00    -0.000 C 
BRANCH  18  19
ATOM     19  C   UNL     1      10.846   0.277  23.890  1.00  0.00    -0.000 C 
BRANCH  19  20
ATOM     20  C   UNL     1      10.625  -1.226  23.627  1.00  0.00    -0.000 C 
BRANCH  20  21
ATOM     21  C   UNL     1       9.411  -1.848  24.345  1.00  0.00    -0.000 C 
BRANCH  21  22
ATOM     22  C   UNL     1       8.983  -1.091  25.620  1.00  0.00    -0.000 C 
BRANCH  22  23
ATOM     23  C   UNL     1       7.457  -0.993  25.763  1.00  0.00    -0.000 C 
BRANCH  23  24
ATOM     24  C   UNL     1       6.800  -2.368  25.583  1.00  0.00    -0.000 C 
BRANCH  24  25
ATOM     25  C   UNL     1       6.484  -3.009  26.939  1.00  0.00    -0.003 C 
ATOM     26  C   UNL     1       7.328  -4.259  27.169  1.00  0.00     0.004 C 
ENDBRANCH  24  25
ENDBRANCH  23  24
ENDBRANCH  22  23
ENDBRANCH  21  22
ENDBRANCH  20  21
ENDBRANCH  19  20
ENDBRANCH  18  19
ENDBRANCH  17  18
ENDBRANCH  16  17
ENDBRANCH  15  16
ENDBRANCH   1  15
TORSDOF 22
ENDMDL
MODEL 7
REMARK VINA RESULT:    -3.212      7.652     12.015
REMARK INTER + INTRA:         -10.480
REMARK INTER:                  -6.530
REMARK INTRA:                  -3.950
REMARK UNBOUND:                -3.138
REMARK SMILES CCCCCCCCCCCCCCCCCCCCCCCC(=O)[O-]
REMARK SMILES IDX 13 1 14 2 15 3 16 4 17 5 18 6 19 7 20 8 21 9 22 10 23 11
REMARK SMILES IDX 24 12 25 13 26 14 12 15 11 16 10 17 9 18 8 19 7 20 6 21 5 22
REMARK SMILES IDX 4 23 3 24 2 25 1 26
REMARK H PARENT
REMARK Flexibility Score: inf
ROOT
ATOM      1  C   UNL     1       2.890   3.343  11.303  1.00  0.00     0.000 C 
ENDROOT
BRANCH   1   2
ATOM      2  C   UNL     1       3.542   2.383  12.310  1.00  0.00     0.000 C 
BRANCH   2   3
ATOM      3  C   UNL     1       2.911   0.983  12.292  1.00  0.00     0.000 C 
BRANCH   3   4
ATOM      4  C   UNL     1       2.297   0.646  13.659  1.00  0.00     0.000 C 
BRANCH   4   5
ATOM      5  C   UNL     1       2.739   1.615  14.769  1.00  0.00     0.000 C 
BRANCH   5   6
ATOM      6  C   UNL     1       1.611   2.095  15.705  1.00  0.00     0.000 C 
BRANCH   6   7
ATOM      7  C   UNL     1       1.956   2.091  17.206  1.00  0.00     0.000 C 
BRANCH   7   8
ATOM      8  C   UNL     1       3.429   1.751  17.484  1.00  0.00     0.000 C 
BRANCH   8   9
ATOM      9  C   UNL     1       3.547   0.656  18.551  1.00  0.00     0.000 C 
BRANCH   9  10
ATOM     10  C   UNL     1       4.741  -0.264  18.267  1.00  0.00     0.006 C 
BRANCH  10  11
ATOM     11  C   UNL     1       5.300  -0.019  16.863  1.00  0.00     0.053 C 
BRANCH  11  12
ATOM     12  C   UNL     1       5.482  -1.315  16.137  1.00  0.00     0.041 C 
ATOM     13  O   UNL     1       6.348  -2.144  16.525  1.00  0.00    -0.550 OA
ATOM     14  O   UNL     1       4.718  -1.593  15.011  1.00  0.00    -0.550 OA
ENDBRANCH  11  12
ENDBRANCH  10  11
ENDBRANCH   9  10
ENDBRANCH   8   9
ENDBRANCH   7   8
ENDBRANCH   6   7
ENDBRANCH   5   6
ENDBRANCH   4   5
ENDBRANCH   3   4
ENDBRANCH   2   3
ENDBRANCH   1   2
BRANCH   1  15
ATOM     15  C   UNL     1       1.833   4.255  11.952  1.00  0.00     0.000 C 
BRANCH  15  16
ATOM     16  C   UNL     1       0.959   4.975  10.902  1.00  0.00     0.000 C 
BRANCH  16  17
ATOM     17  C   UNL     1       0.564   6.408  11.300  1.00  0.00     0.000 C 
BRANCH  17  18
ATOM     18  C   UNL     1       1.431   6.972  12.436  1.00  0.00    -0.000 C 
BRANCH  18  19
ATOM     19  C   UNL     1       0.611   7.377  13.676  1.00  0.00    -0.000 C 
BRANCH  19  20
ATOM     20  C   UNL     1      -0.107   6.219  14.397  1.00  0.00    -0.000 C 
BRANCH  20  21
ATOM     21  C   UNL     1       0.644   5.630  15.607  1.00  0.00    -0.000 C 
BRANCH  21  22
ATOM     22  C   UNL     1       1.847   6.478  16.069  1.00  0.00    -0.000 C 
BRANCH  22  23
ATOM     23  C   UNL     1       3.110   5.635  16.298  1.00  0.00    -0.000 C 
BRANCH  23  24
ATOM     24  C   UNL     1       3.679   5.127  14.967  1.00  0.00    -0.000 C 
BRANCH  24  25
ATOM     25  C   UNL     1       4.908   5.940  14.547  1.00  0.00    -0.003 C 
ATOM     26  C   UNL     1       5.014   6.036  13.027  1.00  0.00     0.004 C 
ENDBRANCH  24  25
ENDBRANCH  23  24
ENDBRANCH  22  23
ENDBRANCH  21  22
ENDBRANCH  20  21
ENDBRANCH  19  20
ENDBRANCH  18  19
ENDBRANCH  17  18
ENDBRANCH  16  17
ENDBRANCH  15  16
ENDBRANCH   1  15
TORSDOF 22
ENDMDL
MODEL 8
REMARK VINA RESULT:    -3.187      4.782      8.140
REMARK INTER + INTRA:         -10.423
REMARK INTER:                  -7.379
REMARK INTRA:                  -3.045
REMARK UNBOUND:                -3.138
REMARK SMILES CCCCCCCCCCCCCCCCCCCCCCCC(=O)[O-]
REMARK SMILES IDX 13 1 14 2 15 3 16 4 17 5 18 6 19 7 20 8 21 9 22 10 23 11
REMARK SMILES IDX 24 12 25 13 26 14 12 15 11 16 10 17 9 18 8 19 7 20 6 21 5 22
REMARK SMILES IDX 4 23 3 24 2 25 1 26
REMARK H PARENT
REMARK Flexibility Score: inf
ROOT
ATOM      1  C   UNL     1       7.531  -1.741  16.448  1.00  0.00     0.000 C 
ENDROOT
BRANCH   1   2
ATOM      2  C   UNL     1       6.315  -2.289  17.209  1.00  0.00     0.000 C 
BRANCH   2   3
ATOM      3  C   UNL     1       5.106  -1.341  17.162  1.00  0.00     0.000 C 
BRANCH   3   4
ATOM      4  C   UNL     1       4.916  -0.637  18.514  1.00  0.00     0.000 C 
BRANCH   4   5
ATOM      5  C   UNL     1       5.022   0.894  18.412  1.00  0.00     0.000 C 
BRANCH   5   6
ATOM      6  C   UNL     1       3.898   1.677  19.121  1.00  0.00     0.000 C 
BRANCH   6   7
ATOM      7  C   UNL     1       2.469   1.337  18.660  1.00  0.00     0.000 C 
BRANCH   7   8
ATOM      8  C   UNL     1       1.773   2.505  17.944  1.00  0.00     0.000 C 
BRANCH   8   9
ATOM      9  C   UNL     1       1.328   2.098  16.534  1.00  0.00     0.000 C 
BRANCH   9  10
ATOM     10  C   UNL     1       2.535   1.740  15.658  1.00  0.00     0.006 C 
BRANCH  10  11
ATOM     11  C   UNL     1       2.310   2.178  14.207  1.00  0.00     0.053 C 
BRANCH  11  12
ATOM     12  C   UNL     1       2.663   1.070  13.265  1.00  0.00     0.041 C 
ATOM     13  O   UNL     1       3.467   1.275  12.318  1.00  0.00    -0.550 OA
ATOM     14  O   UNL     1       2.075  -0.180  13.413  1.00  0.00    -0.550 OA
ENDBRANCH  11  12
ENDBRANCH  10  11
ENDBRANCH   9  10
ENDBRANCH   8   9
ENDBRANCH   7   8
ENDBRANCH   6   7
ENDBRANCH   5   6
ENDBRANCH   4   5
ENDBRANCH   3   4
ENDBRANCH   2   3
ENDBRANCH   1   2
BRANCH   1  15
ATOM     15  C   UNL     1       8.631  -2.799  16.246  1.00  0.00     0.000 C 
BRANCH  15  16
ATOM     16  C   UNL     1       8.303  -4.127  16.963  1.00  0.00     0.000 C 
BRANCH  16  17
ATOM     17  C   UNL     1       9.093  -5.333  16.428  1.00  0.00     0.000 C 
BRANCH  17  18
ATOM     18  C   UNL     1       9.189  -6.482  17.444  1.00  0.00    -0.000 C 
BRANCH  18  19
ATOM     19  C   UNL     1       8.941  -6.024  18.895  1.00  0.00    -0.000 C 
BRANCH  19  20
ATOM     20  C   UNL     1      10.063  -6.371  19.894  1.00  0.00    -0.000 C 
BRANCH  20  21
ATOM     21  C   UNL     1      10.826  -5.163  20.473  1.00  0.00    -0.000 C 
BRANCH  21  22
ATOM     22  C   UNL     1      10.438  -3.814  19.832  1.00  0.00    -0.000 C 
BRANCH  22  23
ATOM     23  C   UNL     1       9.718  -2.879  20.816  1.00  0.00    -0.000 C 
BRANCH  23  24
ATOM     24  C   UNL     1       8.278  -2.609  20.361  1.00  0.00    -0.000 C 
BRANCH  24  25
ATOM     25  C   UNL     1       7.880  -1.153  20.624  1.00  0.00    -0.003 C 
ATOM     26  C   UNL     1       8.524  -0.213  19.609  1.00  0.00     0.004 C 
ENDBRANCH  24  25
ENDBRANCH  23  24
ENDBRANCH  22  23
ENDBRANCH  21  22
ENDBRANCH  20  21
ENDBRANCH  19  20
ENDBRANCH  18  19
ENDBRANCH  17  18
ENDBRANCH  16  17
ENDBRANCH  15  16
ENDBRANCH   1  15
TORSDOF 22
ENDMDL
MODEL 9
REMARK VINA RESULT:    -3.166      4.481      7.767
REMARK INTER + INTRA:         -10.375
REMARK INTER:                  -5.989
REMARK INTRA:                  -4.386
REMARK UNBOUND:                -3.138
REMARK SMILES CCCCCCCCCCCCCCCCCCCCCCCC(=O)[O-]
REMARK SMILES IDX 13 1 14 2 15 3 16 4 17 5 18 6 19 7 20 8 21 9 22 10 23 11
REMARK SMILES IDX 24 12 25 13 26 14 12 15 11 16 10 17 9 18 8 19 7 20 6 21 5 22
REMARK SMILES IDX 4 23 3 24 2 25 1 26
REMARK H PARENT
REMARK Flexibility Score: inf
ROOT
ATOM      1  C   UNL     1       7.692   1.915  16.316  1.00  0.00     0.000 C 
ENDROOT
BRANCH   1   2
ATOM      2  C   UNL     1       7.031   2.217  17.670  1.00  0.00     0.000 C 
BRANCH   2   3
ATOM      3  C   UNL     1       7.650   1.417  18.827  1.00  0.00     0.000 C 
BRANCH   3   4
ATOM      4  C   UNL     1       6.625   0.437  19.418  1.00  0.00     0.000 C 
BRANCH   4   5
ATOM      5  C   UNL     1       7.119  -1.020  19.415  1.00  0.00     0.000 C 
BRANCH   5   6
ATOM      6  C   UNL     1       6.079  -2.062  18.956  1.00  0.00     0.000 C 
BRANCH   6   7
ATOM      7  C   UNL     1       5.197  -1.633  17.769  1.00  0.00     0.000 C 
BRANCH   7   8
ATOM      8  C   UNL     1       5.888  -1.814  16.409  1.00  0.00     0.000 C 
BRANCH   8   9
ATOM      9  C   UNL     1       5.307  -0.852  15.365  1.00  0.00     0.000 C 
BRANCH   9  10
ATOM     10  C   UNL     1       4.498   0.265  16.036  1.00  0.00     0.006 C 
BRANCH  10  11
ATOM     11  C   UNL     1       4.085   1.331  15.017  1.00  0.00     0.053 C 
BRANCH  11  12
ATOM     12  C   UNL     1       2.653   1.152  14.623  1.00  0.00     0.041 C 
ATOM     13  O   UNL     1       2.334   0.292  13.760  1.00  0.00    -0.550 OA
ATOM     14  O   UNL     1       1.672   1.961  15.185  1.00  0.00    -0.550 OA
ENDBRANCH  11  12
ENDBRANCH  10  11
ENDBRANCH   9  10
ENDBRANCH   8   9
ENDBRANCH   7   8
ENDBRANCH   6   7
ENDBRANCH   5   6
ENDBRANCH   4   5
ENDBRANCH   3   4
ENDBRANCH   2   3
ENDBRANCH   1   2
BRANCH   1  15
ATOM     15  C   UNL     1       9.007   1.127  16.461  1.00  0.00     0.000 C 
BRANCH  15  16
ATOM     16  C   UNL     1       8.973  -0.213  15.695  1.00  0.00     0.000 C 
BRANCH  16  17
ATOM     17  C   UNL     1      10.128  -1.163  16.053  1.00  0.00     0.000 C 
BRANCH  17  18
ATOM     18  C   UNL     1       9.711  -2.266  17.039  1.00  0.00    -0.000 C 
BRANCH  18  19
ATOM     19  C   UNL     1       9.787  -3.679  16.430  1.00  0.00    -0.000 C 
BRANCH  19  20
ATOM     20  C   UNL     1       8.519  -4.538  16.600  1.00  0.00    -0.000 C 
BRANCH  20  21
ATOM     21  C   UNL     1       8.120  -4.843  18.057  1.00  0.00    -0.000 C 
BRANCH  21  22
ATOM     22  C   UNL     1       9.028  -5.881  18.749  1.00  0.00    -0.000 C 
BRANCH  22  23
ATOM     23  C   UNL     1       9.956  -5.248  19.796  1.00  0.00    -0.000 C 
BRANCH  23  24
ATOM     24  C   UNL     1       9.364  -3.939  20.332  1.00  0.00    -0.000 C 
BRANCH  24  25
ATOM     25  C   UNL     1      10.461  -2.898  20.579  1.00  0.00    -0.003 C 
ATOM     26  C   UNL     1      10.023  -1.870  21.619  1.00  0.00     0.004 C 
ENDBRANCH  24  25
ENDBRANCH  23  24
ENDBRANCH  22  23
ENDBRANCH  21  22
ENDBRANCH  20  21
ENDBRANCH  19  20
ENDBRANCH  18  19
ENDBRANCH  17  18
ENDBRANCH  16  17
ENDBRANCH  15  16
ENDBRANCH   1  15
TORSDOF 22
ENDMDL
