MODEL 1
REMARK VINA RESULT:     8.245      0.000      0.000
REMARK INTER + INTRA:          14.259
REMARK INTER:                  14.993
REMARK INTRA:                  -0.735
REMARK UNBOUND:                -0.735
REMARK SMILES CCCCCCCCCCCCCC[C@H](C)C(=O)[O-]
REMARK SMILES IDX 9 1 10 2 11 3 12 4 13 5 14 6 15 7 16 8 17 9 18 10 19 11 8 12
REMARK SMILES IDX 7 13 6 14 5 15 4 16 3 17 2 18 1 19
REMARK H PARENT
REMARK Flexibility Score: inf
ROOT
ATOM      1  C   UNL     1     -29.169  17.282 -11.116  1.00  0.00     0.000 C 
ENDROOT
BRANCH   1   2
ATOM      2  C   UNL     1     -30.398  16.366 -11.000  1.00  0.00     0.000 C 
BRANCH   2   3
ATOM      3  C   UNL     1     -31.644  17.105 -10.490  1.00  0.00     0.000 C 
BRANCH   3   4
ATOM      4  C   UNL     1     -31.351  18.600 -10.291  1.00  0.00     0.000 C 
BRANCH   4   5
ATOM      5  C   UNL     1     -32.592  19.483 -10.502  1.00  0.00     0.001 C 
BRANCH   5   6
ATOM      6  C   UNL     1     -32.490  20.831  -9.761  1.00  0.00     0.009 C 
BRANCH   6   7
ATOM      7  C   UNL     1     -31.904  21.981 -10.610  1.00  0.00     0.032 C 
ATOM      8  C   UNL     1     -30.382  21.876 -10.789  1.00  0.00     0.014 C 
BRANCH   7   9
ATOM      9  C   UNL     1     -32.315  23.330 -10.081  1.00  0.00     0.044 C 
ATOM     10  O   UNL     1     -31.463  24.125  -9.600  1.00  0.00    -0.550 OA
ATOM     11  O   UNL     1     -33.658  23.686 -10.073  1.00  0.00    -0.550 OA
ENDBRANCH   7   9
ENDBRANCH   6   7
ENDBRANCH   5   6
ENDBRANCH   4   5
ENDBRANCH   3   4
ENDBRANCH   2   3
ENDBRANCH   1   2
BRANCH   1  12
ATOM     12  C   UNL     1     -28.846  17.653 -12.574  1.00  0.00     0.000 C 
BRANCH  12  13
ATOM     13  C   UNL     1     -29.005  16.468 -13.542  1.00  0.00    -0.000 C 
BRANCH  13  14
ATOM     14  C   UNL     1     -28.900  16.821 -15.041  1.00  0.00    -0.000 C 
BRANCH  14  15
ATOM     15  C   UNL     1     -30.203  17.314 -15.696  1.00  0.00    -0.000 C 
BRANCH  15  16
ATOM     16  C   UNL     1     -29.989  17.852 -17.120  1.00  0.00    -0.000 C 
BRANCH  16  17
ATOM     17  C   UNL     1     -30.991  18.958 -17.493  1.00  0.00    -0.000 C 
BRANCH  17  18
ATOM     18  C   UNL     1     -30.351  20.147 -18.240  1.00  0.00    -0.003 C 
ATOM     19  C   UNL     1     -28.902  20.386 -17.815  1.00  0.00     0.004 C 
ENDBRANCH  17  18
ENDBRANCH  16  17
ENDBRANCH  15  16
ENDBRANCH  14  15
ENDBRANCH  13  14
ENDBRANCH  12  13
ENDBRANCH   1  12
TORSDOF 14
ENDMDL
MODEL 2
REMARK VINA RESULT:     9.007      2.534      4.139
REMARK INTER + INTRA:          15.644
REMARK INTER:                  16.885
REMARK INTRA:                  -1.241
REMARK UNBOUND:                -0.735
REMARK SMILES CCCCCCCCCCCCCC[C@H](C)C(=O)[O-]
REMARK SMILES IDX 9 1 10 2 11 3 12 4 13 5 14 6 15 7 16 8 17 9 18 10 19 11 8 12
REMARK SMILES IDX 7 13 6 14 5 15 4 16 3 17 2 18 1 19
REMARK H PARENT
REMARK Flexibility Score: inf
ROOT
ATOM      1  C   UNL     1     -29.195  16.761 -11.626  1.00  0.00     0.000 C 
ENDROOT
BRANCH   1   2
ATOM      2  C   UNL     1     -29.941  17.541 -10.532  1.00  0.00     0.000 C 
BRANCH   2   3
ATOM      3  C   UNL     1     -31.425  17.158 -10.436  1.00  0.00     0.000 C 
BRANCH   3   4
ATOM      4  C   UNL     1     -32.286  18.385 -10.095  1.00  0.00     0.000 C 
BRANCH   4   5
ATOM      5  C   UNL     1     -31.564  19.714 -10.372  1.00  0.00     0.001 C 
BRANCH   5   6
ATOM      6  C   UNL     1     -32.496  20.933 -10.221  1.00  0.00     0.009 C 
BRANCH   6   7
ATOM      7  C   UNL     1     -31.889  22.263 -10.721  1.00  0.00     0.032 C 
ATOM      8  C   UNL     1     -30.354  22.247 -10.745  1.00  0.00     0.014 C 
BRANCH   7   9
ATOM      9  C   UNL     1     -32.426  23.444  -9.955  1.00  0.00     0.044 C 
ATOM     10  O   UNL     1     -31.685  24.106  -9.180  1.00  0.00    -0.550 OA
ATOM     11  O   UNL     1     -33.771  23.778 -10.061  1.00  0.00    -0.550 OA
ENDBRANCH   7   9
ENDBRANCH   6   7
ENDBRANCH   5   6
ENDBRANCH   4   5
ENDBRANCH   3   4
ENDBRANCH   2   3
ENDBRANCH   1   2
BRANCH   1  12
ATOM     12  C   UNL     1     -28.866  17.632 -12.852  1.00  0.00     0.000 C 
BRANCH  12  13
ATOM     13  C   UNL     1     -28.489  19.075 -12.475  1.00  0.00    -0.000 C 
BRANCH  13  14
ATOM     14  C   UNL     1     -27.415  19.733 -13.368  1.00  0.00    -0.000 C 
BRANCH  14  15
ATOM     15  C   UNL     1     -27.555  21.253 -13.558  1.00  0.00    -0.000 C 
BRANCH  15  16
ATOM     16  C   UNL     1     -27.079  22.055 -12.336  1.00  0.00    -0.000 C 
BRANCH  16  17
ATOM     17  C   UNL     1     -26.188  23.249 -12.719  1.00  0.00    -0.000 C 
BRANCH  17  18
ATOM     18  C   UNL     1     -25.454  23.884 -11.519  1.00  0.00    -0.003 C 
ATOM     19  C   UNL     1     -25.272  22.900 -10.363  1.00  0.00     0.004 C 
ENDBRANCH  17  18
ENDBRANCH  16  17
ENDBRANCH  15  16
ENDBRANCH  14  15
ENDBRANCH  13  14
ENDBRANCH  12  13
ENDBRANCH   1  12
TORSDOF 14
ENDMDL
MODEL 3
REMARK VINA RESULT:     9.632      2.293      3.296
REMARK INTER + INTRA:          16.781
REMARK INTER:                  17.623
REMARK INTRA:                  -0.842
REMARK UNBOUND:                -0.735
REMARK SMILES CCCCCCCCCCCCCC[C@H](C)C(=O)[O-]
REMARK SMILES IDX 9 1 10 2 11 3 12 4 13 5 14 6 15 7 16 8 17 9 18 10 19 11 8 12
REMARK SMILES IDX 7 13 6 14 5 15 4 16 3 17 2 18 1 19
REMARK H PARENT
REMARK Flexibility Score: inf
ROOT
ATOM      1  C   UNL     1     -29.756  16.434 -10.830  1.00  0.00     0.000 C 
ENDROOT
BRANCH   1   2
ATOM      2  C   UNL     1     -31.293  16.399 -10.831  1.00  0.00     0.000 C 
BRANCH   2   3
ATOM      3  C   UNL     1     -31.911  17.406  -9.850  1.00  0.00     0.000 C 
BRANCH   3   4
ATOM      4  C   UNL     1     -32.534  18.592 -10.603  1.00  0.00     0.000 C 
BRANCH   4   5
ATOM      5  C   UNL     1     -32.097  19.953 -10.035  1.00  0.00     0.001 C 
BRANCH   5   6
ATOM      6  C   UNL     1     -32.382  21.116 -11.006  1.00  0.00     0.009 C 
BRANCH   6   7
ATOM      7  C   UNL     1     -31.502  22.366 -10.778  1.00  0.00     0.032 C 
ATOM      8  C   UNL     1     -30.136  22.030 -10.162  1.00  0.00     0.014 C 
BRANCH   7   9
ATOM      9  C   UNL     1     -32.229  23.423  -9.988  1.00  0.00     0.044 C 
ATOM     10  O   UNL     1     -31.629  24.111  -9.120  1.00  0.00    -0.550 OA
ATOM     11  O   UNL     1     -33.593  23.608 -10.179  1.00  0.00    -0.550 OA
ENDBRANCH   7   9
ENDBRANCH   6   7
ENDBRANCH   5   6
ENDBRANCH   4   5
ENDBRANCH   3   4
ENDBRANCH   2   3
ENDBRANCH   1   2
BRANCH   1  12
ATOM     12  C   UNL     1     -29.198  17.858 -10.663  1.00  0.00     0.000 C 
BRANCH  12  13
ATOM     13  C   UNL     1     -29.086  18.616 -11.997  1.00  0.00    -0.000 C 
BRANCH  13  14
ATOM     14  C   UNL     1     -28.282  17.897 -13.101  1.00  0.00    -0.000 C 
BRANCH  14  15
ATOM     15  C   UNL     1     -29.095  16.944 -13.996  1.00  0.00    -0.000 C 
BRANCH  15  16
ATOM     16  C   UNL     1     -28.703  15.469 -13.810  1.00  0.00    -0.000 C 
BRANCH  16  17
ATOM     17  C   UNL     1     -28.127  14.842 -15.091  1.00  0.00    -0.000 C 
BRANCH  17  18
ATOM     18  C   UNL     1     -27.597  13.407 -14.893  1.00  0.00    -0.003 C 
ATOM     19  C   UNL     1     -26.099  13.297 -15.174  1.00  0.00     0.004 C 
ENDBRANCH  17  18
ENDBRANCH  16  17
ENDBRANCH  15  16
ENDBRANCH  14  15
ENDBRANCH  13  14
ENDBRANCH  12  13
ENDBRANCH   1  12
TORSDOF 14
ENDMDL
MODEL 4
REMARK VINA RESULT:    10.424      3.009      7.075
REMARK INTER + INTRA:          18.220
REMARK INTER:                  19.129
REMARK INTRA:                  -0.909
REMARK UNBOUND:                -0.735
REMARK SMILES CCCCCCCCCCCCCC[C@H](C)C(=O)[O-]
REMARK SMILES IDX 9 1 10 2 11 3 12 4 13 5 14 6 15 7 16 8 17 9 18 10 19 11 8 12
REMARK SMILES IDX 7 13 6 14 5 15 4 16 3 17 2 18 1 19
REMARK H PARENT
REMARK Flexibility Score: inf
ROOT
ATOM      1  C   UNL     1     -29.232  17.674 -11.182  1.00  0.00     0.000 C 
ENDROOT
BRANCH   1   2
ATOM      2  C   UNL     1     -28.895  17.505 -12.672  1.00  0.00     0.000 C 
BRANCH   2   3
ATOM      3  C   UNL     1     -28.967  16.042 -13.135  1.00  0.00     0.000 C 
BRANCH   3   4
ATOM      4  C   UNL     1     -29.223  15.959 -14.648  1.00  0.00     0.000 C 
BRANCH   4   5
ATOM      5  C   UNL     1     -29.259  17.341 -15.323  1.00  0.00     0.001 C 
BRANCH   5   6
ATOM      6  C   UNL     1     -30.423  17.479 -16.324  1.00  0.00     0.009 C 
BRANCH   6   7
ATOM      7  C   UNL     1     -30.030  18.121 -17.673  1.00  0.00     0.032 C 
ATOM      8  C   UNL     1     -28.553  17.900 -18.031  1.00  0.00     0.014 C 
BRANCH   7   9
ATOM      9  C   UNL     1     -30.409  19.578 -17.728  1.00  0.00     0.044 C 
ATOM     10  O   UNL     1     -29.556  20.460 -18.015  1.00  0.00    -0.550 OA
ATOM     11  O   UNL     1     -31.705  19.964 -17.407  1.00  0.00    -0.550 OA
ENDBRANCH   7   9
ENDBRANCH   6   7
ENDBRANCH   5   6
ENDBRANCH   4   5
ENDBRANCH   3   4
ENDBRANCH   2   3
ENDBRANCH   1   2
BRANCH   1  12
ATOM     12  C   UNL     1     -30.545  16.974 -10.790  1.00  0.00     0.000 C 
BRANCH  12  13
ATOM     13  C   UNL     1     -31.654  17.964 -10.393  1.00  0.00    -0.000 C 
BRANCH  13  14
ATOM     14  C   UNL     1     -31.266  19.456 -10.467  1.00  0.00    -0.000 C 
BRANCH  14  15
ATOM     15  C   UNL     1     -32.384  20.448 -10.099  1.00  0.00    -0.000 C 
BRANCH  15  16
ATOM     16  C   UNL     1     -32.224  21.812 -10.790  1.00  0.00    -0.000 C 
BRANCH  16  17
ATOM     17  C   UNL     1     -31.292  22.763 -10.020  1.00  0.00    -0.000 C 
BRANCH  17  18
ATOM     18  C   UNL     1     -31.981  24.064  -9.557  1.00  0.00    -0.003 C 
ATOM     19  C   UNL     1     -33.452  24.121  -9.972  1.00  0.00     0.004 C 
ENDBRANCH  17  18
ENDBRANCH  16  17
ENDBRANCH  15  16
ENDBRANCH  14  15
ENDBRANCH  13  14
ENDBRANCH  12  13
ENDBRANCH   1  12
TORSDOF 14
ENDMDL
MODEL 5
REMARK VINA RESULT:    10.651      2.553      3.623
REMARK INTER + INTRA:          18.634
REMARK INTER:                  19.626
REMARK INTRA:                  -0.992
REMARK UNBOUND:                -0.735
REMARK SMILES CCCCCCCCCCCCCC[C@H](C)C(=O)[O-]
REMARK SMILES IDX 9 1 10 2 11 3 12 4 13 5 14 6 15 7 16 8 17 9 18 10 19 11 8 12
REMARK SMILES IDX 7 13 6 14 5 15 4 16 3 17 2 18 1 19
REMARK H PARENT
REMARK Flexibility Score: inf
ROOT
ATOM      1  C   UNL     1     -30.367  16.094 -11.207  1.00  0.00     0.000 C 
ENDROOT
BRANCH   1   2
ATOM      2  C   UNL     1     -31.398  16.763 -10.285  1.00  0.00     0.000 C 
BRANCH   2   3
ATOM      3  C   UNL     1     -31.501  18.279 -10.509  1.00  0.00     0.000 C 
BRANCH   3   4
ATOM      4  C   UNL     1     -32.863  18.811 -10.037  1.00  0.00     0.000 C 
BRANCH   4   5
ATOM      5  C   UNL     1     -32.916  20.347  -9.987  1.00  0.00     0.001 C 
BRANCH   5   6
ATOM      6  C   UNL     1     -31.567  20.997 -10.352  1.00  0.00     0.009 C 
BRANCH   6   7
ATOM      7  C   UNL     1     -31.685  22.414 -10.955  1.00  0.00     0.032 C 
ATOM      8  C   UNL     1     -30.350  22.946 -11.496  1.00  0.00     0.014 C 
BRANCH   7   9
ATOM      9  C   UNL     1     -32.325  23.379  -9.992  1.00  0.00     0.044 C 
ATOM     10  O   UNL     1     -31.750  23.697  -8.916  1.00  0.00    -0.550 OA
ATOM     11  O   UNL     1     -33.590  23.886 -10.263  1.00  0.00    -0.550 OA
ENDBRANCH   7   9
ENDBRANCH   6   7
ENDBRANCH   5   6
ENDBRANCH   4   5
ENDBRANCH   3   4
ENDBRANCH   2   3
ENDBRANCH   1   2
BRANCH   1  12
ATOM     12  C   UNL     1     -29.051  16.887 -11.296  1.00  0.00     0.000 C 
BRANCH  12  13
ATOM     13  C   UNL     1     -28.903  17.651 -12.623  1.00  0.00    -0.000 C 
BRANCH  13  14
ATOM     14  C   UNL     1     -28.502  19.136 -12.489  1.00  0.00    -0.000 C 
BRANCH  14  15
ATOM     15  C   UNL     1     -27.525  19.655 -13.559  1.00  0.00    -0.000 C 
BRANCH  15  16
ATOM     16  C   UNL     1     -27.525  21.188 -13.675  1.00  0.00    -0.000 C 
BRANCH  16  17
ATOM     17  C   UNL     1     -27.293  21.886 -12.324  1.00  0.00    -0.000 C 
BRANCH  17  18
ATOM     18  C   UNL     1     -26.217  22.990 -12.375  1.00  0.00    -0.003 C 
ATOM     19  C   UNL     1     -25.368  23.031 -11.104  1.00  0.00     0.004 C 
ENDBRANCH  17  18
ENDBRANCH  16  17
ENDBRANCH  15  16
ENDBRANCH  14  15
ENDBRANCH  13  14
ENDBRANCH  12  13
ENDBRANCH   1  12
TORSDOF 14
ENDMDL
MODEL 6
REMARK VINA RESULT:    10.949      3.658      6.530
REMARK INTER + INTRA:          19.175
REMARK INTER:                  17.647
REMARK INTRA:                   1.528
REMARK UNBOUND:                -0.735
REMARK SMILES CCCCCCCCCCCCCC[C@H](C)C(=O)[O-]
REMARK SMILES IDX 9 1 10 2 11 3 12 4 13 5 14 6 15 7 16 8 17 9 18 10 19 11 8 12
REMARK SMILES IDX 7 13 6 14 5 15 4 16 3 17 2 18 1 19
REMARK H PARENT
REMARK Flexibility Score: inf
ROOT
ATOM      1  C   UNL     1     -33.016  21.637  -9.273  1.00  0.00     0.000 C 
ENDROOT
BRANCH   1   2
ATOM      2  C   UNL     1     -32.193  20.636 -10.098  1.00  0.00     0.000 C 
BRANCH   2   3
ATOM      3  C   UNL     1     -32.760  19.211 -10.043  1.00  0.00     0.000 C 
BRANCH   3   4
ATOM      4  C   UNL     1     -31.946  18.262 -10.937  1.00  0.00     0.000 C 
BRANCH   4   5
ATOM      5  C   UNL     1     -31.627  16.924 -10.250  1.00  0.00     0.001 C 
BRANCH   5   6
ATOM      6  C   UNL     1     -30.589  16.093 -11.030  1.00  0.00     0.009 C 
BRANCH   6   7
ATOM      7  C   UNL     1     -29.232  16.802 -11.239  1.00  0.00     0.032 C 
ATOM      8  C   UNL     1     -29.125  18.125 -10.467  1.00  0.00     0.014 C 
BRANCH   7   9
ATOM      9  C   UNL     1     -28.914  16.977 -12.701  1.00  0.00     0.044 C 
ATOM     10  O   UNL     1     -28.564  18.098 -13.159  1.00  0.00    -0.550 OA
ATOM     11  O   UNL     1     -29.060  15.903 -13.570  1.00  0.00    -0.550 OA
ENDBRANCH   7   9
ENDBRANCH   6   7
ENDBRANCH   5   6
ENDBRANCH   4   5
ENDBRANCH   3   4
ENDBRANCH   2   3
ENDBRANCH   1   2
BRANCH   1  12
ATOM     12  C   UNL     1     -33.406  22.889 -10.079  1.00  0.00     0.000 C 
BRANCH  12  13
ATOM     13  C   UNL     1     -32.551  24.118  -9.725  1.00  0.00    -0.000 C 
BRANCH  13  14
ATOM     14  C   UNL     1     -31.047  23.992 -10.050  1.00  0.00    -0.000 C 
BRANCH  14  15
ATOM     15  C   UNL     1     -30.672  22.847 -11.007  1.00  0.00    -0.000 C 
BRANCH  15  16
ATOM     16  C   UNL     1     -29.652  21.871 -10.400  1.00  0.00    -0.000 C 
BRANCH  16  17
ATOM     17  C   UNL     1     -28.916  21.041 -11.465  1.00  0.00    -0.000 C 
BRANCH  17  18
ATOM     18  C   UNL     1     -27.754  21.795 -12.145  1.00  0.00    -0.003 C 
ATOM     19  C   UNL     1     -27.366  21.175 -13.487  1.00  0.00     0.004 C 
ENDBRANCH  17  18
ENDBRANCH  16  17
ENDBRANCH  15  16
ENDBRANCH  14  15
ENDBRANCH  13  14
ENDBRANCH  12  13
ENDBRANCH   1  12
TORSDOF 14
ENDMDL
