MODEL 1
REMARK VINA RESULT:    -5.466      0.000      0.000
REMARK INTER + INTRA:          -6.646
REMARK INTER:                  -6.424
REMARK INTRA:                  -0.222
REMARK UNBOUND:                -0.222
REMARK SMILES O=c1c(O)c(-c2ccc(O)c(O)c2)oc2cc(O)ccc12
REMARK SMILES IDX 5 1 3 2 2 3 1 4 21 5 15 6 14 7 16 8 17 9 19 10 20 11 6 12
REMARK SMILES IDX 7 13 8 14 9 15 13 16 11 17 10 18 12 20 4 22 18 24
REMARK H PARENT 10 19 12 21 4 23 18 25
REMARK Flexibility Score: inf
ROOT
ATOM      1  C   UNL     1       4.319  -3.198  33.826  1.00  0.00     0.180 A 
ATOM      2  C   UNL     1       5.226  -3.596  34.831  1.00  0.00     0.208 A 
ATOM      3  C   UNL     1       4.829  -4.584  35.747  1.00  0.00     0.235 A 
ATOM      4  O   UNL     1       5.627  -4.964  36.648  1.00  0.00    -0.285 OA
ATOM      5  C   UNL     1       3.542  -5.136  35.653  1.00  0.00     0.069 A 
ATOM      6  C   UNL     1       2.686  -4.667  34.634  1.00  0.00     0.142 A 
ATOM      7  O   UNL     1       3.102  -3.737  33.782  1.00  0.00    -0.452 OA
ATOM      8  C   UNL     1       1.391  -5.184  34.515  1.00  0.00     0.094 A 
ATOM      9  C   UNL     1       0.940  -6.167  35.401  1.00  0.00     0.119 A 
ATOM     10  C   UNL     1       1.788  -6.636  36.414  1.00  0.00     0.047 A 
ATOM     11  C   UNL     1       3.083  -6.125  36.542  1.00  0.00     0.020 A 
ENDROOT
BRANCH   1  12
ATOM     12  C   UNL     1       4.668  -2.177  32.814  1.00  0.00     0.025 A 
ATOM     13  C   UNL     1       4.124  -0.881  32.862  1.00  0.00     0.016 A 
ATOM     14  C   UNL     1       4.486   0.074  31.909  1.00  0.00     0.051 A 
ATOM     15  C   UNL     1       5.408  -0.245  30.904  1.00  0.00     0.157 A 
ATOM     16  C   UNL     1       5.608  -2.484  31.816  1.00  0.00     0.062 A 
ATOM     17  C   UNL     1       5.973  -1.531  30.860  1.00  0.00     0.158 A 
BRANCH  15  18
ATOM     18  O   UNL     1       5.766   0.710  29.953  1.00  0.00    -0.504 OA
ATOM     19  H   UNL     1       5.961   1.670  30.211  1.00  0.00     0.293 HD
ENDBRANCH  15  18
BRANCH  17  20
ATOM     20  O   UNL     1       6.899  -1.878  29.876  1.00  0.00    -0.504 OA
ATOM     21  H   UNL     1       6.696  -1.780  28.888  1.00  0.00     0.293 HD
ENDBRANCH  17  20
ENDBRANCH   1  12
BRANCH   2  22
ATOM     22  O   UNL     1       6.483  -2.994  34.929  1.00  0.00    -0.502 OA
ATOM     23  H   UNL     1       6.859  -2.667  35.810  1.00  0.00     0.293 HD
ENDBRANCH   2  22
BRANCH   9  24
ATOM     24  O   UNL     1      -0.352  -6.672  35.267  1.00  0.00    -0.508 OA
ATOM     25  H   UNL     1      -0.957  -6.798  36.070  1.00  0.00     0.293 HD
ENDBRANCH   9  24
TORSDOF 5
ENDMDL
MODEL 2
REMARK VINA RESULT:    -5.233      1.458      3.305
REMARK INTER + INTRA:          -6.372
REMARK INTER:                  -6.149
REMARK INTRA:                  -0.223
REMARK UNBOUND:                -0.222
REMARK SMILES O=c1c(O)c(-c2ccc(O)c(O)c2)oc2cc(O)ccc12
REMARK SMILES IDX 5 1 3 2 2 3 1 4 21 5 15 6 14 7 16 8 17 9 19 10 20 11 6 12
REMARK SMILES IDX 7 13 8 14 9 15 13 16 11 17 10 18 12 20 4 22 18 24
REMARK H PARENT 10 19 12 21 4 23 18 25
REMARK Flexibility Score: inf
ROOT
ATOM      1  C   UNL     1       4.842  -3.029  33.987  1.00  0.00     0.180 A 
ATOM      2  C   UNL     1       3.588  -3.657  34.144  1.00  0.00     0.208 A 
ATOM      3  C   UNL     1       3.419  -4.578  35.190  1.00  0.00     0.235 A 
ATOM      4  O   UNL     1       2.304  -5.144  35.357  1.00  0.00    -0.285 OA
ATOM      5  C   UNL     1       4.500  -4.865  36.038  1.00  0.00     0.069 A 
ATOM      6  C   UNL     1       5.729  -4.213  35.801  1.00  0.00     0.142 A 
ATOM      7  O   UNL     1       5.845  -3.341  34.805  1.00  0.00    -0.452 OA
ATOM      8  C   UNL     1       6.832  -4.481  36.618  1.00  0.00     0.094 A 
ATOM      9  C   UNL     1       6.724  -5.392  37.673  1.00  0.00     0.119 A 
ATOM     10  C   UNL     1       5.505  -6.040  37.913  1.00  0.00     0.047 A 
ATOM     11  C   UNL     1       4.397  -5.781  37.102  1.00  0.00     0.020 A 
ENDROOT
BRANCH   1  12
ATOM     12  C   UNL     1       5.094  -2.034  32.921  1.00  0.00     0.025 A 
ATOM     13  C   UNL     1       4.488  -0.766  32.943  1.00  0.00     0.016 A 
ATOM     14  C   UNL     1       4.760   0.166  31.938  1.00  0.00     0.051 A 
ATOM     15  C   UNL     1       5.653  -0.149  30.906  1.00  0.00     0.157 A 
ATOM     16  C   UNL     1       6.004  -2.336  31.894  1.00  0.00     0.062 A 
ATOM     17  C   UNL     1       6.279  -1.407  30.886  1.00  0.00     0.158 A 
BRANCH  15  18
ATOM     18  O   UNL     1       5.920   0.782  29.903  1.00  0.00    -0.504 OA
ATOM     19  H   UNL     1       6.839   0.863  29.485  1.00  0.00     0.293 HD
ENDBRANCH  15  18
BRANCH  17  20
ATOM     20  O   UNL     1       7.177  -1.749  29.875  1.00  0.00    -0.504 OA
ATOM     21  H   UNL     1       8.062  -1.270  29.757  1.00  0.00     0.293 HD
ENDBRANCH  17  20
ENDBRANCH   1  12
BRANCH   2  22
ATOM     22  O   UNL     1       2.545  -3.387  33.254  1.00  0.00    -0.502 OA
ATOM     23  H   UNL     1       2.580  -3.661  32.280  1.00  0.00     0.293 HD
ENDBRANCH   2  22
BRANCH   9  24
ATOM     24  O   UNL     1       7.833  -5.645  38.478  1.00  0.00    -0.508 OA
ATOM     25  H   UNL     1       8.576  -6.265  38.175  1.00  0.00     0.293 HD
ENDBRANCH   9  24
TORSDOF 5
ENDMDL
MODEL 3
REMARK VINA RESULT:    -5.206      1.693      6.946
REMARK INTER + INTRA:          -6.342
REMARK INTER:                  -6.155
REMARK INTRA:                  -0.187
REMARK UNBOUND:                -0.222
REMARK SMILES O=c1c(O)c(-c2ccc(O)c(O)c2)oc2cc(O)ccc12
REMARK SMILES IDX 5 1 3 2 2 3 1 4 21 5 15 6 14 7 16 8 17 9 19 10 20 11 6 12
REMARK SMILES IDX 7 13 8 14 9 15 13 16 11 17 10 18 12 20 4 22 18 24
REMARK H PARENT 10 19 12 21 4 23 18 25
REMARK Flexibility Score: inf
ROOT
ATOM      1  C   UNL     1       4.334  -3.883  33.073  1.00  0.00     0.180 A 
ATOM      2  C   UNL     1       4.785  -4.565  31.923  1.00  0.00     0.208 A 
ATOM      3  C   UNL     1       5.558  -3.867  30.983  1.00  0.00     0.235 A 
ATOM      4  O   UNL     1       5.982  -4.459  29.951  1.00  0.00    -0.285 OA
ATOM      5  C   UNL     1       5.847  -2.510  31.196  1.00  0.00     0.069 A 
ATOM      6  C   UNL     1       5.339  -1.893  32.360  1.00  0.00     0.142 A 
ATOM      7  O   UNL     1       4.618  -2.591  33.230  1.00  0.00    -0.452 OA
ATOM      8  C   UNL     1       5.596  -0.539  32.603  1.00  0.00     0.094 A 
ATOM      9  C   UNL     1       6.358   0.208  31.699  1.00  0.00     0.119 A 
ATOM     10  C   UNL     1       6.865  -0.402  30.543  1.00  0.00     0.047 A 
ATOM     11  C   UNL     1       6.613  -1.753  30.290  1.00  0.00     0.020 A 
ENDROOT
BRANCH   1  12
ATOM     12  C   UNL     1       3.530  -4.553  34.119  1.00  0.00     0.025 A 
ATOM     13  C   UNL     1       4.035  -4.754  35.416  1.00  0.00     0.016 A 
ATOM     14  C   UNL     1       3.248  -5.368  36.393  1.00  0.00     0.051 A 
ATOM     15  C   UNL     1       1.941  -5.774  36.096  1.00  0.00     0.157 A 
ATOM     16  C   UNL     1       2.211  -4.944  33.833  1.00  0.00     0.062 A 
ATOM     17  C   UNL     1       1.420  -5.559  34.810  1.00  0.00     0.158 A 
BRANCH  15  18
ATOM     18  O   UNL     1       1.159  -6.389  37.074  1.00  0.00    -0.504 OA
ATOM     19  H   UNL     1       1.563  -7.012  37.763  1.00  0.00     0.293 HD
ENDBRANCH  15  18
BRANCH  17  20
ATOM     20  O   UNL     1       0.121  -5.947  34.484  1.00  0.00    -0.504 OA
ATOM     21  H   UNL     1      -0.636  -5.912  35.156  1.00  0.00     0.293 HD
ENDBRANCH  17  20
ENDBRANCH   1  12
BRANCH   2  22
ATOM     22  O   UNL     1       4.441  -5.902  31.714  1.00  0.00    -0.502 OA
ATOM     23  H   UNL     1       4.456  -6.328  30.795  1.00  0.00     0.293 HD
ENDBRANCH   2  22
BRANCH   9  24
ATOM     24  O   UNL     1       6.605   1.555  31.958  1.00  0.00    -0.508 OA
ATOM     25  H   UNL     1       6.057   2.072  32.635  1.00  0.00     0.293 HD
ENDBRANCH   9  24
TORSDOF 5
ENDMDL
MODEL 4
REMARK VINA RESULT:    -5.178      2.116      2.657
REMARK INTER + INTRA:          -6.308
REMARK INTER:                  -6.025
REMARK INTRA:                  -0.283
REMARK UNBOUND:                -0.222
REMARK SMILES O=c1c(O)c(-c2ccc(O)c(O)c2)oc2cc(O)ccc12
REMARK SMILES IDX 5 1 3 2 2 3 1 4 21 5 15 6 14 7 16 8 17 9 19 10 20 11 6 12
REMARK SMILES IDX 7 13 8 14 9 15 13 16 11 17 10 18 12 20 4 22 18 24
REMARK H PARENT 10 19 12 21 4 23 18 25
REMARK Flexibility Score: inf
ROOT
ATOM      1  C   UNL     1       4.674  -3.273  32.634  1.00  0.00     0.180 A 
ATOM      2  C   UNL     1       4.932  -4.332  31.738  1.00  0.00     0.208 A 
ATOM      3  C   UNL     1       4.312  -5.572  31.961  1.00  0.00     0.235 A 
ATOM      4  O   UNL     1       4.520  -6.532  31.168  1.00  0.00    -0.285 OA
ATOM      5  C   UNL     1       3.470  -5.734  33.072  1.00  0.00     0.069 A 
ATOM      6  C   UNL     1       3.282  -4.633  33.934  1.00  0.00     0.142 A 
ATOM      7  O   UNL     1       3.880  -3.474  33.684  1.00  0.00    -0.452 OA
ATOM      8  C   UNL     1       2.458  -4.758  35.059  1.00  0.00     0.094 A 
ATOM      9  C   UNL     1       1.818  -5.970  35.333  1.00  0.00     0.119 A 
ATOM     10  C   UNL     1       2.002  -7.065  34.479  1.00  0.00     0.047 A 
ATOM     11  C   UNL     1       2.823  -6.951  33.353  1.00  0.00     0.020 A 
ENDROOT
BRANCH   1  12
ATOM     12  C   UNL     1       5.274  -1.932  32.458  1.00  0.00     0.025 A 
ATOM     13  C   UNL     1       4.530  -0.858  31.939  1.00  0.00     0.016 A 
ATOM     14  C   UNL     1       5.112   0.405  31.805  1.00  0.00     0.051 A 
ATOM     15  C   UNL     1       6.438   0.618  32.201  1.00  0.00     0.157 A 
ATOM     16  C   UNL     1       6.597  -1.707  32.873  1.00  0.00     0.062 A 
ATOM     17  C   UNL     1       7.183  -0.443  32.740  1.00  0.00     0.158 A 
BRANCH  15  18
ATOM     18  O   UNL     1       7.016   1.880  32.063  1.00  0.00    -0.504 OA
ATOM     19  H   UNL     1       7.922   2.005  31.628  1.00  0.00     0.293 HD
ENDBRANCH  15  18
BRANCH  17  20
ATOM     20  O   UNL     1       8.504  -0.262  33.149  1.00  0.00    -0.504 OA
ATOM     21  H   UNL     1       8.901   0.658  33.294  1.00  0.00     0.293 HD
ENDBRANCH  17  20
ENDBRANCH   1  12
BRANCH   2  22
ATOM     22  O   UNL     1       5.813  -4.156  30.669  1.00  0.00    -0.502 OA
ATOM     23  H   UNL     1       6.160  -4.932  30.118  1.00  0.00     0.293 HD
ENDBRANCH   2  22
BRANCH   9  24
ATOM     24  O   UNL     1       1.000  -6.076  36.457  1.00  0.00    -0.508 OA
ATOM     25  H   UNL     1       0.998  -6.909  37.033  1.00  0.00     0.293 HD
ENDBRANCH   9  24
TORSDOF 5
ENDMDL
MODEL 5
REMARK VINA RESULT:    -5.023     13.434     15.487
REMARK INTER + INTRA:          -6.126
REMARK INTER:                  -5.863
REMARK INTRA:                  -0.262
REMARK UNBOUND:                -0.222
REMARK SMILES O=c1c(O)c(-c2ccc(O)c(O)c2)oc2cc(O)ccc12
REMARK SMILES IDX 5 1 3 2 2 3 1 4 21 5 15 6 14 7 16 8 17 9 19 10 20 11 6 12
REMARK SMILES IDX 7 13 8 14 9 15 13 16 11 17 10 18 12 20 4 22 18 24
REMARK H PARENT 10 19 12 21 4 23 18 25
REMARK Flexibility Score: inf
ROOT
ATOM      1  C   UNL     1      -5.161  -4.385  45.929  1.00  0.00     0.180 A 
ATOM      2  C   UNL     1      -4.470  -3.761  46.988  1.00  0.00     0.208 A 
ATOM      3  C   UNL     1      -3.868  -4.566  47.969  1.00  0.00     0.235 A 
ATOM      4  O   UNL     1      -3.234  -4.032  48.921  1.00  0.00    -0.285 OA
ATOM      5  C   UNL     1      -3.984  -5.963  47.883  1.00  0.00     0.069 A 
ATOM      6  C   UNL     1      -4.713  -6.508  46.805  1.00  0.00     0.142 A 
ATOM      7  O   UNL     1      -5.260  -5.712  45.893  1.00  0.00    -0.452 OA
ATOM      8  C   UNL     1      -4.860  -7.895  46.690  1.00  0.00     0.094 A 
ATOM      9  C   UNL     1      -4.286  -8.746  47.640  1.00  0.00     0.119 A 
ATOM     10  C   UNL     1      -3.560  -8.208  48.711  1.00  0.00     0.047 A 
ATOM     11  C   UNL     1      -3.408  -6.824  48.835  1.00  0.00     0.020 A 
ENDROOT
BRANCH   1  12
ATOM     12  C   UNL     1      -5.807  -3.607  44.847  1.00  0.00     0.025 A 
ATOM     13  C   UNL     1      -7.195  -3.386  44.832  1.00  0.00     0.016 A 
ATOM     14  C   UNL     1      -7.779  -2.628  43.814  1.00  0.00     0.051 A 
ATOM     15  C   UNL     1      -6.985  -2.068  42.805  1.00  0.00     0.157 A 
ATOM     16  C   UNL     1      -5.013  -3.026  43.845  1.00  0.00     0.062 A 
ATOM     17  C   UNL     1      -5.594  -2.267  42.823  1.00  0.00     0.158 A 
BRANCH  15  18
ATOM     18  O   UNL     1      -7.571  -1.315  41.789  1.00  0.00    -0.504 OA
ATOM     19  H   UNL     1      -7.717  -0.317  41.884  1.00  0.00     0.293 HD
ENDBRANCH  15  18
BRANCH  17  20
ATOM     20  O   UNL     1      -4.775  -1.718  41.837  1.00  0.00    -0.504 OA
ATOM     21  H   UNL     1      -4.418  -0.772  41.899  1.00  0.00     0.293 HD
ENDBRANCH  17  20
ENDBRANCH   1  12
BRANCH   2  22
ATOM     22  O   UNL     1      -4.413  -2.369  47.074  1.00  0.00    -0.502 OA
ATOM     23  H   UNL     1      -5.102  -1.770  46.636  1.00  0.00     0.293 HD
ENDBRANCH   2  22
BRANCH   9  24
ATOM     24  O   UNL     1      -4.442 -10.125  47.509  1.00  0.00    -0.508 OA
ATOM     25  H   UNL     1      -3.651 -10.755  47.580  1.00  0.00     0.293 HD
ENDBRANCH   9  24
TORSDOF 5
ENDMDL
MODEL 6
REMARK VINA RESULT:    -5.019     14.807     16.074
REMARK INTER + INTRA:          -6.122
REMARK INTER:                  -5.812
REMARK INTRA:                  -0.310
REMARK UNBOUND:                -0.222
REMARK SMILES O=c1c(O)c(-c2ccc(O)c(O)c2)oc2cc(O)ccc12
REMARK SMILES IDX 5 1 3 2 2 3 1 4 21 5 15 6 14 7 16 8 17 9 19 10 20 11 6 12
REMARK SMILES IDX 7 13 8 14 9 15 13 16 11 17 10 18 12 20 4 22 18 24
REMARK H PARENT 10 19 12 21 4 23 18 25
REMARK Flexibility Score: inf
ROOT
ATOM      1  C   UNL     1      -3.729  -3.672  47.029  1.00  0.00     0.180 A 
ATOM      2  C   UNL     1      -4.802  -4.029  46.185  1.00  0.00     0.208 A 
ATOM      3  C   UNL     1      -5.205  -5.373  46.137  1.00  0.00     0.235 A 
ATOM      4  O   UNL     1      -6.169  -5.716  45.397  1.00  0.00    -0.285 OA
ATOM      5  C   UNL     1      -4.525  -6.327  46.910  1.00  0.00     0.069 A 
ATOM      6  C   UNL     1      -3.447  -5.893  47.711  1.00  0.00     0.142 A 
ATOM      7  O   UNL     1      -3.102  -4.610  47.735  1.00  0.00    -0.452 OA
ATOM      8  C   UNL     1      -2.737  -6.815  48.488  1.00  0.00     0.094 A 
ATOM      9  C   UNL     1      -3.091  -8.167  48.477  1.00  0.00     0.119 A 
ATOM     10  C   UNL     1      -4.162  -8.602  47.684  1.00  0.00     0.047 A 
ATOM     11  C   UNL     1      -4.877  -7.689  46.903  1.00  0.00     0.020 A 
ENDROOT
BRANCH   1  12
ATOM     12  C   UNL     1      -3.257  -2.275  47.149  1.00  0.00     0.025 A 
ATOM     13  C   UNL     1      -2.331  -1.733  46.240  1.00  0.00     0.016 A 
ATOM     14  C   UNL     1      -1.917  -0.404  46.359  1.00  0.00     0.051 A 
ATOM     15  C   UNL     1      -2.433   0.408  47.377  1.00  0.00     0.157 A 
ATOM     16  C   UNL     1      -3.786  -1.449  48.155  1.00  0.00     0.062 A 
ATOM     17  C   UNL     1      -3.374  -0.118  48.278  1.00  0.00     0.158 A 
BRANCH  15  18
ATOM     18  O   UNL     1      -2.016   1.733  47.494  1.00  0.00    -0.504 OA
ATOM     19  H   UNL     1      -1.042   1.973  47.633  1.00  0.00     0.293 HD
ENDBRANCH  15  18
BRANCH  17  20
ATOM     20  O   UNL     1      -3.910   0.666  49.299  1.00  0.00    -0.504 OA
ATOM     21  H   UNL     1      -4.775   1.180  49.184  1.00  0.00     0.293 HD
ENDBRANCH  17  20
ENDBRANCH   1  12
BRANCH   2  22
ATOM     22  O   UNL     1      -5.428  -3.067  45.390  1.00  0.00    -0.502 OA
ATOM     23  H   UNL     1      -5.606  -3.211  44.403  1.00  0.00     0.293 HD
ENDBRANCH   2  22
BRANCH   9  24
ATOM     24  O   UNL     1      -2.374  -9.072  49.258  1.00  0.00    -0.508 OA
ATOM     25  H   UNL     1      -1.533  -9.518  48.912  1.00  0.00     0.293 HD
ENDBRANCH   9  24
TORSDOF 5
ENDMDL
MODEL 7
REMARK VINA RESULT:    -4.915      3.101      5.650
REMARK INTER + INTRA:          -5.999
REMARK INTER:                  -5.698
REMARK INTRA:                  -0.301
REMARK UNBOUND:                -0.222
REMARK SMILES O=c1c(O)c(-c2ccc(O)c(O)c2)oc2cc(O)ccc12
REMARK SMILES IDX 5 1 3 2 2 3 1 4 21 5 15 6 14 7 16 8 17 9 19 10 20 11 6 12
REMARK SMILES IDX 7 13 8 14 9 15 13 16 11 17 10 18 12 20 4 22 18 24
REMARK H PARENT 10 19 12 21 4 23 18 25
REMARK Flexibility Score: inf
ROOT
ATOM      1  C   UNL     1       4.691  -5.063  36.177  1.00  0.00     0.180 A 
ATOM      2  C   UNL     1       4.796  -4.550  34.867  1.00  0.00     0.208 A 
ATOM      3  C   UNL     1       3.710  -4.704  33.992  1.00  0.00     0.235 A 
ATOM      4  O   UNL     1       3.776  -4.245  32.818  1.00  0.00    -0.285 OA
ATOM      5  C   UNL     1       2.559  -5.377  34.431  1.00  0.00     0.069 A 
ATOM      6  C   UNL     1       2.541  -5.882  35.748  1.00  0.00     0.142 A 
ATOM      7  O   UNL     1       3.586  -5.708  36.549  1.00  0.00    -0.452 OA
ATOM      8  C   UNL     1       1.416  -6.568  36.219  1.00  0.00     0.094 A 
ATOM      9  C   UNL     1       0.305  -6.755  35.390  1.00  0.00     0.119 A 
ATOM     10  C   UNL     1       0.319  -6.254  34.082  1.00  0.00     0.047 A 
ATOM     11  C   UNL     1       1.439  -5.568  33.601  1.00  0.00     0.020 A 
ENDROOT
BRANCH   1  12
ATOM     12  C   UNL     1       5.784  -4.925  37.165  1.00  0.00     0.025 A 
ATOM     13  C   UNL     1       6.729  -5.948  37.360  1.00  0.00     0.016 A 
ATOM     14  C   UNL     1       7.767  -5.786  38.281  1.00  0.00     0.051 A 
ATOM     15  C   UNL     1       7.886  -4.595  39.009  1.00  0.00     0.157 A 
ATOM     16  C   UNL     1       5.921  -3.725  37.882  1.00  0.00     0.062 A 
ATOM     17  C   UNL     1       6.959  -3.559  38.806  1.00  0.00     0.158 A 
BRANCH  15  18
ATOM     18  O   UNL     1       8.922  -4.437  39.929  1.00  0.00    -0.504 OA
ATOM     19  H   UNL     1       8.836  -4.760  40.886  1.00  0.00     0.293 HD
ENDBRANCH  15  18
BRANCH  17  20
ATOM     20  O   UNL     1       7.054  -2.359  39.510  1.00  0.00    -0.504 OA
ATOM     21  H   UNL     1       7.197  -2.333  40.513  1.00  0.00     0.293 HD
ENDBRANCH  17  20
ENDBRANCH   1  12
BRANCH   2  22
ATOM     22  O   UNL     1       5.973  -3.928  34.443  1.00  0.00    -0.502 OA
ATOM     23  H   UNL     1       6.087  -2.922  34.450  1.00  0.00     0.293 HD
ENDBRANCH   2  22
BRANCH   9  24
ATOM     24  O   UNL     1      -0.807  -7.439  35.877  1.00  0.00    -0.508 OA
ATOM     25  H   UNL     1      -1.314  -8.102  35.301  1.00  0.00     0.293 HD
ENDBRANCH   9  24
TORSDOF 5
ENDMDL
MODEL 8
REMARK VINA RESULT:    -4.864      2.483      7.052
REMARK INTER + INTRA:          -5.940
REMARK INTER:                  -5.626
REMARK INTRA:                  -0.314
REMARK UNBOUND:                -0.222
REMARK SMILES O=c1c(O)c(-c2ccc(O)c(O)c2)oc2cc(O)ccc12
REMARK SMILES IDX 5 1 3 2 2 3 1 4 21 5 15 6 14 7 16 8 17 9 19 10 20 11 6 12
REMARK SMILES IDX 7 13 8 14 9 15 13 16 11 17 10 18 12 20 4 22 18 24
REMARK H PARENT 10 19 12 21 4 23 18 25
REMARK Flexibility Score: inf
ROOT
ATOM      1  C   UNL     1       4.973  -2.658  33.380  1.00  0.00     0.180 A 
ATOM      2  C   UNL     1       4.230  -1.675  32.693  1.00  0.00     0.208 A 
ATOM      3  C   UNL     1       4.890  -0.522  32.240  1.00  0.00     0.235 A 
ATOM      4  O   UNL     1       4.249   0.367  31.614  1.00  0.00    -0.285 OA
ATOM      5  C   UNL     1       6.262  -0.366  32.495  1.00  0.00     0.069 A 
ATOM      6  C   UNL     1       6.929  -1.384  33.210  1.00  0.00     0.142 A 
ATOM      7  O   UNL     1       6.269  -2.464  33.614  1.00  0.00    -0.452 OA
ATOM      8  C   UNL     1       8.294  -1.261  33.493  1.00  0.00     0.094 A 
ATOM      9  C   UNL     1       9.003  -0.132  33.070  1.00  0.00     0.119 A 
ATOM     10  C   UNL     1       8.344   0.880  32.360  1.00  0.00     0.047 A 
ATOM     11  C   UNL     1       6.980   0.767  32.072  1.00  0.00     0.020 A 
ENDROOT
BRANCH   1  12
ATOM     12  C   UNL     1       4.354  -3.908  33.873  1.00  0.00     0.025 A 
ATOM     13  C   UNL     1       3.825  -4.001  35.172  1.00  0.00     0.016 A 
ATOM     14  C   UNL     1       3.223  -5.185  35.608  1.00  0.00     0.051 A 
ATOM     15  C   UNL     1       3.127  -6.287  34.748  1.00  0.00     0.157 A 
ATOM     16  C   UNL     1       4.236  -5.010  33.009  1.00  0.00     0.062 A 
ATOM     17  C   UNL     1       3.635  -6.197  33.441  1.00  0.00     0.158 A 
BRANCH  15  18
ATOM     18  O   UNL     1       2.529  -7.467  35.187  1.00  0.00    -0.504 OA
ATOM     19  H   UNL     1       2.707  -7.842  36.111  1.00  0.00     0.293 HD
ENDBRANCH  15  18
BRANCH  17  20
ATOM     20  O   UNL     1       3.549  -7.274  32.559  1.00  0.00    -0.504 OA
ATOM     21  H   UNL     1       3.376  -7.146  31.570  1.00  0.00     0.293 HD
ENDBRANCH  17  20
ENDBRANCH   1  12
BRANCH   2  22
ATOM     22  O   UNL     1       2.856  -1.835  32.496  1.00  0.00    -0.502 OA
ATOM     23  H   UNL     1       2.475  -2.271  31.666  1.00  0.00     0.293 HD
ENDBRANCH   2  22
BRANCH   9  24
ATOM     24  O   UNL     1      10.362  -0.027  33.361  1.00  0.00    -0.508 OA
ATOM     25  H   UNL     1      11.065  -0.428  32.752  1.00  0.00     0.293 HD
ENDBRANCH   9  24
TORSDOF 5
ENDMDL
MODEL 9
REMARK VINA RESULT:    -4.852      1.447      6.530
REMARK INTER + INTRA:          -5.925
REMARK INTER:                  -5.828
REMARK INTRA:                  -0.097
REMARK UNBOUND:                -0.222
REMARK SMILES O=c1c(O)c(-c2ccc(O)c(O)c2)oc2cc(O)ccc12
REMARK SMILES IDX 5 1 3 2 2 3 1 4 21 5 15 6 14 7 16 8 17 9 19 10 20 11 6 12
REMARK SMILES IDX 7 13 8 14 9 15 13 16 11 17 10 18 12 20 4 22 18 24
REMARK H PARENT 10 19 12 21 4 23 18 25
REMARK Flexibility Score: inf
ROOT
ATOM      1  C   UNL     1       3.666  -4.465  34.214  1.00  0.00     0.180 A 
ATOM      2  C   UNL     1       4.983  -4.906  34.466  1.00  0.00     0.208 A 
ATOM      3  C   UNL     1       6.055  -4.091  34.071  1.00  0.00     0.235 A 
ATOM      4  O   UNL     1       7.242  -4.458  34.295  1.00  0.00    -0.285 OA
ATOM      5  C   UNL     1       5.796  -2.874  33.422  1.00  0.00     0.069 A 
ATOM      6  C   UNL     1       4.451  -2.515  33.185  1.00  0.00     0.142 A 
ATOM      7  O   UNL     1       3.465  -3.310  33.582  1.00  0.00    -0.452 OA
ATOM      8  C   UNL     1       4.152  -1.315  32.531  1.00  0.00     0.094 A 
ATOM      9  C   UNL     1       5.180  -0.465  32.111  1.00  0.00     0.119 A 
ATOM     10  C   UNL     1       6.516  -0.817  32.345  1.00  0.00     0.047 A 
ATOM     11  C   UNL     1       6.826  -2.014  32.997  1.00  0.00     0.020 A 
ENDROOT
BRANCH   1  12
ATOM     12  C   UNL     1       2.483  -5.258  34.615  1.00  0.00     0.025 A 
ATOM     13  C   UNL     1       2.278  -5.645  35.951  1.00  0.00     0.016 A 
ATOM     14  C   UNL     1       1.141  -6.373  36.310  1.00  0.00     0.051 A 
ATOM     15  C   UNL     1       0.184  -6.710  35.344  1.00  0.00     0.157 A 
ATOM     16  C   UNL     1       1.509  -5.580  33.655  1.00  0.00     0.062 A 
ATOM     17  C   UNL     1       0.369  -6.309  34.011  1.00  0.00     0.158 A 
BRANCH  15  18
ATOM     18  O   UNL     1      -0.949  -7.439  35.706  1.00  0.00    -0.504 OA
ATOM     19  H   UNL     1      -1.221  -8.278  35.209  1.00  0.00     0.293 HD
ENDBRANCH  15  18
BRANCH  17  20
ATOM     20  O   UNL     1      -0.569  -6.624  33.027  1.00  0.00    -0.504 OA
ATOM     21  H   UNL     1      -0.436  -7.396  32.385  1.00  0.00     0.293 HD
ENDBRANCH  17  20
ENDBRANCH   1  12
BRANCH   2  22
ATOM     22  O   UNL     1       5.211  -6.144  35.070  1.00  0.00    -0.502 OA
ATOM     23  H   UNL     1       4.940  -7.018  34.635  1.00  0.00     0.293 HD
ENDBRANCH   2  22
BRANCH   9  24
ATOM     24  O   UNL     1       4.863   0.727  31.462  1.00  0.00    -0.508 OA
ATOM     25  H   UNL     1       5.585   1.340  31.100  1.00  0.00     0.293 HD
ENDBRANCH   9  24
TORSDOF 5
ENDMDL
