MODEL 1
REMARK VINA RESULT:    -6.666      0.000      0.000
REMARK INTER + INTRA:          -8.151
REMARK INTER:                  -7.835
REMARK INTRA:                  -0.315
REMARK UNBOUND:                -0.315
REMARK SMILES O=c1cc(-c2ccc(O)c(O)c2)oc2cc(O)cc(O)c12
REMARK SMILES IDX 4 1 3 2 2 3 1 4 21 5 19 6 18 7 16 8 15 9 14 10 13 11 5 12
REMARK SMILES IDX 6 13 7 14 8 15 12 16 10 17 9 18 11 20 20 22 17 24
REMARK H PARENT 9 19 11 21 20 23 17 25
REMARK Flexibility Score: inf
ROOT
ATOM      1  C   UNL     1      10.725  -6.882  -9.164  1.00  0.00     0.138 A 
ATOM      2  C   UNL     1       9.860  -7.969  -9.350  1.00  0.00     0.100 A 
ATOM      3  C   UNL     1       8.810  -8.178  -8.455  1.00  0.00     0.197 A 
ATOM      4  O   UNL     1       8.013  -9.125  -8.684  1.00  0.00    -0.289 OA
ATOM      5  C   UNL     1       8.646  -7.311  -7.349  1.00  0.00     0.107 A 
ATOM      6  C   UNL     1       7.637  -7.450  -6.349  1.00  0.00     0.134 A 
ATOM      7  C   UNL     1       7.500  -6.464  -5.365  1.00  0.00     0.093 A 
ATOM      8  C   UNL     1       8.373  -5.375  -5.309  1.00  0.00     0.123 A 
ATOM      9  C   UNL     1       9.395  -5.258  -6.248  1.00  0.00     0.094 A 
ATOM     10  C   UNL     1       9.537  -6.207  -7.264  1.00  0.00     0.146 A 
ATOM     11  O   UNL     1      10.515  -6.052  -8.148  1.00  0.00    -0.456 OA
ENDROOT
BRANCH   1  12
ATOM     12  C   UNL     1      11.858  -6.615 -10.085  1.00  0.00     0.021 A 
ATOM     13  C   UNL     1      12.258  -7.609 -10.996  1.00  0.00     0.016 A 
ATOM     14  C   UNL     1      13.316  -7.380 -11.877  1.00  0.00     0.051 A 
ATOM     15  C   UNL     1      13.989  -6.156 -11.874  1.00  0.00     0.157 A 
ATOM     16  C   UNL     1      12.530  -5.378 -10.093  1.00  0.00     0.062 A 
ATOM     17  C   UNL     1      13.592  -5.147 -10.980  1.00  0.00     0.158 A 
BRANCH  15  18
ATOM     18  O   UNL     1      15.043  -5.958 -12.764  1.00  0.00    -0.504 OA
ATOM     19  H   UNL     1      15.797  -5.308 -12.571  1.00  0.00     0.293 HD
ENDBRANCH  15  18
BRANCH  17  20
ATOM     20  O   UNL     1      14.252  -3.918 -10.979  1.00  0.00    -0.504 OA
ATOM     21  H   UNL     1      15.145  -3.796 -10.516  1.00  0.00     0.293 HD
ENDBRANCH  17  20
ENDBRANCH   1  12
BRANCH   6  22
ATOM     22  O   UNL     1       6.768  -8.543  -6.265  1.00  0.00    -0.507 OA
ATOM     23  H   UNL     1       6.246  -8.926  -7.038  1.00  0.00     0.293 HD
ENDBRANCH   6  22
BRANCH   8  24
ATOM     24  O   UNL     1       8.239  -4.406  -4.317  1.00  0.00    -0.508 OA
ATOM     25  H   UNL     1       8.938  -3.685  -4.182  1.00  0.00     0.293 HD
ENDBRANCH   8  24
TORSDOF 5
ENDMDL
MODEL 2
REMARK VINA RESULT:    -6.380     13.621     15.800
REMARK INTER + INTRA:          -7.814
REMARK INTER:                  -7.531
REMARK INTRA:                  -0.283
REMARK UNBOUND:                -0.315
REMARK SMILES O=c1cc(-c2ccc(O)c(O)c2)oc2cc(O)cc(O)c12
REMARK SMILES IDX 4 1 3 2 2 3 1 4 21 5 19 6 18 7 16 8 15 9 14 10 13 11 5 12
REMARK SMILES IDX 6 13 7 14 8 15 12 16 10 17 9 18 11 20 20 22 17 24
REMARK H PARENT 9 19 11 21 20 23 17 25
REMARK Flexibility Score: inf
ROOT
ATOM      1  C   UNL     1      20.738   0.495 -17.564  1.00  0.00     0.138 A 
ATOM      2  C   UNL     1      19.518   0.388 -16.882  1.00  0.00     0.100 A 
ATOM      3  C   UNL     1      19.444   0.750 -15.537  1.00  0.00     0.197 A 
ATOM      4  O   UNL     1      18.321   0.703 -14.970  1.00  0.00    -0.289 OA
ATOM      5  C   UNL     1      20.607   1.191 -14.862  1.00  0.00     0.107 A 
ATOM      6  C   UNL     1      20.660   1.547 -13.481  1.00  0.00     0.134 A 
ATOM      7  C   UNL     1      21.841   2.080 -12.951  1.00  0.00     0.093 A 
ATOM      8  C   UNL     1      22.989   2.214 -13.736  1.00  0.00     0.123 A 
ATOM      9  C   UNL     1      22.962   1.818 -15.072  1.00  0.00     0.094 A 
ATOM     10  C   UNL     1      21.790   1.315 -15.640  1.00  0.00     0.146 A 
ATOM     11  O   UNL     1      21.803   0.963 -16.920  1.00  0.00    -0.456 OA
ENDROOT
BRANCH   1  12
ATOM     12  C   UNL     1      20.873   0.122 -18.994  1.00  0.00     0.021 A 
ATOM     13  C   UNL     1      20.470  -1.157 -19.416  1.00  0.00     0.016 A 
ATOM     14  C   UNL     1      20.581  -1.530 -20.757  1.00  0.00     0.051 A 
ATOM     15  C   UNL     1      21.084  -0.633 -21.702  1.00  0.00     0.157 A 
ATOM     16  C   UNL     1      21.368   1.027 -19.952  1.00  0.00     0.062 A 
ATOM     17  C   UNL     1      21.477   0.654 -21.300  1.00  0.00     0.158 A 
BRANCH  15  18
ATOM     18  O   UNL     1      21.184  -1.035 -23.034  1.00  0.00    -0.504 OA
ATOM     19  H   UNL     1      21.690  -0.493 -23.723  1.00  0.00     0.293 HD
ENDBRANCH  15  18
BRANCH  17  20
ATOM     20  O   UNL     1      21.970   1.558 -22.240  1.00  0.00    -0.504 OA
ATOM     21  H   UNL     1      21.349   2.118 -22.813  1.00  0.00     0.293 HD
ENDBRANCH  17  20
ENDBRANCH   1  12
BRANCH   6  22
ATOM     22  O   UNL     1      19.597   1.374 -12.589  1.00  0.00    -0.507 OA
ATOM     23  H   UNL     1      19.688   1.319 -11.586  1.00  0.00     0.293 HD
ENDBRANCH   6  22
BRANCH   8  24
ATOM     24  O   UNL     1      24.164   2.731 -13.196  1.00  0.00    -0.508 OA
ATOM     25  H   UNL     1      24.345   2.706 -12.199  1.00  0.00     0.293 HD
ENDBRANCH   8  24
TORSDOF 5
ENDMDL
MODEL 3
REMARK VINA RESULT:    -6.180      8.682     12.605
REMARK INTER + INTRA:          -7.579
REMARK INTER:                  -7.316
REMARK INTRA:                  -0.263
REMARK UNBOUND:                -0.315
REMARK SMILES O=c1cc(-c2ccc(O)c(O)c2)oc2cc(O)cc(O)c12
REMARK SMILES IDX 4 1 3 2 2 3 1 4 21 5 19 6 18 7 16 8 15 9 14 10 13 11 5 12
REMARK SMILES IDX 6 13 7 14 8 15 12 16 10 17 9 18 11 20 20 22 17 24
REMARK H PARENT 9 19 11 21 20 23 17 25
REMARK Flexibility Score: inf
ROOT
ATOM      1  C   UNL     1      18.535  -1.058 -16.820  1.00  0.00     0.138 A 
ATOM      2  C   UNL     1      17.895  -0.182 -15.931  1.00  0.00     0.100 A 
ATOM      3  C   UNL     1      17.134  -0.698 -14.881  1.00  0.00     0.197 A 
ATOM      4  O   UNL     1      16.624   0.112 -14.064  1.00  0.00    -0.289 OA
ATOM      5  C   UNL     1      16.988  -2.098 -14.740  1.00  0.00     0.107 A 
ATOM      6  C   UNL     1      16.204  -2.736 -13.733  1.00  0.00     0.134 A 
ATOM      7  C   UNL     1      16.227  -4.131 -13.620  1.00  0.00     0.093 A 
ATOM      8  C   UNL     1      16.959  -4.915 -14.517  1.00  0.00     0.123 A 
ATOM      9  C   UNL     1      17.685  -4.304 -15.536  1.00  0.00     0.094 A 
ATOM     10  C   UNL     1      17.710  -2.912 -15.654  1.00  0.00     0.146 A 
ATOM     11  O   UNL     1      18.425  -2.369 -16.632  1.00  0.00    -0.456 OA
ENDROOT
BRANCH   1  12
ATOM     12  C   UNL     1      19.354  -0.563 -17.954  1.00  0.00     0.021 A 
ATOM     13  C   UNL     1      18.929  -0.806 -19.273  1.00  0.00     0.016 A 
ATOM     14  C   UNL     1      19.678  -0.346 -20.357  1.00  0.00     0.051 A 
ATOM     15  C   UNL     1      20.857   0.372 -20.149  1.00  0.00     0.157 A 
ATOM     16  C   UNL     1      20.537   0.172 -17.749  1.00  0.00     0.062 A 
ATOM     17  C   UNL     1      21.289   0.637 -18.838  1.00  0.00     0.158 A 
BRANCH  15  18
ATOM     18  O   UNL     1      21.585   0.818 -21.252  1.00  0.00    -0.504 OA
ATOM     19  H   UNL     1      22.221   1.604 -21.196  1.00  0.00     0.293 HD
ENDBRANCH  15  18
BRANCH  17  20
ATOM     20  O   UNL     1      22.459   1.364 -18.623  1.00  0.00    -0.504 OA
ATOM     21  H   UNL     1      23.362   0.908 -18.557  1.00  0.00     0.293 HD
ENDBRANCH  17  20
ENDBRANCH   1  12
BRANCH   6  22
ATOM     22  O   UNL     1      15.372  -2.051 -12.841  1.00  0.00    -0.507 OA
ATOM     23  H   UNL     1      15.550  -1.940 -11.855  1.00  0.00     0.293 HD
ENDBRANCH   6  22
BRANCH   8  24
ATOM     24  O   UNL     1      16.964  -6.303 -14.407  1.00  0.00    -0.508 OA
ATOM     25  H   UNL     1      17.020  -6.763 -13.505  1.00  0.00     0.293 HD
ENDBRANCH   8  24
TORSDOF 5
ENDMDL
MODEL 4
REMARK VINA RESULT:    -6.112      1.522      6.995
REMARK INTER + INTRA:          -7.500
REMARK INTER:                  -7.191
REMARK INTRA:                  -0.309
REMARK UNBOUND:                -0.315
REMARK SMILES O=c1cc(-c2ccc(O)c(O)c2)oc2cc(O)cc(O)c12
REMARK SMILES IDX 4 1 3 2 2 3 1 4 21 5 19 6 18 7 16 8 15 9 14 10 13 11 5 12
REMARK SMILES IDX 6 13 7 14 8 15 12 16 10 17 9 18 11 20 20 22 17 24
REMARK H PARENT 9 19 11 21 20 23 17 25
REMARK Flexibility Score: inf
ROOT
ATOM      1  C   UNL     1      11.543  -6.860  -9.612  1.00  0.00     0.138 A 
ATOM      2  C   UNL     1      11.661  -7.854 -10.594  1.00  0.00     0.100 A 
ATOM      3  C   UNL     1      12.662  -7.755 -11.562  1.00  0.00     0.197 A 
ATOM      4  O   UNL     1      12.781  -8.694 -12.391  1.00  0.00    -0.289 OA
ATOM      5  C   UNL     1      13.529  -6.637 -11.563  1.00  0.00     0.107 A 
ATOM      6  C   UNL     1      14.559  -6.409 -12.525  1.00  0.00     0.134 A 
ATOM      7  C   UNL     1      15.431  -5.327 -12.359  1.00  0.00     0.093 A 
ATOM      8  C   UNL     1      15.273  -4.429 -11.299  1.00  0.00     0.123 A 
ATOM      9  C   UNL     1      14.237  -4.612 -10.387  1.00  0.00     0.094 A 
ATOM     10  C   UNL     1      13.371  -5.703 -10.505  1.00  0.00     0.146 A 
ATOM     11  O   UNL     1      12.406  -5.849  -9.605  1.00  0.00    -0.456 OA
ENDROOT
BRANCH   1  12
ATOM     12  C   UNL     1      10.496  -6.915  -8.562  1.00  0.00     0.021 A 
ATOM     13  C   UNL     1       9.961  -8.160  -8.184  1.00  0.00     0.016 A 
ATOM     14  C   UNL     1       8.980  -8.239  -7.193  1.00  0.00     0.051 A 
ATOM     15  C   UNL     1       8.522  -7.084  -6.556  1.00  0.00     0.157 A 
ATOM     16  C   UNL     1      10.041  -5.755  -7.908  1.00  0.00     0.062 A 
ATOM     17  C   UNL     1       9.057  -5.834  -6.911  1.00  0.00     0.158 A 
BRANCH  15  18
ATOM     18  O   UNL     1       7.540  -7.195  -5.572  1.00  0.00    -0.504 OA
ATOM     19  H   UNL     1       7.251  -8.092  -5.199  1.00  0.00     0.293 HD
ENDBRANCH  15  18
BRANCH  17  20
ATOM     20  O   UNL     1       8.613  -4.678  -6.270  1.00  0.00    -0.504 OA
ATOM     21  H   UNL     1       7.737  -4.236  -6.522  1.00  0.00     0.293 HD
ENDBRANCH  17  20
ENDBRANCH   1  12
BRANCH   6  22
ATOM     22  O   UNL     1      14.750  -7.196 -13.666  1.00  0.00    -0.507 OA
ATOM     23  H   UNL     1      14.249  -7.085 -14.534  1.00  0.00     0.293 HD
ENDBRANCH   6  22
BRANCH   8  24
ATOM     24  O   UNL     1      16.136  -3.346 -11.151  1.00  0.00    -0.508 OA
ATOM     25  H   UNL     1      15.874  -2.414 -11.451  1.00  0.00     0.293 HD
ENDBRANCH   8  24
TORSDOF 5
ENDMDL
MODEL 5
REMARK VINA RESULT:    -6.102     12.242     15.417
REMARK INTER + INTRA:          -7.488
REMARK INTER:                  -7.219
REMARK INTRA:                  -0.268
REMARK UNBOUND:                -0.315
REMARK SMILES O=c1cc(-c2ccc(O)c(O)c2)oc2cc(O)cc(O)c12
REMARK SMILES IDX 4 1 3 2 2 3 1 4 21 5 19 6 18 7 16 8 15 9 14 10 13 11 5 12
REMARK SMILES IDX 6 13 7 14 8 15 12 16 10 17 9 18 11 20 20 22 17 24
REMARK H PARENT 9 19 11 21 20 23 17 25
REMARK Flexibility Score: inf
ROOT
ATOM      1  C   UNL     1      20.983   0.546 -17.576  1.00  0.00     0.138 A 
ATOM      2  C   UNL     1      22.143   0.908 -16.878  1.00  0.00     0.100 A 
ATOM      3  C   UNL     1      22.057   1.262 -15.531  1.00  0.00     0.197 A 
ATOM      4  O   UNL     1      23.124   1.522 -14.916  1.00  0.00    -0.289 OA
ATOM      5  C   UNL     1      20.796   1.282 -14.889  1.00  0.00     0.107 A 
ATOM      6  C   UNL     1      20.583   1.666 -13.530  1.00  0.00     0.134 A 
ATOM      7  C   UNL     1      19.307   1.535 -12.970  1.00  0.00     0.093 A 
ATOM      8  C   UNL     1      18.224   1.093 -13.734  1.00  0.00     0.123 A 
ATOM      9  C   UNL     1      18.412   0.768 -15.075  1.00  0.00     0.094 A 
ATOM     10  C   UNL     1      19.680   0.854 -15.656  1.00  0.00     0.146 A 
ATOM     11  O   UNL     1      19.819   0.521 -16.934  1.00  0.00    -0.456 OA
ENDROOT
BRANCH   1  12
ATOM     12  C   UNL     1      21.017   0.163 -19.010  1.00  0.00     0.021 A 
ATOM     13  C   UNL     1      20.565  -1.111 -19.396  1.00  0.00     0.016 A 
ATOM     14  C   UNL     1      20.581  -1.493 -20.739  1.00  0.00     0.051 A 
ATOM     15  C   UNL     1      21.037  -0.610 -21.721  1.00  0.00     0.157 A 
ATOM     16  C   UNL     1      21.463   1.055 -20.004  1.00  0.00     0.062 A 
ATOM     17  C   UNL     1      21.478   0.672 -21.353  1.00  0.00     0.158 A 
BRANCH  15  18
ATOM     18  O   UNL     1      21.042  -1.021 -23.054  1.00  0.00    -0.504 OA
ATOM     19  H   UNL     1      21.870  -1.402 -23.496  1.00  0.00     0.293 HD
ENDBRANCH  15  18
BRANCH  17  20
ATOM     20  O   UNL     1      21.923   1.563 -22.330  1.00  0.00    -0.504 OA
ATOM     21  H   UNL     1      21.378   2.375 -22.595  1.00  0.00     0.293 HD
ENDBRANCH  17  20
ENDBRANCH   1  12
BRANCH   6  22
ATOM     22  O   UNL     1      21.577   2.200 -12.704  1.00  0.00    -0.507 OA
ATOM     23  H   UNL     1      21.628   3.163 -12.412  1.00  0.00     0.293 HD
ENDBRANCH   6  22
BRANCH   8  24
ATOM     24  O   UNL     1      16.955   0.981 -13.172  1.00  0.00    -0.508 OA
ATOM     25  H   UNL     1      16.504   0.080 -13.057  1.00  0.00     0.293 HD
ENDBRANCH   8  24
TORSDOF 5
ENDMDL
MODEL 6
REMARK VINA RESULT:    -6.020      2.534      4.136
REMARK INTER + INTRA:          -7.391
REMARK INTER:                  -7.108
REMARK INTRA:                  -0.283
REMARK UNBOUND:                -0.315
REMARK SMILES O=c1cc(-c2ccc(O)c(O)c2)oc2cc(O)cc(O)c12
REMARK SMILES IDX 4 1 3 2 2 3 1 4 21 5 19 6 18 7 16 8 15 9 14 10 13 11 5 12
REMARK SMILES IDX 6 13 7 14 8 15 12 16 10 17 9 18 11 20 20 22 17 24
REMARK H PARENT 9 19 11 21 20 23 17 25
REMARK Flexibility Score: inf
ROOT
ATOM      1  C   UNL     1      11.524  -5.775 -10.500  1.00  0.00     0.138 A 
ATOM      2  C   UNL     1      11.298  -6.150  -9.168  1.00  0.00     0.100 A 
ATOM      3  C   UNL     1      10.170  -6.904  -8.845  1.00  0.00     0.197 A 
ATOM      4  O   UNL     1      10.027  -7.278  -7.652  1.00  0.00    -0.289 OA
ATOM      5  C   UNL     1       9.246  -7.257  -9.857  1.00  0.00     0.107 A 
ATOM      6  C   UNL     1       8.040  -7.989  -9.638  1.00  0.00     0.134 A 
ATOM      7  C   UNL     1       7.262  -8.381 -10.733  1.00  0.00     0.093 A 
ATOM      8  C   UNL     1       7.615  -8.016 -12.036  1.00  0.00     0.123 A 
ATOM      9  C   UNL     1       8.761  -7.257 -12.255  1.00  0.00     0.094 A 
ATOM     10  C   UNL     1       9.577  -6.879 -11.186  1.00  0.00     0.146 A 
ATOM     11  O   UNL     1      10.669  -6.167 -11.440  1.00  0.00    -0.456 OA
ENDROOT
BRANCH   1  12
ATOM     12  C   UNL     1      12.707  -4.972 -10.899  1.00  0.00     0.021 A 
ATOM     13  C   UNL     1      12.575  -3.998 -11.905  1.00  0.00     0.016 A 
ATOM     14  C   UNL     1      13.670  -3.225 -12.294  1.00  0.00     0.051 A 
ATOM     15  C   UNL     1      14.913  -3.400 -11.681  1.00  0.00     0.157 A 
ATOM     16  C   UNL     1      13.959  -5.137 -10.275  1.00  0.00     0.062 A 
ATOM     17  C   UNL     1      15.059  -4.359 -10.664  1.00  0.00     0.158 A 
BRANCH  15  18
ATOM     18  O   UNL     1      15.990  -2.614 -12.092  1.00  0.00    -0.504 OA
ATOM     19  H   UNL     1      15.910  -1.946 -12.850  1.00  0.00     0.293 HD
ENDBRANCH  15  18
BRANCH  17  20
ATOM     20  O   UNL     1      16.295  -4.530 -10.041  1.00  0.00    -0.504 OA
ATOM     21  H   UNL     1      17.147  -4.152 -10.438  1.00  0.00     0.293 HD
ENDBRANCH  17  20
ENDBRANCH   1  12
BRANCH   6  22
ATOM     22  O   UNL     1       7.553  -8.330  -8.372  1.00  0.00    -0.507 OA
ATOM     23  H   UNL     1       7.711  -9.213  -7.912  1.00  0.00     0.293 HD
ENDBRANCH   6  22
BRANCH   8  24
ATOM     24  O   UNL     1       6.827  -8.398 -13.119  1.00  0.00    -0.508 OA
ATOM     25  H   UNL     1       6.706  -7.796 -13.925  1.00  0.00     0.293 HD
ENDBRANCH   8  24
TORSDOF 5
ENDMDL
MODEL 7
REMARK VINA RESULT:    -5.996      2.437      3.633
REMARK INTER + INTRA:          -7.363
REMARK INTER:                  -7.094
REMARK INTRA:                  -0.269
REMARK UNBOUND:                -0.315
REMARK SMILES O=c1cc(-c2ccc(O)c(O)c2)oc2cc(O)cc(O)c12
REMARK SMILES IDX 4 1 3 2 2 3 1 4 21 5 19 6 18 7 16 8 15 9 14 10 13 11 5 12
REMARK SMILES IDX 6 13 7 14 8 15 12 16 10 17 9 18 11 20 20 22 17 24
REMARK H PARENT 9 19 11 21 20 23 17 25
REMARK Flexibility Score: inf
ROOT
ATOM      1  C   UNL     1      12.719  -5.364 -10.583  1.00  0.00     0.138 A 
ATOM      2  C   UNL     1      11.697  -4.666 -11.242  1.00  0.00     0.100 A 
ATOM      3  C   UNL     1      10.366  -4.899 -10.894  1.00  0.00     0.197 A 
ATOM      4  O   UNL     1       9.476  -4.212 -11.460  1.00  0.00    -0.289 OA
ATOM      5  C   UNL     1      10.057  -5.858  -9.901  1.00  0.00     0.107 A 
ATOM      6  C   UNL     1       8.734  -6.208  -9.494  1.00  0.00     0.134 A 
ATOM      7  C   UNL     1       8.553  -7.087  -8.420  1.00  0.00     0.093 A 
ATOM      8  C   UNL     1       9.645  -7.677  -7.778  1.00  0.00     0.123 A 
ATOM      9  C   UNL     1      10.938  -7.384  -8.204  1.00  0.00     0.094 A 
ATOM     10  C   UNL     1      11.154  -6.483  -9.250  1.00  0.00     0.146 A 
ATOM     11  O   UNL     1      12.403  -6.220  -9.617  1.00  0.00    -0.456 OA
ENDROOT
BRANCH   1  12
ATOM     12  C   UNL     1      14.151  -5.157 -10.915  1.00  0.00     0.021 A 
ATOM     13  C   UNL     1      14.652  -5.631 -12.140  1.00  0.00     0.016 A 
ATOM     14  C   UNL     1      15.993  -5.444 -12.480  1.00  0.00     0.051 A 
ATOM     15  C   UNL     1      16.856  -4.772 -11.610  1.00  0.00     0.157 A 
ATOM     16  C   UNL     1      15.021  -4.469 -10.048  1.00  0.00     0.062 A 
ATOM     17  C   UNL     1      16.368  -4.278 -10.389  1.00  0.00     0.158 A 
BRANCH  15  18
ATOM     18  O   UNL     1      18.191  -4.601 -11.976  1.00  0.00    -0.504 OA
ATOM     19  H   UNL     1      18.891  -4.274 -11.321  1.00  0.00     0.293 HD
ENDBRANCH  15  18
BRANCH  17  20
ATOM     20  O   UNL     1      17.221  -3.596  -9.522  1.00  0.00    -0.504 OA
ATOM     21  H   UNL     1      16.972  -3.430  -8.554  1.00  0.00     0.293 HD
ENDBRANCH  17  20
ENDBRANCH   1  12
BRANCH   6  22
ATOM     22  O   UNL     1       7.574  -5.742 -10.122  1.00  0.00    -0.507 OA
ATOM     23  H   UNL     1       7.084  -6.224 -10.860  1.00  0.00     0.293 HD
ENDBRANCH   6  22
BRANCH   8  24
ATOM     24  O   UNL     1       9.455  -8.563  -6.721  1.00  0.00    -0.508 OA
ATOM     25  H   UNL     1      10.117  -8.625  -5.955  1.00  0.00     0.293 HD
ENDBRANCH   8  24
TORSDOF 5
ENDMDL
MODEL 8
REMARK VINA RESULT:    -5.833      8.605     14.282
REMARK INTER + INTRA:          -7.171
REMARK INTER:                  -6.905
REMARK INTRA:                  -0.267
REMARK UNBOUND:                -0.315
REMARK SMILES O=c1cc(-c2ccc(O)c(O)c2)oc2cc(O)cc(O)c12
REMARK SMILES IDX 4 1 3 2 2 3 1 4 21 5 19 6 18 7 16 8 15 9 14 10 13 11 5 12
REMARK SMILES IDX 6 13 7 14 8 15 12 16 10 17 9 18 11 20 20 22 17 24
REMARK H PARENT 9 19 11 21 20 23 17 25
REMARK Flexibility Score: inf
ROOT
ATOM      1  C   UNL     1      18.028  -0.402 -15.545  1.00  0.00     0.138 A 
ATOM      2  C   UNL     1      19.098   0.348 -15.036  1.00  0.00     0.100 A 
ATOM      3  C   UNL     1      20.152   0.706 -15.878  1.00  0.00     0.197 A 
ATOM      4  O   UNL     1      21.066   1.432 -15.408  1.00  0.00    -0.289 OA
ATOM      5  C   UNL     1      20.150   0.282 -17.227  1.00  0.00     0.107 A 
ATOM      6  C   UNL     1      21.191   0.553 -18.166  1.00  0.00     0.134 A 
ATOM      7  C   UNL     1      21.025   0.182 -19.506  1.00  0.00     0.093 A 
ATOM      8  C   UNL     1      19.883  -0.502 -19.929  1.00  0.00     0.123 A 
ATOM      9  C   UNL     1      18.886  -0.818 -19.009  1.00  0.00     0.094 A 
ATOM     10  C   UNL     1      19.005  -0.432 -17.672  1.00  0.00     0.146 A 
ATOM     11  O   UNL     1      18.025  -0.741 -16.831  1.00  0.00    -0.456 OA
ENDROOT
BRANCH   1  12
ATOM     12  C   UNL     1      16.883  -0.811 -14.695  1.00  0.00     0.021 A 
ATOM     13  C   UNL     1      15.858   0.113 -14.423  1.00  0.00     0.016 A 
ATOM     14  C   UNL     1      14.767  -0.249 -13.631  1.00  0.00     0.051 A 
ATOM     15  C   UNL     1      14.671  -1.539 -13.105  1.00  0.00     0.157 A 
ATOM     16  C   UNL     1      16.776  -2.114 -14.173  1.00  0.00     0.062 A 
ATOM     17  C   UNL     1      15.678  -2.479 -13.379  1.00  0.00     0.158 A 
BRANCH  15  18
ATOM     18  O   UNL     1      13.569  -1.870 -12.316  1.00  0.00    -0.504 OA
ATOM     19  H   UNL     1      12.634  -1.550 -12.536  1.00  0.00     0.293 HD
ENDBRANCH  15  18
BRANCH  17  20
ATOM     20  O   UNL     1      15.582  -3.773 -12.867  1.00  0.00    -0.504 OA
ATOM     21  H   UNL     1      16.188  -4.518 -13.190  1.00  0.00     0.293 HD
ENDBRANCH  17  20
ENDBRANCH   1  12
BRANCH   6  22
ATOM     22  O   UNL     1      22.408   1.155 -17.830  1.00  0.00    -0.507 OA
ATOM     23  H   UNL     1      23.223   1.178 -18.423  1.00  0.00     0.293 HD
ENDBRANCH   6  22
BRANCH   8  24
ATOM     24  O   UNL     1      19.733  -0.881 -21.261  1.00  0.00    -0.508 OA
ATOM     25  H   UNL     1      19.295  -1.759 -21.517  1.00  0.00     0.293 HD
ENDBRANCH   8  24
TORSDOF 5
ENDMDL
MODEL 9
REMARK VINA RESULT:    -5.797      8.474     11.621
REMARK INTER + INTRA:          -7.129
REMARK INTER:                  -6.861
REMARK INTRA:                  -0.268
REMARK UNBOUND:                -0.315
REMARK SMILES O=c1cc(-c2ccc(O)c(O)c2)oc2cc(O)cc(O)c12
REMARK SMILES IDX 4 1 3 2 2 3 1 4 21 5 19 6 18 7 16 8 15 9 14 10 13 11 5 12
REMARK SMILES IDX 6 13 7 14 8 15 12 16 10 17 9 18 11 20 20 22 17 24
REMARK H PARENT 9 19 11 21 20 23 17 25
REMARK Flexibility Score: inf
ROOT
ATOM      1  C   UNL     1      20.565  -1.937  -7.398  1.00  0.00     0.138 A 
ATOM      2  C   UNL     1      20.419  -0.594  -7.025  1.00  0.00     0.100 A 
ATOM      3  C   UNL     1      19.271   0.106  -7.398  1.00  0.00     0.197 A 
ATOM      4  O   UNL     1      19.141   1.291  -6.995  1.00  0.00    -0.289 OA
ATOM      5  C   UNL     1      18.278  -0.536  -8.176  1.00  0.00     0.107 A 
ATOM      6  C   UNL     1      17.085   0.090  -8.648  1.00  0.00     0.134 A 
ATOM      7  C   UNL     1      16.120  -0.676  -9.311  1.00  0.00     0.093 A 
ATOM      8  C   UNL     1      16.330  -2.033  -9.571  1.00  0.00     0.123 A 
ATOM      9  C   UNL     1      17.515  -2.640  -9.162  1.00  0.00     0.094 A 
ATOM     10  C   UNL     1      18.483  -1.911  -8.468  1.00  0.00     0.146 A 
ATOM     11  O   UNL     1      19.592  -2.531  -8.082  1.00  0.00    -0.456 OA
ENDROOT
BRANCH   1  12
ATOM     12  C   UNL     1      21.767  -2.727  -7.031  1.00  0.00     0.021 A 
ATOM     13  C   UNL     1      21.949  -3.128  -5.695  1.00  0.00     0.016 A 
ATOM     14  C   UNL     1      23.067  -3.877  -5.324  1.00  0.00     0.051 A 
ATOM     15  C   UNL     1      24.018  -4.249  -6.278  1.00  0.00     0.157 A 
ATOM     16  C   UNL     1      22.721  -3.115  -7.991  1.00  0.00     0.062 A 
ATOM     17  C   UNL     1      23.843  -3.869  -7.619  1.00  0.00     0.158 A 
BRANCH  15  18
ATOM     18  O   UNL     1      25.125  -4.996  -5.877  1.00  0.00    -0.504 OA
ATOM     19  H   UNL     1      25.923  -5.144  -6.483  1.00  0.00     0.293 HD
ENDBRANCH  15  18
BRANCH  17  20
ATOM     20  O   UNL     1      24.783  -4.247  -8.578  1.00  0.00    -0.504 OA
ATOM     21  H   UNL     1      24.984  -5.222  -8.768  1.00  0.00     0.293 HD
ENDBRANCH  17  20
ENDBRANCH   1  12
BRANCH   6  22
ATOM     22  O   UNL     1      16.815   1.456  -8.515  1.00  0.00    -0.507 OA
ATOM     23  H   UNL     1      16.980   2.149  -9.228  1.00  0.00     0.293 HD
ENDBRANCH   6  22
BRANCH   8  24
ATOM     24  O   UNL     1      15.371  -2.785 -10.245  1.00  0.00    -0.508 OA
ATOM     25  H   UNL     1      14.531  -2.358 -10.622  1.00  0.00     0.293 HD
ENDBRANCH   8  24
TORSDOF 5
ENDMDL
