MODEL 1
REMARK VINA RESULT:    -9.034      0.000      0.000
REMARK INTER + INTRA:         -10.499
REMARK INTER:                 -10.883
REMARK INTRA:                   0.383
REMARK UNBOUND:                 0.383
REMARK SMILES Oc1cc(O)c2c(c1)O[C@H](c1ccc(O)c(O)c1)[C@H](O)C2
REMARK SMILES IDX 21 1 19 2 10 3 9 4 7 5 8 6 2 7 3 8 4 9 6 10 20 11 11 13
REMARK SMILES IDX 18 14 12 15 16 16 13 17 14 18 17 19 15 21 5 23 1 25
REMARK H PARENT 20 12 17 20 15 22 5 24 1 26
REMARK Flexibility Score: inf
ROOT
ATOM      1  C   UNL     1      -1.566  45.147  -0.827  1.00  0.00     0.079 C 
ATOM      2  C   UNL     1      -2.085  44.955   0.611  1.00  0.00     0.164 C 
ATOM      3  C   UNL     1      -1.134  45.655   1.597  1.00  0.00     0.232 C 
ATOM      4  O   UNL     1       0.189  45.139   1.446  1.00  0.00    -0.482 OA
ATOM      5  C   UNL     1       0.728  44.834   0.191  1.00  0.00     0.131 A 
ATOM      6  C   UNL     1       2.085  44.517   0.095  1.00  0.00     0.093 A 
ATOM      7  C   UNL     1       2.653  44.224  -1.147  1.00  0.00     0.122 A 
ATOM      8  C   UNL     1       1.862  44.259  -2.300  1.00  0.00     0.092 A 
ATOM      9  C   UNL     1       0.500  44.575  -2.222  1.00  0.00     0.126 A 
ATOM     10  C   UNL     1      -0.090  44.828  -0.961  1.00  0.00     0.039 A 
ENDROOT
BRANCH   2  11
ATOM     11  O   UNL     1      -2.160  43.584   0.913  1.00  0.00    -0.389 OA
ATOM     12  H   UNL     1      -2.379  43.116   0.065  1.00  0.00     0.211 HD
ENDBRANCH   2  11
BRANCH   3  13
ATOM     13  C   UNL     1      -1.605  45.502   3.025  1.00  0.00    -0.001 A 
ATOM     14  C   UNL     1      -2.673  44.637   3.319  1.00  0.00     0.057 A 
ATOM     15  C   UNL     1      -0.952  46.165   4.077  1.00  0.00     0.012 A 
ATOM     16  C   UNL     1      -3.099  44.458   4.644  1.00  0.00     0.157 A 
ATOM     17  C   UNL     1      -1.377  45.988   5.397  1.00  0.00     0.050 A 
ATOM     18  C   UNL     1      -2.451  45.136   5.683  1.00  0.00     0.157 A 
BRANCH  16  19
ATOM     19  O   UNL     1      -4.163  43.605   4.933  1.00  0.00    -0.504 OA
ATOM     20  H   UNL     1      -5.109  43.954   5.036  1.00  0.00     0.293 HD
ENDBRANCH  16  19
BRANCH  18  21
ATOM     21  O   UNL     1      -2.878  44.957   6.998  1.00  0.00    -0.504 OA
ATOM     22  H   UNL     1      -2.600  44.149   7.541  1.00  0.00     0.293 HD
ENDBRANCH  18  21
ENDBRANCH   3  13
BRANCH   9  23
ATOM     23  O   UNL     1      -0.228  44.638  -3.412  1.00  0.00    -0.507 OA
ATOM     24  H   UNL     1      -0.191  43.922  -4.126  1.00  0.00     0.293 HD
ENDBRANCH   9  23
BRANCH   7  25
ATOM     25  O   UNL     1       4.008  43.909  -1.224  1.00  0.00    -0.508 OA
ATOM     26  H   UNL     1       4.322  42.977  -1.468  1.00  0.00     0.293 HD
ENDBRANCH   7  25
TORSDOF 6
ENDMDL
MODEL 2
REMARK VINA RESULT:    -8.949      1.481      6.758
REMARK INTER + INTRA:         -10.397
REMARK INTER:                 -10.709
REMARK INTRA:                   0.312
REMARK UNBOUND:                 0.383
REMARK SMILES Oc1cc(O)c2c(c1)O[C@H](c1ccc(O)c(O)c1)[C@H](O)C2
REMARK SMILES IDX 21 1 19 2 10 3 9 4 7 5 8 6 2 7 3 8 4 9 6 10 20 11 11 13
REMARK SMILES IDX 18 14 12 15 16 16 13 17 14 18 17 19 15 21 5 23 1 25
REMARK H PARENT 20 12 17 20 15 22 5 24 1 26
REMARK Flexibility Score: inf
ROOT
ATOM      1  C   UNL     1      -2.885  44.590   3.090  1.00  0.00     0.079 C 
ATOM      2  C   UNL     1      -2.390  44.775   1.644  1.00  0.00     0.164 C 
ATOM      3  C   UNL     1      -0.878  44.494   1.579  1.00  0.00     0.232 C 
ATOM      4  O   UNL     1      -0.185  45.356   2.482  1.00  0.00    -0.482 OA
ATOM      5  C   UNL     1      -0.694  45.669   3.748  1.00  0.00     0.131 A 
ATOM      6  C   UNL     1       0.116  46.357   4.654  1.00  0.00     0.093 A 
ATOM      7  C   UNL     1      -0.359  46.669   5.929  1.00  0.00     0.122 A 
ATOM      8  C   UNL     1      -1.650  46.280   6.305  1.00  0.00     0.092 A 
ATOM      9  C   UNL     1      -2.476  45.589   5.410  1.00  0.00     0.126 A 
ATOM     10  C   UNL     1      -2.014  45.311   4.101  1.00  0.00     0.039 A 
ENDROOT
BRANCH   2  11
ATOM     11  O   UNL     1      -2.650  46.088   1.214  1.00  0.00    -0.389 OA
ATOM     12  H   UNL     1      -3.180  46.016   0.378  1.00  0.00     0.211 HD
ENDBRANCH   2  11
BRANCH   3  13
ATOM     13  C   UNL     1      -0.344  44.656   0.175  1.00  0.00    -0.001 A 
ATOM     14  C   UNL     1      -1.204  45.068  -0.857  1.00  0.00     0.057 A 
ATOM     15  C   UNL     1       1.018  44.458  -0.108  1.00  0.00     0.012 A 
ATOM     16  C   UNL     1      -0.716  45.256  -2.159  1.00  0.00     0.157 A 
ATOM     17  C   UNL     1       1.505  44.644  -1.405  1.00  0.00     0.050 A 
ATOM     18  C   UNL     1       0.640  45.041  -2.432  1.00  0.00     0.157 A 
BRANCH  16  19
ATOM     19  O   UNL     1      -1.573  45.657  -3.182  1.00  0.00    -0.504 OA
ATOM     20  H   UNL     1      -1.301  45.597  -4.157  1.00  0.00     0.293 HD
ENDBRANCH  16  19
BRANCH  18  21
ATOM     21  O   UNL     1       1.122  45.226  -3.728  1.00  0.00    -0.504 OA
ATOM     22  H   UNL     1       1.898  44.684  -4.088  1.00  0.00     0.293 HD
ENDBRANCH  18  21
ENDBRANCH   3  13
BRANCH   9  23
ATOM     23  O   UNL     1      -3.737  45.188   5.856  1.00  0.00    -0.507 OA
ATOM     24  H   UNL     1      -4.286  45.718   6.520  1.00  0.00     0.293 HD
ENDBRANCH   9  23
BRANCH   7  25
ATOM     25  O   UNL     1       0.462  47.356   6.819  1.00  0.00    -0.508 OA
ATOM     26  H   UNL     1       0.770  48.304   6.633  1.00  0.00     0.293 HD
ENDBRANCH   7  25
TORSDOF 6
ENDMDL
MODEL 3
REMARK VINA RESULT:    -8.891      1.452      6.873
REMARK INTER + INTRA:         -10.327
REMARK INTER:                 -10.583
REMARK INTRA:                   0.256
REMARK UNBOUND:                 0.383
REMARK SMILES Oc1cc(O)c2c(c1)O[C@H](c1ccc(O)c(O)c1)[C@H](O)C2
REMARK SMILES IDX 21 1 19 2 10 3 9 4 7 5 8 6 2 7 3 8 4 9 6 10 20 11 11 13
REMARK SMILES IDX 18 14 12 15 16 16 13 17 14 18 17 19 15 21 5 23 1 25
REMARK H PARENT 20 12 17 20 15 22 5 24 1 26
REMARK Flexibility Score: inf
ROOT
ATOM      1  C   UNL     1      -2.962  44.493   3.053  1.00  0.00     0.079 C 
ATOM      2  C   UNL     1      -2.526  44.751   1.598  1.00  0.00     0.164 C 
ATOM      3  C   UNL     1      -1.004  44.557   1.477  1.00  0.00     0.232 C 
ATOM      4  O   UNL     1      -0.330  45.428   2.386  1.00  0.00    -0.482 OA
ATOM      5  C   UNL     1      -0.812  45.672   3.676  1.00  0.00     0.131 A 
ATOM      6  C   UNL     1      -0.011  46.375   4.579  1.00  0.00     0.093 A 
ATOM      7  C   UNL     1      -0.460  46.619   5.878  1.00  0.00     0.122 A 
ATOM      8  C   UNL     1      -1.714  46.148   6.281  1.00  0.00     0.092 A 
ATOM      9  C   UNL     1      -2.531  45.440   5.390  1.00  0.00     0.126 A 
ATOM     10  C   UNL     1      -2.099  45.230   4.059  1.00  0.00     0.039 A 
ENDROOT
BRANCH   2  11
ATOM     11  O   UNL     1      -2.871  46.061   1.221  1.00  0.00    -0.389 OA
ATOM     12  H   UNL     1      -2.549  46.661   1.943  1.00  0.00     0.211 HD
ENDBRANCH   2  11
BRANCH   3  13
ATOM     13  C   UNL     1      -0.527  44.792   0.062  1.00  0.00    -0.001 A 
ATOM     14  C   UNL     1       0.824  44.589  -0.263  1.00  0.00     0.057 A 
ATOM     15  C   UNL     1      -1.428  45.154  -0.953  1.00  0.00     0.012 A 
ATOM     16  C   UNL     1       1.275  44.770  -1.579  1.00  0.00     0.157 A 
ATOM     17  C   UNL     1      -0.980  45.335  -2.265  1.00  0.00     0.050 A 
ATOM     18  C   UNL     1       0.371  45.146  -2.580  1.00  0.00     0.157 A 
BRANCH  16  19
ATOM     19  O   UNL     1       2.618  44.575  -1.898  1.00  0.00    -0.504 OA
ATOM     20  H   UNL     1       3.354  45.102  -1.442  1.00  0.00     0.293 HD
ENDBRANCH  16  19
BRANCH  18  21
ATOM     21  O   UNL     1       0.823  45.327  -3.887  1.00  0.00    -0.504 OA
ATOM     22  H   UNL     1       0.308  45.890  -4.553  1.00  0.00     0.293 HD
ENDBRANCH  18  21
ENDBRANCH   3  13
BRANCH   9  23
ATOM     23  O   UNL     1      -3.752  44.956   5.863  1.00  0.00    -0.507 OA
ATOM     24  H   UNL     1      -4.186  44.110   5.518  1.00  0.00     0.293 HD
ENDBRANCH   9  23
BRANCH   7  25
ATOM     25  O   UNL     1       0.352  47.323   6.764  1.00  0.00    -0.508 OA
ATOM     26  H   UNL     1       0.086  47.459   7.733  1.00  0.00     0.293 HD
ENDBRANCH   7  25
TORSDOF 6
ENDMDL
MODEL 4
REMARK VINA RESULT:    -8.887      0.585      1.467
REMARK INTER + INTRA:         -10.322
REMARK INTER:                 -10.604
REMARK INTRA:                   0.282
REMARK UNBOUND:                 0.383
REMARK SMILES Oc1cc(O)c2c(c1)O[C@H](c1ccc(O)c(O)c1)[C@H](O)C2
REMARK SMILES IDX 21 1 19 2 10 3 9 4 7 5 8 6 2 7 3 8 4 9 6 10 20 11 11 13
REMARK SMILES IDX 18 14 12 15 16 16 13 17 14 18 17 19 15 21 5 23 1 25
REMARK H PARENT 20 12 17 20 15 22 5 24 1 26
REMARK Flexibility Score: inf
ROOT
ATOM      1  C   UNL     1      -1.543  45.205  -0.892  1.00  0.00     0.079 C 
ATOM      2  C   UNL     1      -2.087  44.940   0.525  1.00  0.00     0.164 C 
ATOM      3  C   UNL     1      -1.137  45.562   1.564  1.00  0.00     0.232 C 
ATOM      4  O   UNL     1       0.177  45.028   1.401  1.00  0.00    -0.482 OA
ATOM      5  C   UNL     1       0.729  44.786   0.138  1.00  0.00     0.131 A 
ATOM      6  C   UNL     1       2.081  44.449   0.041  1.00  0.00     0.093 A 
ATOM      7  C   UNL     1       2.662  44.218  -1.207  1.00  0.00     0.122 A 
ATOM      8  C   UNL     1       1.889  44.335  -2.367  1.00  0.00     0.092 A 
ATOM      9  C   UNL     1       0.533  44.674  -2.290  1.00  0.00     0.126 A 
ATOM     10  C   UNL     1      -0.071  44.864  -1.024  1.00  0.00     0.039 A 
ENDROOT
BRANCH   2  11
ATOM     11  O   UNL     1      -2.192  43.555   0.745  1.00  0.00    -0.389 OA
ATOM     12  H   UNL     1      -2.558  43.438   1.660  1.00  0.00     0.211 HD
ENDBRANCH   2  11
BRANCH   3  13
ATOM     13  C   UNL     1      -1.632  45.335   2.973  1.00  0.00    -0.001 A 
ATOM     14  C   UNL     1      -0.962  45.930   4.055  1.00  0.00     0.057 A 
ATOM     15  C   UNL     1      -2.795  44.583   3.218  1.00  0.00     0.012 A 
ATOM     16  C   UNL     1      -1.431  45.756   5.366  1.00  0.00     0.157 A 
ATOM     17  C   UNL     1      -3.262  44.409   4.524  1.00  0.00     0.050 A 
ATOM     18  C   UNL     1      -2.580  44.993   5.600  1.00  0.00     0.157 A 
BRANCH  16  19
ATOM     19  O   UNL     1      -0.760  46.342   6.438  1.00  0.00    -0.504 OA
ATOM     20  H   UNL     1       0.037  46.952   6.296  1.00  0.00     0.293 HD
ENDBRANCH  16  19
BRANCH  18  21
ATOM     21  O   UNL     1      -3.043  44.820   6.904  1.00  0.00    -0.504 OA
ATOM     22  H   UNL     1      -3.806  45.373   7.274  1.00  0.00     0.293 HD
ENDBRANCH  18  21
ENDBRANCH   3  13
BRANCH   9  23
ATOM     23  O   UNL     1      -0.176  44.821  -3.483  1.00  0.00    -0.507 OA
ATOM     24  H   UNL     1      -1.058  45.311  -3.550  1.00  0.00     0.293 HD
ENDBRANCH   9  23
BRANCH   7  25
ATOM     25  O   UNL     1       4.012  43.880  -1.284  1.00  0.00    -0.508 OA
ATOM     26  H   UNL     1       4.339  42.948  -1.059  1.00  0.00     0.293 HD
ENDBRANCH   7  25
TORSDOF 6
ENDMDL
MODEL 5
REMARK VINA RESULT:    -8.209      4.941     10.209
REMARK INTER + INTRA:          -9.505
REMARK INTER:                  -9.116
REMARK INTRA:                  -0.389
REMARK UNBOUND:                 0.383
REMARK SMILES Oc1cc(O)c2c(c1)O[C@H](c1ccc(O)c(O)c1)[C@H](O)C2
REMARK SMILES IDX 21 1 19 2 10 3 9 4 7 5 8 6 2 7 3 8 4 9 6 10 20 11 11 13
REMARK SMILES IDX 18 14 12 15 16 16 13 17 14 18 17 19 15 21 5 23 1 25
REMARK H PARENT 20 12 17 20 15 22 5 24 1 26
REMARK Flexibility Score: inf
ROOT
ATOM      1  C   UNL     1       3.466  44.498  -5.062  1.00  0.00     0.079 C 
ATOM      2  C   UNL     1       4.855  45.131  -5.269  1.00  0.00     0.164 C 
ATOM      3  C   UNL     1       5.861  44.492  -4.295  1.00  0.00     0.232 C 
ATOM      4  O   UNL     1       5.408  44.658  -2.952  1.00  0.00    -0.482 OA
ATOM      5  C   UNL     1       4.058  44.533  -2.603  1.00  0.00     0.131 A 
ATOM      6  C   UNL     1       3.705  44.514  -1.251  1.00  0.00     0.093 A 
ATOM      7  C   UNL     1       2.368  44.375  -0.874  1.00  0.00     0.122 A 
ATOM      8  C   UNL     1       1.379  44.243  -1.854  1.00  0.00     0.092 A 
ATOM      9  C   UNL     1       1.714  44.259  -3.213  1.00  0.00     0.126 A 
ATOM     10  C   UNL     1       3.062  44.446  -3.601  1.00  0.00     0.039 A 
ENDROOT
BRANCH   2  11
ATOM     11  O   UNL     1       4.786  46.517  -5.043  1.00  0.00    -0.389 OA
ATOM     12  H   UNL     1       4.531  46.639  -4.092  1.00  0.00     0.211 HD
ENDBRANCH   2  11
BRANCH   3  13
ATOM     13  C   UNL     1       7.244  45.077  -4.466  1.00  0.00    -0.001 A 
ATOM     14  C   UNL     1       7.827  45.810  -3.419  1.00  0.00     0.057 A 
ATOM     15  C   UNL     1       7.986  44.849  -5.637  1.00  0.00     0.012 A 
ATOM     16  C   UNL     1       9.124  46.330  -3.549  1.00  0.00     0.157 A 
ATOM     17  C   UNL     1       9.278  45.367  -5.768  1.00  0.00     0.050 A 
ATOM     18  C   UNL     1       9.848  46.109  -4.727  1.00  0.00     0.157 A 
BRANCH  16  19
ATOM     19  O   UNL     1       9.698  47.063  -2.512  1.00  0.00    -0.504 OA
ATOM     20  H   UNL     1      10.044  46.613  -1.672  1.00  0.00     0.293 HD
ENDBRANCH  16  19
BRANCH  18  21
ATOM     21  O   UNL     1      11.136  46.629  -4.855  1.00  0.00    -0.504 OA
ATOM     22  H   UNL     1      11.384  47.532  -4.469  1.00  0.00     0.293 HD
ENDBRANCH  18  21
ENDBRANCH   3  13
BRANCH   9  23
ATOM     23  O   UNL     1       0.689  44.078  -4.144  1.00  0.00    -0.507 OA
ATOM     24  H   UNL     1      -0.187  43.621  -3.926  1.00  0.00     0.293 HD
ENDBRANCH   9  23
BRANCH   7  25
ATOM     25  O   UNL     1       2.035  44.359   0.478  1.00  0.00    -0.508 OA
ATOM     26  H   UNL     1       1.093  44.153   0.790  1.00  0.00     0.293 HD
ENDBRANCH   7  25
TORSDOF 6
ENDMDL
MODEL 6
REMARK VINA RESULT:    -8.072      1.711      2.770
REMARK INTER + INTRA:          -9.340
REMARK INTER:                  -9.332
REMARK INTRA:                  -0.008
REMARK UNBOUND:                 0.383
REMARK SMILES Oc1cc(O)c2c(c1)O[C@H](c1ccc(O)c(O)c1)[C@H](O)C2
REMARK SMILES IDX 21 1 19 2 10 3 9 4 7 5 8 6 2 7 3 8 4 9 6 10 20 11 11 13
REMARK SMILES IDX 18 14 12 15 16 16 13 17 14 18 17 19 15 21 5 23 1 25
REMARK H PARENT 20 12 17 20 15 22 5 24 1 26
REMARK Flexibility Score: inf
ROOT
ATOM      1  C   UNL     1      -2.446  45.116   1.433  1.00  0.00     0.079 C 
ATOM      2  C   UNL     1      -2.690  45.034   2.952  1.00  0.00     0.164 C 
ATOM      3  C   UNL     1      -1.683  45.938   3.683  1.00  0.00     0.232 C 
ATOM      4  O   UNL     1      -0.350  45.552   3.348  1.00  0.00    -0.482 OA
ATOM      5  C   UNL     1       0.007  45.166   2.051  1.00  0.00     0.131 A 
ATOM      6  C   UNL     1       1.357  44.987   1.743  1.00  0.00     0.093 A 
ATOM      7  C   UNL     1       1.743  44.618   0.453  1.00  0.00     0.122 A 
ATOM      8  C   UNL     1       0.773  44.438  -0.539  1.00  0.00     0.092 A 
ATOM      9  C   UNL     1      -0.585  44.614  -0.249  1.00  0.00     0.126 A 
ATOM     10  C   UNL     1      -0.984  44.943   1.068  1.00  0.00     0.039 A 
ENDROOT
BRANCH   2  11
ATOM     11  O   UNL     1      -2.542  43.705   3.388  1.00  0.00    -0.389 OA
ATOM     12  H   UNL     1      -1.959  43.731   4.191  1.00  0.00     0.211 HD
ENDBRANCH   2  11
BRANCH   3  13
ATOM     13  C   UNL     1      -1.887  45.897   5.180  1.00  0.00    -0.001 A 
ATOM     14  C   UNL     1      -0.886  46.385   6.037  1.00  0.00     0.057 A 
ATOM     15  C   UNL     1      -3.094  45.434   5.732  1.00  0.00     0.012 A 
ATOM     16  C   UNL     1      -1.076  46.385   7.427  1.00  0.00     0.157 A 
ATOM     17  C   UNL     1      -3.283  45.433   7.117  1.00  0.00     0.050 A 
ATOM     18  C   UNL     1      -2.275  45.906   7.966  1.00  0.00     0.157 A 
BRANCH  16  19
ATOM     19  O   UNL     1      -0.078  46.862   8.274  1.00  0.00    -0.504 OA
ATOM     20  H   UNL     1      -0.242  46.996   9.266  1.00  0.00     0.293 HD
ENDBRANCH  16  19
BRANCH  18  21
ATOM     21  O   UNL     1      -2.460  45.906   9.349  1.00  0.00    -0.504 OA
ATOM     22  H   UNL     1      -2.623  46.763   9.863  1.00  0.00     0.293 HD
ENDBRANCH  18  21
ENDBRANCH   3  13
BRANCH   9  23
ATOM     23  O   UNL     1      -1.503  44.464  -1.291  1.00  0.00    -0.507 OA
ATOM     24  H   UNL     1      -1.348  44.820  -2.225  1.00  0.00     0.293 HD
ENDBRANCH   9  23
BRANCH   7  25
ATOM     25  O   UNL     1       3.095  44.443   0.164  1.00  0.00    -0.508 OA
ATOM     26  H   UNL     1       3.669  45.208  -0.170  1.00  0.00     0.293 HD
ENDBRANCH   7  25
TORSDOF 6
ENDMDL
MODEL 7
REMARK VINA RESULT:    -7.422      3.711      6.441
REMARK INTER + INTRA:          -8.557
REMARK INTER:                  -8.825
REMARK INTRA:                   0.268
REMARK UNBOUND:                 0.383
REMARK SMILES Oc1cc(O)c2c(c1)O[C@H](c1ccc(O)c(O)c1)[C@H](O)C2
REMARK SMILES IDX 21 1 19 2 10 3 9 4 7 5 8 6 2 7 3 8 4 9 6 10 20 11 11 13
REMARK SMILES IDX 18 14 12 15 16 16 13 17 14 18 17 19 15 21 5 23 1 25
REMARK H PARENT 20 12 17 20 15 22 5 24 1 26
REMARK Flexibility Score: inf
ROOT
ATOM      1  C   UNL     1      -2.885  46.013   6.139  1.00  0.00     0.079 C 
ATOM      2  C   UNL     1      -2.090  46.238   7.439  1.00  0.00     0.164 C 
ATOM      3  C   UNL     1      -1.011  47.309   7.201  1.00  0.00     0.232 C 
ATOM      4  O   UNL     1      -0.156  46.908   6.131  1.00  0.00    -0.482 OA
ATOM      5  C   UNL     1      -0.649  46.275   4.984  1.00  0.00     0.131 A 
ATOM      6  C   UNL     1       0.203  46.083   3.895  1.00  0.00     0.093 A 
ATOM      7  C   UNL     1      -0.266  45.469   2.732  1.00  0.00     0.122 A 
ATOM      8  C   UNL     1      -1.600  45.054   2.654  1.00  0.00     0.092 A 
ATOM      9  C   UNL     1      -2.469  45.238   3.736  1.00  0.00     0.126 A 
ATOM     10  C   UNL     1      -1.986  45.819   4.933  1.00  0.00     0.039 A 
ENDROOT
BRANCH   2  11
ATOM     11  O   UNL     1      -1.487  45.034   7.844  1.00  0.00    -0.389 OA
ATOM     12  H   UNL     1      -2.195  44.339   7.825  1.00  0.00     0.211 HD
ENDBRANCH   2  11
BRANCH   3  13
ATOM     13  C   UNL     1      -0.207  47.571   8.454  1.00  0.00    -0.001 A 
ATOM     14  C   UNL     1      -0.513  46.882   9.639  1.00  0.00     0.057 A 
ATOM     15  C   UNL     1       0.887  48.454   8.439  1.00  0.00     0.012 A 
ATOM     16  C   UNL     1       0.246  47.089  10.800  1.00  0.00     0.157 A 
ATOM     17  C   UNL     1       1.643  48.662   9.596  1.00  0.00     0.050 A 
ATOM     18  C   UNL     1       1.324  47.982  10.778  1.00  0.00     0.157 A 
BRANCH  16  19
ATOM     19  O   UNL     1      -0.064  46.409  11.976  1.00  0.00    -0.504 OA
ATOM     20  H   UNL     1       0.567  45.724  12.376  1.00  0.00     0.293 HD
ENDBRANCH  16  19
BRANCH  18  21
ATOM     21  O   UNL     1       2.075  48.188  11.935  1.00  0.00    -0.504 OA
ATOM     22  H   UNL     1       1.636  48.290  12.842  1.00  0.00     0.293 HD
ENDBRANCH  18  21
ENDBRANCH   3  13
BRANCH   9  23
ATOM     23  O   UNL     1      -3.800  44.844   3.583  1.00  0.00    -0.507 OA
ATOM     24  H   UNL     1      -4.491  44.922   4.317  1.00  0.00     0.293 HD
ENDBRANCH   9  23
BRANCH   7  25
ATOM     25  O   UNL     1       0.599  45.285   1.656  1.00  0.00    -0.508 OA
ATOM     26  H   UNL     1       1.492  44.820   1.767  1.00  0.00     0.293 HD
ENDBRANCH   7  25
TORSDOF 6
ENDMDL
MODEL 8
REMARK VINA RESULT:    -7.249      2.415      7.712
REMARK INTER + INTRA:          -8.349
REMARK INTER:                  -8.512
REMARK INTRA:                   0.163
REMARK UNBOUND:                 0.383
REMARK SMILES Oc1cc(O)c2c(c1)O[C@H](c1ccc(O)c(O)c1)[C@H](O)C2
REMARK SMILES IDX 21 1 19 2 10 3 9 4 7 5 8 6 2 7 3 8 4 9 6 10 20 11 11 13
REMARK SMILES IDX 18 14 12 15 16 16 13 17 14 18 17 19 15 21 5 23 1 25
REMARK H PARENT 20 12 17 20 15 22 5 24 1 26
REMARK Flexibility Score: inf
ROOT
ATOM      1  C   UNL     1      -0.829  44.604  -2.057  1.00  0.00     0.079 C 
ATOM      2  C   UNL     1       0.529  44.677  -2.780  1.00  0.00     0.164 C 
ATOM      3  C   UNL     1       1.587  43.913  -1.964  1.00  0.00     0.232 C 
ATOM      4  O   UNL     1       1.668  44.457  -0.646  1.00  0.00    -0.482 OA
ATOM      5  C   UNL     1       0.531  44.865   0.060  1.00  0.00     0.131 A 
ATOM      6  C   UNL     1       0.655  45.205   1.409  1.00  0.00     0.093 A 
ATOM      7  C   UNL     1      -0.466  45.600   2.142  1.00  0.00     0.122 A 
ATOM      8  C   UNL     1      -1.720  45.646   1.525  1.00  0.00     0.092 A 
ATOM      9  C   UNL     1      -1.864  45.308   0.174  1.00  0.00     0.126 A 
ATOM     10  C   UNL     1      -0.724  44.950  -0.585  1.00  0.00     0.039 A 
ENDROOT
BRANCH   2  11
ATOM     11  O   UNL     1       0.920  46.019  -2.930  1.00  0.00    -0.389 OA
ATOM     12  H   UNL     1       1.696  46.025  -3.547  1.00  0.00     0.211 HD
ENDBRANCH   2  11
BRANCH   3  13
ATOM     13  C   UNL     1       2.939  43.950  -2.638  1.00  0.00    -0.001 A 
ATOM     14  C   UNL     1       3.058  44.468  -3.938  1.00  0.00     0.057 A 
ATOM     15  C   UNL     1       4.096  43.528  -1.961  1.00  0.00     0.012 A 
ATOM     16  C   UNL     1       4.312  44.540  -4.564  1.00  0.00     0.157 A 
ATOM     17  C   UNL     1       5.345  43.599  -2.584  1.00  0.00     0.050 A 
ATOM     18  C   UNL     1       5.455  44.102  -3.886  1.00  0.00     0.157 A 
BRANCH  16  19
ATOM     19  O   UNL     1       4.426  45.048  -5.857  1.00  0.00    -0.504 OA
ATOM     20  H   UNL     1       3.612  45.206  -6.439  1.00  0.00     0.293 HD
ENDBRANCH  16  19
BRANCH  18  21
ATOM     21  O   UNL     1       6.700  44.173  -4.512  1.00  0.00    -0.504 OA
ATOM     22  H   UNL     1       7.434  44.779  -4.165  1.00  0.00     0.293 HD
ENDBRANCH  18  21
ENDBRANCH   3  13
BRANCH   9  23
ATOM     23  O   UNL     1      -3.148  45.329  -0.375  1.00  0.00    -0.507 OA
ATOM     24  H   UNL     1      -3.947  45.736   0.093  1.00  0.00     0.293 HD
ENDBRANCH   9  23
BRANCH   7  25
ATOM     25  O   UNL     1      -0.323  45.937   3.486  1.00  0.00    -0.508 OA
ATOM     26  H   UNL     1      -1.039  46.455   3.982  1.00  0.00     0.293 HD
ENDBRANCH   7  25
TORSDOF 6
ENDMDL
MODEL 9
REMARK VINA RESULT:    -7.088     11.312     12.794
REMARK INTER + INTRA:          -8.154
REMARK INTER:                  -7.758
REMARK INTRA:                  -0.396
REMARK UNBOUND:                 0.383
REMARK SMILES Oc1cc(O)c2c(c1)O[C@H](c1ccc(O)c(O)c1)[C@H](O)C2
REMARK SMILES IDX 21 1 19 2 10 3 9 4 7 5 8 6 2 7 3 8 4 9 6 10 20 11 11 13
REMARK SMILES IDX 18 14 12 15 16 16 13 17 14 18 17 19 15 21 5 23 1 25
REMARK H PARENT 20 12 17 20 15 22 5 24 1 26
REMARK Flexibility Score: inf
ROOT
ATOM      1  C   UNL     1       7.946  38.536  11.071  1.00  0.00     0.079 C 
ATOM      2  C   UNL     1       7.299  39.890  10.727  1.00  0.00     0.164 C 
ATOM      3  C   UNL     1       6.328  39.709   9.546  1.00  0.00     0.232 C 
ATOM      4  O   UNL     1       7.023  39.163   8.425  1.00  0.00    -0.482 OA
ATOM      5  C   UNL     1       8.000  38.172   8.569  1.00  0.00     0.131 A 
ATOM      6  C   UNL     1       8.503  37.544   7.426  1.00  0.00     0.093 A 
ATOM      7  C   UNL     1       9.466  36.540   7.540  1.00  0.00     0.122 A 
ATOM      8  C   UNL     1       9.923  36.154   8.805  1.00  0.00     0.092 A 
ATOM      9  C   UNL     1       9.430  36.771   9.961  1.00  0.00     0.126 A 
ATOM     10  C   UNL     1       8.486  37.821   9.848  1.00  0.00     0.039 A 
ENDROOT
BRANCH   2  11
ATOM     11  O   UNL     1       8.294  40.823  10.387  1.00  0.00    -0.389 OA
ATOM     12  H   UNL     1       7.866  41.718  10.408  1.00  0.00     0.211 HD
ENDBRANCH   2  11
BRANCH   3  13
ATOM     13  C   UNL     1       5.659  41.013   9.175  1.00  0.00    -0.001 A 
ATOM     14  C   UNL     1       5.841  41.550   7.890  1.00  0.00     0.057 A 
ATOM     15  C   UNL     1       4.806  41.670  10.077  1.00  0.00     0.012 A 
ATOM     16  C   UNL     1       5.199  42.741   7.519  1.00  0.00     0.157 A 
ATOM     17  C   UNL     1       4.167  42.858   9.709  1.00  0.00     0.050 A 
ATOM     18  C   UNL     1       4.363  43.396   8.431  1.00  0.00     0.157 A 
BRANCH  16  19
ATOM     19  O   UNL     1       5.387  43.276   6.246  1.00  0.00    -0.504 OA
ATOM     20  H   UNL     1       6.117  43.953   6.056  1.00  0.00     0.293 HD
ENDBRANCH  16  19
BRANCH  18  21
ATOM     21  O   UNL     1       3.729  44.581   8.060  1.00  0.00    -0.504 OA
ATOM     22  H   UNL     1       3.147  44.635   7.233  1.00  0.00     0.293 HD
ENDBRANCH  18  21
ENDBRANCH   3  13
BRANCH   9  23
ATOM     23  O   UNL     1       9.889  36.312  11.197  1.00  0.00    -0.507 OA
ATOM     24  H   UNL     1      10.508  35.519  11.301  1.00  0.00     0.293 HD
ENDBRANCH   9  23
BRANCH   7  25
ATOM     25  O   UNL     1       9.957  35.927   6.390  1.00  0.00    -0.508 OA
ATOM     26  H   UNL     1      10.890  35.531   6.357  1.00  0.00     0.293 HD
ENDBRANCH   7  25
TORSDOF 6
ENDMDL
