MODEL 1
REMARK VINA RESULT:    -5.177      0.000      0.000
REMARK INTER + INTRA:          -7.816
REMARK INTER:                  -6.992
REMARK INTRA:                  -0.823
REMARK UNBOUND:                -0.823
REMARK SMILES CC(=O)CCC=C(C)CCC=C(C)C
REMARK SMILES IDX 7 1 6 2 8 3 9 4 10 5 11 6 13 7 12 8 14 9 5 10 4 11 2 12 3 13
REMARK SMILES IDX 1 14
REMARK H PARENT
REMARK Flexibility Score: inf
ROOT
ATOM      1  C   UNL     1      15.359  15.785  25.521  1.00  0.00    -0.077 C 
ATOM      2  C   UNL     1      15.755  16.623  24.536  1.00  0.00    -0.028 C 
ATOM      3  C   UNL     1      13.994  15.137  25.517  1.00  0.00     0.039 C 
ENDROOT
BRANCH   1   4
ATOM      4  C   UNL     1      16.318  15.470  26.648  1.00  0.00     0.034 C 
BRANCH   4   5
ATOM      5  C   UNL     1      17.764  15.444  26.143  1.00  0.00     0.032 C 
BRANCH   5   6
ATOM      6  C   UNL     1      18.325  14.045  26.202  1.00  0.00    -0.028 C 
ATOM      7  C   UNL     1      17.886  13.595  23.777  1.00  0.00     0.039 C 
ATOM      8  C   UNL     1      18.365  13.193  25.153  1.00  0.00    -0.080 C 
ATOM      9  C   UNL     1      18.920  11.809  25.372  1.00  0.00     0.039 C 
ENDBRANCH   5   6
ENDBRANCH   4   5
ENDBRANCH   1   4
BRANCH   2  10
ATOM     10  C   UNL     1      14.890  17.048  23.375  1.00  0.00     0.035 C 
BRANCH  10  11
ATOM     11  C   UNL     1      15.375  18.380  22.795  1.00  0.00     0.079 C 
BRANCH  11  12
ATOM     12  C   UNL     1      14.214  19.290  22.508  1.00  0.00     0.130 C 
ATOM     13  O   UNL     1      13.801  19.403  21.363  1.00  0.00    -0.300 OA
ATOM     14  C   UNL     1      13.543  20.041  23.617  1.00  0.00     0.087 C 
ENDBRANCH  11  12
ENDBRANCH  10  11
ENDBRANCH   2  10
TORSDOF 6
ENDMDL
MODEL 2
REMARK VINA RESULT:    -5.052      1.549      2.176
REMARK INTER + INTRA:          -7.647
REMARK INTER:                  -6.608
REMARK INTRA:                  -1.039
REMARK UNBOUND:                -0.823
REMARK SMILES CC(=O)CCC=C(C)CCC=C(C)C
REMARK SMILES IDX 7 1 6 2 8 3 9 4 10 5 11 6 13 7 12 8 14 9 5 10 4 11 2 12 3 13
REMARK SMILES IDX 1 14
REMARK H PARENT
REMARK Flexibility Score: inf
ROOT
ATOM      1  C   UNL     1      13.658  16.404  24.551  1.00  0.00    -0.077 C 
ATOM      2  C   UNL     1      14.468  17.487  24.515  1.00  0.00    -0.028 C 
ATOM      3  C   UNL     1      12.467  16.266  23.631  1.00  0.00     0.039 C 
ENDROOT
BRANCH   1   4
ATOM      4  C   UNL     1      13.966  15.288  25.525  1.00  0.00     0.034 C 
BRANCH   4   5
ATOM      5  C   UNL     1      15.442  15.314  25.937  1.00  0.00     0.032 C 
BRANCH   5   6
ATOM      6  C   UNL     1      16.249  14.362  25.091  1.00  0.00    -0.028 C 
ATOM      7  C   UNL     1      17.788  16.155  24.257  1.00  0.00     0.039 C 
ATOM      8  C   UNL     1      17.291  14.728  24.312  1.00  0.00    -0.080 C 
ATOM      9  C   UNL     1      17.981  13.670  23.490  1.00  0.00     0.039 C 
ENDBRANCH   5   6
ENDBRANCH   4   5
ENDBRANCH   1   4
BRANCH   2  10
ATOM     10  C   UNL     1      14.258  18.682  23.618  1.00  0.00     0.035 C 
BRANCH  10  11
ATOM     11  C   UNL     1      15.161  18.600  22.384  1.00  0.00     0.079 C 
BRANCH  11  12
ATOM     12  C   UNL     1      14.374  18.861  21.130  1.00  0.00     0.130 C 
ATOM     13  O   UNL     1      14.895  18.681  20.038  1.00  0.00    -0.300 OA
ATOM     14  C   UNL     1      12.949  19.317  21.206  1.00  0.00     0.087 C 
ENDBRANCH  11  12
ENDBRANCH  10  11
ENDBRANCH   2  10
TORSDOF 6
ENDMDL
MODEL 3
REMARK VINA RESULT:    -4.968      2.661      6.359
REMARK INTER + INTRA:          -7.534
REMARK INTER:                  -6.667
REMARK INTRA:                  -0.867
REMARK UNBOUND:                -0.823
REMARK SMILES CC(=O)CCC=C(C)CCC=C(C)C
REMARK SMILES IDX 7 1 6 2 8 3 9 4 10 5 11 6 13 7 12 8 14 9 5 10 4 11 2 12 3 13
REMARK SMILES IDX 1 14
REMARK H PARENT
REMARK Flexibility Score: inf
ROOT
ATOM      1  C   UNL     1      16.166  15.675  25.454  1.00  0.00    -0.077 C 
ATOM      2  C   UNL     1      16.646  15.527  24.198  1.00  0.00    -0.028 C 
ATOM      3  C   UNL     1      17.043  15.486  26.671  1.00  0.00     0.039 C 
ENDROOT
BRANCH   1   4
ATOM      4  C   UNL     1      14.717  16.065  25.647  1.00  0.00     0.034 C 
BRANCH   4   5
ATOM      5  C   UNL     1      14.048  16.362  24.301  1.00  0.00     0.032 C 
BRANCH   5   6
ATOM      6  C   UNL     1      13.522  17.775  24.266  1.00  0.00    -0.028 C 
ATOM      7  C   UNL     1      15.261  18.553  22.639  1.00  0.00     0.039 C 
ATOM      8  C   UNL     1      14.071  18.777  23.543  1.00  0.00    -0.080 C 
ATOM      9  C   UNL     1      13.458  20.151  23.638  1.00  0.00     0.039 C 
ENDBRANCH   5   6
ENDBRANCH   4   5
ENDBRANCH   1   4
BRANCH   2  10
ATOM     10  C   UNL     1      18.057  15.110  23.865  1.00  0.00     0.035 C 
BRANCH  10  11
ATOM     11  C   UNL     1      18.166  13.585  23.774  1.00  0.00     0.079 C 
BRANCH  11  12
ATOM     12  C   UNL     1      19.169  13.062  24.764  1.00  0.00     0.130 C 
ATOM     13  O   UNL     1      20.093  13.776  25.126  1.00  0.00    -0.300 OA
ATOM     14  C   UNL     1      19.033  11.681  25.329  1.00  0.00     0.087 C 
ENDBRANCH  11  12
ENDBRANCH  10  11
ENDBRANCH   2  10
TORSDOF 6
ENDMDL
MODEL 4
REMARK VINA RESULT:    -4.876      2.953      5.999
REMARK INTER + INTRA:          -7.409
REMARK INTER:                  -6.266
REMARK INTRA:                  -1.143
REMARK UNBOUND:                -0.823
REMARK SMILES CC(=O)CCC=C(C)CCC=C(C)C
REMARK SMILES IDX 7 1 6 2 8 3 9 4 10 5 11 6 13 7 12 8 14 9 5 10 4 11 2 12 3 13
REMARK SMILES IDX 1 14
REMARK H PARENT
REMARK Flexibility Score: inf
ROOT
ATOM      1  C   UNL     1      16.861  14.063  24.950  1.00  0.00    -0.077 C 
ATOM      2  C   UNL     1      17.546  13.535  25.990  1.00  0.00    -0.028 C 
ATOM      3  C   UNL     1      17.368  13.969  23.530  1.00  0.00     0.039 C 
ENDROOT
BRANCH   1   4
ATOM      4  C   UNL     1      15.537  14.747  25.213  1.00  0.00     0.034 C 
BRANCH   4   5
ATOM      5  C   UNL     1      15.730  16.257  25.392  1.00  0.00     0.032 C 
BRANCH   5   6
ATOM      6  C   UNL     1      15.144  17.012  24.225  1.00  0.00    -0.028 C 
ATOM      7  C   UNL     1      17.386  17.613  23.282  1.00  0.00     0.039 C 
ATOM      8  C   UNL     1      15.875  17.648  23.282  1.00  0.00    -0.080 C 
ATOM      9  C   UNL     1      15.150  18.396  22.194  1.00  0.00     0.039 C 
ENDBRANCH   5   6
ENDBRANCH   4   5
ENDBRANCH   1   4
BRANCH   2  10
ATOM     10  C   UNL     1      18.889  12.858  25.873  1.00  0.00     0.035 C 
BRANCH  10  11
ATOM     11  C   UNL     1      19.993  13.735  26.470  1.00  0.00     0.079 C 
BRANCH  11  12
ATOM     12  C   UNL     1      20.542  14.678  25.437  1.00  0.00     0.130 C 
ATOM     13  O   UNL     1      21.313  14.262  24.584  1.00  0.00    -0.300 OA
ATOM     14  C   UNL     1      20.133  16.120  25.429  1.00  0.00     0.087 C 
ENDBRANCH  11  12
ENDBRANCH  10  11
ENDBRANCH   2  10
TORSDOF 6
ENDMDL
MODEL 5
REMARK VINA RESULT:    -4.802      2.598      5.203
REMARK INTER + INTRA:          -7.309
REMARK INTER:                  -6.066
REMARK INTRA:                  -1.243
REMARK UNBOUND:                -0.823
REMARK SMILES CC(=O)CCC=C(C)CCC=C(C)C
REMARK SMILES IDX 7 1 6 2 8 3 9 4 10 5 11 6 13 7 12 8 14 9 5 10 4 11 2 12 3 13
REMARK SMILES IDX 1 14
REMARK H PARENT
REMARK Flexibility Score: inf
ROOT
ATOM      1  C   UNL     1      15.294  15.154  25.783  1.00  0.00    -0.077 C 
ATOM      2  C   UNL     1      15.975  14.412  24.881  1.00  0.00    -0.028 C 
ATOM      3  C   UNL     1      15.998  15.935  26.869  1.00  0.00     0.039 C 
ENDROOT
BRANCH   1   4
ATOM      4  C   UNL     1      13.785  15.224  25.690  1.00  0.00     0.034 C 
BRANCH   4   5
ATOM      5  C   UNL     1      13.334  16.592  25.169  1.00  0.00     0.032 C 
BRANCH   5   6
ATOM      6  C   UNL     1      13.128  16.553  23.676  1.00  0.00    -0.028 C 
ATOM      7  C   UNL     1      15.254  17.784  23.190  1.00  0.00     0.039 C 
ATOM      8  C   UNL     1      13.969  17.106  22.774  1.00  0.00    -0.080 C 
ATOM      9  C   UNL     1      13.612  17.023  21.312  1.00  0.00     0.039 C 
ENDBRANCH   5   6
ENDBRANCH   4   5
ENDBRANCH   1   4
BRANCH   2  10
ATOM     10  C   UNL     1      17.473  14.230  24.879  1.00  0.00     0.035 C 
BRANCH  10  11
ATOM     11  C   UNL     1      18.119  15.053  23.761  1.00  0.00     0.079 C 
BRANCH  11  12
ATOM     12  C   UNL     1      18.786  16.279  24.318  1.00  0.00     0.130 C 
ATOM     13  O   UNL     1      19.251  16.256  25.448  1.00  0.00    -0.300 OA
ATOM     14  C   UNL     1      18.908  17.522  23.490  1.00  0.00     0.087 C 
ENDBRANCH  11  12
ENDBRANCH  10  11
ENDBRANCH   2  10
TORSDOF 6
ENDMDL
MODEL 6
REMARK VINA RESULT:    -4.711      3.062      5.266
REMARK INTER + INTRA:          -7.187
REMARK INTER:                  -5.800
REMARK INTRA:                  -1.387
REMARK UNBOUND:                -0.823
REMARK SMILES CC(=O)CCC=C(C)CCC=C(C)C
REMARK SMILES IDX 7 1 6 2 8 3 9 4 10 5 11 6 13 7 12 8 14 9 5 10 4 11 2 12 3 13
REMARK SMILES IDX 1 14
REMARK H PARENT
REMARK Flexibility Score: inf
ROOT
ATOM      1  C   UNL     1      20.245  13.786  24.607  1.00  0.00    -0.077 C 
ATOM      2  C   UNL     1      20.604  14.684  25.553  1.00  0.00    -0.028 C 
ATOM      3  C   UNL     1      20.626  13.961  23.155  1.00  0.00     0.039 C 
ENDROOT
BRANCH   1   4
ATOM      4  C   UNL     1      19.458  12.560  25.017  1.00  0.00     0.034 C 
BRANCH   4   5
ATOM      5  C   UNL     1      18.300  12.941  25.945  1.00  0.00     0.032 C 
BRANCH   5   6
ATOM      6  C   UNL     1      17.230  13.686  25.186  1.00  0.00    -0.028 C 
ATOM      7  C   UNL     1      16.944  15.417  26.974  1.00  0.00     0.039 C 
ATOM      8  C   UNL     1      16.594  14.786  25.646  1.00  0.00    -0.080 C 
ATOM      9  C   UNL     1      15.516  15.403  24.791  1.00  0.00     0.039 C 
ENDBRANCH   5   6
ENDBRANCH   4   5
ENDBRANCH   1   4
BRANCH   2  10
ATOM     10  C   UNL     1      21.357  15.961  25.277  1.00  0.00     0.035 C 
BRANCH  10  11
ATOM     11  C   UNL     1      20.445  17.179  25.454  1.00  0.00     0.079 C 
BRANCH  11  12
ATOM     12  C   UNL     1      19.955  17.677  24.123  1.00  0.00     0.130 C 
ATOM     13  O   UNL     1      20.651  18.438  23.467  1.00  0.00    -0.300 OA
ATOM     14  C   UNL     1      18.632  17.227  23.583  1.00  0.00     0.087 C 
ENDBRANCH  11  12
ENDBRANCH  10  11
ENDBRANCH   2  10
TORSDOF 6
ENDMDL
MODEL 7
REMARK VINA RESULT:    -4.697      9.542     12.421
REMARK INTER + INTRA:          -7.168
REMARK INTER:                  -6.301
REMARK INTRA:                  -0.868
REMARK UNBOUND:                -0.823
REMARK SMILES CC(=O)CCC=C(C)CCC=C(C)C
REMARK SMILES IDX 7 1 6 2 8 3 9 4 10 5 11 6 13 7 12 8 14 9 5 10 4 11 2 12 3 13
REMARK SMILES IDX 1 14
REMARK H PARENT
REMARK Flexibility Score: inf
ROOT
ATOM      1  C   UNL     1      15.575  17.371  12.444  1.00  0.00    -0.077 C 
ATOM      2  C   UNL     1      15.285  16.388  13.326  1.00  0.00    -0.028 C 
ATOM      3  C   UNL     1      16.911  18.078  12.446  1.00  0.00     0.039 C 
ENDROOT
BRANCH   1   4
ATOM      4  C   UNL     1      14.541  17.761  11.410  1.00  0.00     0.034 C 
BRANCH   4   5
ATOM      5  C   UNL     1      13.412  16.726  11.351  1.00  0.00     0.032 C 
BRANCH   5   6
ATOM      6  C   UNL     1      12.093  17.352  11.728  1.00  0.00    -0.028 C 
ATOM      7  C   UNL     1      11.460  15.478  13.265  1.00  0.00     0.039 C 
ATOM      8  C   UNL     1      11.194  16.793  12.568  1.00  0.00    -0.080 C 
ATOM      9  C   UNL     1       9.898  17.519  12.821  1.00  0.00     0.039 C 
ENDBRANCH   5   6
ENDBRANCH   4   5
ENDBRANCH   1   4
BRANCH   2  10
ATOM     10  C   UNL     1      16.208  15.926  14.425  1.00  0.00     0.035 C 
BRANCH  10  11
ATOM     11  C   UNL     1      15.590  16.193  15.801  1.00  0.00     0.079 C 
BRANCH  11  12
ATOM     12  C   UNL     1      16.369  17.245  16.540  1.00  0.00     0.130 C 
ATOM     13  O   UNL     1      15.970  17.647  17.623  1.00  0.00    -0.300 OA
ATOM     14  C   UNL     1      17.646  17.785  15.972  1.00  0.00     0.087 C 
ENDBRANCH  11  12
ENDBRANCH  10  11
ENDBRANCH   2  10
TORSDOF 6
ENDMDL
MODEL 8
REMARK VINA RESULT:    -4.681      1.532      2.035
REMARK INTER + INTRA:          -7.146
REMARK INTER:                  -6.328
REMARK INTRA:                  -0.817
REMARK UNBOUND:                -0.823
REMARK SMILES CC(=O)CCC=C(C)CCC=C(C)C
REMARK SMILES IDX 7 1 6 2 8 3 9 4 10 5 11 6 13 7 12 8 14 9 5 10 4 11 2 12 3 13
REMARK SMILES IDX 1 14
REMARK H PARENT
REMARK Flexibility Score: inf
ROOT
ATOM      1  C   UNL     1      16.111  15.378  25.225  1.00  0.00    -0.077 C 
ATOM      2  C   UNL     1      15.624  15.978  24.115  1.00  0.00    -0.028 C 
ATOM      3  C   UNL     1      15.951  15.990  26.598  1.00  0.00     0.039 C 
ENDROOT
BRANCH   1   4
ATOM      4  C   UNL     1      16.816  14.046  25.093  1.00  0.00     0.034 C 
BRANCH   4   5
ATOM      5  C   UNL     1      17.412  13.882  23.690  1.00  0.00     0.032 C 
BRANCH   5   6
ATOM      6  C   UNL     1      18.907  13.701  23.762  1.00  0.00    -0.028 C 
ATOM      7  C   UNL     1      19.374  16.154  23.569  1.00  0.00     0.039 C 
ATOM      8  C   UNL     1      19.803  14.709  23.684  1.00  0.00    -0.080 C 
ATOM      9  C   UNL     1      21.271  14.372  23.732  1.00  0.00     0.039 C 
ENDBRANCH   5   6
ENDBRANCH   4   5
ENDBRANCH   1   4
BRANCH   2  10
ATOM     10  C   UNL     1      14.932  17.318  24.101  1.00  0.00     0.035 C 
BRANCH  10  11
ATOM     11  C   UNL     1      15.487  18.204  22.982  1.00  0.00     0.079 C 
BRANCH  11  12
ATOM     12  C   UNL     1      14.452  19.191  22.519  1.00  0.00     0.130 C 
ATOM     13  O   UNL     1      14.278  19.372  21.323  1.00  0.00    -0.300 OA
ATOM     14  C   UNL     1      13.614  19.936  23.513  1.00  0.00     0.087 C 
ENDBRANCH  11  12
ENDBRANCH  10  11
ENDBRANCH   2  10
TORSDOF 6
ENDMDL
MODEL 9
REMARK VINA RESULT:    -4.654      3.008      5.649
REMARK INTER + INTRA:          -7.110
REMARK INTER:                  -6.233
REMARK INTRA:                  -0.877
REMARK UNBOUND:                -0.823
REMARK SMILES CC(=O)CCC=C(C)CCC=C(C)C
REMARK SMILES IDX 7 1 6 2 8 3 9 4 10 5 11 6 13 7 12 8 14 9 5 10 4 11 2 12 3 13
REMARK SMILES IDX 1 14
REMARK H PARENT
REMARK Flexibility Score: inf
ROOT
ATOM      1  C   UNL     1      16.323  15.801  25.323  1.00  0.00    -0.077 C 
ATOM      2  C   UNL     1      16.851  15.972  24.090  1.00  0.00    -0.028 C 
ATOM      3  C   UNL     1      17.184  15.474  26.522  1.00  0.00     0.039 C 
ENDROOT
BRANCH   1   4
ATOM      4  C   UNL     1      14.831  15.962  25.514  1.00  0.00     0.034 C 
BRANCH   4   5
ATOM      5  C   UNL     1      14.155  16.375  24.202  1.00  0.00     0.032 C 
BRANCH   5   6
ATOM      6  C   UNL     1      13.651  17.794  24.284  1.00  0.00    -0.028 C 
ATOM      7  C   UNL     1      15.047  18.572  22.356  1.00  0.00     0.039 C 
ATOM      8  C   UNL     1      14.060  18.798  23.478  1.00  0.00    -0.080 C 
ATOM      9  C   UNL     1      13.496  20.177  23.704  1.00  0.00     0.039 C 
ENDBRANCH   5   6
ENDBRANCH   4   5
ENDBRANCH   1   4
BRANCH   2  10
ATOM     10  C   UNL     1      18.313  15.809  23.755  1.00  0.00     0.035 C 
BRANCH  10  11
ATOM     11  C   UNL     1      18.869  17.083  23.113  1.00  0.00     0.079 C 
BRANCH  11  12
ATOM     12  C   UNL     1      19.991  17.650  23.938  1.00  0.00     0.130 C 
ATOM     13  O   UNL     1      20.036  17.423  25.139  1.00  0.00    -0.300 OA
ATOM     14  C   UNL     1      21.069  18.470  23.296  1.00  0.00     0.087 C 
ENDBRANCH  11  12
ENDBRANCH  10  11
ENDBRANCH   2  10
TORSDOF 6
ENDMDL
