MODEL 1
REMARK VINA RESULT:    -4.437      0.000      0.000
REMARK INTER + INTRA:          -7.523
REMARK INTER:                  -6.772
REMARK INTRA:                  -0.752
REMARK UNBOUND:                -0.752
REMARK SMILES CCCCCCCCCCC(=O)[O-]
REMARK SMILES IDX 7 1 8 2 9 3 10 4 11 5 12 6 13 7 6 8 5 9 4 10 3 11 2 12 1 13
REMARK H PARENT
REMARK Flexibility Score: inf
ROOT
ATOM      1  C   UNL     1      13.423 -30.324  23.379  1.00  0.00     0.000 C 
ENDROOT
BRANCH   1   2
ATOM      2  C   UNL     1      13.597 -28.812  23.166  1.00  0.00     0.000 C 
BRANCH   2   3
ATOM      3  C   UNL     1      12.328 -28.012  23.517  1.00  0.00     0.006 C 
BRANCH   3   4
ATOM      4  C   UNL     1      12.461 -27.124  24.765  1.00  0.00     0.053 C 
BRANCH   4   5
ATOM      5  C   UNL     1      13.458 -26.023  24.569  1.00  0.00     0.041 C 
ATOM      6  O   UNL     1      14.334 -25.799  25.445  1.00  0.00    -0.550 OA
ATOM      7  O   UNL     1      13.441 -25.268  23.403  1.00  0.00    -0.550 OA
ENDBRANCH   4   5
ENDBRANCH   3   4
ENDBRANCH   2   3
ENDBRANCH   1   2
BRANCH   1   8
ATOM      8  C   UNL     1      12.657 -31.008  22.231  1.00  0.00     0.000 C 
BRANCH   8   9
ATOM      9  C   UNL     1      13.372 -30.992  20.866  1.00  0.00    -0.000 C 
BRANCH   9  10
ATOM     10  C   UNL     1      13.748 -32.394  20.368  1.00  0.00    -0.000 C 
BRANCH  10  11
ATOM     11  C   UNL     1      14.833 -33.019  21.251  1.00  0.00    -0.000 C 
BRANCH  11  12
ATOM     12  C   UNL     1      16.157 -32.258  21.118  1.00  0.00    -0.003 C 
ATOM     13  C   UNL     1      16.622 -31.721  22.469  1.00  0.00     0.004 C 
ENDBRANCH  11  12
ENDBRANCH  10  11
ENDBRANCH   9  10
ENDBRANCH   8   9
ENDBRANCH   1   8
TORSDOF 9
ENDMDL
MODEL 2
REMARK VINA RESULT:    -4.401      3.517      6.314
REMARK INTER + INTRA:          -7.468
REMARK INTER:                  -6.876
REMARK INTRA:                  -0.592
REMARK UNBOUND:                -0.752
REMARK SMILES CCCCCCCCCCC(=O)[O-]
REMARK SMILES IDX 7 1 8 2 9 3 10 4 11 5 12 6 13 7 6 8 5 9 4 10 3 11 2 12 1 13
REMARK H PARENT
REMARK Flexibility Score: inf
ROOT
ATOM      1  C   UNL     1      14.402 -30.059  21.412  1.00  0.00     0.000 C 
ENDROOT
BRANCH   1   2
ATOM      2  C   UNL     1      13.374 -31.133  21.021  1.00  0.00     0.000 C 
BRANCH   2   3
ATOM      3  C   UNL     1      14.030 -32.478  20.654  1.00  0.00     0.006 C 
BRANCH   3   4
ATOM      4  C   UNL     1      15.452 -32.663  21.207  1.00  0.00     0.053 C 
BRANCH   4   5
ATOM      5  C   UNL     1      15.474 -33.547  22.417  1.00  0.00     0.041 C 
ATOM      6  O   UNL     1      14.865 -33.203  23.464  1.00  0.00    -0.550 OA
ATOM      7  O   UNL     1      16.137 -34.767  22.376  1.00  0.00    -0.550 OA
ENDBRANCH   4   5
ENDBRANCH   3   4
ENDBRANCH   2   3
ENDBRANCH   1   2
BRANCH   1   8
ATOM      8  C   UNL     1      14.033 -29.321  22.713  1.00  0.00     0.000 C 
BRANCH   8   9
ATOM      9  C   UNL     1      12.588 -29.537  23.201  1.00  0.00    -0.000 C 
BRANCH   9  10
ATOM     10  C   UNL     1      11.830 -28.223  23.438  1.00  0.00    -0.000 C 
BRANCH  10  11
ATOM     11  C   UNL     1      12.402 -27.467  24.642  1.00  0.00    -0.000 C 
BRANCH  11  12
ATOM     12  C   UNL     1      13.096 -26.173  24.201  1.00  0.00    -0.003 C 
ATOM     13  C   UNL     1      14.153 -25.742  25.215  1.00  0.00     0.004 C 
ENDBRANCH  11  12
ENDBRANCH  10  11
ENDBRANCH   9  10
ENDBRANCH   8   9
ENDBRANCH   1   8
TORSDOF 9
ENDMDL
MODEL 3
REMARK VINA RESULT:    -4.350      3.289      4.621
REMARK INTER + INTRA:          -7.390
REMARK INTER:                  -6.877
REMARK INTRA:                  -0.513
REMARK UNBOUND:                -0.752
REMARK SMILES CCCCCCCCCCC(=O)[O-]
REMARK SMILES IDX 7 1 8 2 9 3 10 4 11 5 12 6 13 7 6 8 5 9 4 10 3 11 2 12 1 13
REMARK H PARENT
REMARK Flexibility Score: inf
ROOT
ATOM      1  C   UNL     1      14.578 -33.126  20.913  1.00  0.00     0.000 C 
ENDROOT
BRANCH   1   2
ATOM      2  C   UNL     1      13.538 -32.214  20.241  1.00  0.00     0.000 C 
BRANCH   2   3
ATOM      3  C   UNL     1      13.483 -30.810  20.872  1.00  0.00     0.006 C 
BRANCH   3   4
ATOM      4  C   UNL     1      12.425 -30.650  21.975  1.00  0.00     0.053 C 
BRANCH   4   5
ATOM      5  C   UNL     1      13.039 -30.310  23.299  1.00  0.00     0.041 C 
ATOM      6  O   UNL     1      13.874 -31.090  23.829  1.00  0.00    -0.550 OA
ATOM      7  O   UNL     1      12.715 -29.116  23.930  1.00  0.00    -0.550 OA
ENDBRANCH   4   5
ENDBRANCH   3   4
ENDBRANCH   2   3
ENDBRANCH   1   2
BRANCH   1   8
ATOM      8  C   UNL     1      14.995 -34.315  20.026  1.00  0.00     0.000 C 
BRANCH   8   9
ATOM      9  C   UNL     1      16.192 -34.048  19.094  1.00  0.00    -0.000 C 
BRANCH   9  10
ATOM     10  C   UNL     1      17.377 -34.989  19.353  1.00  0.00    -0.000 C 
BRANCH  10  11
ATOM     11  C   UNL     1      16.977 -36.452  19.133  1.00  0.00    -0.000 C 
BRANCH  11  12
ATOM     12  C   UNL     1      17.616 -37.362  20.188  1.00  0.00    -0.003 C 
ATOM     13  C   UNL     1      18.091 -36.558  21.395  1.00  0.00     0.004 C 
ENDBRANCH  11  12
ENDBRANCH  10  11
ENDBRANCH   9  10
ENDBRANCH   8   9
ENDBRANCH   1   8
TORSDOF 9
ENDMDL
MODEL 4
REMARK VINA RESULT:    -4.313      4.908      7.504
REMARK INTER + INTRA:          -7.335
REMARK INTER:                  -6.908
REMARK INTRA:                  -0.426
REMARK UNBOUND:                -0.752
REMARK SMILES CCCCCCCCCCC(=O)[O-]
REMARK SMILES IDX 7 1 8 2 9 3 10 4 11 5 12 6 13 7 6 8 5 9 4 10 3 11 2 12 1 13
REMARK H PARENT
REMARK Flexibility Score: inf
ROOT
ATOM      1  C   UNL     1      13.883 -32.478  20.559  1.00  0.00     0.000 C 
ENDROOT
BRANCH   1   2
ATOM      2  C   UNL     1      15.304 -32.696  21.103  1.00  0.00     0.000 C 
BRANCH   2   3
ATOM      3  C   UNL     1      15.708 -34.182  21.135  1.00  0.00     0.006 C 
BRANCH   3   4
ATOM      4  C   UNL     1      15.552 -34.912  19.791  1.00  0.00     0.053 C 
BRANCH   4   5
ATOM      5  C   UNL     1      16.852 -35.476  19.304  1.00  0.00     0.041 C 
ATOM      6  O   UNL     1      16.962 -36.710  19.079  1.00  0.00    -0.550 OA
ATOM      7  O   UNL     1      17.930 -34.633  19.064  1.00  0.00    -0.550 OA
ENDBRANCH   4   5
ENDBRANCH   3   4
ENDBRANCH   2   3
ENDBRANCH   1   2
BRANCH   1   8
ATOM      8  C   UNL     1      13.373 -31.040  20.771  1.00  0.00     0.000 C 
BRANCH   8   9
ATOM      9  C   UNL     1      12.437 -30.848  21.979  1.00  0.00    -0.000 C 
BRANCH   9  10
ATOM     10  C   UNL     1      13.173 -30.376  23.241  1.00  0.00    -0.000 C 
BRANCH  10  11
ATOM     11  C   UNL     1      13.483 -28.876  23.168  1.00  0.00    -0.000 C 
BRANCH  11  12
ATOM     12  C   UNL     1      12.538 -28.074  24.068  1.00  0.00    -0.003 C 
ATOM     13  C   UNL     1      11.280 -27.654  23.313  1.00  0.00     0.004 C 
ENDBRANCH  11  12
ENDBRANCH  10  11
ENDBRANCH   9  10
ENDBRANCH   8   9
ENDBRANCH   1   8
TORSDOF 9
ENDMDL
MODEL 5
REMARK VINA RESULT:    -4.302      4.576      6.565
REMARK INTER + INTRA:          -7.318
REMARK INTER:                  -6.193
REMARK INTRA:                  -1.125
REMARK UNBOUND:                -0.752
REMARK SMILES CCCCCCCCCCC(=O)[O-]
REMARK SMILES IDX 7 1 8 2 9 3 10 4 11 5 12 6 13 7 6 8 5 9 4 10 3 11 2 12 1 13
REMARK H PARENT
REMARK Flexibility Score: inf
ROOT
ATOM      1  C   UNL     1      15.338 -32.941  23.697  1.00  0.00     0.000 C 
ENDROOT
BRANCH   1   2
ATOM      2  C   UNL     1      15.590 -33.991  22.603  1.00  0.00     0.000 C 
BRANCH   2   3
ATOM      3  C   UNL     1      14.913 -33.631  21.266  1.00  0.00     0.006 C 
BRANCH   3   4
ATOM      4  C   UNL     1      15.050 -34.705  20.176  1.00  0.00     0.053 C 
BRANCH   4   5
ATOM      5  C   UNL     1      16.375 -34.636  19.480  1.00  0.00     0.041 C 
ATOM      6  O   UNL     1      16.854 -35.660  18.926  1.00  0.00    -0.550 OA
ATOM      7  O   UNL     1      17.064 -33.431  19.414  1.00  0.00    -0.550 OA
ENDBRANCH   4   5
ENDBRANCH   3   4
ENDBRANCH   2   3
ENDBRANCH   1   2
BRANCH   1   8
ATOM      8  C   UNL     1      13.903 -32.381  23.673  1.00  0.00     0.000 C 
BRANCH   8   9
ATOM      9  C   UNL     1      13.799 -30.852  23.522  1.00  0.00    -0.000 C 
BRANCH   9  10
ATOM     10  C   UNL     1      13.185 -30.419  22.183  1.00  0.00    -0.000 C 
BRANCH  10  11
ATOM     11  C   UNL     1      14.274 -30.174  21.133  1.00  0.00    -0.000 C 
BRANCH  11  12
ATOM     12  C   UNL     1      15.550 -29.623  21.780  1.00  0.00    -0.003 C 
ATOM     13  C   UNL     1      16.781 -30.396  21.316  1.00  0.00     0.004 C 
ENDBRANCH  11  12
ENDBRANCH  10  11
ENDBRANCH   9  10
ENDBRANCH   8   9
ENDBRANCH   1   8
TORSDOF 9
ENDMDL
MODEL 6
REMARK VINA RESULT:    -4.296      1.862      3.095
REMARK INTER + INTRA:          -7.309
REMARK INTER:                  -6.235
REMARK INTRA:                  -1.074
REMARK UNBOUND:                -0.752
REMARK SMILES CCCCCCCCCCC(=O)[O-]
REMARK SMILES IDX 7 1 8 2 9 3 10 4 11 5 12 6 13 7 6 8 5 9 4 10 3 11 2 12 1 13
REMARK H PARENT
REMARK Flexibility Score: inf
ROOT
ATOM      1  C   UNL     1      15.201 -29.475  21.556  1.00  0.00     0.000 C 
ENDROOT
BRANCH   1   2
ATOM      2  C   UNL     1      14.119 -30.447  21.057  1.00  0.00     0.000 C 
BRANCH   2   3
ATOM      3  C   UNL     1      12.928 -30.562  22.028  1.00  0.00     0.006 C 
BRANCH   3   4
ATOM      4  C   UNL     1      13.151 -29.884  23.389  1.00  0.00     0.053 C 
BRANCH   4   5
ATOM      5  C   UNL     1      12.210 -28.740  23.610  1.00  0.00     0.041 C 
ATOM      6  O   UNL     1      12.494 -27.837  24.440  1.00  0.00    -0.550 OA
ATOM      7  O   UNL     1      11.036 -28.652  22.872  1.00  0.00    -0.550 OA
ENDBRANCH   4   5
ENDBRANCH   3   4
ENDBRANCH   2   3
ENDBRANCH   1   2
BRANCH   1   8
ATOM      8  C   UNL     1      16.517 -30.184  21.930  1.00  0.00     0.000 C 
BRANCH   8   9
ATOM      9  C   UNL     1      17.064 -31.153  20.865  1.00  0.00    -0.000 C 
BRANCH   9  10
ATOM     10  C   UNL     1      17.073 -32.616  21.332  1.00  0.00    -0.000 C 
BRANCH  10  11
ATOM     11  C   UNL     1      16.195 -33.488  20.428  1.00  0.00    -0.000 C 
BRANCH  11  12
ATOM     12  C   UNL     1      14.989 -34.039  21.198  1.00  0.00    -0.003 C 
ATOM     13  C   UNL     1      15.074 -33.688  22.681  1.00  0.00     0.004 C 
ENDBRANCH  11  12
ENDBRANCH  10  11
ENDBRANCH   9  10
ENDBRANCH   8   9
ENDBRANCH   1   8
TORSDOF 9
ENDMDL
MODEL 7
REMARK VINA RESULT:    -4.231      4.779      6.849
REMARK INTER + INTRA:          -7.209
REMARK INTER:                  -5.901
REMARK INTRA:                  -1.308
REMARK UNBOUND:                -0.752
REMARK SMILES CCCCCCCCCCC(=O)[O-]
REMARK SMILES IDX 7 1 8 2 9 3 10 4 11 5 12 6 13 7 6 8 5 9 4 10 3 11 2 12 1 13
REMARK H PARENT
REMARK Flexibility Score: inf
ROOT
ATOM      1  C   UNL     1      16.813 -32.758  23.549  1.00  0.00     0.000 C 
ENDROOT
BRANCH   1   2
ATOM      2  C   UNL     1      16.757 -33.381  22.145  1.00  0.00     0.000 C 
BRANCH   2   3
ATOM      3  C   UNL     1      15.406 -34.060  21.848  1.00  0.00     0.006 C 
BRANCH   3   4
ATOM      4  C   UNL     1      14.995 -34.034  20.367  1.00  0.00     0.053 C 
BRANCH   4   5
ATOM      5  C   UNL     1      16.022 -34.678  19.487  1.00  0.00     0.041 C 
ATOM      6  O   UNL     1      16.168 -35.928  19.493  1.00  0.00    -0.550 OA
ATOM      7  O   UNL     1      16.793 -33.899  18.633  1.00  0.00    -0.550 OA
ENDBRANCH   4   5
ENDBRANCH   3   4
ENDBRANCH   2   3
ENDBRANCH   1   2
BRANCH   1   8
ATOM      8  C   UNL     1      17.154 -31.256  23.527  1.00  0.00     0.000 C 
BRANCH   8   9
ATOM      9  C   UNL     1      16.834 -30.532  22.206  1.00  0.00    -0.000 C 
BRANCH   9  10
ATOM     10  C   UNL     1      15.511 -29.754  22.252  1.00  0.00    -0.000 C 
BRANCH  10  11
ATOM     11  C   UNL     1      14.449 -30.423  21.372  1.00  0.00    -0.000 C 
BRANCH  11  12
ATOM     12  C   UNL     1      13.138 -30.618  22.143  1.00  0.00    -0.003 C 
ATOM     13  C   UNL     1      13.370 -31.394  23.437  1.00  0.00     0.004 C 
ENDBRANCH  11  12
ENDBRANCH  10  11
ENDBRANCH   9  10
ENDBRANCH   8   9
ENDBRANCH   1   8
TORSDOF 9
ENDMDL
MODEL 8
REMARK VINA RESULT:    -4.229      4.797      7.105
REMARK INTER + INTRA:          -7.206
REMARK INTER:                  -6.194
REMARK INTRA:                  -1.012
REMARK UNBOUND:                -0.752
REMARK SMILES CCCCCCCCCCC(=O)[O-]
REMARK SMILES IDX 7 1 8 2 9 3 10 4 11 5 12 6 13 7 6 8 5 9 4 10 3 11 2 12 1 13
REMARK H PARENT
REMARK Flexibility Score: inf
ROOT
ATOM      1  C   UNL     1      16.158 -32.240  22.204  1.00  0.00     0.000 C 
ENDROOT
BRANCH   1   2
ATOM      2  C   UNL     1      16.855 -31.880  20.882  1.00  0.00     0.000 C 
BRANCH   2   3
ATOM      3  C   UNL     1      17.758 -33.013  20.358  1.00  0.00     0.006 C 
BRANCH   3   4
ATOM      4  C   UNL     1      17.269 -33.662  19.053  1.00  0.00     0.053 C 
BRANCH   4   5
ATOM      5  C   UNL     1      16.838 -35.082  19.258  1.00  0.00     0.041 C 
ATOM      6  O   UNL     1      17.637 -36.027  19.023  1.00  0.00    -0.550 OA
ATOM      7  O   UNL     1      15.566 -35.360  19.742  1.00  0.00    -0.550 OA
ENDBRANCH   4   5
ENDBRANCH   3   4
ENDBRANCH   2   3
ENDBRANCH   1   2
BRANCH   1   8
ATOM      8  C   UNL     1      14.767 -32.869  21.997  1.00  0.00     0.000 C 
BRANCH   8   9
ATOM      9  C   UNL     1      13.986 -32.344  20.778  1.00  0.00    -0.000 C 
BRANCH   9  10
ATOM     10  C   UNL     1      13.261 -31.019  21.052  1.00  0.00    -0.000 C 
BRANCH  10  11
ATOM     11  C   UNL     1      12.729 -30.970  22.489  1.00  0.00    -0.000 C 
BRANCH  11  12
ATOM     12  C   UNL     1      12.937 -29.583  23.106  1.00  0.00    -0.003 C 
ATOM     13  C   UNL     1      14.293 -29.002  22.714  1.00  0.00     0.004 C 
ENDBRANCH  11  12
ENDBRANCH  10  11
ENDBRANCH   9  10
ENDBRANCH   8   9
ENDBRANCH   1   8
TORSDOF 9
ENDMDL
MODEL 9
REMARK VINA RESULT:    -4.191      3.508      5.519
REMARK INTER + INTRA:          -7.148
REMARK INTER:                  -5.768
REMARK INTRA:                  -1.380
REMARK UNBOUND:                -0.752
REMARK SMILES CCCCCCCCCCC(=O)[O-]
REMARK SMILES IDX 7 1 8 2 9 3 10 4 11 5 12 6 13 7 6 8 5 9 4 10 3 11 2 12 1 13
REMARK H PARENT
REMARK Flexibility Score: inf
ROOT
ATOM      1  C   UNL     1      14.988 -33.228  23.320  1.00  0.00     0.000 C 
ENDROOT
BRANCH   1   2
ATOM      2  C   UNL     1      16.403 -32.958  23.858  1.00  0.00     0.000 C 
BRANCH   2   3
ATOM      3  C   UNL     1      16.988 -31.627  23.349  1.00  0.00     0.006 C 
BRANCH   3   4
ATOM      4  C   UNL     1      18.231 -31.779  22.458  1.00  0.00     0.053 C 
BRANCH   4   5
ATOM      5  C   UNL     1      17.901 -31.647  21.003  1.00  0.00     0.041 C 
ATOM      6  O   UNL     1      17.573 -30.528  20.528  1.00  0.00    -0.550 OA
ATOM      7  O   UNL     1      17.991 -32.752  20.165  1.00  0.00    -0.550 OA
ENDBRANCH   4   5
ENDBRANCH   3   4
ENDBRANCH   2   3
ENDBRANCH   1   2
BRANCH   1   8
ATOM      8  C   UNL     1      14.988 -33.790  21.886  1.00  0.00     0.000 C 
BRANCH   8   9
ATOM      9  C   UNL     1      14.388 -32.858  20.817  1.00  0.00    -0.000 C 
BRANCH   9  10
ATOM     10  C   UNL     1      13.536 -31.728  21.414  1.00  0.00    -0.000 C 
BRANCH  10  11
ATOM     11  C   UNL     1      14.162 -30.358  21.129  1.00  0.00    -0.000 C 
BRANCH  11  12
ATOM     12  C   UNL     1      14.188 -29.491  22.393  1.00  0.00    -0.003 C 
ATOM     13  C   UNL     1      13.150 -29.964  23.407  1.00  0.00     0.004 C 
ENDBRANCH  11  12
ENDBRANCH  10  11
ENDBRANCH   9  10
ENDBRANCH   8   9
ENDBRANCH   1   8
TORSDOF 9
ENDMDL
