MODEL 1
REMARK VINA RESULT:    -4.144      0.000      0.000
REMARK INTER + INTRA:          -4.483
REMARK INTER:                  -4.386
REMARK INTRA:                  -0.097
REMARK UNBOUND:                -0.097
REMARK SMILES C=C(C)[C@@H]1CC=C(C)C(=O)C1
REMARK SMILES IDX 8 1 7 2 6 3 5 4 4 5 11 6 9 7 10 8 2 9 1 10 3 11
REMARK H PARENT
REMARK Flexibility Score: inf
ROOT
ATOM      1  C   UNL     1      79.767  14.738   6.991  1.00  0.00     0.048 C 
ATOM      2  C   UNL     1      79.439  14.938   5.538  1.00  0.00    -0.012 C 
ATOM      3  C   UNL     1      79.363  13.875   4.717  1.00  0.00    -0.019 C 
ATOM      4  C   UNL     1      79.019  14.017   3.258  1.00  0.00     0.036 C 
ATOM      5  C   UNL     1      79.549  15.347   2.689  1.00  0.00     0.025 C 
ATOM      6  C   UNL     1      79.032  16.531   3.528  1.00  0.00     0.089 C 
ATOM      7  C   UNL     1      79.322  16.311   4.988  1.00  0.00     0.158 C 
ATOM      8  O   UNL     1      79.428  17.311   5.749  1.00  0.00    -0.295 OA
ENDROOT
BRANCH   5   9
ATOM      9  C   UNL     1      79.200  15.508   1.216  1.00  0.00    -0.077 C 
ATOM     10  C   UNL     1      78.651  16.641   0.746  1.00  0.00     0.008 C 
ATOM     11  C   UNL     1      79.469  14.383   0.249  1.00  0.00     0.039 C 
ENDBRANCH   5   9
TORSDOF 1
ENDMDL
MODEL 2
REMARK VINA RESULT:    -3.918      1.636      2.139
REMARK INTER + INTRA:          -4.244
REMARK INTER:                  -4.153
REMARK INTRA:                  -0.091
REMARK UNBOUND:                -0.097
REMARK SMILES C=C(C)[C@@H]1CC=C(C)C(=O)C1
REMARK SMILES IDX 8 1 7 2 6 3 5 4 4 5 11 6 9 7 10 8 2 9 1 10 3 11
REMARK H PARENT
REMARK Flexibility Score: inf
ROOT
ATOM      1  C   UNL     1      79.729  17.382   5.722  1.00  0.00     0.048 C 
ATOM      2  C   UNL     1      79.358  16.723   4.423  1.00  0.00    -0.012 C 
ATOM      3  C   UNL     1      78.695  15.554   4.430  1.00  0.00    -0.019 C 
ATOM      4  C   UNL     1      78.283  14.862   3.158  1.00  0.00     0.036 C 
ATOM      5  C   UNL     1      79.301  15.120   2.031  1.00  0.00     0.025 C 
ATOM      6  C   UNL     1      79.504  16.634   1.831  1.00  0.00     0.089 C 
ATOM      7  C   UNL     1      79.832  17.300   3.140  1.00  0.00     0.158 C 
ATOM      8  O   UNL     1      80.485  18.378   3.132  1.00  0.00    -0.295 OA
ENDROOT
BRANCH   5   9
ATOM      9  C   UNL     1      78.892  14.433   0.735  1.00  0.00    -0.077 C 
ATOM     10  C   UNL     1      79.804  13.875  -0.079  1.00  0.00     0.008 C 
ATOM     11  C   UNL     1      77.439  14.367   0.341  1.00  0.00     0.039 C 
ENDBRANCH   5   9
TORSDOF 1
ENDMDL
MODEL 3
REMARK VINA RESULT:    -3.906      1.801      4.256
REMARK INTER + INTRA:          -4.231
REMARK INTER:                  -4.138
REMARK INTRA:                  -0.093
REMARK UNBOUND:                -0.097
REMARK SMILES C=C(C)[C@@H]1CC=C(C)C(=O)C1
REMARK SMILES IDX 8 1 7 2 6 3 5 4 4 5 11 6 9 7 10 8 2 9 1 10 3 11
REMARK H PARENT
REMARK Flexibility Score: inf
ROOT
ATOM      1  C   UNL     1      77.870  18.371   0.634  1.00  0.00     0.048 C 
ATOM      2  C   UNL     1      78.482  17.343   1.543  1.00  0.00    -0.012 C 
ATOM      3  C   UNL     1      77.842  16.183   1.768  1.00  0.00    -0.019 C 
ATOM      4  C   UNL     1      78.419  15.111   2.655  1.00  0.00     0.036 C 
ATOM      5  C   UNL     1      79.250  15.725   3.799  1.00  0.00     0.025 C 
ATOM      6  C   UNL     1      80.334  16.658   3.230  1.00  0.00     0.089 C 
ATOM      7  C   UNL     1      79.727  17.660   2.286  1.00  0.00     0.158 C 
ATOM      8  O   UNL     1      80.311  18.763   2.103  1.00  0.00    -0.295 OA
ENDROOT
BRANCH   5   9
ATOM      9  C   UNL     1      79.847  14.652   4.699  1.00  0.00    -0.077 C 
ATOM     10  C   UNL     1      80.866  13.879   4.284  1.00  0.00     0.008 C 
ATOM     11  C   UNL     1      79.298  14.437   6.086  1.00  0.00     0.039 C 
ENDBRANCH   5   9
TORSDOF 1
ENDMDL
MODEL 4
REMARK VINA RESULT:    -3.799      1.502      2.474
REMARK INTER + INTRA:          -4.118
REMARK INTER:                  -4.025
REMARK INTRA:                  -0.093
REMARK UNBOUND:                -0.097
REMARK SMILES C=C(C)[C@@H]1CC=C(C)C(=O)C1
REMARK SMILES IDX 8 1 7 2 6 3 5 4 4 5 11 6 9 7 10 8 2 9 1 10 3 11
REMARK H PARENT
REMARK Flexibility Score: inf
ROOT
ATOM      1  C   UNL     1      79.613  17.374   5.544  1.00  0.00     0.048 C 
ATOM      2  C   UNL     1      79.547  16.563   4.280  1.00  0.00    -0.012 C 
ATOM      3  C   UNL     1      79.687  17.170   3.089  1.00  0.00    -0.019 C 
ATOM      4  C   UNL     1      79.648  16.403   1.793  1.00  0.00     0.036 C 
ATOM      5  C   UNL     1      78.701  15.192   1.893  1.00  0.00     0.025 C 
ATOM      6  C   UNL     1      79.096  14.302   3.086  1.00  0.00     0.089 C 
ATOM      7  C   UNL     1      79.204  15.121   4.343  1.00  0.00     0.158 C 
ATOM      8  O   UNL     1      79.037  14.557   5.459  1.00  0.00    -0.295 OA
ENDROOT
BRANCH   5   9
ATOM      9  C   UNL     1      78.659  14.402   0.592  1.00  0.00    -0.077 C 
ATOM     10  C   UNL     1      79.774  13.876   0.057  1.00  0.00     0.008 C 
ATOM     11  C   UNL     1      77.349  14.196  -0.125  1.00  0.00     0.039 C 
ENDBRANCH   5   9
TORSDOF 1
ENDMDL
MODEL 5
REMARK VINA RESULT:    -3.189      1.333      1.920
REMARK INTER + INTRA:          -3.472
REMARK INTER:                  -3.383
REMARK INTRA:                  -0.089
REMARK UNBOUND:                -0.097
REMARK SMILES C=C(C)[C@@H]1CC=C(C)C(=O)C1
REMARK SMILES IDX 8 1 7 2 6 3 5 4 4 5 11 6 9 7 10 8 2 9 1 10 3 11
REMARK H PARENT
REMARK Flexibility Score: inf
ROOT
ATOM      1  C   UNL     1      80.126  16.186   8.287  1.00  0.00     0.048 C 
ATOM      2  C   UNL     1      79.716  15.715   6.919  1.00  0.00    -0.012 C 
ATOM      3  C   UNL     1      79.750  14.404   6.626  1.00  0.00    -0.019 C 
ATOM      4  C   UNL     1      79.333  13.877   5.278  1.00  0.00     0.036 C 
ATOM      5  C   UNL     1      79.657  14.888   4.162  1.00  0.00     0.025 C 
ATOM      6  C   UNL     1      79.020  16.253   4.476  1.00  0.00     0.089 C 
ATOM      7  C   UNL     1      79.394  16.705   5.862  1.00  0.00     0.158 C 
ATOM      8  O   UNL     1      79.396  17.938   6.125  1.00  0.00    -0.295 OA
ENDROOT
BRANCH   5   9
ATOM      9  C   UNL     1      79.232  14.371   2.794  1.00  0.00    -0.077 C 
ATOM     10  C   UNL     1      80.112  14.251   1.786  1.00  0.00     0.008 C 
ATOM     11  C   UNL     1      77.797  13.980   2.547  1.00  0.00     0.039 C 
ENDBRANCH   5   9
TORSDOF 1
ENDMDL
MODEL 6
REMARK VINA RESULT:    -3.178      1.764      2.787
REMARK INTER + INTRA:          -3.461
REMARK INTER:                  -3.367
REMARK INTRA:                  -0.094
REMARK UNBOUND:                -0.097
REMARK SMILES C=C(C)[C@@H]1CC=C(C)C(=O)C1
REMARK SMILES IDX 8 1 7 2 6 3 5 4 4 5 11 6 9 7 10 8 2 9 1 10 3 11
REMARK H PARENT
REMARK Flexibility Score: inf
ROOT
ATOM      1  C   UNL     1      80.072  16.432   8.590  1.00  0.00     0.048 C 
ATOM      2  C   UNL     1      79.851  16.253   7.114  1.00  0.00    -0.012 C 
ATOM      3  C   UNL     1      79.639  17.328   6.334  1.00  0.00    -0.019 C 
ATOM      4  C   UNL     1      79.432  17.207   4.847  1.00  0.00     0.036 C 
ATOM      5  C   UNL     1      78.716  15.890   4.492  1.00  0.00     0.025 C 
ATOM      6  C   UNL     1      79.486  14.690   5.072  1.00  0.00     0.089 C 
ATOM      7  C   UNL     1      79.745  14.888   6.542  1.00  0.00     0.158 C 
ATOM      8  O   UNL     1      79.908  13.877   7.277  1.00  0.00    -0.295 OA
ENDROOT
BRANCH   5   9
ATOM      9  C   UNL     1      78.508  15.750   2.990  1.00  0.00    -0.077 C 
ATOM     10  C   UNL     1      77.594  14.903   2.486  1.00  0.00     0.008 C 
ATOM     11  C   UNL     1      79.334  16.571   2.034  1.00  0.00     0.039 C 
ENDBRANCH   5   9
TORSDOF 1
ENDMDL
MODEL 7
REMARK VINA RESULT:    -3.158      1.981      2.843
REMARK INTER + INTRA:          -3.439
REMARK INTER:                  -3.345
REMARK INTRA:                  -0.094
REMARK UNBOUND:                -0.097
REMARK SMILES C=C(C)[C@@H]1CC=C(C)C(=O)C1
REMARK SMILES IDX 8 1 7 2 6 3 5 4 4 5 11 6 9 7 10 8 2 9 1 10 3 11
REMARK H PARENT
REMARK Flexibility Score: inf
ROOT
ATOM      1  C   UNL     1      79.072  14.704   6.334  1.00  0.00     0.048 C 
ATOM      2  C   UNL     1      79.341  15.559   5.128  1.00  0.00    -0.012 C 
ATOM      3  C   UNL     1      79.769  16.824   5.286  1.00  0.00    -0.019 C 
ATOM      4  C   UNL     1      80.071  17.717   4.112  1.00  0.00     0.036 C 
ATOM      5  C   UNL     1      79.148  17.399   2.920  1.00  0.00     0.025 C 
ATOM      6  C   UNL     1      79.242  15.906   2.556  1.00  0.00     0.089 C 
ATOM      7  C   UNL     1      79.016  15.049   3.773  1.00  0.00     0.158 C 
ATOM      8  O   UNL     1      78.579  13.876   3.624  1.00  0.00    -0.295 OA
ENDROOT
BRANCH   5   9
ATOM      9  C   UNL     1      79.449  18.289   1.722  1.00  0.00    -0.077 C 
ATOM     10  C   UNL     1      78.584  18.402   0.700  1.00  0.00     0.008 C 
ATOM     11  C   UNL     1      80.738  19.067   1.664  1.00  0.00     0.039 C 
ENDBRANCH   5   9
TORSDOF 1
ENDMDL
MODEL 8
REMARK VINA RESULT:    -3.018      2.440      4.120
REMARK INTER + INTRA:          -3.291
REMARK INTER:                  -3.196
REMARK INTRA:                  -0.095
REMARK UNBOUND:                -0.097
REMARK SMILES C=C(C)[C@@H]1CC=C(C)C(=O)C1
REMARK SMILES IDX 8 1 7 2 6 3 5 4 4 5 11 6 9 7 10 8 2 9 1 10 3 11
REMARK H PARENT
REMARK Flexibility Score: inf
ROOT
ATOM      1  C   UNL     1      80.878  19.472   1.705  1.00  0.00     0.048 C 
ATOM      2  C   UNL     1      80.067  18.295   2.170  1.00  0.00    -0.012 C 
ATOM      3  C   UNL     1      80.441  17.617   3.269  1.00  0.00    -0.019 C 
ATOM      4  C   UNL     1      79.654  16.443   3.789  1.00  0.00     0.036 C 
ATOM      5  C   UNL     1      78.993  15.663   2.635  1.00  0.00     0.025 C 
ATOM      6  C   UNL     1      78.132  16.608   1.777  1.00  0.00     0.089 C 
ATOM      7  C   UNL     1      78.931  17.809   1.348  1.00  0.00     0.158 C 
ATOM      8  O   UNL     1      78.601  18.421   0.297  1.00  0.00    -0.295 OA
ENDROOT
BRANCH   5   9
ATOM      9  C   UNL     1      78.186  14.478   3.148  1.00  0.00    -0.077 C 
ATOM     10  C   UNL     1      78.485  13.880   4.314  1.00  0.00     0.008 C 
ATOM     11  C   UNL     1      77.026  13.950   2.344  1.00  0.00     0.039 C 
ENDBRANCH   5   9
TORSDOF 1
ENDMDL
MODEL 9
REMARK VINA RESULT:    -2.670      1.894      3.768
REMARK INTER + INTRA:          -2.923
REMARK INTER:                  -2.826
REMARK INTRA:                  -0.097
REMARK UNBOUND:                -0.097
REMARK SMILES C=C(C)[C@@H]1CC=C(C)C(=O)C1
REMARK SMILES IDX 8 1 7 2 6 3 5 4 4 5 11 6 9 7 10 8 2 9 1 10 3 11
REMARK H PARENT
REMARK Flexibility Score: inf
ROOT
ATOM      1  C   UNL     1      80.628  19.597   1.756  1.00  0.00     0.048 C 
ATOM      2  C   UNL     1      80.089  18.224   2.046  1.00  0.00    -0.012 C 
ATOM      3  C   UNL     1      79.478  17.525   1.074  1.00  0.00    -0.019 C 
ATOM      4  C   UNL     1      78.937  16.140   1.305  1.00  0.00     0.036 C 
ATOM      5  C   UNL     1      78.436  15.974   2.753  1.00  0.00     0.025 C 
ATOM      6  C   UNL     1      79.552  16.339   3.750  1.00  0.00     0.089 C 
ATOM      7  C   UNL     1      80.121  17.695   3.432  1.00  0.00     0.158 C 
ATOM      8  O   UNL     1      80.662  18.363   4.355  1.00  0.00    -0.295 OA
ENDROOT
BRANCH   5   9
ATOM      9  C   UNL     1      77.894  14.574   3.004  1.00  0.00    -0.077 C 
ATOM     10  C   UNL     1      78.237  13.877   4.101  1.00  0.00     0.008 C 
ATOM     11  C   UNL     1      76.952  13.940   2.013  1.00  0.00     0.039 C 
ENDBRANCH   5   9
TORSDOF 1
ENDMDL
