MODEL 1
REMARK VINA RESULT:    -3.963      0.000      0.000
REMARK INTER + INTRA:          -4.740
REMARK INTER:                  -4.659
REMARK INTRA:                  -0.081
REMARK UNBOUND:                -0.081
REMARK SMILES O=C([O-])CCC(=O)[O-]
REMARK SMILES IDX 4 1 2 2 1 3 3 4 5 5 6 6 7 7 8 8
REMARK H PARENT
REMARK Flexibility Score: inf
ROOT
ATOM      1  C   UNL     1      -4.022  -4.317   5.113  1.00  0.00     0.059 C 
ENDROOT
BRANCH   1   2
ATOM      2  C   UNL     1      -4.591  -3.009   5.570  1.00  0.00     0.042 C 
ATOM      3  O   UNL     1      -5.304  -2.956   6.606  1.00  0.00    -0.550 OA
ATOM      4  O   UNL     1      -4.299  -1.842   4.876  1.00  0.00    -0.550 OA
ENDBRANCH   1   2
BRANCH   1   5
ATOM      5  C   UNL     1      -4.075  -5.374   6.222  1.00  0.00     0.059 C 
BRANCH   5   6
ATOM      6  C   UNL     1      -5.203  -6.337   6.014  1.00  0.00     0.042 C 
ATOM      7  O   UNL     1      -5.485  -7.184   6.903  1.00  0.00    -0.550 OA
ATOM      8  O   UNL     1      -5.970  -6.273   4.857  1.00  0.00    -0.550 OA
ENDBRANCH   5   6
ENDBRANCH   1   5
TORSDOF 3
ENDMDL
MODEL 2
REMARK VINA RESULT:    -3.911      0.122      3.685
REMARK INTER + INTRA:          -4.679
REMARK INTER:                  -4.591
REMARK INTRA:                  -0.088
REMARK UNBOUND:                -0.081
REMARK SMILES O=C([O-])CCC(=O)[O-]
REMARK SMILES IDX 4 1 2 2 1 3 3 4 5 5 6 6 7 7 8 8
REMARK H PARENT
REMARK Flexibility Score: inf
ROOT
ATOM      1  C   UNL     1      -4.173  -5.455   6.316  1.00  0.00     0.059 C 
ENDROOT
BRANCH   1   2
ATOM      2  C   UNL     1      -5.293  -6.407   6.032  1.00  0.00     0.042 C 
ATOM      3  O   UNL     1      -5.622  -7.271   6.886  1.00  0.00    -0.550 OA
ATOM      4  O   UNL     1      -6.002  -6.313   4.841  1.00  0.00    -0.550 OA
ENDBRANCH   1   2
BRANCH   1   5
ATOM      5  C   UNL     1      -4.032  -4.402   5.212  1.00  0.00     0.059 C 
BRANCH   5   6
ATOM      6  C   UNL     1      -4.616  -3.086   5.625  1.00  0.00     0.042 C 
ATOM      7  O   UNL     1      -5.293  -2.997   6.683  1.00  0.00    -0.550 OA
ATOM      8  O   UNL     1      -4.376  -1.948   4.864  1.00  0.00    -0.550 OA
ENDBRANCH   5   6
ENDBRANCH   1   5
TORSDOF 3
ENDMDL
MODEL 3
REMARK VINA RESULT:    -3.856     15.983     17.524
REMARK INTER + INTRA:          -4.613
REMARK INTER:                  -4.552
REMARK INTRA:                  -0.061
REMARK UNBOUND:                -0.081
REMARK SMILES O=C([O-])CCC(=O)[O-]
REMARK SMILES IDX 4 1 2 2 1 3 3 4 5 5 6 6 7 7 8 8
REMARK H PARENT
REMARK Flexibility Score: inf
ROOT
ATOM      1  C   UNL     1       1.245   5.195  -7.606  1.00  0.00     0.059 C 
ENDROOT
BRANCH   1   2
ATOM      2  C   UNL     1       0.378   4.222  -6.868  1.00  0.00     0.042 C 
ATOM      3  O   UNL     1       0.240   4.317  -5.621  1.00  0.00    -0.550 OA
ATOM      4  O   UNL     1      -0.311   3.237  -7.563  1.00  0.00    -0.550 OA
ENDBRANCH   1   2
BRANCH   1   5
ATOM      5  C   UNL     1       1.312   6.549  -6.890  1.00  0.00     0.059 C 
BRANCH   5   6
ATOM      6  C   UNL     1       2.568   6.688  -6.086  1.00  0.00     0.042 C 
ATOM      7  O   UNL     1       3.672   6.879  -6.663  1.00  0.00    -0.550 OA
ATOM      8  O   UNL     1       2.514   6.649  -4.698  1.00  0.00    -0.550 OA
ENDBRANCH   5   6
ENDBRANCH   1   5
TORSDOF 3
ENDMDL
MODEL 4
REMARK VINA RESULT:    -3.834     16.022     17.799
REMARK INTER + INTRA:          -4.588
REMARK INTER:                  -4.504
REMARK INTRA:                  -0.084
REMARK UNBOUND:                -0.081
REMARK SMILES O=C([O-])CCC(=O)[O-]
REMARK SMILES IDX 4 1 2 2 1 3 3 4 5 5 6 6 7 7 8 8
REMARK H PARENT
REMARK Flexibility Score: inf
ROOT
ATOM      1  C   UNL     1       1.147   5.291  -7.655  1.00  0.00     0.059 C 
ENDROOT
BRANCH   1   2
ATOM      2  C   UNL     1       0.394   4.308  -6.813  1.00  0.00     0.042 C 
ATOM      3  O   UNL     1       0.358   4.443  -5.561  1.00  0.00    -0.550 OA
ATOM      4  O   UNL     1      -0.303   3.267  -7.412  1.00  0.00    -0.550 OA
ENDBRANCH   1   2
BRANCH   1   5
ATOM      5  C   UNL     1       1.834   6.361  -6.799  1.00  0.00     0.059 C 
BRANCH   5   6
ATOM      6  C   UNL     1       1.041   7.631  -6.760  1.00  0.00     0.042 C 
ATOM      7  O   UNL     1      -0.006   7.746  -7.451  1.00  0.00    -0.550 OA
ATOM      8  O   UNL     1       1.435   8.672  -5.928  1.00  0.00    -0.550 OA
ENDBRANCH   5   6
ENDBRANCH   1   5
TORSDOF 3
ENDMDL
MODEL 5
REMARK VINA RESULT:    -3.830     16.024     17.300
REMARK INTER + INTRA:          -4.583
REMARK INTER:                  -4.515
REMARK INTRA:                  -0.068
REMARK UNBOUND:                -0.081
REMARK SMILES O=C([O-])CCC(=O)[O-]
REMARK SMILES IDX 4 1 2 2 1 3 3 4 5 5 6 6 7 7 8 8
REMARK H PARENT
REMARK Flexibility Score: inf
ROOT
ATOM      1  C   UNL     1       1.385   6.567  -7.038  1.00  0.00     0.059 C 
ENDROOT
BRANCH   1   2
ATOM      2  C   UNL     1       2.629   6.765  -6.227  1.00  0.00     0.042 C 
ATOM      3  O   UNL     1       2.561   6.843  -4.972  1.00  0.00    -0.550 OA
ATOM      4  O   UNL     1       3.867   6.822  -6.854  1.00  0.00    -0.550 OA
ENDBRANCH   1   2
BRANCH   1   5
ATOM      5  C   UNL     1       1.316   5.156  -7.631  1.00  0.00     0.059 C 
BRANCH   5   6
ATOM      6  C   UNL     1       0.406   4.267  -6.840  1.00  0.00     0.042 C 
ATOM      7  O   UNL     1       0.249   4.460  -5.605  1.00  0.00    -0.550 OA
ATOM      8  O   UNL     1      -0.301   3.252  -7.474  1.00  0.00    -0.550 OA
ENDBRANCH   5   6
ENDBRANCH   1   5
TORSDOF 3
ENDMDL
MODEL 6
REMARK VINA RESULT:    -3.823     17.014     18.689
REMARK INTER + INTRA:          -4.575
REMARK INTER:                  -4.451
REMARK INTRA:                  -0.125
REMARK UNBOUND:                -0.081
REMARK SMILES O=C([O-])CCC(=O)[O-]
REMARK SMILES IDX 4 1 2 2 1 3 3 4 5 5 6 6 7 7 8 8
REMARK H PARENT
REMARK Flexibility Score: inf
ROOT
ATOM      1  C   UNL     1       2.876   8.639  -4.892  1.00  0.00     0.059 C 
ENDROOT
BRANCH   1   2
ATOM      2  C   UNL     1       2.539   7.348  -4.211  1.00  0.00     0.042 C 
ATOM      3  O   UNL     1       2.354   7.318  -2.966  1.00  0.00    -0.550 OA
ATOM      4  O   UNL     1       2.390   6.186  -4.956  1.00  0.00    -0.550 OA
ENDBRANCH   1   2
BRANCH   1   5
ATOM      5  C   UNL     1       1.615   9.404  -5.308  1.00  0.00     0.059 C 
BRANCH   5   6
ATOM      6  C   UNL     1       1.210   9.079  -6.713  1.00  0.00     0.042 C 
ATOM      7  O   UNL     1       0.411   8.131  -6.939  1.00  0.00    -0.550 OA
ATOM      8  O   UNL     1       1.680   9.849  -7.770  1.00  0.00    -0.550 OA
ENDBRANCH   5   6
ENDBRANCH   1   5
TORSDOF 3
ENDMDL
MODEL 7
REMARK VINA RESULT:    -3.816     16.005     17.442
REMARK INTER + INTRA:          -4.566
REMARK INTER:                  -4.447
REMARK INTRA:                  -0.119
REMARK UNBOUND:                -0.081
REMARK SMILES O=C([O-])CCC(=O)[O-]
REMARK SMILES IDX 4 1 2 2 1 3 3 4 5 5 6 6 7 7 8 8
REMARK H PARENT
REMARK Flexibility Score: inf
ROOT
ATOM      1  C   UNL     1       0.280   6.667  -7.548  1.00  0.00     0.059 C 
ENDROOT
BRANCH   1   2
ATOM      2  C   UNL     1       1.131   7.604  -6.747  1.00  0.00     0.042 C 
ATOM      3  O   UNL     1       2.197   7.193  -6.216  1.00  0.00    -0.550 OA
ATOM      4  O   UNL     1       0.771   8.939  -6.621  1.00  0.00    -0.550 OA
ENDBRANCH   1   2
BRANCH   1   5
ATOM      5  C   UNL     1       0.952   5.301  -7.723  1.00  0.00     0.059 C 
BRANCH   5   6
ATOM      6  C   UNL     1       0.287   4.247  -6.894  1.00  0.00     0.042 C 
ATOM      7  O   UNL     1       0.270   4.345  -5.638  1.00  0.00    -0.550 OA
ATOM      8  O   UNL     1      -0.353   3.177  -7.508  1.00  0.00    -0.550 OA
ENDBRANCH   5   6
ENDBRANCH   1   5
TORSDOF 3
ENDMDL
MODEL 8
REMARK VINA RESULT:    -3.762      2.066      3.825
REMARK INTER + INTRA:          -4.503
REMARK INTER:                  -4.460
REMARK INTRA:                  -0.043
REMARK UNBOUND:                -0.081
REMARK SMILES O=C([O-])CCC(=O)[O-]
REMARK SMILES IDX 4 1 2 2 1 3 3 4 5 5 6 6 7 7 8 8
REMARK H PARENT
REMARK Flexibility Score: inf
ROOT
ATOM      1  C   UNL     1      -4.076  -5.147   6.704  1.00  0.00     0.059 C 
ENDROOT
BRANCH   1   2
ATOM      2  C   UNL     1      -4.057  -5.156   8.202  1.00  0.00     0.042 C 
ATOM      3  O   UNL     1      -2.997  -5.437   8.820  1.00  0.00    -0.550 OA
ATOM      4  O   UNL     1      -5.198  -4.813   8.915  1.00  0.00    -0.550 OA
ENDBRANCH   1   2
BRANCH   1   5
ATOM      5  C   UNL     1      -4.897  -3.975   6.156  1.00  0.00     0.059 C 
BRANCH   5   6
ATOM      6  C   UNL     1      -4.119  -3.172   5.161  1.00  0.00     0.042 C 
ATOM      7  O   UNL     1      -3.193  -3.710   4.497  1.00  0.00    -0.550 OA
ATOM      8  O   UNL     1      -4.443  -1.840   4.934  1.00  0.00    -0.550 OA
ENDBRANCH   5   6
ENDBRANCH   1   5
TORSDOF 3
ENDMDL
MODEL 9
REMARK VINA RESULT:    -3.522     14.133     14.943
REMARK INTER + INTRA:          -4.221
REMARK INTER:                  -4.189
REMARK INTRA:                  -0.033
REMARK UNBOUND:                -0.081
REMARK SMILES O=C([O-])CCC(=O)[O-]
REMARK SMILES IDX 4 1 2 2 1 3 3 4 5 5 6 6 7 7 8 8
REMARK H PARENT
REMARK Flexibility Score: inf
ROOT
ATOM      1  C   UNL     1       1.804  -8.416  -6.835  1.00  0.00     0.059 C 
ENDROOT
BRANCH   1   2
ATOM      2  C   UNL     1       2.242  -7.852  -5.518  1.00  0.00     0.042 C 
ATOM      3  O   UNL     1       3.279  -8.291  -4.955  1.00  0.00    -0.550 OA
ATOM      4  O   UNL     1       1.529  -6.814  -4.933  1.00  0.00    -0.550 OA
ENDBRANCH   1   2
BRANCH   1   5
ATOM      5  C   UNL     1       1.067  -7.371  -7.680  1.00  0.00     0.059 C 
BRANCH   5   6
ATOM      6  C   UNL     1       0.280  -8.007  -8.784  1.00  0.00     0.042 C 
ATOM      7  O   UNL     1       0.714  -7.984  -9.967  1.00  0.00    -0.550 OA
ATOM      8  O   UNL     1      -0.912  -8.664  -8.501  1.00  0.00    -0.550 OA
ENDBRANCH   5   6
ENDBRANCH   1   5
TORSDOF 3
ENDMDL
