MODEL 1
REMARK VINA RESULT:    -3.188      0.000      0.000
REMARK INTER + INTRA:          -4.058
REMARK INTER:                  -3.933
REMARK INTRA:                  -0.125
REMARK UNBOUND:                -0.125
REMARK SMILES CCCCCC(=O)[O-]
REMARK SMILES IDX 4 1 5 2 6 3 7 4 8 5 3 6 2 7 1 8
REMARK H PARENT
REMARK Flexibility Score: inf
ROOT
ATOM      1  C   UNL     1       4.832  -0.025 399.986  1.00  0.00     0.006 C 
ENDROOT
BRANCH   1   2
ATOM      2  C   UNL     1       3.494   0.684 400.251  1.00  0.00     0.053 C 
BRANCH   2   3
ATOM      3  C   UNL     1       3.639   1.810 401.227  1.00  0.00     0.041 C 
ATOM      4  O   UNL     1       3.555   3.004 400.834  1.00  0.00    -0.550 OA
ATOM      5  O   UNL     1       3.897   1.544 402.565  1.00  0.00    -0.550 OA
ENDBRANCH   2   3
ENDBRANCH   1   2
BRANCH   1   6
ATOM      6  C   UNL     1       4.884  -1.483 400.482  1.00  0.00     0.000 C 
BRANCH   6   7
ATOM      7  C   UNL     1       3.675  -2.311 400.022  1.00  0.00    -0.003 C 
ATOM      8  C   UNL     1       3.272  -3.330 401.083  1.00  0.00     0.004 C 
ENDBRANCH   6   7
ENDBRANCH   1   6
TORSDOF 4
ENDMDL
MODEL 2
REMARK VINA RESULT:    -3.186      8.267      9.299
REMARK INTER + INTRA:          -4.056
REMARK INTER:                  -3.919
REMARK INTRA:                  -0.137
REMARK UNBOUND:                -0.125
REMARK SMILES CCCCCC(=O)[O-]
REMARK SMILES IDX 4 1 5 2 6 3 7 4 8 5 3 6 2 7 1 8
REMARK H PARENT
REMARK Flexibility Score: inf
ROOT
ATOM      1  C   UNL     1       5.139   7.230 403.375  1.00  0.00     0.006 C 
ENDROOT
BRANCH   1   2
ATOM      2  C   UNL     1       3.910   7.869 402.708  1.00  0.00     0.053 C 
BRANCH   2   3
ATOM      3  C   UNL     1       2.866   8.260 403.709  1.00  0.00     0.041 C 
ATOM      4  O   UNL     1       1.663   7.933 403.530  1.00  0.00    -0.550 OA
ATOM      5  O   UNL     1       3.217   9.014 404.821  1.00  0.00    -0.550 OA
ENDBRANCH   2   3
ENDBRANCH   1   2
BRANCH   1   6
ATOM      6  C   UNL     1       6.471   7.929 403.045  1.00  0.00     0.000 C 
BRANCH   6   7
ATOM      7  C   UNL     1       6.407   8.749 401.749  1.00  0.00    -0.003 C 
ATOM      8  C   UNL     1       7.272  10.003 401.849  1.00  0.00     0.004 C 
ENDBRANCH   6   7
ENDBRANCH   1   6
TORSDOF 4
ENDMDL
MODEL 3
REMARK VINA RESULT:    -3.171      0.211      1.152
REMARK INTER + INTRA:          -4.038
REMARK INTER:                  -3.893
REMARK INTRA:                  -0.144
REMARK UNBOUND:                -0.125
REMARK SMILES CCCCCC(=O)[O-]
REMARK SMILES IDX 4 1 5 2 6 3 7 4 8 5 3 6 2 7 1 8
REMARK H PARENT
REMARK Flexibility Score: inf
ROOT
ATOM      1  C   UNL     1       5.003  -0.057 400.060  1.00  0.00     0.006 C 
ENDROOT
BRANCH   1   2
ATOM      2  C   UNL     1       3.630   0.619 400.216  1.00  0.00     0.053 C 
BRANCH   2   3
ATOM      3  C   UNL     1       3.623   1.629 401.322  1.00  0.00     0.041 C 
ATOM      4  O   UNL     1       3.610   1.252 402.524  1.00  0.00    -0.550 OA
ATOM      5  O   UNL     1       3.599   2.985 401.026  1.00  0.00    -0.550 OA
ENDBRANCH   2   3
ENDBRANCH   1   2
BRANCH   1   6
ATOM      6  C   UNL     1       5.006  -1.563 400.381  1.00  0.00     0.000 C 
BRANCH   6   7
ATOM      7  C   UNL     1       3.699  -2.260 399.977  1.00  0.00    -0.003 C 
ATOM      8  C   UNL     1       3.246  -3.244 401.052  1.00  0.00     0.004 C 
ENDBRANCH   6   7
ENDBRANCH   1   6
TORSDOF 4
ENDMDL
MODEL 4
REMARK VINA RESULT:    -3.140      2.358      4.227
REMARK INTER + INTRA:          -3.999
REMARK INTER:                  -3.895
REMARK INTRA:                  -0.104
REMARK UNBOUND:                -0.125
REMARK SMILES CCCCCC(=O)[O-]
REMARK SMILES IDX 4 1 5 2 6 3 7 4 8 5 3 6 2 7 1 8
REMARK H PARENT
REMARK Flexibility Score: inf
ROOT
ATOM      1  C   UNL     1       4.360   0.160 400.540  1.00  0.00     0.006 C 
ENDROOT
BRANCH   1   2
ATOM      2  C   UNL     1       3.979  -1.237 400.024  1.00  0.00     0.053 C 
BRANCH   2   3
ATOM      3  C   UNL     1       3.747  -2.206 401.142  1.00  0.00     0.041 C 
ATOM      4  O   UNL     1       3.216  -3.325 400.911  1.00  0.00    -0.550 OA
ATOM      5  O   UNL     1       4.086  -1.860 402.444  1.00  0.00    -0.550 OA
ENDBRANCH   2   3
ENDBRANCH   1   2
BRANCH   1   6
ATOM      6  C   UNL     1       3.295   1.242 400.279  1.00  0.00     0.000 C 
BRANCH   6   7
ATOM      7  C   UNL     1       3.660   2.598 400.903  1.00  0.00    -0.003 C 
ATOM      8  C   UNL     1       4.442   2.412 402.200  1.00  0.00     0.004 C 
ENDBRANCH   6   7
ENDBRANCH   1   6
TORSDOF 4
ENDMDL
MODEL 5
REMARK VINA RESULT:    -3.073     12.682     13.692
REMARK INTER + INTRA:          -3.917
REMARK INTER:                  -3.762
REMARK INTRA:                  -0.155
REMARK UNBOUND:                -0.125
REMARK SMILES CCCCCC(=O)[O-]
REMARK SMILES IDX 4 1 5 2 6 3 7 4 8 5 3 6 2 7 1 8
REMARK H PARENT
REMARK Flexibility Score: inf
ROOT
ATOM      1  C   UNL     1      14.313   3.321 395.592  1.00  0.00     0.006 C 
ENDROOT
BRANCH   1   2
ATOM      2  C   UNL     1      15.232   4.493 395.972  1.00  0.00     0.053 C 
BRANCH   2   3
ATOM      3  C   UNL     1      16.187   4.126 397.067  1.00  0.00     0.041 C 
ATOM      4  O   UNL     1      16.072   4.647 398.208  1.00  0.00    -0.550 OA
ATOM      5  O   UNL     1      17.221   3.234 396.818  1.00  0.00    -0.550 OA
ENDBRANCH   2   3
ENDBRANCH   1   2
BRANCH   1   6
ATOM      6  C   UNL     1      14.412   2.893 394.115  1.00  0.00     0.000 C 
BRANCH   6   7
ATOM      7  C   UNL     1      15.541   3.613 393.363  1.00  0.00    -0.003 C 
ATOM      8  C   UNL     1      15.561   3.213 391.890  1.00  0.00     0.004 C 
ENDBRANCH   6   7
ENDBRANCH   1   6
TORSDOF 4
ENDMDL
MODEL 6
REMARK VINA RESULT:    -3.001      8.416      9.434
REMARK INTER + INTRA:          -3.827
REMARK INTER:                  -3.606
REMARK INTRA:                  -0.222
REMARK UNBOUND:                -0.125
REMARK SMILES CCCCCC(=O)[O-]
REMARK SMILES IDX 4 1 5 2 6 3 7 4 8 5 3 6 2 7 1 8
REMARK H PARENT
REMARK Flexibility Score: inf
ROOT
ATOM      1  C   UNL     1       5.167   7.293 403.227  1.00  0.00     0.006 C 
ENDROOT
BRANCH   1   2
ATOM      2  C   UNL     1       5.862   8.462 402.509  1.00  0.00     0.053 C 
BRANCH   2   3
ATOM      3  C   UNL     1       6.601   9.348 403.464  1.00  0.00     0.041 C 
ATOM      4  O   UNL     1       6.225   9.441 404.663  1.00  0.00    -0.550 OA
ATOM      5  O   UNL     1       7.684  10.097 403.023  1.00  0.00    -0.550 OA
ENDBRANCH   2   3
ENDBRANCH   1   2
BRANCH   1   6
ATOM      6  C   UNL     1       3.678   7.126 402.867  1.00  0.00     0.000 C 
BRANCH   6   7
ATOM      7  C   UNL     1       2.806   8.275 403.396  1.00  0.00    -0.003 C 
ATOM      8  C   UNL     1       2.766   8.275 404.922  1.00  0.00     0.004 C 
ENDBRANCH   6   7
ENDBRANCH   1   6
TORSDOF 4
ENDMDL
MODEL 7
REMARK VINA RESULT:    -2.941      2.623      4.066
REMARK INTER + INTRA:          -3.753
REMARK INTER:                  -3.592
REMARK INTRA:                  -0.161
REMARK UNBOUND:                -0.125
REMARK SMILES CCCCCC(=O)[O-]
REMARK SMILES IDX 4 1 5 2 6 3 7 4 8 5 3 6 2 7 1 8
REMARK H PARENT
REMARK Flexibility Score: inf
ROOT
ATOM      1  C   UNL     1       4.110   0.381 400.609  1.00  0.00     0.006 C 
ENDROOT
BRANCH   1   2
ATOM      2  C   UNL     1       3.975  -1.002 399.952  1.00  0.00     0.053 C 
BRANCH   2   3
ATOM      3  C   UNL     1       3.799  -2.091 400.966  1.00  0.00     0.041 C 
ATOM      4  O   UNL     1       3.144  -3.127 400.675  1.00  0.00    -0.550 OA
ATOM      5  O   UNL     1       4.330  -1.948 402.241  1.00  0.00    -0.550 OA
ENDBRANCH   2   3
ENDBRANCH   1   2
BRANCH   1   6
ATOM      6  C   UNL     1       5.399   1.136 400.234  1.00  0.00     0.000 C 
BRANCH   6   7
ATOM      7  C   UNL     1       6.483   0.212 399.659  1.00  0.00    -0.003 C 
ATOM      8  C   UNL     1       7.344   0.948 398.636  1.00  0.00     0.004 C 
ENDBRANCH   6   7
ENDBRANCH   1   6
TORSDOF 4
ENDMDL
MODEL 8
REMARK VINA RESULT:    -2.936      3.039      4.734
REMARK INTER + INTRA:          -3.748
REMARK INTER:                  -3.699
REMARK INTRA:                  -0.049
REMARK UNBOUND:                -0.125
REMARK SMILES CCCCCC(=O)[O-]
REMARK SMILES IDX 4 1 5 2 6 3 7 4 8 5 3 6 2 7 1 8
REMARK H PARENT
REMARK Flexibility Score: inf
ROOT
ATOM      1  C   UNL     1       3.988  -1.312 401.132  1.00  0.00     0.006 C 
ENDROOT
BRANCH   1   2
ATOM      2  C   UNL     1       3.598  -2.722 400.659  1.00  0.00     0.053 C 
BRANCH   2   3
ATOM      3  C   UNL     1       3.576  -3.707 401.786  1.00  0.00     0.041 C 
ATOM      4  O   UNL     1       3.868  -4.915 401.577  1.00  0.00    -0.550 OA
ATOM      5  O   UNL     1       3.201  -3.300 403.059  1.00  0.00    -0.550 OA
ENDBRANCH   2   3
ENDBRANCH   1   2
BRANCH   1   6
ATOM      6  C   UNL     1       4.005  -0.252 400.015  1.00  0.00     0.000 C 
BRANCH   6   7
ATOM      7  C   UNL     1       4.664   1.064 400.454  1.00  0.00    -0.003 C 
ATOM      8  C   UNL     1       3.622   2.162 400.649  1.00  0.00     0.004 C 
ENDBRANCH   6   7
ENDBRANCH   1   6
TORSDOF 4
ENDMDL
MODEL 9
REMARK VINA RESULT:    -2.931      1.547      2.276
REMARK INTER + INTRA:          -3.741
REMARK INTER:                  -3.615
REMARK INTRA:                  -0.127
REMARK UNBOUND:                -0.125
REMARK SMILES CCCCCC(=O)[O-]
REMARK SMILES IDX 4 1 5 2 6 3 7 4 8 5 3 6 2 7 1 8
REMARK H PARENT
REMARK Flexibility Score: inf
ROOT
ATOM      1  C   UNL     1       4.597   1.528 400.561  1.00  0.00     0.006 C 
ENDROOT
BRANCH   1   2
ATOM      2  C   UNL     1       4.039   2.490 401.622  1.00  0.00     0.053 C 
BRANCH   2   3
ATOM      3  C   UNL     1       4.769   2.374 402.925  1.00  0.00     0.041 C 
ATOM      4  O   UNL     1       4.313   1.643 403.844  1.00  0.00    -0.550 OA
ATOM      5  O   UNL     1       5.935   3.098 403.136  1.00  0.00    -0.550 OA
ENDBRANCH   2   3
ENDBRANCH   1   2
BRANCH   1   6
ATOM      6  C   UNL     1       3.674   0.337 400.238  1.00  0.00     0.000 C 
BRANCH   6   7
ATOM      7  C   UNL     1       4.019  -0.920 401.050  1.00  0.00    -0.003 C 
ATOM      8  C   UNL     1       3.844  -2.181 400.209  1.00  0.00     0.004 C 
ENDBRANCH   6   7
ENDBRANCH   1   6
TORSDOF 4
ENDMDL
