MODEL 1
REMARK VINA RESULT:    -4.618      0.000      0.000
REMARK INTER + INTRA:          -6.470
REMARK INTER:                  -6.237
REMARK INTRA:                  -0.232
REMARK UNBOUND:                -0.232
REMARK SMILES CCCCCCC=CC(=O)[O-]
REMARK SMILES IDX 5 1 6 2 7 3 8 4 9 5 10 6 11 7 4 8 3 9 2 10 1 11
REMARK H PARENT
REMARK Flexibility Score: inf
ROOT
ATOM      1  C   UNL     1      -2.128  -8.033  -3.386  1.00  0.00     0.004 C 
ENDROOT
BRANCH   1   2
ATOM      2  C   UNL     1      -1.013  -7.229  -2.692  1.00  0.00     0.027 C 
BRANCH   2   3
ATOM      3  C   UNL     1       0.361  -7.723  -3.045  1.00  0.00    -0.025 C 
ATOM      4  C   UNL     1       1.461  -7.056  -2.678  1.00  0.00     0.020 C 
BRANCH   4   5
ATOM      5  C   UNL     1       2.815  -7.526  -3.009  1.00  0.00     0.064 C 
ATOM      6  O   UNL     1       2.999  -8.631  -3.585  1.00  0.00    -0.545 OA
ATOM      7  O   UNL     1       3.910  -6.736  -2.683  1.00  0.00    -0.545 OA
ENDBRANCH   4   5
ENDBRANCH   2   3
ENDBRANCH   1   2
BRANCH   1   8
ATOM      8  C   UNL     1      -3.513  -7.355  -3.365  1.00  0.00     0.000 C 
BRANCH   8   9
ATOM      9  C   UNL     1      -3.611  -6.053  -4.182  1.00  0.00    -0.000 C 
BRANCH   9  10
ATOM     10  C   UNL     1      -4.690  -6.113  -5.273  1.00  0.00    -0.003 C 
ATOM     11  C   UNL     1      -4.109  -6.616  -6.591  1.00  0.00     0.004 C 
ENDBRANCH   9  10
ENDBRANCH   8   9
ENDBRANCH   1   8
TORSDOF 6
ENDMDL
MODEL 2
REMARK VINA RESULT:    -4.335      1.295      1.978
REMARK INTER + INTRA:          -6.088
REMARK INTER:                  -5.705
REMARK INTRA:                  -0.383
REMARK UNBOUND:                -0.232
REMARK SMILES CCCCCCC=CC(=O)[O-]
REMARK SMILES IDX 5 1 6 2 7 3 8 4 9 5 10 6 11 7 4 8 3 9 2 10 1 11
REMARK H PARENT
REMARK Flexibility Score: inf
ROOT
ATOM      1  C   UNL     1      -2.843  -6.194  -3.781  1.00  0.00     0.004 C 
ENDROOT
BRANCH   1   2
ATOM      2  C   UNL     1      -2.711  -7.674  -3.376  1.00  0.00     0.027 C 
BRANCH   2   3
ATOM      3  C   UNL     1      -1.283  -8.085  -3.149  1.00  0.00    -0.025 C 
ATOM      4  C   UNL     1      -0.349  -7.199  -2.782  1.00  0.00     0.020 C 
BRANCH   4   5
ATOM      5  C   UNL     1       1.052  -7.582  -2.549  1.00  0.00     0.064 C 
ATOM      6  O   UNL     1       1.374  -8.783  -2.348  1.00  0.00    -0.545 OA
ATOM      7  O   UNL     1       2.036  -6.603  -2.552  1.00  0.00    -0.545 OA
ENDBRANCH   4   5
ENDBRANCH   2   3
ENDBRANCH   1   2
BRANCH   1   8
ATOM      8  C   UNL     1      -4.144  -5.851  -4.534  1.00  0.00     0.000 C 
BRANCH   8   9
ATOM      9  C   UNL     1      -4.209  -6.361  -5.985  1.00  0.00    -0.000 C 
BRANCH   9  10
ATOM     10  C   UNL     1      -5.470  -7.189  -6.271  1.00  0.00    -0.003 C 
ATOM     11  C   UNL     1      -6.092  -7.707  -4.978  1.00  0.00     0.004 C 
ENDBRANCH   9  10
ENDBRANCH   8   9
ENDBRANCH   1   8
TORSDOF 6
ENDMDL
MODEL 3
REMARK VINA RESULT:    -4.329      4.121      6.409
REMARK INTER + INTRA:          -6.079
REMARK INTER:                  -5.809
REMARK INTRA:                  -0.270
REMARK UNBOUND:                -0.232
REMARK SMILES CCCCCCC=CC(=O)[O-]
REMARK SMILES IDX 5 1 6 2 7 3 8 4 9 5 10 6 11 7 4 8 3 9 2 10 1 11
REMARK H PARENT
REMARK Flexibility Score: inf
ROOT
ATOM      1  C   UNL     1      -3.705  -6.340  -4.385  1.00  0.00     0.004 C 
ENDROOT
BRANCH   1   2
ATOM      2  C   UNL     1      -5.090  -6.364  -5.059  1.00  0.00     0.027 C 
BRANCH   2   3
ATOM      3  C   UNL     1      -5.007  -6.223  -6.553  1.00  0.00    -0.025 C 
ATOM      4  C   UNL     1      -3.952  -6.675  -7.241  1.00  0.00     0.020 C 
BRANCH   4   5
ATOM      5  C   UNL     1      -3.855  -6.553  -8.704  1.00  0.00     0.064 C 
ATOM      6  O   UNL     1      -3.504  -7.530  -9.418  1.00  0.00    -0.545 OA
ATOM      7  O   UNL     1      -4.157  -5.340  -9.309  1.00  0.00    -0.545 OA
ENDBRANCH   4   5
ENDBRANCH   2   3
ENDBRANCH   1   2
BRANCH   1   8
ATOM      8  C   UNL     1      -3.483  -7.454  -3.342  1.00  0.00     0.000 C 
BRANCH   8   9
ATOM      9  C   UNL     1      -2.066  -8.055  -3.326  1.00  0.00    -0.000 C 
BRANCH   9  10
ATOM     10  C   UNL     1      -1.017  -7.098  -2.742  1.00  0.00    -0.003 C 
ATOM     11  C   UNL     1       0.395  -7.634  -2.958  1.00  0.00     0.004 C 
ENDBRANCH   9  10
ENDBRANCH   8   9
ENDBRANCH   1   8
TORSDOF 6
ENDMDL
MODEL 4
REMARK VINA RESULT:    -4.225      2.535      4.297
REMARK INTER + INTRA:          -5.940
REMARK INTER:                  -5.732
REMARK INTRA:                  -0.208
REMARK UNBOUND:                -0.232
REMARK SMILES CCCCCCC=CC(=O)[O-]
REMARK SMILES IDX 5 1 6 2 7 3 8 4 9 5 10 6 11 7 4 8 3 9 2 10 1 11
REMARK H PARENT
REMARK Flexibility Score: inf
ROOT
ATOM      1  C   UNL     1       2.402  -7.989  -3.440  1.00  0.00     0.004 C 
ENDROOT
BRANCH   1   2
ATOM      2  C   UNL     1       3.714  -7.186  -3.400  1.00  0.00     0.027 C 
BRANCH   2   3
ATOM      3  C   UNL     1       4.286  -7.083  -2.014  1.00  0.00    -0.025 C 
ATOM      4  C   UNL     1       4.649  -8.170  -1.324  1.00  0.00     0.020 C 
BRANCH   4   5
ATOM      5  C   UNL     1       5.216  -8.090   0.031  1.00  0.00     0.064 C 
ATOM      6  O   UNL     1       6.462  -8.099   0.218  1.00  0.00    -0.545 OA
ATOM      7  O   UNL     1       4.363  -8.001   1.124  1.00  0.00    -0.545 OA
ENDBRANCH   4   5
ENDBRANCH   2   3
ENDBRANCH   1   2
BRANCH   1   8
ATOM      8  C   UNL     1       1.236  -7.350  -2.658  1.00  0.00     0.000 C 
BRANCH   8   9
ATOM      9  C   UNL     1      -0.149  -7.957  -2.946  1.00  0.00    -0.000 C 
BRANCH   9  10
ATOM     10  C   UNL     1      -1.266  -6.904  -2.986  1.00  0.00    -0.003 C 
ATOM     11  C   UNL     1      -2.600  -7.533  -3.375  1.00  0.00     0.004 C 
ENDBRANCH   9  10
ENDBRANCH   8   9
ENDBRANCH   1   8
TORSDOF 6
ENDMDL
MODEL 5
REMARK VINA RESULT:    -4.128     14.712     16.161
REMARK INTER + INTRA:          -5.809
REMARK INTER:                  -5.580
REMARK INTRA:                  -0.229
REMARK UNBOUND:                -0.232
REMARK SMILES CCCCCCC=CC(=O)[O-]
REMARK SMILES IDX 5 1 6 2 7 3 8 4 9 5 10 6 11 7 4 8 3 9 2 10 1 11
REMARK H PARENT
REMARK Flexibility Score: inf
ROOT
ATOM      1  C   UNL     1      -8.741   5.862   2.145  1.00  0.00     0.004 C 
ENDROOT
BRANCH   1   2
ATOM      2  C   UNL     1     -10.007   5.053   1.806  1.00  0.00     0.027 C 
BRANCH   2   3
ATOM      3  C   UNL     1      -9.979   3.668   2.387  1.00  0.00    -0.025 C 
ATOM      4  C   UNL     1      -8.834   2.990   2.527  1.00  0.00     0.020 C 
BRANCH   4   5
ATOM      5  C   UNL     1      -8.785   1.635   3.100  1.00  0.00     0.064 C 
ATOM      6  O   UNL     1      -9.753   1.171   3.759  1.00  0.00    -0.545 OA
ATOM      7  O   UNL     1      -7.653   0.855   2.910  1.00  0.00    -0.545 OA
ENDBRANCH   4   5
ENDBRANCH   2   3
ENDBRANCH   1   2
BRANCH   1   8
ATOM      8  C   UNL     1      -8.970   7.382   2.274  1.00  0.00     0.000 C 
BRANCH   8   9
ATOM      9  C   UNL     1      -8.507   8.213   1.064  1.00  0.00    -0.000 C 
BRANCH   9  10
ATOM     10  C   UNL     1      -7.065   7.901   0.640  1.00  0.00    -0.003 C 
ATOM     11  C   UNL     1      -6.476   9.041  -0.185  1.00  0.00     0.004 C 
ENDBRANCH   9  10
ENDBRANCH   8   9
ENDBRANCH   1   8
TORSDOF 6
ENDMDL
MODEL 6
REMARK VINA RESULT:    -4.114      1.847      2.784
REMARK INTER + INTRA:          -5.790
REMARK INTER:                  -5.685
REMARK INTRA:                  -0.105
REMARK UNBOUND:                -0.232
REMARK SMILES CCCCCCC=CC(=O)[O-]
REMARK SMILES IDX 5 1 6 2 7 3 8 4 9 5 10 6 11 7 4 8 3 9 2 10 1 11
REMARK H PARENT
REMARK Flexibility Score: inf
ROOT
ATOM      1  C   UNL     1       0.189  -7.153  -2.857  1.00  0.00     0.004 C 
ENDROOT
BRANCH   1   2
ATOM      2  C   UNL     1       1.469  -8.006  -2.796  1.00  0.00     0.027 C 
BRANCH   2   3
ATOM      3  C   UNL     1       2.553  -7.362  -1.979  1.00  0.00    -0.025 C 
ATOM      4  C   UNL     1       3.437  -8.091  -1.289  1.00  0.00     0.020 C 
BRANCH   4   5
ATOM      5  C   UNL     1       4.510  -7.480  -0.488  1.00  0.00     0.064 C 
ATOM      6  O   UNL     1       4.593  -7.684   0.753  1.00  0.00    -0.545 OA
ATOM      7  O   UNL     1       5.447  -6.666  -1.110  1.00  0.00    -0.545 OA
ENDBRANCH   4   5
ENDBRANCH   2   3
ENDBRANCH   1   2
BRANCH   1   8
ATOM      8  C   UNL     1      -1.115  -7.966  -2.993  1.00  0.00     0.000 C 
BRANCH   8   9
ATOM      9  C   UNL     1      -2.361  -7.138  -3.358  1.00  0.00    -0.000 C 
BRANCH   9  10
ATOM     10  C   UNL     1      -3.628  -7.994  -3.492  1.00  0.00    -0.003 C 
ATOM     11  C   UNL     1      -4.602  -7.380  -4.493  1.00  0.00     0.004 C 
ENDBRANCH   9  10
ENDBRANCH   8   9
ENDBRANCH   1   8
TORSDOF 6
ENDMDL
MODEL 7
REMARK VINA RESULT:    -3.986     15.245     16.752
REMARK INTER + INTRA:          -5.616
REMARK INTER:                  -5.460
REMARK INTRA:                  -0.156
REMARK UNBOUND:                -0.232
REMARK SMILES CCCCCCC=CC(=O)[O-]
REMARK SMILES IDX 5 1 6 2 7 3 8 4 9 5 10 6 11 7 4 8 3 9 2 10 1 11
REMARK H PARENT
REMARK Flexibility Score: inf
ROOT
ATOM      1  C   UNL     1      -8.506   5.398   2.061  1.00  0.00     0.004 C 
ENDROOT
BRANCH   1   2
ATOM      2  C   UNL     1      -9.222   6.742   2.288  1.00  0.00     0.027 C 
BRANCH   2   3
ATOM      3  C   UNL     1      -8.814   7.789   1.291  1.00  0.00    -0.025 C 
ATOM      4  C   UNL     1      -7.557   7.874   0.839  1.00  0.00     0.020 C 
BRANCH   4   5
ATOM      5  C   UNL     1      -7.139   8.887  -0.142  1.00  0.00     0.064 C 
ATOM      6  O   UNL     1      -5.953   8.935  -0.564  1.00  0.00    -0.545 OA
ATOM      7  O   UNL     1      -8.068   9.806  -0.612  1.00  0.00    -0.545 OA
ENDBRANCH   4   5
ENDBRANCH   2   3
ENDBRANCH   1   2
BRANCH   1   8
ATOM      8  C   UNL     1      -9.422   4.161   2.153  1.00  0.00     0.000 C 
BRANCH   8   9
ATOM      9  C   UNL     1      -8.744   2.888   2.692  1.00  0.00    -0.000 C 
BRANCH   9  10
ATOM     10  C   UNL     1      -9.736   1.907   3.332  1.00  0.00    -0.003 C 
ATOM     11  C   UNL     1      -9.121   0.518   3.472  1.00  0.00     0.004 C 
ENDBRANCH   9  10
ENDBRANCH   8   9
ENDBRANCH   1   8
TORSDOF 6
ENDMDL
MODEL 8
REMARK VINA RESULT:    -3.941     13.996     15.936
REMARK INTER + INTRA:          -5.555
REMARK INTER:                  -4.868
REMARK INTRA:                  -0.687
REMARK UNBOUND:                -0.232
REMARK SMILES CCCCCCC=CC(=O)[O-]
REMARK SMILES IDX 5 1 6 2 7 3 8 4 9 5 10 6 11 7 4 8 3 9 2 10 1 11
REMARK H PARENT
REMARK Flexibility Score: inf
ROOT
ATOM      1  C   UNL     1       8.831   6.308  -2.038  1.00  0.00     0.004 C 
ENDROOT
BRANCH   1   2
ATOM      2  C   UNL     1       9.801   6.200  -0.847  1.00  0.00     0.027 C 
BRANCH   2   3
ATOM      3  C   UNL     1       9.143   5.643   0.384  1.00  0.00    -0.025 C 
ATOM      4  C   UNL     1       7.954   5.032   0.327  1.00  0.00     0.020 C 
BRANCH   4   5
ATOM      5  C   UNL     1       7.297   4.474   1.519  1.00  0.00     0.064 C 
ATOM      6  O   UNL     1       6.565   5.188   2.254  1.00  0.00    -0.545 OA
ATOM      7  O   UNL     1       7.486   3.136   1.839  1.00  0.00    -0.545 OA
ENDBRANCH   4   5
ENDBRANCH   2   3
ENDBRANCH   1   2
BRANCH   1   8
ATOM      8  C   UNL     1       9.418   5.841  -3.386  1.00  0.00     0.000 C 
BRANCH   8   9
ATOM      9  C   UNL     1       9.492   4.314  -3.567  1.00  0.00    -0.000 C 
BRANCH   9  10
ATOM     10  C   UNL     1       8.217   3.595  -3.107  1.00  0.00    -0.003 C 
ATOM     11  C   UNL     1       8.549   2.412  -2.201  1.00  0.00     0.004 C 
ENDBRANCH   9  10
ENDBRANCH   8   9
ENDBRANCH   1   8
TORSDOF 6
ENDMDL
MODEL 9
REMARK VINA RESULT:    -3.886      3.664      6.815
REMARK INTER + INTRA:          -5.481
REMARK INTER:                  -5.366
REMARK INTRA:                  -0.115
REMARK UNBOUND:                -0.232
REMARK SMILES CCCCCCC=CC(=O)[O-]
REMARK SMILES IDX 5 1 6 2 7 3 8 4 9 5 10 6 11 7 4 8 3 9 2 10 1 11
REMARK H PARENT
REMARK Flexibility Score: inf
ROOT
ATOM      1  C   UNL     1       0.646  -7.315  -2.989  1.00  0.00     0.004 C 
ENDROOT
BRANCH   1   2
ATOM      2  C   UNL     1      -0.809  -7.685  -2.647  1.00  0.00     0.027 C 
BRANCH   2   3
ATOM      3  C   UNL     1      -1.808  -6.826  -3.368  1.00  0.00    -0.025 C 
ATOM      4  C   UNL     1      -3.083  -7.207  -3.515  1.00  0.00     0.020 C 
BRANCH   4   5
ATOM      5  C   UNL     1      -4.078  -6.378  -4.212  1.00  0.00     0.064 C 
ATOM      6  O   UNL     1      -4.981  -6.900  -4.918  1.00  0.00    -0.545 OA
ATOM      7  O   UNL     1      -4.022  -4.996  -4.089  1.00  0.00    -0.545 OA
ENDBRANCH   4   5
ENDBRANCH   2   3
ENDBRANCH   1   2
BRANCH   1   8
ATOM      8  C   UNL     1       1.699  -8.315  -2.470  1.00  0.00     0.000 C 
BRANCH   8   9
ATOM      9  C   UNL     1       3.156  -7.965  -2.824  1.00  0.00    -0.000 C 
BRANCH   9  10
ATOM     10  C   UNL     1       4.151  -8.369  -1.727  1.00  0.00    -0.003 C 
ATOM     11  C   UNL     1       5.163  -7.258  -1.468  1.00  0.00     0.004 C 
ENDBRANCH   9  10
ENDBRANCH   8   9
ENDBRANCH   1   8
TORSDOF 6
ENDMDL
