MODEL 1
REMARK VINA RESULT:    -5.186      0.000      0.000
REMARK INTER + INTRA:          -6.521
REMARK INTER:                  -6.247
REMARK INTRA:                  -0.274
REMARK UNBOUND:                -0.274
REMARK SMILES O=c1c(O)c(-c2ccc(O)c(O)c2)oc2cc(O)cc(O)c12
REMARK SMILES IDX 5 1 3 2 2 3 1 4 22 5 20 6 19 7 17 8 16 9 15 10 14 11 6 12
REMARK SMILES IDX 7 13 8 14 9 15 13 16 11 17 10 18 12 20 4 22 21 24 18 26
REMARK H PARENT 10 19 12 21 4 23 21 25 18 27
REMARK Flexibility Score: inf
ROOT
ATOM      1  C   UNL     1     133.081 138.156 137.553  1.00  0.00     0.180 A 
ATOM      2  C   UNL     1     134.201 138.600 136.829  1.00  0.00     0.208 A 
ATOM      3  C   UNL     1     135.468 138.544 137.431  1.00  0.00     0.238 A 
ATOM      4  O   UNL     1     136.458 138.995 136.798  1.00  0.00    -0.285 OA
ATOM      5  C   UNL     1     135.601 138.031 138.744  1.00  0.00     0.111 A 
ATOM      6  C   UNL     1     136.842 137.891 139.437  1.00  0.00     0.134 A 
ATOM      7  C   UNL     1     136.841 137.493 140.779  1.00  0.00     0.093 A 
ATOM      8  C   UNL     1     135.654 137.167 141.434  1.00  0.00     0.123 A 
ATOM      9  C   UNL     1     134.441 137.243 140.747  1.00  0.00     0.094 A 
ATOM     10  C   UNL     1     134.405 137.672 139.418  1.00  0.00     0.146 A 
ATOM     11  O   UNL     1     133.231 137.740 138.805  1.00  0.00    -0.452 OA
ENDROOT
BRANCH   1  12
ATOM     12  C   UNL     1     131.717 138.160 136.976  1.00  0.00     0.025 A 
ATOM     13  C   UNL     1     130.773 139.089 137.441  1.00  0.00     0.016 A 
ATOM     14  C   UNL     1     129.475 139.097 136.925  1.00  0.00     0.051 A 
ATOM     15  C   UNL     1     129.095 138.170 135.950  1.00  0.00     0.157 A 
ATOM     16  C   UNL     1     131.327 137.214 136.010  1.00  0.00     0.062 A 
ATOM     17  C   UNL     1     130.023 137.220 135.494  1.00  0.00     0.158 A 
BRANCH  15  18
ATOM     18  O   UNL     1     127.792 138.204 135.453  1.00  0.00    -0.504 OA
ATOM     19  H   UNL     1     127.476 138.932 134.824  1.00  0.00     0.293 HD
ENDBRANCH  15  18
BRANCH  17  20
ATOM     20  O   UNL     1     129.648 136.283 134.532  1.00  0.00    -0.504 OA
ATOM     21  H   UNL     1     128.843 136.428 133.934  1.00  0.00     0.293 HD
ENDBRANCH  17  20
ENDBRANCH   1  12
BRANCH   2  22
ATOM     22  O   UNL     1     134.043 139.124 135.542  1.00  0.00    -0.502 OA
ATOM     23  H   UNL     1     133.774 140.087 135.376  1.00  0.00     0.293 HD
ENDBRANCH   2  22
BRANCH   6  24
ATOM     24  O   UNL     1     138.093 138.102 138.848  1.00  0.00    -0.507 OA
ATOM     25  H   UNL     1     138.929 138.352 139.352  1.00  0.00     0.293 HD
ENDBRANCH   6  24
BRANCH   8  26
ATOM     26  O   UNL     1     135.693 136.759 142.765  1.00  0.00    -0.508 OA
ATOM     27  H   UNL     1     135.304 135.870 143.058  1.00  0.00     0.293 HD
ENDBRANCH   8  26
TORSDOF 6
ENDMDL
MODEL 2
REMARK VINA RESULT:    -5.157      1.979      3.884
REMARK INTER + INTRA:          -6.486
REMARK INTER:                  -6.200
REMARK INTRA:                  -0.286
REMARK UNBOUND:                -0.274
REMARK SMILES O=c1c(O)c(-c2ccc(O)c(O)c2)oc2cc(O)cc(O)c12
REMARK SMILES IDX 5 1 3 2 2 3 1 4 22 5 20 6 19 7 17 8 16 9 15 10 14 11 6 12
REMARK SMILES IDX 7 13 8 14 9 15 13 16 11 17 10 18 12 20 4 22 21 24 18 26
REMARK H PARENT 10 19 12 21 4 23 21 25 18 27
REMARK Flexibility Score: inf
ROOT
ATOM      1  C   UNL     1     132.520 137.621 136.405  1.00  0.00     0.180 A 
ATOM      2  C   UNL     1     132.915 137.655 137.753  1.00  0.00     0.208 A 
ATOM      3  C   UNL     1     134.228 138.041 138.069  1.00  0.00     0.238 A 
ATOM      4  O   UNL     1     134.591 138.016 139.274  1.00  0.00    -0.285 OA
ATOM      5  C   UNL     1     135.124 138.401 137.034  1.00  0.00     0.111 A 
ATOM      6  C   UNL     1     136.465 138.846 137.241  1.00  0.00     0.134 A 
ATOM      7  C   UNL     1     137.302 139.052 136.138  1.00  0.00     0.093 A 
ATOM      8  C   UNL     1     136.831 138.893 134.836  1.00  0.00     0.123 A 
ATOM      9  C   UNL     1     135.504 138.517 134.621  1.00  0.00     0.094 A 
ATOM     10  C   UNL     1     134.654 138.268 135.701  1.00  0.00     0.146 A 
ATOM     11  O   UNL     1     133.403 137.903 135.454  1.00  0.00    -0.452 OA
ENDROOT
BRANCH   1  12
ATOM     12  C   UNL     1     131.146 137.249 135.995  1.00  0.00     0.025 A 
ATOM     13  C   UNL     1     130.917 136.000 135.398  1.00  0.00     0.016 A 
ATOM     14  C   UNL     1     129.633 135.638 134.985  1.00  0.00     0.051 A 
ATOM     15  C   UNL     1     128.561 136.521 135.148  1.00  0.00     0.157 A 
ATOM     16  C   UNL     1     130.071 138.145 136.140  1.00  0.00     0.062 A 
ATOM     17  C   UNL     1     128.782 137.783 135.724  1.00  0.00     0.158 A 
BRANCH  15  18
ATOM     18  O   UNL     1     127.291 136.131 134.728  1.00  0.00    -0.504 OA
ATOM     19  H   UNL     1     126.969 136.279 133.779  1.00  0.00     0.293 HD
ENDBRANCH  15  18
BRANCH  17  20
ATOM     20  O   UNL     1     127.721 138.675 135.877  1.00  0.00    -0.504 OA
ATOM     21  H   UNL     1     127.698 139.563 135.388  1.00  0.00     0.293 HD
ENDBRANCH  17  20
ENDBRANCH   1  12
BRANCH   2  22
ATOM     22  O   UNL     1     132.021 137.273 138.757  1.00  0.00    -0.502 OA
ATOM     23  H   UNL     1     131.450 137.942 139.261  1.00  0.00     0.293 HD
ENDBRANCH   2  22
BRANCH   6  24
ATOM     24  O   UNL     1     137.009 139.125 138.499  1.00  0.00    -0.507 OA
ATOM     25  H   UNL     1     136.471 139.365 139.317  1.00  0.00     0.293 HD
ENDBRANCH   6  24
BRANCH   8  26
ATOM     26  O   UNL     1     137.687 139.122 133.762  1.00  0.00    -0.508 OA
ATOM     27  H   UNL     1     138.694 139.127 133.878  1.00  0.00     0.293 HD
ENDBRANCH   8  26
TORSDOF 6
ENDMDL
MODEL 3
REMARK VINA RESULT:    -5.058     13.861     18.446
REMARK INTER + INTRA:          -6.367
REMARK INTER:                  -6.050
REMARK INTRA:                  -0.316
REMARK UNBOUND:                -0.274
REMARK SMILES O=c1c(O)c(-c2ccc(O)c(O)c2)oc2cc(O)cc(O)c12
REMARK SMILES IDX 5 1 3 2 2 3 1 4 22 5 20 6 19 7 17 8 16 9 15 10 14 11 6 12
REMARK SMILES IDX 7 13 8 14 9 15 13 16 11 17 10 18 12 20 4 22 21 24 18 26
REMARK H PARENT 10 19 12 21 4 23 21 25 18 27
REMARK Flexibility Score: inf
ROOT
ATOM      1  C   UNL     1     122.421 128.033 129.583  1.00  0.00     0.180 A 
ATOM      2  C   UNL     1     121.129 128.542 129.801  1.00  0.00     0.208 A 
ATOM      3  C   UNL     1     120.054 127.646 129.910  1.00  0.00     0.238 A 
ATOM      4  O   UNL     1     118.892 128.110 130.049  1.00  0.00    -0.285 OA
ATOM      5  C   UNL     1     120.285 126.252 129.814  1.00  0.00     0.111 A 
ATOM      6  C   UNL     1     119.276 125.252 129.949  1.00  0.00     0.134 A 
ATOM      7  C   UNL     1     119.597 123.910 129.707  1.00  0.00     0.093 A 
ATOM      8  C   UNL     1     120.901 123.525 129.400  1.00  0.00     0.123 A 
ATOM      9  C   UNL     1     121.908 124.489 129.325  1.00  0.00     0.094 A 
ATOM     10  C   UNL     1     121.613 125.840 129.525  1.00  0.00     0.146 A 
ATOM     11  O   UNL     1     122.596 126.725 129.434  1.00  0.00    -0.452 OA
ENDROOT
BRANCH   1  12
ATOM     12  C   UNL     1     123.608 128.913 129.484  1.00  0.00     0.025 A 
ATOM     13  C   UNL     1     124.249 129.345 130.656  1.00  0.00     0.016 A 
ATOM     14  C   UNL     1     125.357 130.191 130.586  1.00  0.00     0.051 A 
ATOM     15  C   UNL     1     125.834 130.632 129.348  1.00  0.00     0.157 A 
ATOM     16  C   UNL     1     124.076 129.375 128.240  1.00  0.00     0.062 A 
ATOM     17  C   UNL     1     125.187 130.226 128.169  1.00  0.00     0.158 A 
BRANCH  15  18
ATOM     18  O   UNL     1     126.943 131.476 129.310  1.00  0.00    -0.504 OA
ATOM     19  H   UNL     1     127.223 132.033 130.108  1.00  0.00     0.293 HD
ENDBRANCH  15  18
BRANCH  17  20
ATOM     20  O   UNL     1     125.648 130.673 126.931  1.00  0.00    -0.504 OA
ATOM     21  H   UNL     1     126.567 131.086 126.823  1.00  0.00     0.293 HD
ENDBRANCH  17  20
ENDBRANCH   1  12
BRANCH   2  22
ATOM     22  O   UNL     1     120.920 129.922 129.869  1.00  0.00    -0.502 OA
ATOM     23  H   UNL     1     120.085 130.327 130.277  1.00  0.00     0.293 HD
ENDBRANCH   2  22
BRANCH   6  24
ATOM     24  O   UNL     1     117.961 125.518 130.343  1.00  0.00    -0.507 OA
ATOM     25  H   UNL     1     117.549 126.438 130.386  1.00  0.00     0.293 HD
ENDBRANCH   6  24
BRANCH   8  26
ATOM     26  O   UNL     1     121.188 122.180 129.182  1.00  0.00    -0.508 OA
ATOM     27  H   UNL     1     122.102 121.793 129.386  1.00  0.00     0.293 HD
ENDBRANCH   8  26
TORSDOF 6
ENDMDL
MODEL 4
REMARK VINA RESULT:    -4.995     15.063     18.390
REMARK INTER + INTRA:          -6.290
REMARK INTER:                  -6.161
REMARK INTRA:                  -0.129
REMARK UNBOUND:                -0.274
REMARK SMILES O=c1c(O)c(-c2ccc(O)c(O)c2)oc2cc(O)cc(O)c12
REMARK SMILES IDX 5 1 3 2 2 3 1 4 22 5 20 6 19 7 17 8 16 9 15 10 14 11 6 12
REMARK SMILES IDX 7 13 8 14 9 15 13 16 11 17 10 18 12 20 4 22 21 24 18 26
REMARK H PARENT 10 19 12 21 4 23 21 25 18 27
REMARK Flexibility Score: inf
ROOT
ATOM      1  C   UNL     1     122.283 126.953 128.338  1.00  0.00     0.180 A 
ATOM      2  C   UNL     1     122.129 128.221 128.924  1.00  0.00     0.208 A 
ATOM      3  C   UNL     1     123.225 129.098 128.948  1.00  0.00     0.238 A 
ATOM      4  O   UNL     1     123.097 130.211 129.523  1.00  0.00    -0.285 OA
ATOM      5  C   UNL     1     124.457 128.702 128.372  1.00  0.00     0.111 A 
ATOM      6  C   UNL     1     125.621 129.526 128.305  1.00  0.00     0.134 A 
ATOM      7  C   UNL     1     126.822 128.984 127.830  1.00  0.00     0.093 A 
ATOM      8  C   UNL     1     126.886 127.674 127.360  1.00  0.00     0.123 A 
ATOM      9  C   UNL     1     125.739 126.879 127.365  1.00  0.00     0.094 A 
ATOM     10  C   UNL     1     124.534 127.378 127.867  1.00  0.00     0.146 A 
ATOM     11  O   UNL     1     123.469 126.587 127.864  1.00  0.00    -0.452 OA
ENDROOT
BRANCH   1  12
ATOM     12  C   UNL     1     121.167 125.984 128.252  1.00  0.00     0.025 A 
ATOM     13  C   UNL     1     120.008 126.326 127.538  1.00  0.00     0.016 A 
ATOM     14  C   UNL     1     118.935 125.435 127.461  1.00  0.00     0.051 A 
ATOM     15  C   UNL     1     118.995 124.197 128.108  1.00  0.00     0.157 A 
ATOM     16  C   UNL     1     121.218 124.746 128.920  1.00  0.00     0.062 A 
ATOM     17  C   UNL     1     120.140 123.852 128.845  1.00  0.00     0.158 A 
BRANCH  15  18
ATOM     18  O   UNL     1     117.909 123.328 128.012  1.00  0.00    -0.504 OA
ATOM     19  H   UNL     1     118.019 122.359 127.738  1.00  0.00     0.293 HD
ENDBRANCH  15  18
BRANCH  17  20
ATOM     20  O   UNL     1     120.202 122.626 129.505  1.00  0.00    -0.504 OA
ATOM     21  H   UNL     1     119.397 122.238 129.984  1.00  0.00     0.293 HD
ENDBRANCH  17  20
ENDBRANCH   1  12
BRANCH   2  22
ATOM     22  O   UNL     1     120.911 128.583 129.507  1.00  0.00    -0.502 OA
ATOM     23  H   UNL     1     120.188 127.906 129.721  1.00  0.00     0.293 HD
ENDBRANCH   2  22
BRANCH   6  24
ATOM     24  O   UNL     1     125.644 130.877 128.663  1.00  0.00    -0.507 OA
ATOM     25  H   UNL     1     125.327 131.632 128.074  1.00  0.00     0.293 HD
ENDBRANCH   6  24
BRANCH   8  26
ATOM     26  O   UNL     1     128.094 127.173 126.879  1.00  0.00    -0.508 OA
ATOM     27  H   UNL     1     128.458 126.280 127.189  1.00  0.00     0.293 HD
ENDBRANCH   8  26
TORSDOF 6
ENDMDL
MODEL 5
REMARK VINA RESULT:    -4.924      3.271      5.180
REMARK INTER + INTRA:          -6.205
REMARK INTER:                  -5.882
REMARK INTRA:                  -0.323
REMARK UNBOUND:                -0.274
REMARK SMILES O=c1c(O)c(-c2ccc(O)c(O)c2)oc2cc(O)cc(O)c12
REMARK SMILES IDX 5 1 3 2 2 3 1 4 22 5 20 6 19 7 17 8 16 9 15 10 14 11 6 12
REMARK SMILES IDX 7 13 8 14 9 15 13 16 11 17 10 18 12 20 4 22 21 24 18 26
REMARK H PARENT 10 19 12 21 4 23 21 25 18 27
REMARK Flexibility Score: inf
ROOT
ATOM      1  C   UNL     1     136.166 137.634 136.494  1.00  0.00     0.180 A 
ATOM      2  C   UNL     1     134.989 138.231 136.976  1.00  0.00     0.208 A 
ATOM      3  C   UNL     1     134.671 138.108 138.338  1.00  0.00     0.238 A 
ATOM      4  O   UNL     1     133.587 138.598 138.752  1.00  0.00    -0.285 OA
ATOM      5  C   UNL     1     135.541 137.402 139.204  1.00  0.00     0.111 A 
ATOM      6  C   UNL     1     135.337 137.249 140.608  1.00  0.00     0.134 A 
ATOM      7  C   UNL     1     136.195 136.421 141.344  1.00  0.00     0.093 A 
ATOM      8  C   UNL     1     137.283 135.794 140.740  1.00  0.00     0.123 A 
ATOM      9  C   UNL     1     137.526 135.985 139.379  1.00  0.00     0.094 A 
ATOM     10  C   UNL     1     136.668 136.776 138.611  1.00  0.00     0.146 A 
ATOM     11  O   UNL     1     136.928 136.924 137.318  1.00  0.00    -0.452 OA
ENDROOT
BRANCH   1  12
ATOM     12  C   UNL     1     136.582 137.742 135.077  1.00  0.00     0.025 A 
ATOM     13  C   UNL     1     137.379 138.823 134.671  1.00  0.00     0.016 A 
ATOM     14  C   UNL     1     137.765 138.956 133.335  1.00  0.00     0.051 A 
ATOM     15  C   UNL     1     137.350 138.021 132.382  1.00  0.00     0.157 A 
ATOM     16  C   UNL     1     136.148 136.813 134.113  1.00  0.00     0.062 A 
ATOM     17  C   UNL     1     136.533 136.947 132.771  1.00  0.00     0.158 A 
BRANCH  15  18
ATOM     18  O   UNL     1     137.754 138.179 131.057  1.00  0.00    -0.504 OA
ATOM     19  H   UNL     1     137.323 138.859 130.441  1.00  0.00     0.293 HD
ENDBRANCH  15  18
BRANCH  17  20
ATOM     20  O   UNL     1     136.104 136.018 131.824  1.00  0.00    -0.504 OA
ATOM     21  H   UNL     1     135.149 136.009 131.484  1.00  0.00     0.293 HD
ENDBRANCH  17  20
ENDBRANCH   1  12
BRANCH   2  22
ATOM     22  O   UNL     1     134.133 138.904 136.099  1.00  0.00    -0.502 OA
ATOM     23  H   UNL     1     133.854 139.867 136.243  1.00  0.00     0.293 HD
ENDBRANCH   2  22
BRANCH   6  24
ATOM     24  O   UNL     1     134.334 137.906 141.328  1.00  0.00    -0.507 OA
ATOM     25  H   UNL     1     133.991 138.831 141.121  1.00  0.00     0.293 HD
ENDBRANCH   6  24
BRANCH   8  26
ATOM     26  O   UNL     1     138.125 134.991 141.506  1.00  0.00    -0.508 OA
ATOM     27  H   UNL     1     138.098 135.009 142.519  1.00  0.00     0.293 HD
ENDBRANCH   8  26
TORSDOF 6
ENDMDL
MODEL 6
REMARK VINA RESULT:    -4.886     19.144     20.413
REMARK INTER + INTRA:          -6.160
REMARK INTER:                  -5.839
REMARK INTRA:                  -0.321
REMARK UNBOUND:                -0.274
REMARK SMILES O=c1c(O)c(-c2ccc(O)c(O)c2)oc2cc(O)cc(O)c12
REMARK SMILES IDX 5 1 3 2 2 3 1 4 22 5 20 6 19 7 17 8 16 9 15 10 14 11 6 12
REMARK SMILES IDX 7 13 8 14 9 15 13 16 11 17 10 18 12 20 4 22 21 24 18 26
REMARK H PARENT 10 19 12 21 4 23 21 25 18 27
REMARK Flexibility Score: inf
ROOT
ATOM      1  C   UNL     1     125.129 120.743 144.265  1.00  0.00     0.180 A 
ATOM      2  C   UNL     1     126.241 120.531 145.098  1.00  0.00     0.208 A 
ATOM      3  C   UNL     1     127.514 120.412 144.518  1.00  0.00     0.238 A 
ATOM      4  O   UNL     1     128.498 120.166 145.264  1.00  0.00    -0.285 OA
ATOM      5  C   UNL     1     127.662 120.522 143.114  1.00  0.00     0.111 A 
ATOM      6  C   UNL     1     128.909 120.457 142.423  1.00  0.00     0.134 A 
ATOM      7  C   UNL     1     128.923 120.449 141.023  1.00  0.00     0.093 A 
ATOM      8  C   UNL     1     127.743 120.568 140.290  1.00  0.00     0.123 A 
ATOM      9  C   UNL     1     126.523 120.692 140.956  1.00  0.00     0.094 A 
ATOM     10  C   UNL     1     126.473 120.667 142.352  1.00  0.00     0.146 A 
ATOM     11  O   UNL     1     125.292 120.778 142.947  1.00  0.00    -0.452 OA
ENDROOT
BRANCH   1  12
ATOM     12  C   UNL     1     123.760 120.904 144.805  1.00  0.00     0.025 A 
ATOM     13  C   UNL     1     123.328 122.171 145.226  1.00  0.00     0.016 A 
ATOM     14  C   UNL     1     122.047 122.342 145.758  1.00  0.00     0.051 A 
ATOM     15  C   UNL     1     121.185 121.249 145.890  1.00  0.00     0.157 A 
ATOM     16  C   UNL     1     122.898 119.802 144.958  1.00  0.00     0.062 A 
ATOM     17  C   UNL     1     121.614 119.972 145.493  1.00  0.00     0.158 A 
BRANCH  15  18
ATOM     18  O   UNL     1     119.912 121.451 146.422  1.00  0.00    -0.504 OA
ATOM     19  H   UNL     1     119.767 121.925 147.306  1.00  0.00     0.293 HD
ENDBRANCH  15  18
BRANCH  17  20
ATOM     20  O   UNL     1     120.764 118.875 145.636  1.00  0.00    -0.504 OA
ATOM     21  H   UNL     1     119.811 118.894 145.294  1.00  0.00     0.293 HD
ENDBRANCH  17  20
ENDBRANCH   1  12
BRANCH   2  22
ATOM     22  O   UNL     1     126.070 120.402 146.480  1.00  0.00    -0.502 OA
ATOM     23  H   UNL     1     126.190 119.520 146.963  1.00  0.00     0.293 HD
ENDBRANCH   2  22
BRANCH   6  24
ATOM     24  O   UNL     1     130.154 120.429 143.059  1.00  0.00    -0.507 OA
ATOM     25  H   UNL     1     130.817 121.188 143.057  1.00  0.00     0.293 HD
ENDBRANCH   6  24
BRANCH   8  26
ATOM     26  O   UNL     1     127.795 120.572 138.898  1.00  0.00    -0.508 OA
ATOM     27  H   UNL     1     128.557 120.131 138.395  1.00  0.00     0.293 HD
ENDBRANCH   8  26
TORSDOF 6
ENDMDL
MODEL 7
REMARK VINA RESULT:    -4.826      2.219      3.806
REMARK INTER + INTRA:          -6.087
REMARK INTER:                  -5.799
REMARK INTRA:                  -0.288
REMARK UNBOUND:                -0.274
REMARK SMILES O=c1c(O)c(-c2ccc(O)c(O)c2)oc2cc(O)cc(O)c12
REMARK SMILES IDX 5 1 3 2 2 3 1 4 22 5 20 6 19 7 17 8 16 9 15 10 14 11 6 12
REMARK SMILES IDX 7 13 8 14 9 15 13 16 11 17 10 18 12 20 4 22 21 24 18 26
REMARK H PARENT 10 19 12 21 4 23 21 25 18 27
REMARK Flexibility Score: inf
ROOT
ATOM      1  C   UNL     1     133.174 137.603 136.488  1.00  0.00     0.180 A 
ATOM      2  C   UNL     1     133.723 136.764 137.473  1.00  0.00     0.208 A 
ATOM      3  C   UNL     1     135.111 136.552 137.491  1.00  0.00     0.238 A 
ATOM      4  O   UNL     1     135.590 135.756 138.341  1.00  0.00    -0.285 OA
ATOM      5  C   UNL     1     135.934 137.193 136.533  1.00  0.00     0.111 A 
ATOM      6  C   UNL     1     137.356 137.081 136.482  1.00  0.00     0.134 A 
ATOM      7  C   UNL     1     138.056 137.655 135.413  1.00  0.00     0.093 A 
ATOM      8  C   UNL     1     137.394 138.390 134.431  1.00  0.00     0.123 A 
ATOM      9  C   UNL     1     136.010 138.556 134.504  1.00  0.00     0.094 A 
ATOM     10  C   UNL     1     135.280 137.965 135.537  1.00  0.00     0.146 A 
ATOM     11  O   UNL     1     133.964 138.138 135.565  1.00  0.00    -0.452 OA
ENDROOT
BRANCH   1  12
ATOM     12  C   UNL     1     131.724 137.895 136.421  1.00  0.00     0.025 A 
ATOM     13  C   UNL     1     131.165 138.827 137.310  1.00  0.00     0.016 A 
ATOM     14  C   UNL     1     129.796 139.102 137.278  1.00  0.00     0.051 A 
ATOM     15  C   UNL     1     128.962 138.442 136.371  1.00  0.00     0.157 A 
ATOM     16  C   UNL     1     130.880 137.216 135.523  1.00  0.00     0.062 A 
ATOM     17  C   UNL     1     129.505 137.490 135.492  1.00  0.00     0.158 A 
BRANCH  15  18
ATOM     18  O   UNL     1     127.600 138.740 136.361  1.00  0.00    -0.504 OA
ATOM     19  H   UNL     1     126.961 138.311 135.702  1.00  0.00     0.293 HD
ENDBRANCH  15  18
BRANCH  17  20
ATOM     20  O   UNL     1     128.678 136.817 134.593  1.00  0.00    -0.504 OA
ATOM     21  H   UNL     1     127.953 137.299 134.075  1.00  0.00     0.293 HD
ENDBRANCH  17  20
ENDBRANCH   1  12
BRANCH   2  22
ATOM     22  O   UNL     1     132.890 136.123 138.395  1.00  0.00    -0.502 OA
ATOM     23  H   UNL     1     131.880 136.130 138.312  1.00  0.00     0.293 HD
ENDBRANCH   2  22
BRANCH   6  24
ATOM     24  O   UNL     1     138.125 136.447 137.463  1.00  0.00    -0.507 OA
ATOM     25  H   UNL     1     139.047 136.067 137.314  1.00  0.00     0.293 HD
ENDBRANCH   6  24
BRANCH   8  26
ATOM     26  O   UNL     1     138.124 138.960 133.390  1.00  0.00    -0.508 OA
ATOM     27  H   UNL     1     138.737 138.404 132.805  1.00  0.00     0.293 HD
ENDBRANCH   8  26
TORSDOF 6
ENDMDL
MODEL 8
REMARK VINA RESULT:    -4.772      4.487      7.420
REMARK INTER + INTRA:          -6.022
REMARK INTER:                  -5.779
REMARK INTRA:                  -0.242
REMARK UNBOUND:                -0.274
REMARK SMILES O=c1c(O)c(-c2ccc(O)c(O)c2)oc2cc(O)cc(O)c12
REMARK SMILES IDX 5 1 3 2 2 3 1 4 22 5 20 6 19 7 17 8 16 9 15 10 14 11 6 12
REMARK SMILES IDX 7 13 8 14 9 15 13 16 11 17 10 18 12 20 4 22 21 24 18 26
REMARK H PARENT 10 19 12 21 4 23 21 25 18 27
REMARK Flexibility Score: inf
ROOT
ATOM      1  C   UNL     1     137.064 136.939 136.337  1.00  0.00     0.180 A 
ATOM      2  C   UNL     1     137.565 138.065 135.661  1.00  0.00     0.208 A 
ATOM      3  C   UNL     1     137.530 138.089 134.257  1.00  0.00     0.238 A 
ATOM      4  O   UNL     1     138.032 139.075 133.657  1.00  0.00    -0.285 OA
ATOM      5  C   UNL     1     136.980 136.993 133.548  1.00  0.00     0.111 A 
ATOM      6  C   UNL     1     136.858 136.928 132.127  1.00  0.00     0.134 A 
ATOM      7  C   UNL     1     136.417 135.742 131.526  1.00  0.00     0.093 A 
ATOM      8  C   UNL     1     136.034 134.644 132.295  1.00  0.00     0.123 A 
ATOM      9  C   UNL     1     136.093 134.719 133.687  1.00  0.00     0.094 A 
ATOM     10  C   UNL     1     136.563 135.875 134.316  1.00  0.00     0.146 A 
ATOM     11  O   UNL     1     136.613 135.902 135.641  1.00  0.00    -0.452 OA
ENDROOT
BRANCH   1  12
ATOM     12  C   UNL     1     137.043 136.852 137.815  1.00  0.00     0.025 A 
ATOM     13  C   UNL     1     137.860 135.912 138.463  1.00  0.00     0.016 A 
ATOM     14  C   UNL     1     137.841 135.799 139.855  1.00  0.00     0.051 A 
ATOM     15  C   UNL     1     136.997 136.610 140.620  1.00  0.00     0.157 A 
ATOM     16  C   UNL     1     136.179 137.652 138.584  1.00  0.00     0.062 A 
ATOM     17  C   UNL     1     136.157 137.538 139.981  1.00  0.00     0.158 A 
BRANCH  15  18
ATOM     18  O   UNL     1     137.001 136.475 142.007  1.00  0.00    -0.504 OA
ATOM     19  H   UNL     1     137.093 135.573 142.460  1.00  0.00     0.293 HD
ENDBRANCH  15  18
BRANCH  17  20
ATOM     20  O   UNL     1     135.302 138.340 140.736  1.00  0.00    -0.504 OA
ATOM     21  H   UNL     1     135.343 139.351 140.689  1.00  0.00     0.293 HD
ENDBRANCH  17  20
ENDBRANCH   1  12
BRANCH   2  22
ATOM     22  O   UNL     1     138.125 139.125 136.380  1.00  0.00    -0.502 OA
ATOM     23  H   UNL     1     137.602 139.962 136.612  1.00  0.00     0.293 HD
ENDBRANCH   2  22
BRANCH   6  24
ATOM     24  O   UNL     1     137.126 138.000 131.270  1.00  0.00    -0.507 OA
ATOM     25  H   UNL     1     136.430 138.496 130.736  1.00  0.00     0.293 HD
ENDBRANCH   6  24
BRANCH   8  26
ATOM     26  O   UNL     1     135.585 133.486 131.664  1.00  0.00    -0.508 OA
ATOM     27  H   UNL     1     136.222 132.737 131.416  1.00  0.00     0.293 HD
ENDBRANCH   8  26
TORSDOF 6
ENDMDL
