MODEL 1
REMARK VINA RESULT:    -3.158      0.000      0.000
REMARK INTER + INTRA:          -4.145
REMARK INTER:                  -3.896
REMARK INTRA:                  -0.249
REMARK UNBOUND:                -0.249
REMARK SMILES CCCCCC(=O)[O-]
REMARK SMILES IDX 4 1 5 2 6 3 7 4 8 5 3 6 2 7 1 8
REMARK H PARENT
REMARK Flexibility Score: inf
ROOT
ATOM      1  C   UNL     1       4.558  11.297  40.330  1.00  0.00     0.006 C 
ENDROOT
BRANCH   1   2
ATOM      2  C   UNL     1       5.554  12.460  40.381  1.00  0.00     0.053 C 
BRANCH   2   3
ATOM      3  C   UNL     1       6.951  11.947  40.532  1.00  0.00     0.041 C 
ATOM      4  O   UNL     1       7.544  11.424  39.551  1.00  0.00    -0.550 OA
ATOM      5  O   UNL     1       7.616  12.091  41.742  1.00  0.00    -0.550 OA
ENDBRANCH   2   3
ENDBRANCH   1   2
BRANCH   1   6
ATOM      6  C   UNL     1       4.070  11.053  38.895  1.00  0.00     0.000 C 
BRANCH   6   7
ATOM      7  C   UNL     1       4.693   9.798  38.265  1.00  0.00    -0.003 C 
ATOM      8  C   UNL     1       5.092   8.750  39.305  1.00  0.00     0.004 C 
ENDBRANCH   6   7
ENDBRANCH   1   6
TORSDOF 4
ENDMDL
MODEL 2
REMARK VINA RESULT:    -2.846      2.507      4.124
REMARK INTER + INTRA:          -3.761
REMARK INTER:                  -3.646
REMARK INTRA:                  -0.115
REMARK UNBOUND:                -0.249
REMARK SMILES CCCCCC(=O)[O-]
REMARK SMILES IDX 4 1 5 2 6 3 7 4 8 5 3 6 2 7 1 8
REMARK H PARENT
REMARK Flexibility Score: inf
ROOT
ATOM      1  C   UNL     1       6.553  10.784  39.375  1.00  0.00     0.006 C 
ENDROOT
BRANCH   1   2
ATOM      2  C   UNL     1       5.161  10.789  40.013  1.00  0.00     0.053 C 
BRANCH   2   3
ATOM      3  C   UNL     1       4.685   9.390  40.244  1.00  0.00     0.041 C 
ATOM      4  O   UNL     1       4.099   9.090  41.318  1.00  0.00    -0.550 OA
ATOM      5  O   UNL     1       4.844   8.430  39.254  1.00  0.00    -0.550 OA
ENDBRANCH   2   3
ENDBRANCH   1   2
BRANCH   1   6
ATOM      6  C   UNL     1       7.455  11.849  40.014  1.00  0.00     0.000 C 
BRANCH   6   7
ATOM      7  C   UNL     1       7.119  12.098  41.492  1.00  0.00    -0.003 C 
ATOM      8  C   UNL     1       8.351  12.447  42.329  1.00  0.00     0.004 C 
ENDBRANCH   6   7
ENDBRANCH   1   6
TORSDOF 4
ENDMDL
MODEL 3
REMARK VINA RESULT:    -2.812      2.541      3.585
REMARK INTER + INTRA:          -3.719
REMARK INTER:                  -3.521
REMARK INTRA:                  -0.198
REMARK UNBOUND:                -0.249
REMARK SMILES CCCCCC(=O)[O-]
REMARK SMILES IDX 4 1 5 2 6 3 7 4 8 5 3 6 2 7 1 8
REMARK H PARENT
REMARK Flexibility Score: inf
ROOT
ATOM      1  C   UNL     1       5.163   9.226  39.761  1.00  0.00     0.006 C 
ENDROOT
BRANCH   1   2
ATOM      2  C   UNL     1       3.878   9.190  40.593  1.00  0.00     0.053 C 
BRANCH   2   3
ATOM      3  C   UNL     1       4.173   9.506  42.026  1.00  0.00     0.041 C 
ATOM      4  O   UNL     1       4.617   8.612  42.793  1.00  0.00    -0.550 OA
ATOM      5  O   UNL     1       4.002  10.799  42.501  1.00  0.00    -0.550 OA
ENDBRANCH   2   3
ENDBRANCH   1   2
BRANCH   1   6
ATOM      6  C   UNL     1       5.431  10.639  39.223  1.00  0.00     0.000 C 
BRANCH   6   7
ATOM      7  C   UNL     1       6.889  11.079  39.420  1.00  0.00    -0.003 C 
ATOM      8  C   UNL     1       7.074  11.983  40.640  1.00  0.00     0.004 C 
ENDBRANCH   6   7
ENDBRANCH   1   6
TORSDOF 4
ENDMDL
MODEL 4
REMARK VINA RESULT:    -2.801     10.408     11.768
REMARK INTER + INTRA:          -3.705
REMARK INTER:                  -3.639
REMARK INTRA:                  -0.066
REMARK UNBOUND:                -0.249
REMARK SMILES CCCCCC(=O)[O-]
REMARK SMILES IDX 4 1 5 2 6 3 7 4 8 5 3 6 2 7 1 8
REMARK H PARENT
REMARK Flexibility Score: inf
ROOT
ATOM      1  C   UNL     1       7.690   1.134  44.669  1.00  0.00     0.006 C 
ENDROOT
BRANCH   1   2
ATOM      2  C   UNL     1       6.218   0.741  44.511  1.00  0.00     0.053 C 
BRANCH   2   3
ATOM      3  C   UNL     1       5.411   1.907  44.036  1.00  0.00     0.041 C 
ATOM      4  O   UNL     1       4.156   1.825  43.971  1.00  0.00    -0.550 OA
ATOM      5  O   UNL     1       6.041   3.101  43.710  1.00  0.00    -0.550 OA
ENDBRANCH   2   3
ENDBRANCH   1   2
BRANCH   1   6
ATOM      6  C   UNL     1       8.310   0.461  45.902  1.00  0.00     0.000 C 
BRANCH   6   7
ATOM      7  C   UNL     1       9.805   0.776  46.057  1.00  0.00    -0.003 C 
ATOM      8  C   UNL     1      10.699  -0.211  45.306  1.00  0.00     0.004 C 
ENDBRANCH   6   7
ENDBRANCH   1   6
TORSDOF 4
ENDMDL
MODEL 5
REMARK VINA RESULT:    -2.788     13.655     14.819
REMARK INTER + INTRA:          -3.689
REMARK INTER:                  -3.590
REMARK INTRA:                  -0.100
REMARK UNBOUND:                -0.249
REMARK SMILES CCCCCC(=O)[O-]
REMARK SMILES IDX 4 1 5 2 6 3 7 4 8 5 3 6 2 7 1 8
REMARK H PARENT
REMARK Flexibility Score: inf
ROOT
ATOM      1  C   UNL     1      15.073  -0.048  35.932  1.00  0.00     0.006 C 
ENDROOT
BRANCH   1   2
ATOM      2  C   UNL     1      15.293   1.201  36.791  1.00  0.00     0.053 C 
BRANCH   2   3
ATOM      3  C   UNL     1      14.654   1.033  38.133  1.00  0.00     0.041 C 
ATOM      4  O   UNL     1      13.495   0.549  38.227  1.00  0.00    -0.550 OA
ATOM      5  O   UNL     1      15.356   1.368  39.283  1.00  0.00    -0.550 OA
ENDBRANCH   2   3
ENDBRANCH   1   2
BRANCH   1   6
ATOM      6  C   UNL     1      16.264  -0.286  34.992  1.00  0.00     0.000 C 
BRANCH   6   7
ATOM      7  C   UNL     1      15.845  -0.371  33.517  1.00  0.00    -0.003 C 
ATOM      8  C   UNL     1      14.351  -0.116  33.310  1.00  0.00     0.004 C 
ENDBRANCH   6   7
ENDBRANCH   1   6
TORSDOF 4
ENDMDL
MODEL 6
REMARK VINA RESULT:    -2.743      1.554      2.264
REMARK INTER + INTRA:          -3.633
REMARK INTER:                  -3.425
REMARK INTRA:                  -0.208
REMARK UNBOUND:                -0.249
REMARK SMILES CCCCCC(=O)[O-]
REMARK SMILES IDX 4 1 5 2 6 3 7 4 8 5 3 6 2 7 1 8
REMARK H PARENT
REMARK Flexibility Score: inf
ROOT
ATOM      1  C   UNL     1       4.654  10.079  41.523  1.00  0.00     0.006 C 
ENDROOT
BRANCH   1   2
ATOM      2  C   UNL     1       4.140  11.522  41.546  1.00  0.00     0.053 C 
BRANCH   2   3
ATOM      3  C   UNL     1       5.271  12.485  41.367  1.00  0.00     0.041 C 
ATOM      4  O   UNL     1       5.782  13.055  42.367  1.00  0.00    -0.550 OA
ATOM      5  O   UNL     1       5.792  12.716  40.101  1.00  0.00    -0.550 OA
ENDBRANCH   2   3
ENDBRANCH   1   2
BRANCH   1   6
ATOM      6  C   UNL     1       4.030   9.292  40.362  1.00  0.00     0.000 C 
BRANCH   6   7
ATOM      7  C   UNL     1       5.051   8.939  39.271  1.00  0.00    -0.003 C 
ATOM      8  C   UNL     1       5.017   9.911  38.091  1.00  0.00     0.004 C 
ENDBRANCH   6   7
ENDBRANCH   1   6
TORSDOF 4
ENDMDL
MODEL 7
REMARK VINA RESULT:    -2.727      2.283      3.538
REMARK INTER + INTRA:          -3.614
REMARK INTER:                  -3.365
REMARK INTRA:                  -0.248
REMARK UNBOUND:                -0.249
REMARK SMILES CCCCCC(=O)[O-]
REMARK SMILES IDX 4 1 5 2 6 3 7 4 8 5 3 6 2 7 1 8
REMARK H PARENT
REMARK Flexibility Score: inf
ROOT
ATOM      1  C   UNL     1       5.173  10.962  41.408  1.00  0.00     0.006 C 
ENDROOT
BRANCH   1   2
ATOM      2  C   UNL     1       4.147  10.200  40.565  1.00  0.00     0.053 C 
BRANCH   2   3
ATOM      3  C   UNL     1       4.765   9.725  39.288  1.00  0.00     0.041 C 
ATOM      4  O   UNL     1       5.377   8.624  39.252  1.00  0.00    -0.550 OA
ATOM      5  O   UNL     1       4.625  10.474  38.128  1.00  0.00    -0.550 OA
ENDBRANCH   2   3
ENDBRANCH   1   2
BRANCH   1   6
ATOM      6  C   UNL     1       5.104  12.470  41.129  1.00  0.00     0.000 C 
BRANCH   6   7
ATOM      7  C   UNL     1       6.335  12.988  40.370  1.00  0.00    -0.003 C 
ATOM      8  C   UNL     1       7.498  11.995  40.382  1.00  0.00     0.004 C 
ENDBRANCH   6   7
ENDBRANCH   1   6
TORSDOF 4
ENDMDL
MODEL 8
REMARK VINA RESULT:    -2.695     13.906     15.308
REMARK INTER + INTRA:          -3.574
REMARK INTER:                  -3.484
REMARK INTRA:                  -0.090
REMARK UNBOUND:                -0.249
REMARK SMILES CCCCCC(=O)[O-]
REMARK SMILES IDX 4 1 5 2 6 3 7 4 8 5 3 6 2 7 1 8
REMARK H PARENT
REMARK Flexibility Score: inf
ROOT
ATOM      1  C   UNL     1      15.306  -0.044  36.289  1.00  0.00     0.006 C 
ENDROOT
BRANCH   1   2
ATOM      2  C   UNL     1      15.497   0.776  35.010  1.00  0.00     0.053 C 
BRANCH   2   3
ATOM      3  C   UNL     1      15.236  -0.068  33.803  1.00  0.00     0.041 C 
ATOM      4  O   UNL     1      16.172  -0.721  33.271  1.00  0.00    -0.550 OA
ATOM      5  O   UNL     1      13.948  -0.170  33.293  1.00  0.00    -0.550 OA
ENDBRANCH   2   3
ENDBRANCH   1   2
BRANCH   1   6
ATOM      6  C   UNL     1      15.969   0.646  37.490  1.00  0.00     0.000 C 
BRANCH   6   7
ATOM      7  C   UNL     1      14.952   1.088  38.553  1.00  0.00    -0.003 C 
ATOM      8  C   UNL     1      13.507   0.801  38.145  1.00  0.00     0.004 C 
ENDBRANCH   6   7
ENDBRANCH   1   6
TORSDOF 4
ENDMDL
MODEL 9
REMARK VINA RESULT:    -2.624     14.217     15.401
REMARK INTER + INTRA:          -3.486
REMARK INTER:                  -3.271
REMARK INTRA:                  -0.215
REMARK UNBOUND:                -0.249
REMARK SMILES CCCCCC(=O)[O-]
REMARK SMILES IDX 4 1 5 2 6 3 7 4 8 5 3 6 2 7 1 8
REMARK H PARENT
REMARK Flexibility Score: inf
ROOT
ATOM      1  C   UNL     1      14.757  -0.000  34.261  1.00  0.00     0.006 C 
ENDROOT
BRANCH   1   2
ATOM      2  C   UNL     1      15.168  -0.376  35.688  1.00  0.00     0.053 C 
BRANCH   2   3
ATOM      3  C   UNL     1      14.949   0.775  36.618  1.00  0.00     0.041 C 
ATOM      4  O   UNL     1      14.304   0.612  37.687  1.00  0.00    -0.550 OA
ATOM      5  O   UNL     1      15.497   2.017  36.327  1.00  0.00    -0.550 OA
ENDBRANCH   2   3
ENDBRANCH   1   2
BRANCH   1   6
ATOM      6  C   UNL     1      15.822  -0.442  33.248  1.00  0.00     0.000 C 
BRANCH   6   7
ATOM      7  C   UNL     1      17.024   0.512  33.201  1.00  0.00    -0.003 C 
ATOM      8  C   UNL     1      16.625   1.952  32.875  1.00  0.00     0.004 C 
ENDBRANCH   6   7
ENDBRANCH   1   6
TORSDOF 4
ENDMDL
