MODEL 1
REMARK VINA RESULT:    -6.739      0.000      0.000
REMARK INTER + INTRA:          -9.943
REMARK INTER:                  -9.103
REMARK INTRA:                  -0.840
REMARK UNBOUND:                -0.840
REMARK SMILES CC(=O)CCC=C(C)CCC=C(C)C
REMARK SMILES IDX 7 1 6 2 8 3 9 4 10 5 11 6 13 7 12 8 14 9 5 10 4 11 2 12 3 13
REMARK SMILES IDX 1 14
REMARK H PARENT
REMARK Flexibility Score: inf
ROOT
ATOM      1  C   UNL     1      16.202  25.622   5.970  1.00  0.00    -0.077 C 
ATOM      2  C   UNL     1      16.850  26.525   6.741  1.00  0.00    -0.028 C 
ATOM      3  C   UNL     1      15.490  24.430   6.563  1.00  0.00     0.039 C 
ENDROOT
BRANCH   1   4
ATOM      4  C   UNL     1      16.184  25.818   4.470  1.00  0.00     0.034 C 
BRANCH   4   5
ATOM      5  C   UNL     1      17.534  25.438   3.852  1.00  0.00     0.032 C 
BRANCH   5   6
ATOM      6  C   UNL     1      18.280  26.660   3.371  1.00  0.00    -0.028 C 
ATOM      7  C   UNL     1      20.141  28.266   3.308  1.00  0.00     0.039 C 
ATOM      8  C   UNL     1      19.485  27.027   3.858  1.00  0.00    -0.080 C 
ATOM      9  C   UNL     1      20.180  26.224   4.932  1.00  0.00     0.039 C 
ENDBRANCH   5   6
ENDBRANCH   4   5
ENDBRANCH   1   4
BRANCH   2  10
ATOM     10  C   UNL     1      16.903  26.495   8.252  1.00  0.00     0.035 C 
BRANCH  10  11
ATOM     11  C   UNL     1      18.159  25.768   8.743  1.00  0.00     0.079 C 
BRANCH  11  12
ATOM     12  C   UNL     1      18.681  26.368  10.022  1.00  0.00     0.130 C 
ATOM     13  O   UNL     1      19.603  25.823  10.610  1.00  0.00    -0.300 OA
ATOM     14  C   UNL     1      18.088  27.621  10.593  1.00  0.00     0.087 C 
ENDBRANCH  11  12
ENDBRANCH  10  11
ENDBRANCH   2  10
TORSDOF 6
ENDMDL
MODEL 2
REMARK VINA RESULT:    -6.657      2.121      5.044
REMARK INTER + INTRA:          -9.832
REMARK INTER:                  -8.829
REMARK INTRA:                  -1.003
REMARK UNBOUND:                -0.840
REMARK SMILES CC(=O)CCC=C(C)CCC=C(C)C
REMARK SMILES IDX 7 1 6 2 8 3 9 4 10 5 11 6 13 7 12 8 14 9 5 10 4 11 2 12 3 13
REMARK SMILES IDX 1 14
REMARK H PARENT
REMARK Flexibility Score: inf
ROOT
ATOM      1  C   UNL     1      17.144  24.898   4.984  1.00  0.00    -0.077 C 
ATOM      2  C   UNL     1      17.172  26.028   4.242  1.00  0.00    -0.028 C 
ATOM      3  C   UNL     1      18.294  23.920   4.995  1.00  0.00     0.039 C 
ENDROOT
BRANCH   1   4
ATOM      4  C   UNL     1      15.925  24.609   5.834  1.00  0.00     0.034 C 
BRANCH   4   5
ATOM      5  C   UNL     1      15.757  25.670   6.928  1.00  0.00     0.032 C 
BRANCH   5   6
ATOM      6  C   UNL     1      16.670  25.397   8.100  1.00  0.00    -0.028 C 
ATOM      7  C   UNL     1      18.578  25.810   9.596  1.00  0.00     0.039 C 
ATOM      8  C   UNL     1      17.732  26.173   8.403  1.00  0.00    -0.080 C 
ATOM      9  C   UNL     1      18.084  27.388   7.578  1.00  0.00     0.039 C 
ENDBRANCH   5   6
ENDBRANCH   4   5
ENDBRANCH   1   4
BRANCH   2  10
ATOM     10  C   UNL     1      18.340  26.479   3.394  1.00  0.00     0.035 C 
BRANCH  10  11
ATOM     11  C   UNL     1      19.449  27.081   4.262  1.00  0.00     0.079 C 
BRANCH  11  12
ATOM     12  C   UNL     1      20.814  26.646   3.796  1.00  0.00     0.130 C 
ATOM     13  O   UNL     1      21.251  25.560   4.144  1.00  0.00    -0.300 OA
ATOM     14  C   UNL     1      21.652  27.524   2.917  1.00  0.00     0.087 C 
ENDBRANCH  11  12
ENDBRANCH  10  11
ENDBRANCH   2  10
TORSDOF 6
ENDMDL
MODEL 3
REMARK VINA RESULT:    -6.378      2.588      5.317
REMARK INTER + INTRA:          -9.456
REMARK INTER:                  -9.315
REMARK INTRA:                  -0.141
REMARK UNBOUND:                -0.840
REMARK SMILES CC(=O)CCC=C(C)CCC=C(C)C
REMARK SMILES IDX 7 1 6 2 8 3 9 4 10 5 11 6 13 7 12 8 14 9 5 10 4 11 2 12 3 13
REMARK SMILES IDX 1 14
REMARK H PARENT
REMARK Flexibility Score: inf
ROOT
ATOM      1  C   UNL     1      17.938  25.423   4.519  1.00  0.00    -0.077 C 
ATOM      2  C   UNL     1      18.885  26.389   4.505  1.00  0.00    -0.028 C 
ATOM      3  C   UNL     1      18.244  24.010   4.956  1.00  0.00     0.039 C 
ENDROOT
BRANCH   1   4
ATOM      4  C   UNL     1      16.529  25.771   4.091  1.00  0.00     0.034 C 
BRANCH   4   5
ATOM      5  C   UNL     1      15.627  26.001   5.310  1.00  0.00     0.032 C 
BRANCH   5   6
ATOM      6  C   UNL     1      16.411  26.566   6.471  1.00  0.00    -0.028 C 
ATOM      7  C   UNL     1      17.322  26.593   8.755  1.00  0.00     0.039 C 
ATOM      8  C   UNL     1      16.516  25.940   7.662  1.00  0.00    -0.080 C 
ATOM      9  C   UNL     1      15.847  24.609   7.918  1.00  0.00     0.039 C 
ENDBRANCH   5   6
ENDBRANCH   4   5
ENDBRANCH   1   4
BRANCH   2  10
ATOM     10  C   UNL     1      20.315  26.208   4.960  1.00  0.00     0.035 C 
BRANCH  10  11
ATOM     11  C   UNL     1      21.239  25.931   3.771  1.00  0.00     0.079 C 
BRANCH  11  12
ATOM     12  C   UNL     1      21.644  27.205   3.076  1.00  0.00     0.130 C 
ATOM     13  O   UNL     1      22.775  27.311   2.627  1.00  0.00    -0.300 OA
ATOM     14  C   UNL     1      20.688  28.349   2.929  1.00  0.00     0.087 C 
ENDBRANCH  11  12
ENDBRANCH  10  11
ENDBRANCH   2  10
TORSDOF 6
ENDMDL
MODEL 4
REMARK VINA RESULT:    -6.347      2.432      5.659
REMARK INTER + INTRA:          -9.414
REMARK INTER:                  -8.920
REMARK INTRA:                  -0.494
REMARK UNBOUND:                -0.840
REMARK SMILES CC(=O)CCC=C(C)CCC=C(C)C
REMARK SMILES IDX 7 1 6 2 8 3 9 4 10 5 11 6 13 7 12 8 14 9 5 10 4 11 2 12 3 13
REMARK SMILES IDX 1 14
REMARK H PARENT
REMARK Flexibility Score: inf
ROOT
ATOM      1  C   UNL     1      16.948  26.091   5.656  1.00  0.00    -0.077 C 
ATOM      2  C   UNL     1      18.270  26.322   5.489  1.00  0.00    -0.028 C 
ATOM      3  C   UNL     1      16.046  25.738   4.498  1.00  0.00     0.039 C 
ENDROOT
BRANCH   1   4
ATOM      4  C   UNL     1      16.359  26.183   7.047  1.00  0.00     0.034 C 
BRANCH   4   5
ATOM      5  C   UNL     1      17.391  25.781   8.107  1.00  0.00     0.032 C 
BRANCH   5   6
ATOM      6  C   UNL     1      17.475  26.812   9.207  1.00  0.00    -0.028 C 
ATOM      7  C   UNL     1      18.440  27.890  11.196  1.00  0.00     0.039 C 
ATOM      8  C   UNL     1      18.451  26.814  10.141  1.00  0.00    -0.080 C 
ATOM      9  C   UNL     1      19.541  25.769  10.147  1.00  0.00     0.039 C 
ENDBRANCH   5   6
ENDBRANCH   4   5
ENDBRANCH   1   4
BRANCH   2  10
ATOM     10  C   UNL     1      19.011  26.208   4.175  1.00  0.00     0.035 C 
BRANCH  10  11
ATOM     11  C   UNL     1      20.500  26.517   4.356  1.00  0.00     0.079 C 
BRANCH  11  12
ATOM     12  C   UNL     1      20.992  27.496   3.322  1.00  0.00     0.130 C 
ATOM     13  O   UNL     1      20.305  28.464   3.035  1.00  0.00    -0.300 OA
ATOM     14  C   UNL     1      22.308  27.302   2.630  1.00  0.00     0.087 C 
ENDBRANCH  11  12
ENDBRANCH  10  11
ENDBRANCH   2  10
TORSDOF 6
ENDMDL
MODEL 5
REMARK VINA RESULT:    -6.306      1.511      2.141
REMARK INTER + INTRA:          -9.358
REMARK INTER:                  -8.798
REMARK INTRA:                  -0.560
REMARK UNBOUND:                -0.840
REMARK SMILES CC(=O)CCC=C(C)CCC=C(C)C
REMARK SMILES IDX 7 1 6 2 8 3 9 4 10 5 11 6 13 7 12 8 14 9 5 10 4 11 2 12 3 13
REMARK SMILES IDX 1 14
REMARK H PARENT
REMARK Flexibility Score: inf
ROOT
ATOM      1  C   UNL     1      17.505  25.895   7.144  1.00  0.00    -0.077 C 
ATOM      2  C   UNL     1      18.433  26.053   8.115  1.00  0.00    -0.028 C 
ATOM      3  C   UNL     1      16.136  25.328   7.432  1.00  0.00     0.039 C 
ENDROOT
BRANCH   1   4
ATOM      4  C   UNL     1      17.849  26.305   5.728  1.00  0.00     0.034 C 
BRANCH   4   5
ATOM      5  C   UNL     1      19.183  27.059   5.685  1.00  0.00     0.032 C 
BRANCH   5   6
ATOM      6  C   UNL     1      20.224  26.284   4.914  1.00  0.00    -0.028 C 
ATOM      7  C   UNL     1      21.857  25.909   3.114  1.00  0.00     0.039 C 
ATOM      8  C   UNL     1      20.831  26.766   3.808  1.00  0.00    -0.080 C 
ATOM      9  C   UNL     1      20.504  28.135   3.260  1.00  0.00     0.039 C 
ENDBRANCH   5   6
ENDBRANCH   4   5
ENDBRANCH   1   4
BRANCH   2  10
ATOM     10  C   UNL     1      18.216  25.747   9.580  1.00  0.00     0.035 C 
BRANCH  10  11
ATOM     11  C   UNL     1      19.466  26.078  10.401  1.00  0.00     0.079 C 
BRANCH  11  12
ATOM     12  C   UNL     1      19.336  27.409  11.094  1.00  0.00     0.130 C 
ATOM     13  O   UNL     1      20.334  27.957  11.537  1.00  0.00    -0.300 OA
ATOM     14  C   UNL     1      18.003  28.075  11.257  1.00  0.00     0.087 C 
ENDBRANCH  11  12
ENDBRANCH  10  11
ENDBRANCH   2  10
TORSDOF 6
ENDMDL
MODEL 6
REMARK VINA RESULT:    -5.917      1.525      2.641
REMARK INTER + INTRA:          -8.832
REMARK INTER:                  -8.054
REMARK INTRA:                  -0.778
REMARK UNBOUND:                -0.840
REMARK SMILES CC(=O)CCC=C(C)CCC=C(C)C
REMARK SMILES IDX 7 1 6 2 8 3 9 4 10 5 11 6 13 7 12 8 14 9 5 10 4 11 2 12 3 13
REMARK SMILES IDX 1 14
REMARK H PARENT
REMARK Flexibility Score: inf
ROOT
ATOM      1  C   UNL     1      17.186  26.059   7.962  1.00  0.00    -0.077 C 
ATOM      2  C   UNL     1      17.780  25.382   8.971  1.00  0.00    -0.028 C 
ATOM      3  C   UNL     1      17.827  27.268   7.324  1.00  0.00     0.039 C 
ENDROOT
BRANCH   1   4
ATOM      4  C   UNL     1      15.841  25.585   7.454  1.00  0.00     0.034 C 
BRANCH   4   5
ATOM      5  C   UNL     1      16.008  24.668   6.237  1.00  0.00     0.032 C 
BRANCH   5   6
ATOM      6  C   UNL     1      16.373  25.458   5.003  1.00  0.00    -0.028 C 
ATOM      7  C   UNL     1      17.826  26.177   3.153  1.00  0.00     0.039 C 
ATOM      8  C   UNL     1      17.565  25.340   4.379  1.00  0.00    -0.080 C 
ATOM      9  C   UNL     1      18.630  24.394   4.881  1.00  0.00     0.039 C 
ENDBRANCH   5   6
ENDBRANCH   4   5
ENDBRANCH   1   4
BRANCH   2  10
ATOM     10  C   UNL     1      19.144  25.697   9.542  1.00  0.00     0.035 C 
BRANCH  10  11
ATOM     11  C   UNL     1      19.055  26.008  11.039  1.00  0.00     0.079 C 
BRANCH  11  12
ATOM     12  C   UNL     1      19.111  27.491  11.301  1.00  0.00     0.130 C 
ATOM     13  O   UNL     1      20.183  28.016  11.558  1.00  0.00    -0.300 OA
ATOM     14  C   UNL     1      17.873  28.335  11.258  1.00  0.00     0.087 C 
ENDBRANCH  11  12
ENDBRANCH  10  11
ENDBRANCH   2  10
TORSDOF 6
ENDMDL
MODEL 7
REMARK VINA RESULT:    -5.833      2.538      6.297
REMARK INTER + INTRA:          -8.719
REMARK INTER:                  -8.346
REMARK INTRA:                  -0.373
REMARK UNBOUND:                -0.840
REMARK SMILES CC(=O)CCC=C(C)CCC=C(C)C
REMARK SMILES IDX 7 1 6 2 8 3 9 4 10 5 11 6 13 7 12 8 14 9 5 10 4 11 2 12 3 13
REMARK SMILES IDX 1 14
REMARK H PARENT
REMARK Flexibility Score: inf
ROOT
ATOM      1  C   UNL     1      17.755  26.135   6.970  1.00  0.00    -0.077 C 
ATOM      2  C   UNL     1      18.930  26.425   6.366  1.00  0.00    -0.028 C 
ATOM      3  C   UNL     1      16.444  26.160   6.222  1.00  0.00     0.039 C 
ENDROOT
BRANCH   1   4
ATOM      4  C   UNL     1      17.758  25.766   8.438  1.00  0.00     0.034 C 
BRANCH   4   5
ATOM      5  C   UNL     1      17.475  26.994   9.311  1.00  0.00     0.032 C 
BRANCH   5   6
ATOM      6  C   UNL     1      18.506  27.136  10.405  1.00  0.00    -0.028 C 
ATOM      7  C   UNL     1      19.440  28.025  12.499  1.00  0.00     0.039 C 
ATOM      8  C   UNL     1      18.347  27.959  11.464  1.00  0.00    -0.080 C 
ATOM      9  C   UNL     1      17.107  28.806  11.628  1.00  0.00     0.039 C 
ENDBRANCH   5   6
ENDBRANCH   4   5
ENDBRANCH   1   4
BRANCH   2  10
ATOM     10  C   UNL     1      19.093  26.751   4.898  1.00  0.00     0.035 C 
BRANCH  10  11
ATOM     11  C   UNL     1      20.535  26.512   4.440  1.00  0.00     0.079 C 
BRANCH  11  12
ATOM     12  C   UNL     1      20.933  27.468   3.346  1.00  0.00     0.130 C 
ATOM     13  O   UNL     1      20.196  28.400   3.064  1.00  0.00    -0.300 OA
ATOM     14  C   UNL     1      22.215  27.295   2.589  1.00  0.00     0.087 C 
ENDBRANCH  11  12
ENDBRANCH  10  11
ENDBRANCH   2  10
TORSDOF 6
ENDMDL
MODEL 8
REMARK VINA RESULT:    -5.713      2.260      6.103
REMARK INTER + INTRA:          -8.557
REMARK INTER:                  -7.749
REMARK INTRA:                  -0.808
REMARK UNBOUND:                -0.840
REMARK SMILES CC(=O)CCC=C(C)CCC=C(C)C
REMARK SMILES IDX 7 1 6 2 8 3 9 4 10 5 11 6 13 7 12 8 14 9 5 10 4 11 2 12 3 13
REMARK SMILES IDX 1 14
REMARK H PARENT
REMARK Flexibility Score: inf
ROOT
ATOM      1  C   UNL     1      18.149  26.231   7.942  1.00  0.00    -0.077 C 
ATOM      2  C   UNL     1      19.287  26.230   7.211  1.00  0.00    -0.028 C 
ATOM      3  C   UNL     1      16.873  26.858   7.433  1.00  0.00     0.039 C 
ENDROOT
BRANCH   1   4
ATOM      4  C   UNL     1      18.154  25.578   9.307  1.00  0.00     0.034 C 
BRANCH   4   5
ATOM      5  C   UNL     1      19.378  26.017  10.119  1.00  0.00     0.032 C 
BRANCH   5   6
ATOM      6  C   UNL     1      19.158  27.370  10.753  1.00  0.00    -0.028 C 
ATOM      7  C   UNL     1      18.589  28.924  12.572  1.00  0.00     0.039 C 
ATOM      8  C   UNL     1      18.781  27.528  12.040  1.00  0.00    -0.080 C 
ATOM      9  C   UNL     1      18.551  26.342  12.947  1.00  0.00     0.039 C 
ENDBRANCH   5   6
ENDBRANCH   4   5
ENDBRANCH   1   4
BRANCH   2  10
ATOM     10  C   UNL     1      19.419  26.787   5.812  1.00  0.00     0.035 C 
BRANCH  10  11
ATOM     11  C   UNL     1      19.550  25.661   4.782  1.00  0.00     0.079 C 
BRANCH  11  12
ATOM     12  C   UNL     1      18.246  24.931   4.591  1.00  0.00     0.130 C 
ATOM     13  O   UNL     1      18.153  23.764   4.940  1.00  0.00    -0.300 OA
ATOM     14  C   UNL     1      17.059  25.608   3.975  1.00  0.00     0.087 C 
ENDBRANCH  11  12
ENDBRANCH  10  11
ENDBRANCH   2  10
TORSDOF 6
ENDMDL
MODEL 9
REMARK VINA RESULT:    -5.593      2.212      5.985
REMARK INTER + INTRA:          -8.395
REMARK INTER:                  -7.805
REMARK INTRA:                  -0.590
REMARK UNBOUND:                -0.840
REMARK SMILES CC(=O)CCC=C(C)CCC=C(C)C
REMARK SMILES IDX 7 1 6 2 8 3 9 4 10 5 11 6 13 7 12 8 14 9 5 10 4 11 2 12 3 13
REMARK SMILES IDX 1 14
REMARK H PARENT
REMARK Flexibility Score: inf
ROOT
ATOM      1  C   UNL     1      17.330  26.194   7.656  1.00  0.00    -0.077 C 
ATOM      2  C   UNL     1      16.174  25.808   7.070  1.00  0.00    -0.028 C 
ATOM      3  C   UNL     1      18.240  27.222   7.028  1.00  0.00     0.039 C 
ENDROOT
BRANCH   1   4
ATOM      4  C   UNL     1      17.718  25.581   8.985  1.00  0.00     0.034 C 
BRANCH   4   5
ATOM      5  C   UNL     1      18.640  26.520   9.772  1.00  0.00     0.032 C 
BRANCH   5   6
ATOM      6  C   UNL     1      17.848  27.575  10.507  1.00  0.00    -0.028 C 
ATOM      7  C   UNL     1      17.459  29.290  12.226  1.00  0.00     0.039 C 
ATOM      8  C   UNL     1      18.336  28.258  11.565  1.00  0.00    -0.080 C 
ATOM      9  C   UNL     1      19.729  28.009  12.092  1.00  0.00     0.039 C 
ENDBRANCH   5   6
ENDBRANCH   4   5
ENDBRANCH   1   4
BRANCH   2  10
ATOM     10  C   UNL     1      15.625  26.372   5.779  1.00  0.00     0.035 C 
BRANCH  10  11
ATOM     11  C   UNL     1      15.822  25.388   4.622  1.00  0.00     0.079 C 
BRANCH  11  12
ATOM     12  C   UNL     1      17.259  25.341   4.174  1.00  0.00     0.130 C 
ATOM     13  O   UNL     1      17.945  24.370   4.455  1.00  0.00    -0.300 OA
ATOM     14  C   UNL     1      17.869  26.466   3.393  1.00  0.00     0.087 C 
ENDBRANCH  11  12
ENDBRANCH  10  11
ENDBRANCH   2  10
TORSDOF 6
ENDMDL
