MODEL 1
REMARK VINA RESULT:    -2.544      0.000      0.000
REMARK INTER + INTRA:          -2.544
REMARK INTER:                  -2.544
REMARK INTRA:                   0.000
REMARK UNBOUND:                 0.000
REMARK SMILES CC(=O)[O-]
REMARK SMILES IDX 1 1 2 2 3 3 4 4
REMARK H PARENT
REMARK Flexibility Score: inf
ROOT
ATOM      1  C   UNL     1     -10.619  -0.782   5.904  1.00  0.00     0.063 C 
ATOM      2  C   UNL     1     -10.068   0.356   6.694  1.00  0.00     0.038 C 
ATOM      3  O   UNL     1     -10.817   1.008   7.469  1.00  0.00    -0.550 OA
ATOM      4  O   UNL     1      -8.717   0.669   6.617  1.00  0.00    -0.550 OA
ENDROOT
TORSDOF 0
ENDMDL
MODEL 2
REMARK VINA RESULT:    -2.501      1.259      1.712
REMARK INTER + INTRA:          -2.501
REMARK INTER:                  -2.501
REMARK INTRA:                   0.000
REMARK UNBOUND:                 0.000
REMARK SMILES CC(=O)[O-]
REMARK SMILES IDX 1 1 2 2 3 3 4 4
REMARK H PARENT
REMARK Flexibility Score: inf
ROOT
ATOM      1  C   UNL     1     -10.918  -0.870   5.461  1.00  0.00     0.063 C 
ATOM      2  C   UNL     1     -10.155  -0.474   6.679  1.00  0.00     0.038 C 
ATOM      3  O   UNL     1      -9.342   0.486   6.631  1.00  0.00    -0.550 OA
ATOM      4  O   UNL     1     -10.376  -1.128   7.884  1.00  0.00    -0.550 OA
ENDROOT
TORSDOF 0
ENDMDL
MODEL 3
REMARK VINA RESULT:    -2.461      6.528      6.851
REMARK INTER + INTRA:          -2.461
REMARK INTER:                  -2.461
REMARK INTRA:                   0.000
REMARK UNBOUND:                 0.000
REMARK SMILES CC(=O)[O-]
REMARK SMILES IDX 1 1 2 2 3 3 4 4
REMARK H PARENT
REMARK Flexibility Score: inf
ROOT
ATOM      1  C   UNL     1      -6.448  -5.084   6.379  1.00  0.00     0.063 C 
ATOM      2  C   UNL     1      -6.903  -5.480   7.742  1.00  0.00     0.038 C 
ATOM      3  O   UNL     1      -7.319  -4.607   8.547  1.00  0.00    -0.550 OA
ATOM      4  O   UNL     1      -6.918  -6.820   8.110  1.00  0.00    -0.550 OA
ENDROOT
TORSDOF 0
ENDMDL
MODEL 4
REMARK VINA RESULT:    -2.450      6.510      6.916
REMARK INTER + INTRA:          -2.450
REMARK INTER:                  -2.450
REMARK INTRA:                   0.000
REMARK UNBOUND:                 0.000
REMARK SMILES CC(=O)[O-]
REMARK SMILES IDX 1 1 2 2 3 3 4 4
REMARK H PARENT
REMARK Flexibility Score: inf
ROOT
ATOM      1  C   UNL     1      -6.426  -5.142   6.308  1.00  0.00     0.063 C 
ATOM      2  C   UNL     1      -6.973  -5.567   7.628  1.00  0.00     0.038 C 
ATOM      3  O   UNL     1      -6.950  -6.781   7.960  1.00  0.00    -0.550 OA
ATOM      4  O   UNL     1      -7.461  -4.619   8.519  1.00  0.00    -0.550 OA
ENDROOT
TORSDOF 0
ENDMDL
MODEL 5
REMARK VINA RESULT:    -2.438      6.992      7.320
REMARK INTER + INTRA:          -2.438
REMARK INTER:                  -2.438
REMARK INTRA:                   0.000
REMARK UNBOUND:                 0.000
REMARK SMILES CC(=O)[O-]
REMARK SMILES IDX 1 1 2 2 3 3 4 4
REMARK H PARENT
REMARK Flexibility Score: inf
ROOT
ATOM      1  C   UNL     1      -7.585  -6.453   9.821  1.00  0.00     0.063 C 
ATOM      2  C   UNL     1      -7.218  -5.938   8.471  1.00  0.00     0.038 C 
ATOM      3  O   UNL     1      -7.155  -4.697   8.265  1.00  0.00    -0.550 OA
ATOM      4  O   UNL     1      -6.892  -6.823   7.451  1.00  0.00    -0.550 OA
ENDROOT
TORSDOF 0
ENDMDL
MODEL 6
REMARK VINA RESULT:    -2.423     14.632     15.137
REMARK INTER + INTRA:          -2.423
REMARK INTER:                  -2.423
REMARK INTRA:                   0.000
REMARK UNBOUND:                 0.000
REMARK SMILES CC(=O)[O-]
REMARK SMILES IDX 1 1 2 2 3 3 4 4
REMARK H PARENT
REMARK Flexibility Score: inf
ROOT
ATOM      1  C   UNL     1     -10.342  -6.896  -4.999  1.00  0.00     0.063 C 
ATOM      2  C   UNL     1     -10.419  -7.007  -6.484  1.00  0.00     0.038 C 
ATOM      3  O   UNL     1     -10.841  -6.039  -7.168  1.00  0.00    -0.550 OA
ATOM      4  O   UNL     1      -9.976  -8.160  -7.121  1.00  0.00    -0.550 OA
ENDROOT
TORSDOF 0
ENDMDL
MODEL 7
REMARK VINA RESULT:    -2.386     10.926     11.141
REMARK INTER + INTRA:          -2.386
REMARK INTER:                  -2.386
REMARK INTRA:                   0.000
REMARK UNBOUND:                 0.000
REMARK SMILES CC(=O)[O-]
REMARK SMILES IDX 1 1 2 2 3 3 4 4
REMARK H PARENT
REMARK Flexibility Score: inf
ROOT
ATOM      1  C   UNL     1     -10.760   9.516   0.005  1.00  0.00     0.063 C 
ATOM      2  C   UNL     1     -11.016   8.260  -0.757  1.00  0.00     0.038 C 
ATOM      3  O   UNL     1     -10.569   8.129  -1.927  1.00  0.00    -0.550 OA
ATOM      4  O   UNL     1     -11.703   7.210  -0.161  1.00  0.00    -0.550 OA
ENDROOT
TORSDOF 0
ENDMDL
MODEL 8
REMARK VINA RESULT:    -2.181      5.195      5.604
REMARK INTER + INTRA:          -2.181
REMARK INTER:                  -2.181
REMARK INTRA:                   0.000
REMARK UNBOUND:                 0.000
REMARK SMILES CC(=O)[O-]
REMARK SMILES IDX 1 1 2 2 3 3 4 4
REMARK H PARENT
REMARK Flexibility Score: inf
ROOT
ATOM      1  C   UNL     1      -7.334  -5.533   6.390  1.00  0.00     0.063 C 
ATOM      2  C   UNL     1      -8.518  -4.696   6.047  1.00  0.00     0.038 C 
ATOM      3  O   UNL     1      -8.565  -3.491   6.407  1.00  0.00    -0.550 OA
ATOM      4  O   UNL     1      -9.551  -5.227   5.284  1.00  0.00    -0.550 OA
ENDROOT
TORSDOF 0
ENDMDL
MODEL 9
REMARK VINA RESULT:    -2.173      7.522      8.018
REMARK INTER + INTRA:          -2.173
REMARK INTER:                  -2.173
REMARK INTRA:                   0.000
REMARK UNBOUND:                 0.000
REMARK SMILES CC(=O)[O-]
REMARK SMILES IDX 1 1 2 2 3 3 4 4
REMARK H PARENT
REMARK Flexibility Score: inf
ROOT
ATOM      1  C   UNL     1      -8.627  -6.059   4.867  1.00  0.00     0.063 C 
ATOM      2  C   UNL     1      -7.735  -7.132   5.393  1.00  0.00     0.038 C 
ATOM      3  O   UNL     1      -8.045  -8.343   5.238  1.00  0.00    -0.550 OA
ATOM      4  O   UNL     1      -6.535  -6.802   6.008  1.00  0.00    -0.550 OA
ENDROOT
TORSDOF 0
ENDMDL
