MODEL 1
REMARK VINA RESULT:     1.542      0.000      0.000
REMARK INTER + INTRA:           2.422
REMARK INTER:                   2.623
REMARK INTRA:                  -0.201
REMARK UNBOUND:                -0.201
REMARK SMILES CCCCCCCCCCCCCC(=O)[O-]
REMARK SMILES IDX 8 1 9 2 10 3 11 4 12 5 13 6 14 7 15 8 16 9 7 10 6 11 5 12
REMARK SMILES IDX 4 13 3 14 2 15 1 16
REMARK H PARENT
REMARK Flexibility Score: inf
ROOT
ATOM      1  C   UNL     1      68.838  76.645  97.625  1.00  0.00     0.000 C 
ENDROOT
BRANCH   1   2
ATOM      2  C   UNL     1      67.880  76.250  96.488  1.00  0.00     0.000 C 
BRANCH   2   3
ATOM      3  C   UNL     1      68.125  77.051  95.196  1.00  0.00     0.000 C 
BRANCH   3   4
ATOM      4  C   UNL     1      67.949  76.259  93.884  1.00  0.00     0.000 C 
BRANCH   4   5
ATOM      5  C   UNL     1      68.149  77.077  92.596  1.00  0.00     0.006 C 
BRANCH   5   6
ATOM      6  C   UNL     1      67.983  76.237  91.324  1.00  0.00     0.053 C 
BRANCH   6   7
ATOM      7  C   UNL     1      68.617  74.894  91.500  1.00  0.00     0.041 C 
ATOM      8  O   UNL     1      68.057  73.863  91.041  1.00  0.00    -0.550 OA
ATOM      9  O   UNL     1      69.851  74.784  92.128  1.00  0.00    -0.550 OA
ENDBRANCH   6   7
ENDBRANCH   5   6
ENDBRANCH   4   5
ENDBRANCH   3   4
ENDBRANCH   2   3
ENDBRANCH   1   2
BRANCH   1  10
ATOM     10  C   UNL     1      68.248  77.721  98.557  1.00  0.00     0.000 C 
BRANCH  10  11
ATOM     11  C   UNL     1      68.504  79.175  98.121  1.00  0.00    -0.000 C 
BRANCH  11  12
ATOM     12  C   UNL     1      68.923  80.087  99.287  1.00  0.00    -0.000 C 
BRANCH  12  13
ATOM     13  C   UNL     1      67.875  80.102 100.421  1.00  0.00    -0.000 C 
BRANCH  13  14
ATOM     14  C   UNL     1      68.462  79.779 101.806  1.00  0.00    -0.000 C 
BRANCH  14  15
ATOM     15  C   UNL     1      69.014  78.351 101.902  1.00  0.00    -0.003 C 
ATOM     16  C   UNL     1      68.932  77.824 103.331  1.00  0.00     0.004 C 
ENDBRANCH  14  15
ENDBRANCH  13  14
ENDBRANCH  12  13
ENDBRANCH  11  12
ENDBRANCH  10  11
ENDBRANCH   1  10
TORSDOF 12
ENDMDL
MODEL 2
REMARK VINA RESULT:     3.305      3.895      8.433
REMARK INTER + INTRA:           5.422
REMARK INTER:                   5.791
REMARK INTRA:                  -0.369
REMARK UNBOUND:                -0.201
REMARK SMILES CCCCCCCCCCCCCC(=O)[O-]
REMARK SMILES IDX 8 1 9 2 10 3 11 4 12 5 13 6 14 7 15 8 16 9 7 10 6 11 5 12
REMARK SMILES IDX 4 13 3 14 2 15 1 16
REMARK H PARENT
REMARK Flexibility Score: inf
ROOT
ATOM      1  C   UNL     1      69.521  75.478  96.678  1.00  0.00     0.000 C 
ENDROOT
BRANCH   1   2
ATOM      2  C   UNL     1      68.289  75.743  97.561  1.00  0.00     0.000 C 
BRANCH   2   3
ATOM      3  C   UNL     1      68.427  77.018  98.411  1.00  0.00     0.000 C 
BRANCH   3   4
ATOM      4  C   UNL     1      67.875  78.306  97.765  1.00  0.00     0.000 C 
BRANCH   4   5
ATOM      5  C   UNL     1      68.313  79.616  98.443  1.00  0.00     0.006 C 
BRANCH   5   6
ATOM      6  C   UNL     1      69.469  79.418  99.431  1.00  0.00     0.053 C 
BRANCH   6   7
ATOM      7  C   UNL     1      68.942  79.185 100.811  1.00  0.00     0.041 C 
ATOM      8  O   UNL     1      68.400  80.124 101.451  1.00  0.00    -0.550 OA
ATOM      9  O   UNL     1      69.005  77.916 101.373  1.00  0.00    -0.550 OA
ENDBRANCH   6   7
ENDBRANCH   5   6
ENDBRANCH   4   5
ENDBRANCH   3   4
ENDBRANCH   2   3
ENDBRANCH   1   2
BRANCH   1  10
ATOM     10  C   UNL     1      69.168  75.328  95.187  1.00  0.00     0.000 C 
BRANCH  10  11
ATOM     11  C   UNL     1      68.435  76.530  94.564  1.00  0.00    -0.000 C 
BRANCH  11  12
ATOM     12  C   UNL     1      68.040  76.298  93.095  1.00  0.00    -0.000 C 
BRANCH  12  13
ATOM     13  C   UNL     1      69.204  75.719  92.263  1.00  0.00    -0.000 C 
BRANCH  13  14
ATOM     14  C   UNL     1      68.766  75.159  90.899  1.00  0.00    -0.000 C 
BRANCH  14  15
ATOM     15  C   UNL     1      67.979  73.847  91.016  1.00  0.00    -0.003 C 
ATOM     16  C   UNL     1      68.917  72.645  91.063  1.00  0.00     0.004 C 
ENDBRANCH  14  15
ENDBRANCH  13  14
ENDBRANCH  12  13
ENDBRANCH  11  12
ENDBRANCH  10  11
ENDBRANCH   1  10
TORSDOF 12
ENDMDL
