MODEL 1
REMARK VINA RESULT:    -6.842      0.000      0.000
REMARK INTER + INTRA:         -11.736
REMARK INTER:                 -10.441
REMARK INTRA:                  -1.295
REMARK UNBOUND:                -1.295
REMARK SMILES CC(=O)CCC=C(C)CCC=C(C)CCC=C(C)C
REMARK SMILES IDX 10 1 11 2 12 3 13 4 14 5 15 6 16 7 18 8 17 9 19 10 9 11 7 12
REMARK SMILES IDX 6 13 8 14 5 15 4 16 2 17 3 18 1 19
REMARK H PARENT
REMARK Flexibility Score: inf
ROOT
ATOM      1  C   UNL     1      30.239  18.820  23.272  1.00  0.00     0.032 C 
ENDROOT
BRANCH   1   2
ATOM      2  C   UNL     1      30.889  19.884  22.425  1.00  0.00    -0.028 C 
ATOM      3  C   UNL     1      32.207  20.188  22.457  1.00  0.00    -0.077 C 
ATOM      4  C   UNL     1      33.179  19.432  23.333  1.00  0.00     0.039 C 
BRANCH   3   5
ATOM      5  C   UNL     1      32.722  21.312  21.583  1.00  0.00     0.034 C 
BRANCH   5   6
ATOM      6  C   UNL     1      33.642  20.771  20.482  1.00  0.00     0.032 C 
BRANCH   6   7
ATOM      7  C   UNL     1      33.079  21.054  19.110  1.00  0.00    -0.028 C 
ATOM      8  C   UNL     1      32.022  18.796  18.980  1.00  0.00     0.039 C 
ATOM      9  C   UNL     1      32.341  20.161  18.418  1.00  0.00    -0.080 C 
ATOM     10  C   UNL     1      31.828  20.546  17.054  1.00  0.00     0.039 C 
ENDBRANCH   6   7
ENDBRANCH   5   6
ENDBRANCH   3   5
ENDBRANCH   1   2
BRANCH   1  11
ATOM     11  C   UNL     1      29.588  19.439  24.514  1.00  0.00     0.034 C 
BRANCH  11  12
ATOM     12  C   UNL     1      29.804  18.571  25.740  1.00  0.00    -0.077 C 
ATOM     13  C   UNL     1      28.854  18.360  26.682  1.00  0.00    -0.028 C 
ATOM     14  C   UNL     1      31.146  17.911  25.931  1.00  0.00     0.039 C 
BRANCH  13  15
ATOM     15  C   UNL     1      27.444  18.907  26.655  1.00  0.00     0.035 C 
BRANCH  15  16
ATOM     16  C   UNL     1      27.355  20.250  27.392  1.00  0.00     0.079 C 
BRANCH  16  17
ATOM     17  C   UNL     1      26.916  20.082  28.823  1.00  0.00     0.130 C 
ATOM     18  O   UNL     1      26.080  19.237  29.106  1.00  0.00    -0.300 OA
ATOM     19  C   UNL     1      27.515  20.928  29.905  1.00  0.00     0.087 C 
ENDBRANCH  16  17
ENDBRANCH  15  16
ENDBRANCH  13  15
ENDBRANCH  11  12
ENDBRANCH   1  11
TORSDOF 9
ENDMDL
MODEL 2
REMARK VINA RESULT:    -6.801      1.603      2.341
REMARK INTER + INTRA:         -11.675
REMARK INTER:                 -10.744
REMARK INTRA:                  -0.931
REMARK UNBOUND:                -1.295
REMARK SMILES CC(=O)CCC=C(C)CCC=C(C)CCC=C(C)C
REMARK SMILES IDX 10 1 11 2 12 3 13 4 14 5 15 6 16 7 18 8 17 9 19 10 9 11 7 12
REMARK SMILES IDX 6 13 8 14 5 15 4 16 2 17 3 18 1 19
REMARK H PARENT
REMARK Flexibility Score: inf
ROOT
ATOM      1  C   UNL     1      31.546  20.027  22.987  1.00  0.00     0.032 C 
ENDROOT
BRANCH   1   2
ATOM      2  C   UNL     1      31.616  19.451  21.597  1.00  0.00    -0.028 C 
ATOM      3  C   UNL     1      32.333  19.985  20.581  1.00  0.00    -0.077 C 
ATOM      4  C   UNL     1      33.190  21.215  20.772  1.00  0.00     0.039 C 
BRANCH   3   5
ATOM      5  C   UNL     1      32.281  19.327  19.220  1.00  0.00     0.034 C 
BRANCH   5   6
ATOM      6  C   UNL     1      32.356  20.375  18.102  1.00  0.00     0.032 C 
BRANCH   6   7
ATOM      7  C   UNL     1      33.243  19.910  16.974  1.00  0.00    -0.028 C 
ATOM      8  C   UNL     1      35.046  21.516  17.611  1.00  0.00     0.039 C 
ATOM      9  C   UNL     1      34.469  20.424  16.742  1.00  0.00    -0.080 C 
ATOM     10  C   UNL     1      35.273  19.888  15.585  1.00  0.00     0.039 C 
ENDBRANCH   6   7
ENDBRANCH   5   6
ENDBRANCH   3   5
ENDBRANCH   1   2
BRANCH   1  11
ATOM     11  C   UNL     1      30.316  19.496  23.733  1.00  0.00     0.034 C 
BRANCH  11  12
ATOM     12  C   UNL     1      30.717  18.703  24.963  1.00  0.00    -0.077 C 
ATOM     13  C   UNL     1      29.842  18.325  25.925  1.00  0.00    -0.028 C 
ATOM     14  C   UNL     1      32.164  18.318  25.135  1.00  0.00     0.039 C 
BRANCH  13  15
ATOM     15  C   UNL     1      28.352  18.588  25.920  1.00  0.00     0.035 C 
BRANCH  15  16
ATOM     16  C   UNL     1      28.026  19.941  26.565  1.00  0.00     0.079 C 
BRANCH  16  17
ATOM     17  C   UNL     1      27.041  19.806  27.696  1.00  0.00     0.130 C 
ATOM     18  O   UNL     1      26.451  20.794  28.108  1.00  0.00    -0.300 OA
ATOM     19  C   UNL     1      26.763  18.466  28.305  1.00  0.00     0.087 C 
ENDBRANCH  16  17
ENDBRANCH  15  16
ENDBRANCH  13  15
ENDBRANCH  11  12
ENDBRANCH   1  11
TORSDOF 9
ENDMDL
MODEL 3
REMARK VINA RESULT:    -6.800      3.566      9.313
REMARK INTER + INTRA:         -11.672
REMARK INTER:                 -10.713
REMARK INTRA:                  -0.959
REMARK UNBOUND:                -1.295
REMARK SMILES CC(=O)CCC=C(C)CCC=C(C)CCC=C(C)C
REMARK SMILES IDX 10 1 11 2 12 3 13 4 14 5 15 6 16 7 18 8 17 9 19 10 9 11 7 12
REMARK SMILES IDX 6 13 8 14 5 15 4 16 2 17 3 18 1 19
REMARK H PARENT
REMARK Flexibility Score: inf
ROOT
ATOM      1  C   UNL     1      33.109  20.472  20.463  1.00  0.00     0.032 C 
ENDROOT
BRANCH   1   2
ATOM      2  C   UNL     1      31.895  19.902  21.152  1.00  0.00    -0.028 C 
ATOM      3  C   UNL     1      31.358  20.398  22.290  1.00  0.00    -0.077 C 
ATOM      4  C   UNL     1      31.914  21.631  22.963  1.00  0.00     0.039 C 
BRANCH   3   5
ATOM      5  C   UNL     1      30.161  19.702  22.901  1.00  0.00     0.034 C 
BRANCH   5   6
ATOM      6  C   UNL     1      30.302  19.606  24.424  1.00  0.00     0.032 C 
BRANCH   6   7
ATOM      7  C   UNL     1      28.994  19.225  25.074  1.00  0.00    -0.028 C 
ATOM      8  C   UNL     1      30.156  17.919  26.857  1.00  0.00     0.039 C 
ATOM      9  C   UNL     1      28.917  18.457  26.181  1.00  0.00    -0.080 C 
ATOM     10  C   UNL     1      27.558  18.136  26.747  1.00  0.00     0.039 C 
ENDBRANCH   6   7
ENDBRANCH   5   6
ENDBRANCH   3   5
ENDBRANCH   1   2
BRANCH   1  11
ATOM     11  C   UNL     1      33.328  19.796  19.105  1.00  0.00     0.034 C 
BRANCH  11  12
ATOM     12  C   UNL     1      33.707  20.809  18.040  1.00  0.00    -0.077 C 
ATOM     13  C   UNL     1      33.003  20.987  16.896  1.00  0.00    -0.028 C 
ATOM     14  C   UNL     1      34.932  21.660  18.254  1.00  0.00     0.039 C 
BRANCH  13  15
ATOM     15  C   UNL     1      31.735  20.256  16.513  1.00  0.00     0.035 C 
BRANCH  15  16
ATOM     16  C   UNL     1      32.013  19.185  15.450  1.00  0.00     0.079 C 
BRANCH  16  17
ATOM     17  C   UNL     1      32.628  17.944  16.043  1.00  0.00     0.130 C 
ATOM     18  O   UNL     1      31.978  17.253  16.814  1.00  0.00    -0.300 OA
ATOM     19  C   UNL     1      34.023  17.539  15.677  1.00  0.00     0.087 C 
ENDBRANCH  16  17
ENDBRANCH  15  16
ENDBRANCH  13  15
ENDBRANCH  11  12
ENDBRANCH   1  11
TORSDOF 9
ENDMDL
MODEL 4
REMARK VINA RESULT:    -6.736      3.280      8.479
REMARK INTER + INTRA:         -11.575
REMARK INTER:                 -10.307
REMARK INTRA:                  -1.268
REMARK UNBOUND:                -1.295
REMARK SMILES CC(=O)CCC=C(C)CCC=C(C)CCC=C(C)C
REMARK SMILES IDX 10 1 11 2 12 3 13 4 14 5 15 6 16 7 18 8 17 9 19 10 9 11 7 12
REMARK SMILES IDX 6 13 8 14 5 15 4 16 2 17 3 18 1 19
REMARK H PARENT
REMARK Flexibility Score: inf
ROOT
ATOM      1  C   UNL     1      32.688  19.038  23.470  1.00  0.00     0.032 C 
ENDROOT
BRANCH   1   2
ATOM      2  C   UNL     1      31.563  19.419  24.398  1.00  0.00    -0.028 C 
ATOM      3  C   UNL     1      30.255  19.424  24.054  1.00  0.00    -0.077 C 
ATOM      4  C   UNL     1      29.789  18.987  22.683  1.00  0.00     0.039 C 
BRANCH   3   5
ATOM      5  C   UNL     1      29.229  19.870  25.073  1.00  0.00     0.034 C 
BRANCH   5   6
ATOM      6  C   UNL     1      28.522  18.664  25.703  1.00  0.00     0.032 C 
BRANCH   6   7
ATOM      7  C   UNL     1      29.338  18.076  26.828  1.00  0.00    -0.028 C 
ATOM      8  C   UNL     1      27.443  18.300  28.439  1.00  0.00     0.039 C 
ATOM      9  C   UNL     1      28.856  17.907  28.077  1.00  0.00    -0.080 C 
ATOM     10  C   UNL     1      29.758  17.311  29.127  1.00  0.00     0.039 C 
ENDBRANCH   6   7
ENDBRANCH   5   6
ENDBRANCH   3   5
ENDBRANCH   1   2
BRANCH   1  11
ATOM     11  C   UNL     1      33.569  20.254  23.159  1.00  0.00     0.034 C 
BRANCH  11  12
ATOM     12  C   UNL     1      32.813  21.288  22.345  1.00  0.00    -0.077 C 
ATOM     13  C   UNL     1      32.766  21.284  20.992  1.00  0.00    -0.028 C 
ATOM     14  C   UNL     1      32.080  22.386  23.073  1.00  0.00     0.039 C 
BRANCH  13  15
ATOM     15  C   UNL     1      33.408  20.256  20.087  1.00  0.00     0.035 C 
BRANCH  15  16
ATOM     16  C   UNL     1      32.396  19.185  19.660  1.00  0.00     0.079 C 
BRANCH  16  17
ATOM     17  C   UNL     1      32.182  19.171  18.169  1.00  0.00     0.130 C 
ATOM     18  O   UNL     1      31.993  18.109  17.593  1.00  0.00    -0.300 OA
ATOM     19  C   UNL     1      32.175  20.451  17.391  1.00  0.00     0.087 C 
ENDBRANCH  16  17
ENDBRANCH  15  16
ENDBRANCH  13  15
ENDBRANCH  11  12
ENDBRANCH   1  11
TORSDOF 9
ENDMDL
MODEL 5
REMARK VINA RESULT:    -6.731      2.199      3.765
REMARK INTER + INTRA:         -11.568
REMARK INTER:                 -10.226
REMARK INTRA:                  -1.342
REMARK UNBOUND:                -1.295
REMARK SMILES CC(=O)CCC=C(C)CCC=C(C)CCC=C(C)C
REMARK SMILES IDX 10 1 11 2 12 3 13 4 14 5 15 6 16 7 18 8 17 9 19 10 9 11 7 12
REMARK SMILES IDX 6 13 8 14 5 15 4 16 2 17 3 18 1 19
REMARK H PARENT
REMARK Flexibility Score: inf
ROOT
ATOM      1  C   UNL     1      32.030  21.621  22.868  1.00  0.00     0.032 C 
ENDROOT
BRANCH   1   2
ATOM      2  C   UNL     1      32.924  21.907  21.688  1.00  0.00    -0.028 C 
ATOM      3  C   UNL     1      33.117  21.060  20.651  1.00  0.00    -0.077 C 
ATOM      4  C   UNL     1      32.394  19.736  20.557  1.00  0.00     0.039 C 
BRANCH   3   5
ATOM      5  C   UNL     1      34.077  21.455  19.550  1.00  0.00     0.034 C 
BRANCH   5   6
ATOM      6  C   UNL     1      33.464  21.193  18.169  1.00  0.00     0.032 C 
BRANCH   6   7
ATOM      7  C   UNL     1      34.524  20.827  17.158  1.00  0.00    -0.028 C 
ATOM      8  C   UNL     1      33.693  18.478  17.004  1.00  0.00     0.039 C 
ATOM      9  C   UNL     1      34.636  19.594  16.623  1.00  0.00    -0.080 C 
ATOM     10  C   UNL     1      35.733  19.336  15.621  1.00  0.00     0.039 C 
ENDBRANCH   6   7
ENDBRANCH   5   6
ENDBRANCH   3   5
ENDBRANCH   1   2
BRANCH   1  11
ATOM     11  C   UNL     1      32.856  21.490  24.153  1.00  0.00     0.034 C 
BRANCH  11  12
ATOM     12  C   UNL     1      33.611  20.174  24.192  1.00  0.00    -0.077 C 
ATOM     13  C   UNL     1      33.010  18.975  24.380  1.00  0.00    -0.028 C 
ATOM     14  C   UNL     1      35.108  20.195  24.021  1.00  0.00     0.039 C 
BRANCH  13  15
ATOM     15  C   UNL     1      31.524  18.744  24.540  1.00  0.00     0.035 C 
BRANCH  15  16
ATOM     16  C   UNL     1      31.225  17.900  25.786  1.00  0.00     0.079 C 
BRANCH  16  17
ATOM     17  C   UNL     1      29.920  18.286  26.431  1.00  0.00     0.130 C 
ATOM     18  O   UNL     1      29.684  17.936  27.578  1.00  0.00    -0.300 OA
ATOM     19  C   UNL     1      28.920  19.114  25.685  1.00  0.00     0.087 C 
ENDBRANCH  16  17
ENDBRANCH  15  16
ENDBRANCH  13  15
ENDBRANCH  11  12
ENDBRANCH   1  11
TORSDOF 9
ENDMDL
MODEL 6
REMARK VINA RESULT:    -6.715      5.313      9.302
REMARK INTER + INTRA:         -11.542
REMARK INTER:                 -10.495
REMARK INTRA:                  -1.047
REMARK UNBOUND:                -1.295
REMARK SMILES CC(=O)CCC=C(C)CCC=C(C)CCC=C(C)C
REMARK SMILES IDX 10 1 11 2 12 3 13 4 14 5 15 6 16 7 18 8 17 9 19 10 9 11 7 12
REMARK SMILES IDX 6 13 8 14 5 15 4 16 2 17 3 18 1 19
REMARK H PARENT
REMARK Flexibility Score: inf
ROOT
ATOM      1  C   UNL     1      33.028  21.258  20.458  1.00  0.00     0.032 C 
ENDROOT
BRANCH   1   2
ATOM      2  C   UNL     1      33.582  20.810  21.786  1.00  0.00    -0.028 C 
ATOM      3  C   UNL     1      33.155  21.264  22.987  1.00  0.00    -0.077 C 
ATOM      4  C   UNL     1      32.019  22.254  23.107  1.00  0.00     0.039 C 
BRANCH   3   5
ATOM      5  C   UNL     1      33.830  20.761  24.245  1.00  0.00     0.034 C 
BRANCH   5   6
ATOM      6  C   UNL     1      35.254  20.278  23.946  1.00  0.00     0.032 C 
BRANCH   6   7
ATOM      7  C   UNL     1      35.594  19.045  24.747  1.00  0.00    -0.028 C 
ATOM      8  C   UNL     1      36.919  20.372  26.396  1.00  0.00     0.039 C 
ATOM      9  C   UNL     1      36.352  19.077  25.863  1.00  0.00    -0.080 C 
ATOM     10  C   UNL     1      36.632  17.785  26.587  1.00  0.00     0.039 C 
ENDBRANCH   6   7
ENDBRANCH   5   6
ENDBRANCH   3   5
ENDBRANCH   1   2
BRANCH   1  11
ATOM     11  C   UNL     1      33.353  20.236  19.363  1.00  0.00     0.034 C 
BRANCH  11  12
ATOM     12  C   UNL     1      33.879  20.918  18.113  1.00  0.00    -0.077 C 
ATOM     13  C   UNL     1      33.238  20.888  16.921  1.00  0.00    -0.028 C 
ATOM     14  C   UNL     1      35.188  21.661  18.191  1.00  0.00     0.039 C 
BRANCH  13  15
ATOM     15  C   UNL     1      31.906  20.223  16.648  1.00  0.00     0.035 C 
BRANCH  15  16
ATOM     16  C   UNL     1      32.052  19.090  15.624  1.00  0.00     0.079 C 
BRANCH  16  17
ATOM     17  C   UNL     1      32.786  17.904  16.193  1.00  0.00     0.130 C 
ATOM     18  O   UNL     1      32.294  17.273  17.117  1.00  0.00    -0.300 OA
ATOM     19  C   UNL     1      34.102  17.478  15.619  1.00  0.00     0.087 C 
ENDBRANCH  16  17
ENDBRANCH  15  16
ENDBRANCH  13  15
ENDBRANCH  11  12
ENDBRANCH   1  11
TORSDOF 9
ENDMDL
MODEL 7
REMARK VINA RESULT:    -6.709      1.285      2.184
REMARK INTER + INTRA:         -11.534
REMARK INTER:                 -10.179
REMARK INTRA:                  -1.355
REMARK UNBOUND:                -1.295
REMARK SMILES CC(=O)CCC=C(C)CCC=C(C)CCC=C(C)C
REMARK SMILES IDX 10 1 11 2 12 3 13 4 14 5 15 6 16 7 18 8 17 9 19 10 9 11 7 12
REMARK SMILES IDX 6 13 8 14 5 15 4 16 2 17 3 18 1 19
REMARK H PARENT
REMARK Flexibility Score: inf
ROOT
ATOM      1  C   UNL     1      32.694  19.419  24.253  1.00  0.00     0.032 C 
ENDROOT
BRANCH   1   2
ATOM      2  C   UNL     1      33.049  20.109  22.961  1.00  0.00    -0.028 C 
ATOM      3  C   UNL     1      32.737  21.393  22.667  1.00  0.00    -0.077 C 
ATOM      4  C   UNL     1      32.029  22.287  23.658  1.00  0.00     0.039 C 
BRANCH   3   5
ATOM      5  C   UNL     1      33.117  21.949  21.312  1.00  0.00     0.034 C 
BRANCH   5   6
ATOM      6  C   UNL     1      33.712  20.855  20.418  1.00  0.00     0.032 C 
BRANCH   6   7
ATOM      7  C   UNL     1      33.316  21.050  18.975  1.00  0.00    -0.028 C 
ATOM      8  C   UNL     1      31.684  19.162  19.075  1.00  0.00     0.039 C 
ATOM      9  C   UNL     1      32.394  20.284  18.354  1.00  0.00    -0.080 C 
ATOM     10  C   UNL     1      32.074  20.564  16.909  1.00  0.00     0.039 C 
ENDBRANCH   6   7
ENDBRANCH   5   6
ENDBRANCH   3   5
ENDBRANCH   1   2
BRANCH   1  11
ATOM     11  C   UNL     1      31.705  18.274  24.001  1.00  0.00     0.034 C 
BRANCH  11  12
ATOM     12  C   UNL     1      30.315  18.803  23.701  1.00  0.00    -0.077 C 
ATOM     13  C   UNL     1      29.373  19.008  24.652  1.00  0.00    -0.028 C 
ATOM     14  C   UNL     1      29.952  19.110  22.271  1.00  0.00     0.039 C 
BRANCH  13  15
ATOM     15  C   UNL     1      29.553  18.790  26.138  1.00  0.00     0.035 C 
BRANCH  15  16
ATOM     16  C   UNL     1      28.452  19.498  26.939  1.00  0.00     0.079 C 
BRANCH  16  17
ATOM     17  C   UNL     1      27.528  18.521  27.618  1.00  0.00     0.130 C 
ATOM     18  O   UNL     1      27.722  18.213  28.785  1.00  0.00    -0.300 OA
ATOM     19  C   UNL     1      26.360  17.942  26.880  1.00  0.00     0.087 C 
ENDBRANCH  16  17
ENDBRANCH  15  16
ENDBRANCH  13  15
ENDBRANCH  11  12
ENDBRANCH   1  11
TORSDOF 9
ENDMDL
MODEL 8
REMARK VINA RESULT:    -6.681      4.070      9.640
REMARK INTER + INTRA:         -11.492
REMARK INTER:                 -10.733
REMARK INTRA:                  -0.759
REMARK UNBOUND:                -1.295
REMARK SMILES CC(=O)CCC=C(C)CCC=C(C)CCC=C(C)C
REMARK SMILES IDX 10 1 11 2 12 3 13 4 14 5 15 6 16 7 18 8 17 9 19 10 9 11 7 12
REMARK SMILES IDX 6 13 8 14 5 15 4 16 2 17 3 18 1 19
REMARK H PARENT
REMARK Flexibility Score: inf
ROOT
ATOM      1  C   UNL     1      32.352  19.383  22.327  1.00  0.00     0.032 C 
ENDROOT
BRANCH   1   2
ATOM      2  C   UNL     1      30.973  19.411  22.934  1.00  0.00    -0.028 C 
ATOM      3  C   UNL     1      30.650  18.862  24.127  1.00  0.00    -0.077 C 
ATOM      4  C   UNL     1      31.686  18.196  25.005  1.00  0.00     0.039 C 
BRANCH   3   5
ATOM      5  C   UNL     1      29.214  18.924  24.600  1.00  0.00     0.034 C 
BRANCH   5   6
ATOM      6  C   UNL     1      29.066  19.897  25.775  1.00  0.00     0.032 C 
BRANCH   6   7
ATOM      7  C   UNL     1      27.876  19.544  26.634  1.00  0.00    -0.028 C 
ATOM      8  C   UNL     1      29.238  17.991  28.037  1.00  0.00     0.039 C 
ATOM      9  C   UNL     1      27.944  18.677  27.666  1.00  0.00    -0.080 C 
ATOM     10  C   UNL     1      26.694  18.394  28.458  1.00  0.00     0.039 C 
ENDBRANCH   6   7
ENDBRANCH   5   6
ENDBRANCH   3   5
ENDBRANCH   1   2
BRANCH   1  11
ATOM     11  C   UNL     1      32.303  19.796  20.851  1.00  0.00     0.034 C 
BRANCH  11  12
ATOM     12  C   UNL     1      33.087  21.072  20.609  1.00  0.00    -0.077 C 
ATOM     13  C   UNL     1      33.740  21.339  19.453  1.00  0.00    -0.028 C 
ATOM     14  C   UNL     1      33.155  22.099  21.711  1.00  0.00     0.039 C 
BRANCH  13  15
ATOM     15  C   UNL     1      33.766  20.454  18.226  1.00  0.00     0.035 C 
BRANCH  15  16
ATOM     16  C   UNL     1      34.615  21.079  17.111  1.00  0.00     0.079 C 
BRANCH  16  17
ATOM     17  C   UNL     1      34.870  20.112  15.985  1.00  0.00     0.130 C 
ATOM     18  O   UNL     1      35.912  19.474  15.957  1.00  0.00    -0.300 OA
ATOM     19  C   UNL     1      33.845  19.909  14.911  1.00  0.00     0.087 C 
ENDBRANCH  16  17
ENDBRANCH  15  16
ENDBRANCH  13  15
ENDBRANCH  11  12
ENDBRANCH   1  11
TORSDOF 9
ENDMDL
MODEL 9
REMARK VINA RESULT:    -6.677      3.980      9.404
REMARK INTER + INTRA:         -11.484
REMARK INTER:                 -10.461
REMARK INTRA:                  -1.023
REMARK UNBOUND:                -1.295
REMARK SMILES CC(=O)CCC=C(C)CCC=C(C)CCC=C(C)C
REMARK SMILES IDX 10 1 11 2 12 3 13 4 14 5 15 6 16 7 18 8 17 9 19 10 9 11 7 12
REMARK SMILES IDX 6 13 8 14 5 15 4 16 2 17 3 18 1 19
REMARK H PARENT
REMARK Flexibility Score: inf
ROOT
ATOM      1  C   UNL     1      32.194  19.059  22.173  1.00  0.00     0.032 C 
ENDROOT
BRANCH   1   2
ATOM      2  C   UNL     1      31.102  19.118  23.210  1.00  0.00    -0.028 C 
ATOM      3  C   UNL     1      30.853  20.189  23.998  1.00  0.00    -0.077 C 
ATOM      4  C   UNL     1      31.639  21.474  23.870  1.00  0.00     0.039 C 
BRANCH   3   5
ATOM      5  C   UNL     1      29.750  20.100  25.031  1.00  0.00     0.034 C 
BRANCH   5   6
ATOM      6  C   UNL     1      29.314  18.645  25.241  1.00  0.00     0.032 C 
BRANCH   6   7
ATOM      7  C   UNL     1      29.778  18.121  26.578  1.00  0.00    -0.028 C 
ATOM      8  C   UNL     1      27.476  18.265  27.535  1.00  0.00     0.039 C 
ATOM      9  C   UNL     1      28.949  17.945  27.628  1.00  0.00    -0.080 C 
ATOM     10  C   UNL     1      29.518  17.416  28.920  1.00  0.00     0.039 C 
ENDBRANCH   6   7
ENDBRANCH   5   6
ENDBRANCH   3   5
ENDBRANCH   1   2
BRANCH   1  11
ATOM     11  C   UNL     1      31.639  19.384  20.781  1.00  0.00     0.034 C 
BRANCH  11  12
ATOM     12  C   UNL     1      32.710  19.978  19.885  1.00  0.00    -0.077 C 
ATOM     13  C   UNL     1      33.036  19.468  18.674  1.00  0.00    -0.028 C 
ATOM     14  C   UNL     1      33.460  21.195  20.364  1.00  0.00     0.039 C 
BRANCH  13  15
ATOM     15  C   UNL     1      32.382  18.277  18.009  1.00  0.00     0.035 C 
BRANCH  15  16
ATOM     16  C   UNL     1      32.229  18.501  16.499  1.00  0.00     0.079 C 
BRANCH  16  17
ATOM     17  C   UNL     1      33.521  18.271  15.759  1.00  0.00     0.130 C 
ATOM     18  O   UNL     1      33.936  17.132  15.602  1.00  0.00    -0.300 OA
ATOM     19  C   UNL     1      34.288  19.427  15.194  1.00  0.00     0.087 C 
ENDBRANCH  16  17
ENDBRANCH  15  16
ENDBRANCH  13  15
ENDBRANCH  11  12
ENDBRANCH   1  11
TORSDOF 9
ENDMDL
