MODEL 1
REMARK VINA RESULT:     6.645      0.000      0.000
REMARK INTER + INTRA:          10.911
REMARK INTER:                  11.695
REMARK INTRA:                  -0.783
REMARK UNBOUND:                -0.783
REMARK SMILES CCCCCCCCCCCCCCC(=O)[O-]
REMARK SMILES IDX 9 1 10 2 11 3 12 4 13 5 14 6 15 7 16 8 17 9 8 10 7 11 6 12
REMARK SMILES IDX 5 13 4 14 3 15 2 16 1 17
REMARK H PARENT
REMARK Flexibility Score: inf
ROOT
ATOM      1  C   UNL     1     -30.701  16.493 -10.901  1.00  0.00     0.000 C 
ENDROOT
BRANCH   1   2
ATOM      2  C   UNL     1     -29.260  16.324 -11.404  1.00  0.00     0.000 C 
BRANCH   2   3
ATOM      3  C   UNL     1     -28.881  17.338 -12.499  1.00  0.00     0.000 C 
BRANCH   3   4
ATOM      4  C   UNL     1     -28.863  16.774 -13.931  1.00  0.00     0.000 C 
BRANCH   4   5
ATOM      5  C   UNL     1     -28.780  15.240 -13.969  1.00  0.00     0.006 C 
BRANCH   5   6
ATOM      6  C   UNL     1     -28.077  14.761 -15.244  1.00  0.00     0.053 C 
BRANCH   6   7
ATOM      7  C   UNL     1     -27.187  13.597 -14.945  1.00  0.00     0.041 C 
ATOM      8  O   UNL     1     -27.681  12.504 -14.560  1.00  0.00    -0.550 OA
ATOM      9  O   UNL     1     -25.816  13.703 -15.139  1.00  0.00    -0.550 OA
ENDBRANCH   6   7
ENDBRANCH   5   6
ENDBRANCH   4   5
ENDBRANCH   3   4
ENDBRANCH   2   3
ENDBRANCH   1   2
BRANCH   1  10
ATOM     10  C   UNL     1     -30.894  17.868 -10.244  1.00  0.00     0.000 C 
BRANCH  10  11
ATOM     11  C   UNL     1     -32.299  18.448 -10.478  1.00  0.00    -0.000 C 
BRANCH  11  12
ATOM     12  C   UNL     1     -32.353  19.970 -10.264  1.00  0.00    -0.000 C 
BRANCH  12  13
ATOM     13  C   UNL     1     -31.049  20.672 -10.677  1.00  0.00    -0.000 C 
BRANCH  13  14
ATOM     14  C   UNL     1     -31.199  22.197 -10.767  1.00  0.00    -0.000 C 
BRANCH  14  15
ATOM     15  C   UNL     1     -31.551  22.795  -9.400  1.00  0.00    -0.000 C 
BRANCH  15  16
ATOM     16  C   UNL     1     -32.299  24.125  -9.557  1.00  0.00    -0.003 C 
ATOM     17  C   UNL     1     -33.742  23.897 -10.000  1.00  0.00     0.004 C 
ENDBRANCH  15  16
ENDBRANCH  14  15
ENDBRANCH  13  14
ENDBRANCH  12  13
ENDBRANCH  11  12
ENDBRANCH  10  11
ENDBRANCH   1  10
TORSDOF 13
ENDMDL
MODEL 2
REMARK VINA RESULT:     6.758      4.656      8.710
REMARK INTER + INTRA:          11.110
REMARK INTER:                  10.888
REMARK INTRA:                   0.222
REMARK UNBOUND:                -0.783
REMARK SMILES CCCCCCCCCCCCCCC(=O)[O-]
REMARK SMILES IDX 9 1 10 2 11 3 12 4 13 5 14 6 15 7 16 8 17 9 8 10 7 11 6 12
REMARK SMILES IDX 5 13 4 14 3 15 2 16 1 17
REMARK H PARENT
REMARK Flexibility Score: inf
ROOT
ATOM      1  C   UNL     1     -31.507  16.742 -10.317  1.00  0.00     0.000 C 
ENDROOT
BRANCH   1   2
ATOM      2  C   UNL     1     -31.270  18.260 -10.365  1.00  0.00     0.000 C 
BRANCH   2   3
ATOM      3  C   UNL     1     -32.559  19.063 -10.616  1.00  0.00     0.000 C 
BRANCH   3   4
ATOM      4  C   UNL     1     -32.574  20.478 -10.009  1.00  0.00     0.000 C 
BRANCH   4   5
ATOM      5  C   UNL     1     -31.324  21.295 -10.367  1.00  0.00     0.006 C 
BRANCH   5   6
ATOM      6  C   UNL     1     -31.708  22.611 -11.053  1.00  0.00     0.053 C 
BRANCH   6   7
ATOM      7  C   UNL     1     -32.372  23.533 -10.081  1.00  0.00     0.041 C 
ATOM      8  O   UNL     1     -33.603  23.780 -10.181  1.00  0.00    -0.550 OA
ATOM      9  O   UNL     1     -31.643  24.083  -9.034  1.00  0.00    -0.550 OA
ENDBRANCH   6   7
ENDBRANCH   5   6
ENDBRANCH   4   5
ENDBRANCH   3   4
ENDBRANCH   2   3
ENDBRANCH   1   2
BRANCH   1  10
ATOM     10  C   UNL     1     -30.390  15.990 -11.054  1.00  0.00     0.000 C 
BRANCH  10  11
ATOM     11  C   UNL     1     -29.070  16.776 -11.097  1.00  0.00    -0.000 C 
BRANCH  11  12
ATOM     12  C   UNL     1     -29.036  17.812 -12.234  1.00  0.00    -0.000 C 
BRANCH  12  13
ATOM     13  C   UNL     1     -28.578  17.206 -13.572  1.00  0.00    -0.000 C 
BRANCH  13  14
ATOM     14  C   UNL     1     -29.177  15.816 -13.829  1.00  0.00    -0.000 C 
BRANCH  14  15
ATOM     15  C   UNL     1     -28.438  15.103 -14.967  1.00  0.00    -0.000 C 
BRANCH  15  16
ATOM     16  C   UNL     1     -27.802  13.797 -14.476  1.00  0.00    -0.003 C 
ATOM     17  C   UNL     1     -26.599  13.412 -15.335  1.00  0.00     0.004 C 
ENDBRANCH  15  16
ENDBRANCH  14  15
ENDBRANCH  13  14
ENDBRANCH  12  13
ENDBRANCH  11  12
ENDBRANCH  10  11
ENDBRANCH   1  10
TORSDOF 13
ENDMDL
MODEL 3
REMARK VINA RESULT:     6.887      3.265      3.647
REMARK INTER + INTRA:          11.338
REMARK INTER:                  11.973
REMARK INTRA:                  -0.635
REMARK UNBOUND:                -0.783
REMARK SMILES CCCCCCCCCCCCCCC(=O)[O-]
REMARK SMILES IDX 9 1 10 2 11 3 12 4 13 5 14 6 15 7 16 8 17 9 8 10 7 11 6 12
REMARK SMILES IDX 5 13 4 14 3 15 2 16 1 17
REMARK H PARENT
REMARK Flexibility Score: inf
ROOT
ATOM      1  C   UNL     1     -29.271  17.157 -11.355  1.00  0.00     0.000 C 
ENDROOT
BRANCH   1   2
ATOM      2  C   UNL     1     -28.829  17.404 -12.806  1.00  0.00     0.000 C 
BRANCH   2   3
ATOM      3  C   UNL     1     -29.093  16.200 -13.728  1.00  0.00     0.000 C 
BRANCH   3   4
ATOM      4  C   UNL     1     -29.024  16.507 -15.236  1.00  0.00     0.000 C 
BRANCH   4   5
ATOM      5  C   UNL     1     -29.968  17.642 -15.659  1.00  0.00     0.006 C 
BRANCH   5   6
ATOM      6  C   UNL     1     -30.033  17.760 -17.185  1.00  0.00     0.053 C 
BRANCH   6   7
ATOM      7  C   UNL     1     -30.380  19.158 -17.588  1.00  0.00     0.041 C 
ATOM      8  O   UNL     1     -31.585  19.519 -17.653  1.00  0.00    -0.550 OA
ATOM      9  O   UNL     1     -29.371  20.078 -17.843  1.00  0.00    -0.550 OA
ENDBRANCH   6   7
ENDBRANCH   5   6
ENDBRANCH   4   5
ENDBRANCH   3   4
ENDBRANCH   2   3
ENDBRANCH   1   2
BRANCH   1  10
ATOM     10  C   UNL     1     -29.988  18.389 -10.783  1.00  0.00     0.000 C 
BRANCH  10  11
ATOM     11  C   UNL     1     -31.454  18.108 -10.416  1.00  0.00    -0.000 C 
BRANCH  11  12
ATOM     12  C   UNL     1     -32.375  19.305 -10.703  1.00  0.00    -0.000 C 
BRANCH  12  13
ATOM     13  C   UNL     1     -31.949  20.574  -9.945  1.00  0.00    -0.000 C 
BRANCH  13  14
ATOM     14  C   UNL     1     -32.069  21.844 -10.800  1.00  0.00    -0.000 C 
BRANCH  14  15
ATOM     15  C   UNL     1     -31.190  22.968 -10.237  1.00  0.00    -0.000 C 
BRANCH  15  16
ATOM     16  C   UNL     1     -32.044  24.048  -9.562  1.00  0.00    -0.003 C 
ATOM     17  C   UNL     1     -33.498  23.969 -10.021  1.00  0.00     0.004 C 
ENDBRANCH  15  16
ENDBRANCH  14  15
ENDBRANCH  13  14
ENDBRANCH  12  13
ENDBRANCH  11  12
ENDBRANCH  10  11
ENDBRANCH   1  10
TORSDOF 13
ENDMDL
MODEL 4
REMARK VINA RESULT:     7.036      5.025      8.162
REMARK INTER + INTRA:          11.600
REMARK INTER:                  12.277
REMARK INTRA:                  -0.677
REMARK UNBOUND:                -0.783
REMARK SMILES CCCCCCCCCCCCCCC(=O)[O-]
REMARK SMILES IDX 9 1 10 2 11 3 12 4 13 5 14 6 15 7 16 8 17 9 8 10 7 11 6 12
REMARK SMILES IDX 5 13 4 14 3 15 2 16 1 17
REMARK H PARENT
REMARK Flexibility Score: inf
ROOT
ATOM      1  C   UNL     1     -30.056  16.435 -11.037  1.00  0.00     0.000 C 
ENDROOT
BRANCH   1   2
ATOM      2  C   UNL     1     -31.232  17.215 -10.431  1.00  0.00     0.000 C 
BRANCH   2   3
ATOM      3  C   UNL     1     -31.004  18.738 -10.422  1.00  0.00     0.000 C 
BRANCH   3   4
ATOM      4  C   UNL     1     -32.272  19.588 -10.618  1.00  0.00     0.000 C 
BRANCH   4   5
ATOM      5  C   UNL     1     -32.248  20.894  -9.810  1.00  0.00     0.006 C 
BRANCH   5   6
ATOM      6  C   UNL     1     -31.955  22.094 -10.717  1.00  0.00     0.053 C 
BRANCH   6   7
ATOM      7  C   UNL     1     -32.283  23.373 -10.015  1.00  0.00     0.041 C 
ATOM      8  O   UNL     1     -31.409  23.957  -9.320  1.00  0.00    -0.550 OA
ATOM      9  O   UNL     1     -33.538  23.948 -10.167  1.00  0.00    -0.550 OA
ENDBRANCH   6   7
ENDBRANCH   5   6
ENDBRANCH   4   5
ENDBRANCH   3   4
ENDBRANCH   2   3
ENDBRANCH   1   2
BRANCH   1  10
ATOM     10  C   UNL     1     -28.951  17.391 -11.512  1.00  0.00     0.000 C 
BRANCH  10  11
ATOM     11  C   UNL     1     -28.864  17.486 -13.043  1.00  0.00    -0.000 C 
BRANCH  11  12
ATOM     12  C   UNL     1     -28.989  16.114 -13.729  1.00  0.00    -0.000 C 
BRANCH  12  13
ATOM     13  C   UNL     1     -29.314  16.230 -15.227  1.00  0.00    -0.000 C 
BRANCH  13  14
ATOM     14  C   UNL     1     -29.868  17.611 -15.609  1.00  0.00    -0.000 C 
BRANCH  14  15
ATOM     15  C   UNL     1     -29.899  17.786 -17.132  1.00  0.00    -0.000 C 
BRANCH  15  16
ATOM     16  C   UNL     1     -30.554  19.117 -17.519  1.00  0.00    -0.003 C 
ATOM     17  C   UNL     1     -29.506  20.147 -17.935  1.00  0.00     0.004 C 
ENDBRANCH  15  16
ENDBRANCH  14  15
ENDBRANCH  13  14
ENDBRANCH  12  13
ENDBRANCH  11  12
ENDBRANCH  10  11
ENDBRANCH   1  10
TORSDOF 13
ENDMDL
MODEL 5
REMARK VINA RESULT:     7.051      3.228      4.070
REMARK INTER + INTRA:          11.627
REMARK INTER:                  12.295
REMARK INTRA:                  -0.668
REMARK UNBOUND:                -0.783
REMARK SMILES CCCCCCCCCCCCCCC(=O)[O-]
REMARK SMILES IDX 9 1 10 2 11 3 12 4 13 5 14 6 15 7 16 8 17 9 8 10 7 11 6 12
REMARK SMILES IDX 5 13 4 14 3 15 2 16 1 17
REMARK H PARENT
REMARK Flexibility Score: inf
ROOT
ATOM      1  C   UNL     1     -31.581  16.728 -10.301  1.00  0.00     0.000 C 
ENDROOT
BRANCH   1   2
ATOM      2  C   UNL     1     -30.558  15.908 -11.103  1.00  0.00     0.000 C 
BRANCH   2   3
ATOM      3  C   UNL     1     -29.229  16.653 -11.323  1.00  0.00     0.000 C 
BRANCH   3   4
ATOM      4  C   UNL     1     -28.883  16.946 -12.795  1.00  0.00     0.000 C 
BRANCH   4   5
ATOM      5  C   UNL     1     -28.507  18.415 -13.040  1.00  0.00     0.006 C 
BRANCH   5   6
ATOM      6  C   UNL     1     -28.686  19.246 -11.765  1.00  0.00     0.053 C 
BRANCH   6   7
ATOM      7  C   UNL     1     -28.334  20.677 -12.020  1.00  0.00     0.041 C 
ATOM      8  O   UNL     1     -27.769  21.009 -13.096  1.00  0.00    -0.550 OA
ATOM      9  O   UNL     1     -28.674  21.653 -11.091  1.00  0.00    -0.550 OA
ENDBRANCH   6   7
ENDBRANCH   5   6
ENDBRANCH   4   5
ENDBRANCH   3   4
ENDBRANCH   2   3
ENDBRANCH   1   2
BRANCH   1  10
ATOM     10  C   UNL     1     -31.250  18.227 -10.363  1.00  0.00     0.000 C 
BRANCH  10  11
ATOM     11  C   UNL     1     -32.456  19.086 -10.775  1.00  0.00    -0.000 C 
BRANCH  11  12
ATOM     12  C   UNL     1     -32.587  20.365  -9.932  1.00  0.00    -0.000 C 
BRANCH  12  13
ATOM     13  C   UNL     1     -32.016  21.603 -10.643  1.00  0.00    -0.000 C 
BRANCH  13  14
ATOM     14  C   UNL     1     -31.413  22.623  -9.667  1.00  0.00    -0.000 C 
BRANCH  14  15
ATOM     15  C   UNL     1     -31.851  24.048 -10.023  1.00  0.00    -0.000 C 
BRANCH  15  16
ATOM     16  C   UNL     1     -33.371  24.125 -10.215  1.00  0.00    -0.003 C 
ATOM     17  C   UNL     1     -34.103  23.951  -8.886  1.00  0.00     0.004 C 
ENDBRANCH  15  16
ENDBRANCH  14  15
ENDBRANCH  13  14
ENDBRANCH  12  13
ENDBRANCH  11  12
ENDBRANCH  10  11
ENDBRANCH   1  10
TORSDOF 13
ENDMDL
MODEL 6
REMARK VINA RESULT:     7.123      1.486      2.109
REMARK INTER + INTRA:          11.753
REMARK INTER:                  10.762
REMARK INTRA:                   0.991
REMARK UNBOUND:                -0.783
REMARK SMILES CCCCCCCCCCCCCCC(=O)[O-]
REMARK SMILES IDX 9 1 10 2 11 3 12 4 13 5 14 6 15 7 16 8 17 9 8 10 7 11 6 12
REMARK SMILES IDX 5 13 4 14 3 15 2 16 1 17
REMARK H PARENT
REMARK Flexibility Score: inf
ROOT
ATOM      1  C   UNL     1     -31.525  16.954 -10.548  1.00  0.00     0.000 C 
ENDROOT
BRANCH   1   2
ATOM      2  C   UNL     1     -30.123  16.346 -10.717  1.00  0.00     0.000 C 
BRANCH   2   3
ATOM      3  C   UNL     1     -28.994  17.366 -10.488  1.00  0.00     0.000 C 
BRANCH   3   4
ATOM      4  C   UNL     1     -28.838  18.425 -11.595  1.00  0.00     0.000 C 
BRANCH   4   5
ATOM      5  C   UNL     1     -28.623  17.809 -12.986  1.00  0.00     0.006 C 
BRANCH   5   6
ATOM      6  C   UNL     1     -29.043  16.335 -13.003  1.00  0.00     0.053 C 
BRANCH   6   7
ATOM      7  C   UNL     1     -29.029  15.804 -14.400  1.00  0.00     0.041 C 
ATOM      8  O   UNL     1     -29.757  16.326 -15.286  1.00  0.00    -0.550 OA
ATOM      9  O   UNL     1     -28.175  14.762 -14.739  1.00  0.00    -0.550 OA
ENDBRANCH   6   7
ENDBRANCH   5   6
ENDBRANCH   4   5
ENDBRANCH   3   4
ENDBRANCH   2   3
ENDBRANCH   1   2
BRANCH   1  10
ATOM     10  C   UNL     1     -31.435  18.430 -10.134  1.00  0.00     0.000 C 
BRANCH  10  11
ATOM     11  C   UNL     1     -32.609  19.269 -10.663  1.00  0.00    -0.000 C 
BRANCH  11  12
ATOM     12  C   UNL     1     -32.704  20.647  -9.985  1.00  0.00    -0.000 C 
BRANCH  12  13
ATOM     13  C   UNL     1     -31.926  21.734 -10.745  1.00  0.00    -0.000 C 
BRANCH  13  14
ATOM     14  C   UNL     1     -31.210  22.716  -9.807  1.00  0.00    -0.000 C 
BRANCH  14  15
ATOM     15  C   UNL     1     -31.826  24.116  -9.905  1.00  0.00    -0.000 C 
BRANCH  15  16
ATOM     16  C   UNL     1     -33.340  24.036 -10.139  1.00  0.00    -0.003 C 
ATOM     17  C   UNL     1     -34.106  24.122  -8.821  1.00  0.00     0.004 C 
ENDBRANCH  15  16
ENDBRANCH  14  15
ENDBRANCH  13  14
ENDBRANCH  12  13
ENDBRANCH  11  12
ENDBRANCH  10  11
ENDBRANCH   1  10
TORSDOF 13
ENDMDL
MODEL 7
REMARK VINA RESULT:     7.485      5.041      7.425
REMARK INTER + INTRA:          12.390
REMARK INTER:                  13.015
REMARK INTRA:                  -0.626
REMARK UNBOUND:                -0.783
REMARK SMILES CCCCCCCCCCCCCCC(=O)[O-]
REMARK SMILES IDX 9 1 10 2 11 3 12 4 13 5 14 6 15 7 16 8 17 9 8 10 7 11 6 12
REMARK SMILES IDX 5 13 4 14 3 15 2 16 1 17
REMARK H PARENT
REMARK Flexibility Score: inf
ROOT
ATOM      1  C   UNL     1     -31.523  16.730 -10.363  1.00  0.00     0.000 C 
ENDROOT
BRANCH   1   2
ATOM      2  C   UNL     1     -31.289  18.249 -10.339  1.00  0.00     0.000 C 
BRANCH   2   3
ATOM      3  C   UNL     1     -32.548  19.057 -10.702  1.00  0.00     0.000 C 
BRANCH   3   4
ATOM      4  C   UNL     1     -32.686  20.408  -9.976  1.00  0.00     0.000 C 
BRANCH   4   5
ATOM      5  C   UNL     1     -31.465  21.319 -10.171  1.00  0.00     0.006 C 
BRANCH   5   6
ATOM      6  C   UNL     1     -31.855  22.607 -10.906  1.00  0.00     0.053 C 
BRANCH   6   7
ATOM      7  C   UNL     1     -32.490  23.576  -9.961  1.00  0.00     0.041 C 
ATOM      8  O   UNL     1     -33.711  23.867 -10.076  1.00  0.00    -0.550 OA
ATOM      9  O   UNL     1     -31.748  24.123  -8.922  1.00  0.00    -0.550 OA
ENDBRANCH   6   7
ENDBRANCH   5   6
ENDBRANCH   4   5
ENDBRANCH   3   4
ENDBRANCH   2   3
ENDBRANCH   1   2
BRANCH   1  10
ATOM     10  C   UNL     1     -30.380  16.011 -11.096  1.00  0.00     0.000 C 
BRANCH  10  11
ATOM     11  C   UNL     1     -29.116  16.876 -11.222  1.00  0.00    -0.000 C 
BRANCH  11  12
ATOM     12  C   UNL     1     -28.875  17.364 -12.661  1.00  0.00    -0.000 C 
BRANCH  12  13
ATOM     13  C   UNL     1     -28.385  18.820 -12.717  1.00  0.00    -0.000 C 
BRANCH  13  14
ATOM     14  C   UNL     1     -28.799  19.633 -11.482  1.00  0.00    -0.000 C 
BRANCH  14  15
ATOM     15  C   UNL     1     -28.594  21.134 -11.720  1.00  0.00    -0.000 C 
BRANCH  15  16
ATOM     16  C   UNL     1     -27.779  21.382 -12.995  1.00  0.00    -0.003 C 
ATOM     17  C   UNL     1     -26.434  22.029 -12.673  1.00  0.00     0.004 C 
ENDBRANCH  15  16
ENDBRANCH  14  15
ENDBRANCH  13  14
ENDBRANCH  12  13
ENDBRANCH  11  12
ENDBRANCH  10  11
ENDBRANCH   1  10
TORSDOF 13
ENDMDL
MODEL 8
REMARK VINA RESULT:     7.584      5.412      7.575
REMARK INTER + INTRA:          12.565
REMARK INTER:                  13.440
REMARK INTRA:                  -0.875
REMARK UNBOUND:                -0.783
REMARK SMILES CCCCCCCCCCCCCCC(=O)[O-]
REMARK SMILES IDX 9 1 10 2 11 3 12 4 13 5 14 6 15 7 16 8 17 9 8 10 7 11 6 12
REMARK SMILES IDX 5 13 4 14 3 15 2 16 1 17
REMARK H PARENT
REMARK Flexibility Score: inf
ROOT
ATOM      1  C   UNL     1     -29.830  17.698 -10.452  1.00  0.00     0.000 C 
ENDROOT
BRANCH   1   2
ATOM      2  C   UNL     1     -31.323  17.333 -10.441  1.00  0.00     0.000 C 
BRANCH   2   3
ATOM      3  C   UNL     1     -32.241  18.562 -10.313  1.00  0.00     0.000 C 
BRANCH   3   4
ATOM      4  C   UNL     1     -31.581  19.908 -10.664  1.00  0.00     0.000 C 
BRANCH   4   5
ATOM      5  C   UNL     1     -32.287  21.108 -10.016  1.00  0.00     0.006 C 
BRANCH   5   6
ATOM      6  C   UNL     1     -31.837  22.423 -10.663  1.00  0.00     0.053 C 
BRANCH   6   7
ATOM      7  C   UNL     1     -32.362  23.592  -9.892  1.00  0.00     0.041 C 
ATOM      8  O   UNL     1     -31.661  24.125  -8.992  1.00  0.00    -0.550 OA
ATOM      9  O   UNL     1     -33.608  24.125 -10.200  1.00  0.00    -0.550 OA
ENDBRANCH   6   7
ENDBRANCH   5   6
ENDBRANCH   4   5
ENDBRANCH   3   4
ENDBRANCH   2   3
ENDBRANCH   1   2
BRANCH   1  10
ATOM     10  C   UNL     1     -29.080  16.903 -11.530  1.00  0.00     0.000 C 
BRANCH  10  11
ATOM     11  C   UNL     1     -28.719  17.757 -12.756  1.00  0.00    -0.000 C 
BRANCH  11  12
ATOM     12  C   UNL     1     -28.439  19.225 -12.392  1.00  0.00    -0.000 C 
BRANCH  12  13
ATOM     13  C   UNL     1     -27.757  19.997 -13.534  1.00  0.00    -0.000 C 
BRANCH  13  14
ATOM     14  C   UNL     1     -27.679  21.507 -13.265  1.00  0.00    -0.000 C 
BRANCH  14  15
ATOM     15  C   UNL     1     -26.593  21.824 -12.230  1.00  0.00    -0.000 C 
BRANCH  15  16
ATOM     16  C   UNL     1     -26.147  23.287 -12.331  1.00  0.00    -0.003 C 
ATOM     17  C   UNL     1     -25.204  23.657 -11.188  1.00  0.00     0.004 C 
ENDBRANCH  15  16
ENDBRANCH  14  15
ENDBRANCH  13  14
ENDBRANCH  12  13
ENDBRANCH  11  12
ENDBRANCH  10  11
ENDBRANCH   1  10
TORSDOF 13
ENDMDL
MODEL 9
REMARK VINA RESULT:     8.389      2.354      4.454
REMARK INTER + INTRA:          13.982
REMARK INTER:                  13.354
REMARK INTRA:                   0.628
REMARK UNBOUND:                -0.783
REMARK SMILES CCCCCCCCCCCCCCC(=O)[O-]
REMARK SMILES IDX 9 1 10 2 11 3 12 4 13 5 14 6 15 7 16 8 17 9 8 10 7 11 6 12
REMARK SMILES IDX 5 13 4 14 3 15 2 16 1 17
REMARK H PARENT
REMARK Flexibility Score: inf
ROOT
ATOM      1  C   UNL     1     -32.383  20.515 -10.715  1.00  0.00     0.000 C 
ENDROOT
BRANCH   1   2
ATOM      2  C   UNL     1     -32.572  19.043 -10.319  1.00  0.00     0.000 C 
BRANCH   2   3
ATOM      3  C   UNL     1     -31.273  18.222 -10.418  1.00  0.00     0.000 C 
BRANCH   3   4
ATOM      4  C   UNL     1     -31.464  16.694 -10.386  1.00  0.00     0.000 C 
BRANCH   4   5
ATOM      5  C   UNL     1     -30.302  15.932 -11.040  1.00  0.00     0.006 C 
BRANCH   5   6
ATOM      6  C   UNL     1     -29.103  16.858 -11.276  1.00  0.00     0.053 C 
BRANCH   6   7
ATOM      7  C   UNL     1     -28.879  17.061 -12.740  1.00  0.00     0.041 C 
ATOM      8  O   UNL     1     -28.532  18.190 -13.178  1.00  0.00    -0.550 OA
ATOM      9  O   UNL     1     -29.004  15.992 -13.618  1.00  0.00    -0.550 OA
ENDBRANCH   6   7
ENDBRANCH   5   6
ENDBRANCH   4   5
ENDBRANCH   3   4
ENDBRANCH   2   3
ENDBRANCH   1   2
BRANCH   1  10
ATOM     10  C   UNL     1     -32.685  21.444  -9.529  1.00  0.00     0.000 C 
BRANCH  10  11
ATOM     11  C   UNL     1     -32.772  22.923  -9.939  1.00  0.00    -0.000 C 
BRANCH  11  12
ATOM     12  C   UNL     1     -31.388  23.570 -10.117  1.00  0.00    -0.000 C 
BRANCH  12  13
ATOM     13  C   UNL     1     -30.484  22.777 -11.075  1.00  0.00    -0.000 C 
BRANCH  13  14
ATOM     14  C   UNL     1     -29.708  21.656 -10.367  1.00  0.00    -0.000 C 
BRANCH  14  15
ATOM     15  C   UNL     1     -28.852  20.868 -11.365  1.00  0.00    -0.000 C 
BRANCH  15  16
ATOM     16  C   UNL     1     -27.928  21.802 -12.155  1.00  0.00    -0.003 C 
ATOM     17  C   UNL     1     -27.459  21.146 -13.452  1.00  0.00     0.004 C 
ENDBRANCH  15  16
ENDBRANCH  14  15
ENDBRANCH  13  14
ENDBRANCH  12  13
ENDBRANCH  11  12
ENDBRANCH  10  11
ENDBRANCH   1  10
TORSDOF 13
ENDMDL
