MODEL 1
REMARK VINA RESULT:    -4.966      0.000      0.000
REMARK INTER + INTRA:          -5.956
REMARK INTER:                  -5.837
REMARK INTRA:                  -0.119
REMARK UNBOUND:                -0.119
REMARK SMILES O=C([O-])CCC(=O)[O-]
REMARK SMILES IDX 4 1 2 2 1 3 3 4 5 5 6 6 7 7 8 8
REMARK H PARENT
REMARK Flexibility Score: inf
ROOT
ATOM      1  C   UNL     1      27.599  -3.214  19.314  1.00  0.00     0.059 C 
ENDROOT
BRANCH   1   2
ATOM      2  C   UNL     1      29.064  -3.503  19.185  1.00  0.00     0.042 C 
ATOM      3  O   UNL     1      29.490  -4.200  18.227  1.00  0.00    -0.550 OA
ATOM      4  O   UNL     1      29.962  -2.968  20.099  1.00  0.00    -0.550 OA
ENDBRANCH   1   2
BRANCH   1   5
ATOM      5  C   UNL     1      27.328  -2.127  20.359  1.00  0.00     0.059 C 
BRANCH   5   6
ATOM      6  C   UNL     1      27.063  -0.799  19.717  1.00  0.00     0.042 C 
ATOM      7  O   UNL     1      28.019  -0.105  19.280  1.00  0.00    -0.550 OA
ATOM      8  O   UNL     1      25.765  -0.312  19.637  1.00  0.00    -0.550 OA
ENDBRANCH   5   6
ENDBRANCH   1   5
TORSDOF 3
ENDMDL
MODEL 2
REMARK VINA RESULT:    -4.959      0.085      3.834
REMARK INTER + INTRA:          -5.948
REMARK INTER:                  -5.830
REMARK INTRA:                  -0.118
REMARK UNBOUND:                -0.119
REMARK SMILES O=C([O-])CCC(=O)[O-]
REMARK SMILES IDX 4 1 2 2 1 3 3 4 5 5 6 6 7 7 8 8
REMARK H PARENT
REMARK Flexibility Score: inf
ROOT
ATOM      1  C   UNL     1      27.307  -2.104  20.415  1.00  0.00     0.059 C 
ENDROOT
BRANCH   1   2
ATOM      2  C   UNL     1      27.067  -0.773  19.769  1.00  0.00     0.042 C 
ATOM      3  O   UNL     1      28.030  -0.118  19.292  1.00  0.00    -0.550 OA
ATOM      4  O   UNL     1      25.774  -0.277  19.658  1.00  0.00    -0.550 OA
ENDBRANCH   1   2
BRANCH   1   5
ATOM      5  C   UNL     1      27.593  -3.193  19.376  1.00  0.00     0.059 C 
BRANCH   5   6
ATOM      6  C   UNL     1      29.055  -3.508  19.296  1.00  0.00     0.042 C 
ATOM      7  O   UNL     1      29.855  -3.025  20.141  1.00  0.00    -0.550 OA
ATOM      8  O   UNL     1      29.541  -4.303  18.266  1.00  0.00    -0.550 OA
ENDBRANCH   5   6
ENDBRANCH   1   5
TORSDOF 3
ENDMDL
MODEL 3
REMARK VINA RESULT:    -4.935      0.122      1.150
REMARK INTER + INTRA:          -5.920
REMARK INTER:                  -5.803
REMARK INTRA:                  -0.117
REMARK UNBOUND:                -0.119
REMARK SMILES O=C([O-])CCC(=O)[O-]
REMARK SMILES IDX 4 1 2 2 1 3 3 4 5 5 6 6 7 7 8 8
REMARK H PARENT
REMARK Flexibility Score: inf
ROOT
ATOM      1  C   UNL     1      27.647  -3.114  19.400  1.00  0.00     0.059 C 
ENDROOT
BRANCH   1   2
ATOM      2  C   UNL     1      29.115  -3.390  19.291  1.00  0.00     0.042 C 
ATOM      3  O   UNL     1      29.915  -2.904  20.133  1.00  0.00    -0.550 OA
ATOM      4  O   UNL     1      29.595  -4.217  18.284  1.00  0.00    -0.550 OA
ENDBRANCH   1   2
BRANCH   1   5
ATOM      5  C   UNL     1      27.354  -2.011  20.422  1.00  0.00     0.059 C 
BRANCH   5   6
ATOM      6  C   UNL     1      27.081  -0.698  19.753  1.00  0.00     0.042 C 
ATOM      7  O   UNL     1      28.031  -0.017  19.283  1.00  0.00    -0.550 OA
ATOM      8  O   UNL     1      25.783  -0.209  19.682  1.00  0.00    -0.550 OA
ENDBRANCH   5   6
ENDBRANCH   1   5
TORSDOF 3
ENDMDL
MODEL 4
REMARK VINA RESULT:    -4.847      2.520      3.903
REMARK INTER + INTRA:          -5.816
REMARK INTER:                  -5.739
REMARK INTRA:                  -0.077
REMARK UNBOUND:                -0.119
REMARK SMILES O=C([O-])CCC(=O)[O-]
REMARK SMILES IDX 4 1 2 2 1 3 3 4 5 5 6 6 7 7 8 8
REMARK H PARENT
REMARK Flexibility Score: inf
ROOT
ATOM      1  C   UNL     1      26.934  -4.488  18.563  1.00  0.00     0.059 C 
ENDROOT
BRANCH   1   2
ATOM      2  C   UNL     1      26.122  -5.400  19.432  1.00  0.00     0.042 C 
ATOM      3  O   UNL     1      26.692  -6.257  20.157  1.00  0.00    -0.550 OA
ATOM      4  O   UNL     1      24.739  -5.275  19.471  1.00  0.00    -0.550 OA
ENDBRANCH   1   2
BRANCH   1   5
ATOM      5  C   UNL     1      27.612  -3.384  19.381  1.00  0.00     0.059 C 
BRANCH   5   6
ATOM      6  C   UNL     1      29.105  -3.473  19.297  1.00  0.00     0.042 C 
ATOM      7  O   UNL     1      29.824  -2.851  20.123  1.00  0.00    -0.550 OA
ATOM      8  O   UNL     1      29.702  -4.212  18.284  1.00  0.00    -0.550 OA
ENDBRANCH   5   6
ENDBRANCH   1   5
TORSDOF 3
ENDMDL
MODEL 5
REMARK VINA RESULT:    -4.844      2.565      3.553
REMARK INTER + INTRA:          -5.813
REMARK INTER:                  -5.723
REMARK INTRA:                  -0.090
REMARK UNBOUND:                -0.119
REMARK SMILES O=C([O-])CCC(=O)[O-]
REMARK SMILES IDX 4 1 2 2 1 3 3 4 5 5 6 6 7 7 8 8
REMARK H PARENT
REMARK Flexibility Score: inf
ROOT
ATOM      1  C   UNL     1      27.613  -3.513  19.609  1.00  0.00     0.059 C 
ENDROOT
BRANCH   1   2
ATOM      2  C   UNL     1      29.071  -3.587  19.270  1.00  0.00     0.042 C 
ATOM      3  O   UNL     1      29.449  -4.184  18.228  1.00  0.00    -0.550 OA
ATOM      4  O   UNL     1      30.007  -2.962  20.083  1.00  0.00    -0.550 OA
ENDBRANCH   1   2
BRANCH   1   5
ATOM      5  C   UNL     1      26.774  -4.409  18.693  1.00  0.00     0.059 C 
BRANCH   5   6
ATOM      6  C   UNL     1      26.051  -5.467  19.470  1.00  0.00     0.042 C 
ATOM      7  O   UNL     1      26.698  -6.311  20.145  1.00  0.00    -0.550 OA
ATOM      8  O   UNL     1      24.665  -5.545  19.417  1.00  0.00    -0.550 OA
ENDBRANCH   5   6
ENDBRANCH   1   5
TORSDOF 3
ENDMDL
MODEL 6
REMARK VINA RESULT:    -4.842      2.505      3.905
REMARK INTER + INTRA:          -5.810
REMARK INTER:                  -5.753
REMARK INTRA:                  -0.057
REMARK UNBOUND:                -0.119
REMARK SMILES O=C([O-])CCC(=O)[O-]
REMARK SMILES IDX 4 1 2 2 1 3 3 4 5 5 6 6 7 7 8 8
REMARK H PARENT
REMARK Flexibility Score: inf
ROOT
ATOM      1  C   UNL     1      27.662  -5.162  18.312  1.00  0.00     0.059 C 
ENDROOT
BRANCH   1   2
ATOM      2  C   UNL     1      26.868  -6.150  19.111  1.00  0.00     0.042 C 
ATOM      3  O   UNL     1      26.237  -5.776  20.134  1.00  0.00    -0.550 OA
ATOM      4  O   UNL     1      26.793  -7.476  18.703  1.00  0.00    -0.550 OA
ENDBRANCH   1   2
BRANCH   1   5
ATOM      5  C   UNL     1      27.805  -3.826  19.048  1.00  0.00     0.059 C 
BRANCH   5   6
ATOM      6  C   UNL     1      29.240  -3.410  19.160  1.00  0.00     0.042 C 
ATOM      7  O   UNL     1      30.087  -3.824  18.325  1.00  0.00    -0.550 OA
ATOM      8  O   UNL     1      29.649  -2.596  20.208  1.00  0.00    -0.550 OA
ENDBRANCH   5   6
ENDBRANCH   1   5
TORSDOF 3
ENDMDL
MODEL 7
REMARK VINA RESULT:    -4.501      1.149      3.820
REMARK INTER + INTRA:          -5.410
REMARK INTER:                  -5.334
REMARK INTRA:                  -0.075
REMARK UNBOUND:                -0.119
REMARK SMILES O=C([O-])CCC(=O)[O-]
REMARK SMILES IDX 4 1 2 2 1 3 3 4 5 5 6 6 7 7 8 8
REMARK H PARENT
REMARK Flexibility Score: inf
ROOT
ATOM      1  C   UNL     1      26.816  -2.332  20.021  1.00  0.00     0.059 C 
ENDROOT
BRANCH   1   2
ATOM      2  C   UNL     1      26.847  -0.878  19.658  1.00  0.00     0.042 C 
ATOM      3  O   UNL     1      27.919  -0.344  19.272  1.00  0.00    -0.550 OA
ATOM      4  O   UNL     1      25.681  -0.124  19.707  1.00  0.00    -0.550 OA
ENDBRANCH   1   2
BRANCH   1   5
ATOM      5  C   UNL     1      28.153  -3.017  19.720  1.00  0.00     0.059 C 
BRANCH   5   6
ATOM      6  C   UNL     1      27.998  -4.107  18.704  1.00  0.00     0.042 C 
ATOM      7  O   UNL     1      29.014  -4.656  18.203  1.00  0.00    -0.550 OA
ATOM      8  O   UNL     1      26.731  -4.490  18.283  1.00  0.00    -0.550 OA
ENDBRANCH   5   6
ENDBRANCH   1   5
TORSDOF 3
ENDMDL
MODEL 8
REMARK VINA RESULT:    -4.451      4.098      5.012
REMARK INTER + INTRA:          -5.351
REMARK INTER:                  -5.319
REMARK INTRA:                  -0.033
REMARK UNBOUND:                -0.119
REMARK SMILES O=C([O-])CCC(=O)[O-]
REMARK SMILES IDX 4 1 2 2 1 3 3 4 5 5 6 6 7 7 8 8
REMARK H PARENT
REMARK Flexibility Score: inf
ROOT
ATOM      1  C   UNL     1      25.452  -5.679  19.725  1.00  0.00     0.059 C 
ENDROOT
BRANCH   1   2
ATOM      2  C   UNL     1      24.802  -6.958  20.161  1.00  0.00     0.042 C 
ATOM      3  O   UNL     1      23.548  -7.047  20.207  1.00  0.00    -0.550 OA
ATOM      4  O   UNL     1      25.583  -8.062  20.477  1.00  0.00    -0.550 OA
ENDBRANCH   1   2
BRANCH   1   5
ATOM      5  C   UNL     1      26.960  -5.853  19.521  1.00  0.00     0.059 C 
BRANCH   5   6
ATOM      6  C   UNL     1      27.561  -4.675  18.815  1.00  0.00     0.042 C 
ATOM      7  O   UNL     1      28.561  -4.828  18.066  1.00  0.00    -0.550 OA
ATOM      8  O   UNL     1      27.039  -3.404  19.016  1.00  0.00    -0.550 OA
ENDBRANCH   5   6
ENDBRANCH   1   5
TORSDOF 3
ENDMDL
MODEL 9
REMARK VINA RESULT:    -4.445      4.123      5.278
REMARK INTER + INTRA:          -5.344
REMARK INTER:                  -5.311
REMARK INTRA:                  -0.033
REMARK UNBOUND:                -0.119
REMARK SMILES O=C([O-])CCC(=O)[O-]
REMARK SMILES IDX 4 1 2 2 1 3 3 4 5 5 6 6 7 7 8 8
REMARK H PARENT
REMARK Flexibility Score: inf
ROOT
ATOM      1  C   UNL     1      26.892  -5.769  19.595  1.00  0.00     0.059 C 
ENDROOT
BRANCH   1   2
ATOM      2  C   UNL     1      27.454  -4.636  18.790  1.00  0.00     0.042 C 
ATOM      3  O   UNL     1      27.006  -3.469  18.941  1.00  0.00    -0.550 OA
ATOM      4  O   UNL     1      28.500  -4.863  17.905  1.00  0.00    -0.550 OA
ENDBRANCH   1   2
BRANCH   1   5
ATOM      5  C   UNL     1      25.360  -5.758  19.590  1.00  0.00     0.059 C 
BRANCH   5   6
ATOM      6  C   UNL     1      24.799  -7.045  20.116  1.00  0.00     0.042 C 
ATOM      7  O   UNL     1      23.564  -7.153  20.337  1.00  0.00    -0.550 OA
ATOM      8  O   UNL     1      25.644  -8.109  20.398  1.00  0.00    -0.550 OA
ENDBRANCH   5   6
ENDBRANCH   1   5
TORSDOF 3
ENDMDL
