MODEL 1
REMARK VINA RESULT:    -5.350      0.000      0.000
REMARK INTER + INTRA:         -12.496
REMARK INTER:                 -10.354
REMARK INTRA:                  -2.142
REMARK UNBOUND:                -2.142
REMARK SMILES CCCCCCCCCCCCCCCCCC(=O)[O-]
REMARK SMILES IDX 10 1 11 2 12 3 13 4 14 5 15 6 16 7 17 8 18 9 19 10 20 11
REMARK SMILES IDX 9 12 8 13 7 14 6 15 5 16 4 17 3 18 2 19 1 20
REMARK H PARENT
REMARK Flexibility Score: inf
ROOT
ATOM      1  C   UNL     1      59.342  38.006  38.055  1.00  0.00     0.000 C 
ENDROOT
BRANCH   1   2
ATOM      2  C   UNL     1      57.940  38.565  38.326  1.00  0.00     0.000 C 
BRANCH   2   3
ATOM      3  C   UNL     1      56.855  37.555  37.921  1.00  0.00     0.000 C 
BRANCH   3   4
ATOM      4  C   UNL     1      55.784  37.370  39.006  1.00  0.00     0.000 C 
BRANCH   4   5
ATOM      5  C   UNL     1      56.354  37.498  40.430  1.00  0.00     0.000 C 
BRANCH   5   6
ATOM      6  C   UNL     1      55.272  37.367  41.512  1.00  0.00     0.000 C 
BRANCH   6   7
ATOM      7  C   UNL     1      55.727  36.505  42.703  1.00  0.00     0.006 C 
BRANCH   7   8
ATOM      8  C   UNL     1      54.690  35.439  43.077  1.00  0.00     0.053 C 
BRANCH   8   9
ATOM      9  C   UNL     1      55.186  34.056  42.784  1.00  0.00     0.041 C 
ATOM     10  O   UNL     1      54.871  33.097  43.537  1.00  0.00    -0.550 OA
ATOM     11  O   UNL     1      56.030  33.834  41.704  1.00  0.00    -0.550 OA
ENDBRANCH   8   9
ENDBRANCH   7   8
ENDBRANCH   6   7
ENDBRANCH   5   6
ENDBRANCH   4   5
ENDBRANCH   3   4
ENDBRANCH   2   3
ENDBRANCH   1   2
BRANCH   1  12
ATOM     12  C   UNL     1      59.352  37.138  36.787  1.00  0.00     0.000 C 
BRANCH  12  13
ATOM     13  C   UNL     1      60.767  36.694  36.385  1.00  0.00    -0.000 C 
BRANCH  13  14
ATOM     14  C   UNL     1      61.205  37.267  35.028  1.00  0.00    -0.000 C 
BRANCH  14  15
ATOM     15  C   UNL     1      61.826  38.659  35.193  1.00  0.00    -0.000 C 
BRANCH  15  16
ATOM     16  C   UNL     1      61.006  39.721  34.445  1.00  0.00    -0.000 C 
BRANCH  16  17
ATOM     17  C   UNL     1      60.143  40.584  35.382  1.00  0.00    -0.000 C 
BRANCH  17  18
ATOM     18  C   UNL     1      58.624  40.436  35.188  1.00  0.00    -0.000 C 
BRANCH  18  19
ATOM     19  C   UNL     1      58.257  39.420  34.095  1.00  0.00    -0.003 C 
ATOM     20  C   UNL     1      56.928  38.735  34.405  1.00  0.00     0.004 C 
ENDBRANCH  18  19
ENDBRANCH  17  18
ENDBRANCH  16  17
ENDBRANCH  15  16
ENDBRANCH  14  15
ENDBRANCH  13  14
ENDBRANCH  12  13
ENDBRANCH   1  12
TORSDOF 16
ENDMDL
MODEL 2
REMARK VINA RESULT:    -5.254      7.172     10.255
REMARK INTER + INTRA:         -12.310
REMARK INTER:                 -10.298
REMARK INTRA:                  -2.012
REMARK UNBOUND:                -2.142
REMARK SMILES CCCCCCCCCCCCCCCCCC(=O)[O-]
REMARK SMILES IDX 10 1 11 2 12 3 13 4 14 5 15 6 16 7 17 8 18 9 19 10 20 11
REMARK SMILES IDX 9 12 8 13 7 14 6 15 5 16 4 17 3 18 2 19 1 20
REMARK H PARENT
REMARK Flexibility Score: inf
ROOT
ATOM      1  C   UNL     1      51.704  34.066  43.337  1.00  0.00     0.000 C 
ENDROOT
BRANCH   1   2
ATOM      2  C   UNL     1      50.571  34.123  44.369  1.00  0.00     0.000 C 
BRANCH   2   3
ATOM      3  C   UNL     1      50.795  35.267  45.371  1.00  0.00     0.000 C 
BRANCH   3   4
ATOM      4  C   UNL     1      52.283  35.575  45.594  1.00  0.00     0.000 C 
BRANCH   4   5
ATOM      5  C   UNL     1      52.527  37.029  46.039  1.00  0.00     0.000 C 
BRANCH   5   6
ATOM      6  C   UNL     1      53.754  37.655  45.361  1.00  0.00     0.000 C 
BRANCH   6   7
ATOM      7  C   UNL     1      54.495  36.663  44.446  1.00  0.00     0.006 C 
BRANCH   7   8
ATOM      8  C   UNL     1      54.767  37.249  43.055  1.00  0.00     0.053 C 
BRANCH   8   9
ATOM      9  C   UNL     1      53.541  37.880  42.469  1.00  0.00     0.041 C 
ATOM     10  O   UNL     1      53.432  39.133  42.424  1.00  0.00    -0.550 OA
ATOM     11  O   UNL     1      52.499  37.081  42.013  1.00  0.00    -0.550 OA
ENDBRANCH   8   9
ENDBRANCH   7   8
ENDBRANCH   6   7
ENDBRANCH   5   6
ENDBRANCH   4   5
ENDBRANCH   3   4
ENDBRANCH   2   3
ENDBRANCH   1   2
BRANCH   1  12
ATOM     12  C   UNL     1      51.445  32.965  42.297  1.00  0.00     0.000 C 
BRANCH  12  13
ATOM     13  C   UNL     1      50.515  31.861  42.823  1.00  0.00    -0.000 C 
BRANCH  13  14
ATOM     14  C   UNL     1      50.759  30.506  42.140  1.00  0.00    -0.000 C 
BRANCH  14  15
ATOM     15  C   UNL     1      51.760  29.661  42.939  1.00  0.00    -0.000 C 
BRANCH  15  16
ATOM     16  C   UNL     1      53.165  29.748  42.327  1.00  0.00    -0.000 C 
BRANCH  16  17
ATOM     17  C   UNL     1      54.277  29.848  43.386  1.00  0.00    -0.000 C 
BRANCH  17  18
ATOM     18  C   UNL     1      55.325  30.945  43.127  1.00  0.00    -0.000 C 
BRANCH  18  19
ATOM     19  C   UNL     1      54.910  32.313  43.689  1.00  0.00    -0.003 C 
ATOM     20  C   UNL     1      55.399  33.448  42.792  1.00  0.00     0.004 C 
ENDBRANCH  18  19
ENDBRANCH  17  18
ENDBRANCH  16  17
ENDBRANCH  15  16
ENDBRANCH  14  15
ENDBRANCH  13  14
ENDBRANCH  12  13
ENDBRANCH   1  12
TORSDOF 16
ENDMDL
MODEL 3
REMARK VINA RESULT:    -5.243      7.104     10.526
REMARK INTER + INTRA:         -12.289
REMARK INTER:                 -10.422
REMARK INTRA:                  -1.867
REMARK UNBOUND:                -2.142
REMARK SMILES CCCCCCCCCCCCCCCCCC(=O)[O-]
REMARK SMILES IDX 10 1 11 2 12 3 13 4 14 5 15 6 16 7 17 8 18 9 19 10 20 11
REMARK SMILES IDX 9 12 8 13 7 14 6 15 5 16 4 17 3 18 2 19 1 20
REMARK H PARENT
REMARK Flexibility Score: inf
ROOT
ATOM      1  C   UNL     1      50.612  34.405  44.672  1.00  0.00     0.000 C 
ENDROOT
BRANCH   1   2
ATOM      2  C   UNL     1      50.839  35.549  45.668  1.00  0.00     0.000 C 
BRANCH   2   3
ATOM      3  C   UNL     1      52.329  35.912  45.761  1.00  0.00     0.000 C 
BRANCH   3   4
ATOM      4  C   UNL     1      52.585  37.138  46.650  1.00  0.00     0.000 C 
BRANCH   4   5
ATOM      5  C   UNL     1      53.005  38.379  45.842  1.00  0.00     0.000 C 
BRANCH   5   6
ATOM      6  C   UNL     1      52.370  38.414  44.444  1.00  0.00     0.000 C 
BRANCH   6   7
ATOM      7  C   UNL     1      53.415  38.547  43.323  1.00  0.00     0.006 C 
BRANCH   7   8
ATOM      8  C   UNL     1      53.532  37.267  42.485  1.00  0.00     0.053 C 
BRANCH   8   9
ATOM      9  C   UNL     1      54.717  36.445  42.892  1.00  0.00     0.041 C 
ATOM     10  O   UNL     1      54.910  35.312  42.376  1.00  0.00    -0.550 OA
ATOM     11  O   UNL     1      55.584  36.912  43.872  1.00  0.00    -0.550 OA
ENDBRANCH   8   9
ENDBRANCH   7   8
ENDBRANCH   6   7
ENDBRANCH   5   6
ENDBRANCH   4   5
ENDBRANCH   3   4
ENDBRANCH   2   3
ENDBRANCH   1   2
BRANCH   1  12
ATOM     12  C   UNL     1      51.865  34.164  43.817  1.00  0.00     0.000 C 
BRANCH  12  13
ATOM     13  C   UNL     1      51.578  33.304  42.576  1.00  0.00    -0.000 C 
BRANCH  13  14
ATOM     14  C   UNL     1      50.515  32.225  42.835  1.00  0.00    -0.000 C 
BRANCH  14  15
ATOM     15  C   UNL     1      50.840  30.938  42.068  1.00  0.00    -0.000 C 
BRANCH  15  16
ATOM     16  C   UNL     1      50.935  29.738  43.022  1.00  0.00    -0.000 C 
BRANCH  16  17
ATOM     17  C   UNL     1      52.342  29.117  43.067  1.00  0.00    -0.000 C 
BRANCH  17  18
ATOM     18  C   UNL     1      53.468  30.015  42.522  1.00  0.00    -0.000 C 
BRANCH  18  19
ATOM     19  C   UNL     1      54.674  30.101  43.468  1.00  0.00    -0.003 C 
ATOM     20  C   UNL     1      55.334  31.476  43.393  1.00  0.00     0.004 C 
ENDBRANCH  18  19
ENDBRANCH  17  18
ENDBRANCH  16  17
ENDBRANCH  15  16
ENDBRANCH  14  15
ENDBRANCH  13  14
ENDBRANCH  12  13
ENDBRANCH   1  12
TORSDOF 16
ENDMDL
MODEL 4
REMARK VINA RESULT:    -5.163      7.366      9.943
REMARK INTER + INTRA:         -12.133
REMARK INTER:                 -10.467
REMARK INTRA:                  -1.666
REMARK UNBOUND:                -2.142
REMARK SMILES CCCCCCCCCCCCCCCCCC(=O)[O-]
REMARK SMILES IDX 10 1 11 2 12 3 13 4 14 5 15 6 16 7 17 8 18 9 19 10 20 11
REMARK SMILES IDX 9 12 8 13 7 14 6 15 5 16 4 17 3 18 2 19 1 20
REMARK H PARENT
REMARK Flexibility Score: inf
ROOT
ATOM      1  C   UNL     1      55.523  34.331  42.767  1.00  0.00     0.000 C 
ENDROOT
BRANCH   1   2
ATOM      2  C   UNL     1      54.883  35.594  43.356  1.00  0.00     0.000 C 
BRANCH   2   3
ATOM      3  C   UNL     1      53.354  35.457  43.423  1.00  0.00     0.000 C 
BRANCH   3   4
ATOM      4  C   UNL     1      52.793  35.757  44.821  1.00  0.00     0.000 C 
BRANCH   4   5
ATOM      5  C   UNL     1      53.798  36.508  45.714  1.00  0.00     0.000 C 
BRANCH   5   6
ATOM      6  C   UNL     1      53.383  37.965  45.971  1.00  0.00     0.000 C 
BRANCH   6   7
ATOM      7  C   UNL     1      53.845  38.917  44.854  1.00  0.00     0.006 C 
BRANCH   7   8
ATOM      8  C   UNL     1      52.683  39.368  43.960  1.00  0.00     0.053 C 
BRANCH   8   9
ATOM      9  C   UNL     1      53.118  39.555  42.538  1.00  0.00     0.041 C 
ATOM     10  O   UNL     1      53.030  38.603  41.718  1.00  0.00    -0.550 OA
ATOM     11  O   UNL     1      53.661  40.767  42.130  1.00  0.00    -0.550 OA
ENDBRANCH   8   9
ENDBRANCH   7   8
ENDBRANCH   6   7
ENDBRANCH   5   6
ENDBRANCH   4   5
ENDBRANCH   3   4
ENDBRANCH   2   3
ENDBRANCH   1   2
BRANCH   1  12
ATOM     12  C   UNL     1      54.818  33.066  43.279  1.00  0.00     0.000 C 
BRANCH  12  13
ATOM     13  C   UNL     1      55.589  31.781  42.942  1.00  0.00    -0.000 C 
BRANCH  13  14
ATOM     14  C   UNL     1      54.936  30.524  43.539  1.00  0.00    -0.000 C 
BRANCH  14  15
ATOM     15  C   UNL     1      53.825  29.994  42.623  1.00  0.00    -0.000 C 
BRANCH  15  16
ATOM     16  C   UNL     1      52.849  29.101  43.402  1.00  0.00    -0.000 C 
BRANCH  16  17
ATOM     17  C   UNL     1      51.376  29.371  43.049  1.00  0.00    -0.000 C 
BRANCH  17  18
ATOM     18  C   UNL     1      51.153  30.424  41.948  1.00  0.00    -0.000 C 
BRANCH  18  19
ATOM     19  C   UNL     1      50.326  31.625  42.430  1.00  0.00    -0.003 C 
ATOM     20  C   UNL     1      51.161  32.903  42.430  1.00  0.00     0.004 C 
ENDBRANCH  18  19
ENDBRANCH  17  18
ENDBRANCH  16  17
ENDBRANCH  15  16
ENDBRANCH  14  15
ENDBRANCH  13  14
ENDBRANCH  12  13
ENDBRANCH   1  12
TORSDOF 16
ENDMDL
MODEL 5
REMARK VINA RESULT:    -5.157      6.333      9.347
REMARK INTER + INTRA:         -12.122
REMARK INTER:                 -10.185
REMARK INTRA:                  -1.937
REMARK UNBOUND:                -2.142
REMARK SMILES CCCCCCCCCCCCCCCCCC(=O)[O-]
REMARK SMILES IDX 10 1 11 2 12 3 13 4 14 5 15 6 16 7 17 8 18 9 19 10 20 11
REMARK SMILES IDX 9 12 8 13 7 14 6 15 5 16 4 17 3 18 2 19 1 20
REMARK H PARENT
REMARK Flexibility Score: inf
ROOT
ATOM      1  C   UNL     1      56.028  35.543  42.753  1.00  0.00     0.000 C 
ENDROOT
BRANCH   1   2
ATOM      2  C   UNL     1      55.577  34.089  42.574  1.00  0.00     0.000 C 
BRANCH   2   3
ATOM      3  C   UNL     1      54.474  33.726  43.582  1.00  0.00     0.000 C 
BRANCH   3   4
ATOM      4  C   UNL     1      53.382  32.836  42.969  1.00  0.00     0.000 C 
BRANCH   4   5
ATOM      5  C   UNL     1      52.116  33.626  42.592  1.00  0.00     0.000 C 
BRANCH   5   6
ATOM      6  C   UNL     1      50.825  32.892  42.986  1.00  0.00     0.000 C 
BRANCH   6   7
ATOM      7  C   UNL     1      50.533  31.682  42.082  1.00  0.00     0.006 C 
BRANCH   7   8
ATOM      8  C   UNL     1      50.463  30.370  42.874  1.00  0.00     0.053 C 
BRANCH   8   9
ATOM      9  C   UNL     1      51.647  29.494  42.600  1.00  0.00     0.041 C 
ATOM     10  O   UNL     1      52.125  28.770  43.513  1.00  0.00    -0.550 OA
ATOM     11  O   UNL     1      52.249  29.509  41.348  1.00  0.00    -0.550 OA
ENDBRANCH   8   9
ENDBRANCH   7   8
ENDBRANCH   6   7
ENDBRANCH   5   6
ENDBRANCH   4   5
ENDBRANCH   3   4
ENDBRANCH   2   3
ENDBRANCH   1   2
BRANCH   1  12
ATOM     12  C   UNL     1      55.321  36.466  41.749  1.00  0.00     0.000 C 
BRANCH  12  13
ATOM     13  C   UNL     1      54.465  37.542  42.435  1.00  0.00    -0.000 C 
BRANCH  13  14
ATOM     14  C   UNL     1      52.959  37.252  42.336  1.00  0.00    -0.000 C 
BRANCH  14  15
ATOM     15  C   UNL     1      52.237  37.649  43.630  1.00  0.00    -0.000 C 
BRANCH  15  16
ATOM     16  C   UNL     1      52.418  36.575  44.713  1.00  0.00    -0.000 C 
BRANCH  16  17
ATOM     17  C   UNL     1      53.668  36.801  45.581  1.00  0.00    -0.000 C 
BRANCH  17  18
ATOM     18  C   UNL     1      53.399  36.911  47.093  1.00  0.00    -0.000 C 
BRANCH  18  19
ATOM     19  C   UNL     1      53.133  38.354  47.549  1.00  0.00    -0.003 C 
ATOM     20  C   UNL     1      53.917  39.351  46.699  1.00  0.00     0.004 C 
ENDBRANCH  18  19
ENDBRANCH  17  18
ENDBRANCH  16  17
ENDBRANCH  15  16
ENDBRANCH  14  15
ENDBRANCH  13  14
ENDBRANCH  12  13
ENDBRANCH   1  12
TORSDOF 16
ENDMDL
MODEL 6
REMARK VINA RESULT:    -5.124      6.654      9.498
REMARK INTER + INTRA:         -12.059
REMARK INTER:                  -9.998
REMARK INTRA:                  -2.061
REMARK UNBOUND:                -2.142
REMARK SMILES CCCCCCCCCCCCCCCCCC(=O)[O-]
REMARK SMILES IDX 10 1 11 2 12 3 13 4 14 5 15 6 16 7 17 8 18 9 19 10 20 11
REMARK SMILES IDX 9 12 8 13 7 14 6 15 5 16 4 17 3 18 2 19 1 20
REMARK H PARENT
REMARK Flexibility Score: inf
ROOT
ATOM      1  C   UNL     1      52.015  36.505  46.734  1.00  0.00     0.000 C 
ENDROOT
BRANCH   1   2
ATOM      2  C   UNL     1      51.989  35.461  45.612  1.00  0.00     0.000 C 
BRANCH   2   3
ATOM      3  C   UNL     1      50.552  35.205  45.130  1.00  0.00     0.000 C 
BRANCH   3   4
ATOM      4  C   UNL     1      50.414  33.891  44.347  1.00  0.00     0.000 C 
BRANCH   4   5
ATOM      5  C   UNL     1      51.584  33.654  43.375  1.00  0.00     0.000 C 
BRANCH   5   6
ATOM      6  C   UNL     1      51.198  32.746  42.199  1.00  0.00     0.000 C 
BRANCH   6   7
ATOM      7  C   UNL     1      50.455  31.476  42.651  1.00  0.00     0.006 C 
BRANCH   7   8
ATOM      8  C   UNL     1      50.992  30.214  41.963  1.00  0.00     0.053 C 
BRANCH   8   9
ATOM      9  C   UNL     1      52.121  29.601  42.733  1.00  0.00     0.041 C 
ATOM     10  O   UNL     1      51.893  28.701  43.584  1.00  0.00    -0.550 OA
ATOM     11  O   UNL     1      53.421  30.054  42.542  1.00  0.00    -0.550 OA
ENDBRANCH   8   9
ENDBRANCH   7   8
ENDBRANCH   6   7
ENDBRANCH   5   6
ENDBRANCH   4   5
ENDBRANCH   3   4
ENDBRANCH   2   3
ENDBRANCH   1   2
BRANCH   1  12
ATOM     12  C   UNL     1      53.384  37.199  46.808  1.00  0.00     0.000 C 
BRANCH  12  13
ATOM     13  C   UNL     1      53.288  38.720  46.612  1.00  0.00    -0.000 C 
BRANCH  13  14
ATOM     14  C   UNL     1      53.941  39.192  45.304  1.00  0.00    -0.000 C 
BRANCH  14  15
ATOM     15  C   UNL     1      52.879  39.531  44.251  1.00  0.00    -0.000 C 
BRANCH  15  16
ATOM     16  C   UNL     1      53.217  38.885  42.899  1.00  0.00    -0.000 C 
BRANCH  16  17
ATOM     17  C   UNL     1      52.703  37.440  42.779  1.00  0.00    -0.000 C 
BRANCH  17  18
ATOM     18  C   UNL     1      53.788  36.383  42.506  1.00  0.00    -0.000 C 
BRANCH  18  19
ATOM     19  C   UNL     1      55.203  36.978  42.460  1.00  0.00    -0.003 C 
ATOM     20  C   UNL     1      55.999  36.601  43.707  1.00  0.00     0.004 C 
ENDBRANCH  18  19
ENDBRANCH  17  18
ENDBRANCH  16  17
ENDBRANCH  15  16
ENDBRANCH  14  15
ENDBRANCH  13  14
ENDBRANCH  12  13
ENDBRANCH   1  12
TORSDOF 16
ENDMDL
MODEL 7
REMARK VINA RESULT:    -5.112      6.861      9.928
REMARK INTER + INTRA:         -12.036
REMARK INTER:                 -10.321
REMARK INTRA:                  -1.715
REMARK UNBOUND:                -2.142
REMARK SMILES CCCCCCCCCCCCCCCCCC(=O)[O-]
REMARK SMILES IDX 10 1 11 2 12 3 13 4 14 5 15 6 16 7 17 8 18 9 19 10 20 11
REMARK SMILES IDX 9 12 8 13 7 14 6 15 5 16 4 17 3 18 2 19 1 20
REMARK H PARENT
REMARK Flexibility Score: inf
ROOT
ATOM      1  C   UNL     1      52.367  35.409  43.426  1.00  0.00     0.000 C 
ENDROOT
BRANCH   1   2
ATOM      2  C   UNL     1      51.412  35.164  44.600  1.00  0.00     0.000 C 
BRANCH   2   3
ATOM      3  C   UNL     1      51.871  35.927  45.853  1.00  0.00     0.000 C 
BRANCH   3   4
ATOM      4  C   UNL     1      53.248  36.585  45.674  1.00  0.00     0.000 C 
BRANCH   4   5
ATOM      5  C   UNL     1      53.226  38.095  45.970  1.00  0.00     0.000 C 
BRANCH   5   6
ATOM      6  C   UNL     1      53.717  38.936  44.782  1.00  0.00     0.000 C 
BRANCH   6   7
ATOM      7  C   UNL     1      52.632  39.135  43.710  1.00  0.00     0.006 C 
BRANCH   7   8
ATOM      8  C   UNL     1      53.219  39.599  42.370  1.00  0.00     0.053 C 
BRANCH   8   9
ATOM      9  C   UNL     1      53.460  38.447  41.442  1.00  0.00     0.041 C 
ATOM     10  O   UNL     1      52.600  38.142  40.574  1.00  0.00    -0.550 OA
ATOM     11  O   UNL     1      54.615  37.685  41.565  1.00  0.00    -0.550 OA
ENDBRANCH   8   9
ENDBRANCH   7   8
ENDBRANCH   6   7
ENDBRANCH   5   6
ENDBRANCH   4   5
ENDBRANCH   3   4
ENDBRANCH   2   3
ENDBRANCH   1   2
BRANCH   1  12
ATOM     12  C   UNL     1      52.987  34.091  42.938  1.00  0.00     0.000 C 
BRANCH  12  13
ATOM     13  C   UNL     1      54.144  33.615  43.829  1.00  0.00    -0.000 C 
BRANCH  13  14
ATOM     14  C   UNL     1      55.047  32.586  43.130  1.00  0.00    -0.000 C 
BRANCH  14  15
ATOM     15  C   UNL     1      55.266  31.355  44.018  1.00  0.00    -0.000 C 
BRANCH  15  16
ATOM     16  C   UNL     1      54.894  30.065  43.272  1.00  0.00    -0.000 C 
BRANCH  16  17
ATOM     17  C   UNL     1      53.679  30.237  42.344  1.00  0.00    -0.000 C 
BRANCH  17  18
ATOM     18  C   UNL     1      52.360  29.657  42.886  1.00  0.00    -0.000 C 
BRANCH  18  19
ATOM     19  C   UNL     1      51.145  30.028  42.022  1.00  0.00    -0.003 C 
ATOM     20  C   UNL     1      50.571  31.381  42.435  1.00  0.00     0.004 C 
ENDBRANCH  18  19
ENDBRANCH  17  18
ENDBRANCH  16  17
ENDBRANCH  15  16
ENDBRANCH  14  15
ENDBRANCH  13  14
ENDBRANCH  12  13
ENDBRANCH   1  12
TORSDOF 16
ENDMDL
MODEL 8
REMARK VINA RESULT:    -5.107      1.618      2.271
REMARK INTER + INTRA:         -12.025
REMARK INTER:                 -10.051
REMARK INTRA:                  -1.974
REMARK UNBOUND:                -2.142
REMARK SMILES CCCCCCCCCCCCCCCCCC(=O)[O-]
REMARK SMILES IDX 10 1 11 2 12 3 13 4 14 5 15 6 16 7 17 8 18 9 19 10 20 11
REMARK SMILES IDX 9 12 8 13 7 14 6 15 5 16 4 17 3 18 2 19 1 20
REMARK H PARENT
REMARK Flexibility Score: inf
ROOT
ATOM      1  C   UNL     1      58.082  38.547  38.545  1.00  0.00     0.000 C 
ENDROOT
BRANCH   1   2
ATOM      2  C   UNL     1      57.466  38.179  39.900  1.00  0.00     0.000 C 
BRANCH   2   3
ATOM      3  C   UNL     1      56.003  37.736  39.738  1.00  0.00     0.000 C 
BRANCH   3   4
ATOM      4  C   UNL     1      55.324  37.432  41.082  1.00  0.00     0.000 C 
BRANCH   4   5
ATOM      5  C   UNL     1      55.711  36.051  41.642  1.00  0.00     0.000 C 
BRANCH   5   6
ATOM      6  C   UNL     1      56.002  36.088  43.150  1.00  0.00     0.000 C 
BRANCH   6   7
ATOM      7  C   UNL     1      55.218  37.195  43.877  1.00  0.00     0.006 C 
BRANCH   7   8
ATOM      8  C   UNL     1      54.185  36.625  44.857  1.00  0.00     0.053 C 
BRANCH   8   9
ATOM      9  C   UNL     1      52.964  36.124  44.147  1.00  0.00     0.041 C 
ATOM     10  O   UNL     1      52.589  34.932  44.296  1.00  0.00    -0.550 OA
ATOM     11  O   UNL     1      52.267  36.963  43.287  1.00  0.00    -0.550 OA
ENDBRANCH   8   9
ENDBRANCH   7   8
ENDBRANCH   6   7
ENDBRANCH   5   6
ENDBRANCH   4   5
ENDBRANCH   3   4
ENDBRANCH   2   3
ENDBRANCH   1   2
BRANCH   1  12
ATOM     12  C   UNL     1      57.523  37.655  37.426  1.00  0.00     0.000 C 
BRANCH  12  13
ATOM     13  C   UNL     1      58.628  36.953  36.621  1.00  0.00    -0.000 C 
BRANCH  13  14
ATOM     14  C   UNL     1      60.040  37.360  37.073  1.00  0.00    -0.000 C 
BRANCH  14  15
ATOM     15  C   UNL     1      60.958  37.590  35.867  1.00  0.00    -0.000 C 
BRANCH  15  16
ATOM     16  C   UNL     1      61.629  38.969  35.940  1.00  0.00    -0.000 C 
BRANCH  16  17
ATOM     17  C   UNL     1      60.653  40.091  36.337  1.00  0.00    -0.000 C 
BRANCH  17  18
ATOM     18  C   UNL     1      59.899  40.743  35.164  1.00  0.00    -0.000 C 
BRANCH  18  19
ATOM     19  C   UNL     1      58.379  40.535  35.241  1.00  0.00    -0.003 C 
ATOM     20  C   UNL     1      57.912  39.513  34.208  1.00  0.00     0.004 C 
ENDBRANCH  18  19
ENDBRANCH  17  18
ENDBRANCH  16  17
ENDBRANCH  15  16
ENDBRANCH  14  15
ENDBRANCH  13  14
ENDBRANCH  12  13
ENDBRANCH   1  12
TORSDOF 16
ENDMDL
MODEL 9
REMARK VINA RESULT:    -5.060      3.532      9.234
REMARK INTER + INTRA:         -11.935
REMARK INTER:                  -9.851
REMARK INTRA:                  -2.084
REMARK UNBOUND:                -2.142
REMARK SMILES CCCCCCCCCCCCCCCCCC(=O)[O-]
REMARK SMILES IDX 10 1 11 2 12 3 13 4 14 5 15 6 16 7 17 8 18 9 19 10 20 11
REMARK SMILES IDX 9 12 8 13 7 14 6 15 5 16 4 17 3 18 2 19 1 20
REMARK H PARENT
REMARK Flexibility Score: inf
ROOT
ATOM      1  C   UNL     1      55.752  34.470  42.472  1.00  0.00     0.000 C 
ENDROOT
BRANCH   1   2
ATOM      2  C   UNL     1      56.016  35.810  43.168  1.00  0.00     0.000 C 
BRANCH   2   3
ATOM      3  C   UNL     1      56.371  36.901  42.146  1.00  0.00     0.000 C 
BRANCH   3   4
ATOM      4  C   UNL     1      55.291  37.079  41.069  1.00  0.00     0.000 C 
BRANCH   4   5
ATOM      5  C   UNL     1      55.858  37.616  39.742  1.00  0.00     0.000 C 
BRANCH   5   6
ATOM      6  C   UNL     1      57.223  38.298  39.919  1.00  0.00     0.000 C 
BRANCH   6   7
ATOM      7  C   UNL     1      57.976  38.469  38.588  1.00  0.00     0.006 C 
BRANCH   7   8
ATOM      8  C   UNL     1      57.302  37.708  37.439  1.00  0.00     0.053 C 
BRANCH   8   9
ATOM      9  C   UNL     1      58.022  37.913  36.141  1.00  0.00     0.041 C 
ATOM     10  O   UNL     1      58.952  38.757  36.059  1.00  0.00    -0.550 OA
ATOM     11  O   UNL     1      57.635  37.203  35.012  1.00  0.00    -0.550 OA
ENDBRANCH   8   9
ENDBRANCH   7   8
ENDBRANCH   6   7
ENDBRANCH   5   6
ENDBRANCH   4   5
ENDBRANCH   3   4
ENDBRANCH   2   3
ENDBRANCH   1   2
BRANCH   1  12
ATOM     12  C   UNL     1      54.550  33.750  43.102  1.00  0.00     0.000 C 
BRANCH  12  13
ATOM     13  C   UNL     1      53.294  34.634  43.158  1.00  0.00    -0.000 C 
BRANCH  13  14
ATOM     14  C   UNL     1      52.750  34.802  44.586  1.00  0.00    -0.000 C 
BRANCH  14  15
ATOM     15  C   UNL     1      52.173  36.208  44.791  1.00  0.00    -0.000 C 
BRANCH  15  16
ATOM     16  C   UNL     1      52.350  37.067  43.530  1.00  0.00    -0.000 C 
BRANCH  16  17
ATOM     17  C   UNL     1      53.183  38.336  43.780  1.00  0.00    -0.000 C 
BRANCH  17  18
ATOM     18  C   UNL     1      54.116  38.273  45.002  1.00  0.00    -0.000 C 
BRANCH  18  19
ATOM     19  C   UNL     1      53.781  39.331  46.064  1.00  0.00    -0.003 C 
ATOM     20  C   UNL     1      53.378  38.677  47.384  1.00  0.00     0.004 C 
ENDBRANCH  18  19
ENDBRANCH  17  18
ENDBRANCH  16  17
ENDBRANCH  15  16
ENDBRANCH  14  15
ENDBRANCH  13  14
ENDBRANCH  12  13
ENDBRANCH   1  12
TORSDOF 16
ENDMDL
