MODEL 1
REMARK VINA RESULT:    -7.519      0.000      0.000
REMARK INTER + INTRA:         -11.322
REMARK INTER:                  -9.936
REMARK INTRA:                  -1.386
REMARK UNBOUND:                -1.386
REMARK SMILES CC[C@@H](C=C[C@@H](C)[C@@H]1CC[C@H]2C3=CC[C@H]4C[C@H](O)CC[C@@]4(C)[C@H]3CC[C@]21C)C(C)C
REMARK SMILES IDX 6 1 7 2 5 3 4 4 3 5 2 6 1 7 28 8 29 9 30 10 8 11 9 12 26 13
REMARK SMILES IDX 10 14 11 15 25 16 27 17 12 18 24 19 23 20 13 21 21 22 14 23
REMARK SMILES IDX 15 24 20 25 22 26 16 27 19 28 17 29 18 30
REMARK H PARENT 18 31
REMARK Flexibility Score: inf
ROOT
ATOM      1  C   UNL     1      -5.141  26.888  50.500  1.00  0.00     0.012 C 
ATOM      2  C   UNL     1      -6.114  27.919  49.873  1.00  0.00     0.012 C 
ENDROOT
BRANCH   1   3
ATOM      3  C   UNL     1      -4.155  27.487  51.492  1.00  0.00    -0.028 C 
ATOM      4  C   UNL     1      -3.831  26.976  52.695  1.00  0.00    -0.027 C 
BRANCH   4   5
ATOM      5  C   UNL     1      -2.657  27.520  53.485  1.00  0.00     0.014 C 
BRANCH   5   6
ATOM      6  C   UNL     1      -1.858  28.495  52.581  1.00  0.00     0.004 C 
ATOM      7  C   UNL     1      -1.763  29.932  53.110  1.00  0.00     0.004 C 
ENDBRANCH   5   6
BRANCH   5   8
ATOM      8  C   UNL     1      -1.826  26.373  54.107  1.00  0.00    -0.011 C 
ATOM      9  C   UNL     1      -2.044  25.034  53.348  1.00  0.00     0.008 C 
ATOM     10  C   UNL     1      -0.326  26.749  54.124  1.00  0.00     0.008 C 
ENDBRANCH   5   8
ENDBRANCH   4   5
ENDBRANCH   1   3
BRANCH   1  11
ATOM     11  C   UNL     1      -4.409  25.943  49.479  1.00  0.00     0.002 C 
ATOM     12  C   UNL     1      -4.928  26.073  48.031  1.00  0.00     0.005 C 
ATOM     13  C   UNL     1      -4.395  24.393  49.794  1.00  0.00    -0.023 C 
ATOM     14  C   UNL     1      -5.828  24.881  47.789  1.00  0.00     0.009 C 
ATOM     15  C   UNL     1      -5.271  23.741  48.658  1.00  0.00     0.021 C 
ATOM     16  C   UNL     1      -2.901  23.875  49.752  1.00  0.00     0.008 C 
ATOM     17  C   UNL     1      -4.954  24.013  51.199  1.00  0.00     0.012 C 
ATOM     18  C   UNL     1      -4.479  22.654  47.931  1.00  0.00    -0.067 C 
ATOM     19  C   UNL     1      -2.769  22.323  49.709  1.00  0.00     0.009 C 
ATOM     20  C   UNL     1      -3.898  21.627  48.878  1.00  0.00     0.021 C 
ATOM     21  C   UNL     1      -3.868  22.837  46.740  1.00  0.00    -0.027 C 
ATOM     22  C   UNL     1      -3.561  20.285  48.126  1.00  0.00    -0.023 C 
ATOM     23  C   UNL     1      -2.661  22.013  46.381  1.00  0.00     0.031 C 
ATOM     24  C   UNL     1      -2.865  20.519  46.717  1.00  0.00     0.002 C 
ATOM     25  C   UNL     1      -2.691  19.367  49.029  1.00  0.00     0.010 C 
ATOM     26  C   UNL     1      -4.919  19.572  47.891  1.00  0.00     0.012 C 
ATOM     27  C   UNL     1      -1.529  19.752  46.554  1.00  0.00     0.036 C 
ATOM     28  C   UNL     1      -2.305  18.048  48.331  1.00  0.00     0.032 C 
ATOM     29  C   UNL     1      -1.669  18.269  46.922  1.00  0.00     0.114 C 
BRANCH  29  30
ATOM     30  O   UNL     1      -2.434  17.625  45.944  1.00  0.00    -0.393 OA
ATOM     31  H   UNL     1      -2.707  18.321  45.285  1.00  0.00     0.210 HD
ENDBRANCH  29  30
ENDBRANCH   1  11
TORSDOF 6
ENDMDL
MODEL 2
REMARK VINA RESULT:    -7.450      3.044      5.854
REMARK INTER + INTRA:         -11.231
REMARK INTER:                 -10.334
REMARK INTRA:                  -0.896
REMARK UNBOUND:                -1.386
REMARK SMILES CC[C@@H](C=C[C@@H](C)[C@@H]1CC[C@H]2C3=CC[C@H]4C[C@H](O)CC[C@@]4(C)[C@H]3CC[C@]21C)C(C)C
REMARK SMILES IDX 6 1 7 2 5 3 4 4 3 5 2 6 1 7 28 8 29 9 30 10 8 11 9 12 26 13
REMARK SMILES IDX 10 14 11 15 25 16 27 17 12 18 24 19 23 20 13 21 21 22 14 23
REMARK SMILES IDX 15 24 20 25 22 26 16 27 19 28 17 29 18 30
REMARK H PARENT 18 31
REMARK Flexibility Score: inf
ROOT
ATOM      1  C   UNL     1      -6.430  27.300  48.382  1.00  0.00     0.012 C 
ATOM      2  C   UNL     1      -6.922  27.712  49.793  1.00  0.00     0.012 C 
ENDROOT
BRANCH   1   3
ATOM      3  C   UNL     1      -7.269  27.859  47.242  1.00  0.00    -0.028 C 
ATOM      4  C   UNL     1      -8.517  28.353  47.345  1.00  0.00    -0.027 C 
BRANCH   4   5
ATOM      5  C   UNL     1      -9.155  29.110  46.197  1.00  0.00     0.014 C 
BRANCH   5   6
ATOM      6  C   UNL     1      -8.541  30.533  46.135  1.00  0.00     0.004 C 
ATOM      7  C   UNL     1      -9.396  31.573  45.401  1.00  0.00     0.004 C 
ENDBRANCH   5   6
BRANCH   5   8
ATOM      8  C   UNL     1     -10.699  29.067  46.291  1.00  0.00    -0.011 C 
ATOM      9  C   UNL     1     -11.339  28.590  44.957  1.00  0.00     0.008 C 
ATOM     10  C   UNL     1     -11.137  28.155  47.460  1.00  0.00     0.008 C 
ENDBRANCH   5   8
ENDBRANCH   4   5
ENDBRANCH   1   3
BRANCH   1  11
ATOM     11  C   UNL     1      -6.161  25.764  48.182  1.00  0.00     0.002 C 
ATOM     12  C   UNL     1      -6.718  24.884  49.320  1.00  0.00     0.005 C 
ATOM     13  C   UNL     1      -4.662  25.303  47.974  1.00  0.00    -0.023 C 
ATOM     14  C   UNL     1      -5.539  24.511  50.192  1.00  0.00     0.009 C 
ATOM     15  C   UNL     1      -4.317  24.458  49.259  1.00  0.00     0.021 C 
ATOM     16  C   UNL     1      -4.571  24.431  46.658  1.00  0.00     0.008 C 
ATOM     17  C   UNL     1      -3.643  26.470  47.801  1.00  0.00     0.012 C 
ATOM     18  C   UNL     1      -3.821  23.066  48.864  1.00  0.00    -0.067 C 
ATOM     19  C   UNL     1      -3.239  23.637  46.513  1.00  0.00     0.009 C 
ATOM     20  C   UNL     1      -2.676  23.115  47.877  1.00  0.00     0.021 C 
ATOM     21  C   UNL     1      -4.594  21.958  48.886  1.00  0.00    -0.027 C 
ATOM     22  C   UNL     1      -1.855  21.772  47.889  1.00  0.00    -0.023 C 
ATOM     23  C   UNL     1      -4.286  20.811  47.961  1.00  0.00     0.031 C 
ATOM     24  C   UNL     1      -2.778  20.479  47.938  1.00  0.00     0.002 C 
ATOM     25  C   UNL     1      -0.893  21.720  46.671  1.00  0.00     0.010 C 
ATOM     26  C   UNL     1      -0.991  21.808  49.177  1.00  0.00     0.012 C 
ATOM     27  C   UNL     1      -2.476  19.462  46.810  1.00  0.00     0.036 C 
ATOM     28  C   UNL     1      -0.083  20.409  46.614  1.00  0.00     0.032 C 
ATOM     29  C   UNL     1      -0.980  19.135  46.716  1.00  0.00     0.114 C 
BRANCH  29  30
ATOM     30  O   UNL     1      -0.607  18.375  47.829  1.00  0.00    -0.393 OA
ATOM     31  H   UNL     1      -1.023  18.804  48.626  1.00  0.00     0.210 HD
ENDBRANCH  29  30
ENDBRANCH   1  11
TORSDOF 6
ENDMDL
MODEL 3
REMARK VINA RESULT:    -7.379      1.416      1.974
REMARK INTER + INTRA:         -11.137
REMARK INTER:                  -9.733
REMARK INTRA:                  -1.404
REMARK UNBOUND:                -1.386
REMARK SMILES CC[C@@H](C=C[C@@H](C)[C@@H]1CC[C@H]2C3=CC[C@H]4C[C@H](O)CC[C@@]4(C)[C@H]3CC[C@]21C)C(C)C
REMARK SMILES IDX 6 1 7 2 5 3 4 4 3 5 2 6 1 7 28 8 29 9 30 10 8 11 9 12 26 13
REMARK SMILES IDX 10 14 11 15 25 16 27 17 12 18 24 19 23 20 13 21 21 22 14 23
REMARK SMILES IDX 15 24 20 25 22 26 16 27 19 28 17 29 18 30
REMARK H PARENT 18 31
REMARK Flexibility Score: inf
ROOT
ATOM      1  C   UNL     1      -5.382  26.651  48.602  1.00  0.00     0.012 C 
ATOM      2  C   UNL     1      -5.869  27.655  47.525  1.00  0.00     0.012 C 
ENDROOT
BRANCH   1   3
ATOM      3  C   UNL     1      -5.231  27.254  49.991  1.00  0.00    -0.028 C 
ATOM      4  C   UNL     1      -4.227  27.014  50.855  1.00  0.00    -0.027 C 
BRANCH   4   5
ATOM      5  C   UNL     1      -4.050  27.859  52.101  1.00  0.00     0.014 C 
BRANCH   5   6
ATOM      6  C   UNL     1      -2.907  28.878  51.853  1.00  0.00     0.004 C 
ATOM      7  C   UNL     1      -2.146  28.685  50.536  1.00  0.00     0.004 C 
ENDBRANCH   5   6
BRANCH   5   8
ATOM      8  C   UNL     1      -3.875  26.971  53.356  1.00  0.00    -0.011 C 
ATOM      9  C   UNL     1      -3.832  25.462  52.986  1.00  0.00     0.008 C 
ATOM     10  C   UNL     1      -2.597  27.379  54.125  1.00  0.00     0.008 C 
ENDBRANCH   5   8
ENDBRANCH   4   5
ENDBRANCH   1   3
BRANCH   1  11
ATOM     11  C   UNL     1      -4.114  25.807  48.213  1.00  0.00     0.002 C 
ATOM     12  C   UNL     1      -3.530  26.165  46.831  1.00  0.00     0.005 C 
ATOM     13  C   UNL     1      -4.250  24.231  48.230  1.00  0.00    -0.023 C 
ATOM     14  C   UNL     1      -3.981  25.078  45.879  1.00  0.00     0.009 C 
ATOM     15  C   UNL     1      -4.105  23.797  46.722  1.00  0.00     0.021 C 
ATOM     16  C   UNL     1      -3.095  23.627  49.126  1.00  0.00     0.008 C 
ATOM     17  C   UNL     1      -5.591  23.702  48.824  1.00  0.00     0.012 C 
ATOM     18  C   UNL     1      -2.985  22.768  46.568  1.00  0.00    -0.067 C 
ATOM     19  C   UNL     1      -2.901  22.090  48.961  1.00  0.00     0.009 C 
ATOM     20  C   UNL     1      -3.147  21.588  47.499  1.00  0.00     0.021 C 
ATOM     21  C   UNL     1      -1.740  23.070  46.137  1.00  0.00    -0.027 C 
ATOM     22  C   UNL     1      -2.336  20.340  46.984  1.00  0.00    -0.023 C 
ATOM     23  C   UNL     1      -0.572  22.225  46.566  1.00  0.00     0.031 C 
ATOM     24  C   UNL     1      -0.884  20.716  46.459  1.00  0.00     0.002 C 
ATOM     25  C   UNL     1      -2.260  19.254  48.093  1.00  0.00     0.010 C 
ATOM     26  C   UNL     1      -3.151  19.756  45.801  1.00  0.00     0.012 C 
ATOM     27  C   UNL     1       0.246  19.892  47.126  1.00  0.00     0.036 C 
ATOM     28  C   UNL     1      -1.449  18.019  47.655  1.00  0.00     0.032 C 
ATOM     29  C   UNL     1      -0.041  18.386  47.087  1.00  0.00     0.114 C 
BRANCH  29  30
ATOM     30  O   UNL     1       0.078  17.931  45.770  1.00  0.00    -0.393 OA
ATOM     31  H   UNL     1       0.743  18.521  45.319  1.00  0.00     0.210 HD
ENDBRANCH  29  30
ENDBRANCH   1  11
TORSDOF 6
ENDMDL
MODEL 4
REMARK VINA RESULT:    -6.901      3.503      6.567
REMARK INTER + INTRA:         -10.506
REMARK INTER:                  -9.812
REMARK INTRA:                  -0.693
REMARK UNBOUND:                -1.386
REMARK SMILES CC[C@@H](C=C[C@@H](C)[C@@H]1CC[C@H]2C3=CC[C@H]4C[C@H](O)CC[C@@]4(C)[C@H]3CC[C@]21C)C(C)C
REMARK SMILES IDX 6 1 7 2 5 3 4 4 3 5 2 6 1 7 28 8 29 9 30 10 8 11 9 12 26 13
REMARK SMILES IDX 10 14 11 15 25 16 27 17 12 18 24 19 23 20 13 21 21 22 14 23
REMARK SMILES IDX 15 24 20 25 22 26 16 27 19 28 17 29 18 30
REMARK H PARENT 18 31
REMARK Flexibility Score: inf
ROOT
ATOM      1  C   UNL     1      -6.442  29.087  47.675  1.00  0.00     0.012 C 
ATOM      2  C   UNL     1      -5.732  29.747  48.885  1.00  0.00     0.012 C 
ENDROOT
BRANCH   1   3
ATOM      3  C   UNL     1      -7.836  29.632  47.399  1.00  0.00    -0.028 C 
ATOM      4  C   UNL     1      -8.456  29.657  46.204  1.00  0.00    -0.027 C 
BRANCH   4   5
ATOM      5  C   UNL     1      -9.931  29.990  46.095  1.00  0.00     0.014 C 
BRANCH   5   6
ATOM      6  C   UNL     1     -10.729  28.670  45.934  1.00  0.00     0.004 C 
ATOM      7  C   UNL     1     -11.726  28.378  47.062  1.00  0.00     0.004 C 
ENDBRANCH   5   6
BRANCH   5   8
ATOM      8  C   UNL     1     -10.183  31.048  44.995  1.00  0.00    -0.011 C 
ATOM      9  C   UNL     1     -11.702  31.309  44.792  1.00  0.00     0.008 C 
ATOM     10  C   UNL     1      -9.447  32.363  45.339  1.00  0.00     0.008 C 
ENDBRANCH   5   8
ENDBRANCH   4   5
ENDBRANCH   1   3
BRANCH   1  11
ATOM     11  C   UNL     1      -6.440  27.515  47.666  1.00  0.00     0.002 C 
ATOM     12  C   UNL     1      -7.082  26.887  48.921  1.00  0.00     0.005 C 
ATOM     13  C   UNL     1      -5.050  26.785  47.480  1.00  0.00    -0.023 C 
ATOM     14  C   UNL     1      -5.941  26.428  49.802  1.00  0.00     0.009 C 
ATOM     15  C   UNL     1      -4.790  26.055  48.852  1.00  0.00     0.021 C 
ATOM     16  C   UNL     1      -5.166  25.757  46.283  1.00  0.00     0.008 C 
ATOM     17  C   UNL     1      -3.861  27.732  47.133  1.00  0.00     0.012 C 
ATOM     18  C   UNL     1      -4.550  24.562  48.626  1.00  0.00    -0.067 C 
ATOM     19  C   UNL     1      -3.992  24.736  46.207  1.00  0.00     0.009 C 
ATOM     20  C   UNL     1      -3.460  24.296  47.612  1.00  0.00     0.021 C 
ATOM     21  C   UNL     1      -5.493  23.612  48.808  1.00  0.00    -0.027 C 
ATOM     22  C   UNL     1      -2.873  22.844  47.773  1.00  0.00    -0.023 C 
ATOM     23  C   UNL     1      -5.423  22.326  48.029  1.00  0.00     0.031 C 
ATOM     24  C   UNL     1      -3.993  21.743  48.010  1.00  0.00     0.002 C 
ATOM     25  C   UNL     1      -1.990  22.482  46.547  1.00  0.00     0.010 C 
ATOM     26  C   UNL     1      -1.955  22.889  49.024  1.00  0.00     0.012 C 
ATOM     27  C   UNL     1      -3.916  20.560  47.013  1.00  0.00     0.036 C 
ATOM     28  C   UNL     1      -1.411  21.056  46.637  1.00  0.00     0.032 C 
ATOM     29  C   UNL     1      -2.501  19.975  46.924  1.00  0.00     0.114 C 
BRANCH  29  30
ATOM     30  O   UNL     1      -2.207  19.302  48.114  1.00  0.00    -0.393 OA
ATOM     31  H   UNL     1      -3.078  19.080  48.544  1.00  0.00     0.210 HD
ENDBRANCH  29  30
ENDBRANCH   1  11
TORSDOF 6
ENDMDL
MODEL 5
REMARK VINA RESULT:    -6.850      3.740      8.390
REMARK INTER + INTRA:         -10.438
REMARK INTER:                  -9.128
REMARK INTRA:                  -1.310
REMARK UNBOUND:                -1.386
REMARK SMILES CC[C@@H](C=C[C@@H](C)[C@@H]1CC[C@H]2C3=CC[C@H]4C[C@H](O)CC[C@@]4(C)[C@H]3CC[C@]21C)C(C)C
REMARK SMILES IDX 6 1 7 2 5 3 4 4 3 5 2 6 1 7 28 8 29 9 30 10 8 11 9 12 26 13
REMARK SMILES IDX 10 14 11 15 25 16 27 17 12 18 24 19 23 20 13 21 21 22 14 23
REMARK SMILES IDX 15 24 20 25 22 26 16 27 19 28 17 29 18 30
REMARK H PARENT 18 31
REMARK Flexibility Score: inf
ROOT
ATOM      1  C   UNL     1      -0.569  21.531  46.640  1.00  0.00     0.012 C 
ATOM      2  C   UNL     1       0.865  21.668  46.067  1.00  0.00     0.012 C 
ENDROOT
BRANCH   1   3
ATOM      3  C   UNL     1      -1.164  20.137  46.501  1.00  0.00    -0.028 C 
ATOM      4  C   UNL     1      -1.376  19.262  47.501  1.00  0.00    -0.027 C 
BRANCH   4   5
ATOM      5  C   UNL     1      -2.201  18.009  47.282  1.00  0.00     0.014 C 
BRANCH   5   6
ATOM      6  C   UNL     1      -2.683  17.982  45.808  1.00  0.00     0.004 C 
ATOM      7  C   UNL     1      -2.060  16.876  44.948  1.00  0.00     0.004 C 
ENDBRANCH   5   6
BRANCH   5   8
ATOM      8  C   UNL     1      -3.323  17.890  48.341  1.00  0.00    -0.011 C 
ATOM      9  C   UNL     1      -2.747  17.875  49.784  1.00  0.00     0.008 C 
ATOM     10  C   UNL     1      -4.340  19.043  48.174  1.00  0.00     0.008 C 
ENDBRANCH   5   8
ENDBRANCH   4   5
ENDBRANCH   1   3
BRANCH   1  11
ATOM     11  C   UNL     1      -1.592  22.629  46.170  1.00  0.00     0.002 C 
ATOM     12  C   UNL     1      -0.933  23.817  45.437  1.00  0.00     0.005 C 
ATOM     13  C   UNL     1      -2.536  23.268  47.266  1.00  0.00    -0.023 C 
ATOM     14  C   UNL     1      -0.869  24.954  46.433  1.00  0.00     0.009 C 
ATOM     15  C   UNL     1      -2.077  24.772  47.368  1.00  0.00     0.021 C 
ATOM     16  C   UNL     1      -4.037  23.146  46.784  1.00  0.00     0.008 C 
ATOM     17  C   UNL     1      -2.464  22.581  48.664  1.00  0.00     0.012 C 
ATOM     18  C   UNL     1      -3.264  25.709  47.137  1.00  0.00    -0.067 C 
ATOM     19  C   UNL     1      -5.038  24.024  47.593  1.00  0.00     0.009 C 
ATOM     20  C   UNL     1      -4.435  25.397  48.042  1.00  0.00     0.021 C 
ATOM     21  C   UNL     1      -3.516  26.329  45.963  1.00  0.00    -0.027 C 
ATOM     22  C   UNL     1      -5.398  26.635  48.175  1.00  0.00    -0.023 C 
ATOM     23  C   UNL     1      -4.927  26.710  45.604  1.00  0.00     0.031 C 
ATOM     24  C   UNL     1      -5.665  27.368  46.790  1.00  0.00     0.002 C 
ATOM     25  C   UNL     1      -6.734  26.207  48.842  1.00  0.00     0.010 C 
ATOM     26  C   UNL     1      -4.688  27.632  49.129  1.00  0.00     0.012 C 
ATOM     27  C   UNL     1      -7.170  27.526  46.456  1.00  0.00     0.036 C 
ATOM     28  C   UNL     1      -7.731  27.376  48.971  1.00  0.00     0.032 C 
ATOM     29  C   UNL     1      -7.956  28.134  47.624  1.00  0.00     0.114 C 
BRANCH  29  30
ATOM     30  O   UNL     1      -7.601  29.479  47.766  1.00  0.00    -0.393 OA
ATOM     31  H   UNL     1      -6.613  29.532  47.642  1.00  0.00     0.210 HD
ENDBRANCH  29  30
ENDBRANCH   1  11
TORSDOF 6
ENDMDL
MODEL 6
REMARK VINA RESULT:    -6.778      3.820      8.884
REMARK INTER + INTRA:         -10.343
REMARK INTER:                 -10.238
REMARK INTRA:                  -0.105
REMARK UNBOUND:                -1.386
REMARK SMILES CC[C@@H](C=C[C@@H](C)[C@@H]1CC[C@H]2C3=CC[C@H]4C[C@H](O)CC[C@@]4(C)[C@H]3CC[C@]21C)C(C)C
REMARK SMILES IDX 6 1 7 2 5 3 4 4 3 5 2 6 1 7 28 8 29 9 30 10 8 11 9 12 26 13
REMARK SMILES IDX 10 14 11 15 25 16 27 17 12 18 24 19 23 20 13 21 21 22 14 23
REMARK SMILES IDX 15 24 20 25 22 26 16 27 19 28 17 29 18 30
REMARK H PARENT 18 31
REMARK Flexibility Score: inf
ROOT
ATOM      1  C   UNL     1      -4.137  21.791  48.899  1.00  0.00     0.012 C 
ATOM      2  C   UNL     1      -2.712  22.165  49.381  1.00  0.00     0.012 C 
ENDROOT
BRANCH   1   3
ATOM      3  C   UNL     1      -4.213  20.471  48.147  1.00  0.00    -0.028 C 
ATOM      4  C   UNL     1      -3.176  19.661  47.859  1.00  0.00    -0.027 C 
BRANCH   4   5
ATOM      5  C   UNL     1      -3.403  18.258  47.331  1.00  0.00     0.014 C 
BRANCH   5   6
ATOM      6  C   UNL     1      -2.876  17.241  48.377  1.00  0.00     0.004 C 
ATOM      7  C   UNL     1      -2.731  17.796  49.799  1.00  0.00     0.004 C 
ENDBRANCH   5   6
BRANCH   5   8
ATOM      8  C   UNL     1      -2.818  18.098  45.908  1.00  0.00    -0.011 C 
ATOM      9  C   UNL     1      -1.278  17.895  45.943  1.00  0.00     0.008 C 
ATOM     10  C   UNL     1      -3.504  16.919  45.178  1.00  0.00     0.008 C 
ENDBRANCH   5   8
ENDBRANCH   4   5
ENDBRANCH   1   3
BRANCH   1  11
ATOM     11  C   UNL     1      -4.908  22.924  48.128  1.00  0.00     0.002 C 
ATOM     12  C   UNL     1      -4.580  22.982  46.621  1.00  0.00     0.005 C 
ATOM     13  C   UNL     1      -4.758  24.406  48.660  1.00  0.00    -0.023 C 
ATOM     14  C   UNL     1      -3.622  24.139  46.435  1.00  0.00     0.009 C 
ATOM     15  C   UNL     1      -3.976  25.167  47.524  1.00  0.00     0.021 C 
ATOM     16  C   UNL     1      -6.200  25.017  48.888  1.00  0.00     0.008 C 
ATOM     17  C   UNL     1      -4.005  24.533  50.019  1.00  0.00     0.012 C 
ATOM     18  C   UNL     1      -4.759  26.399  47.069  1.00  0.00    -0.067 C 
ATOM     19  C   UNL     1      -6.210  26.562  49.084  1.00  0.00     0.009 C 
ATOM     20  C   UNL     1      -5.137  27.304  48.220  1.00  0.00     0.021 C 
ATOM     21  C   UNL     1      -5.523  26.436  45.954  1.00  0.00    -0.027 C 
ATOM     22  C   UNL     1      -5.452  28.763  47.717  1.00  0.00    -0.023 C 
ATOM     23  C   UNL     1      -6.693  27.379  45.878  1.00  0.00     0.031 C 
ATOM     24  C   UNL     1      -6.330  28.789  46.393  1.00  0.00     0.002 C 
ATOM     25  C   UNL     1      -6.130  29.586  48.848  1.00  0.00     0.010 C 
ATOM     26  C   UNL     1      -4.079  29.417  47.410  1.00  0.00     0.012 C 
ATOM     27  C   UNL     1      -7.609  29.654  46.518  1.00  0.00     0.036 C 
ATOM     28  C   UNL     1      -6.489  31.017  48.402  1.00  0.00     0.032 C 
ATOM     29  C   UNL     1      -7.306  31.051  47.072  1.00  0.00     0.114 C 
BRANCH  29  30
ATOM     30  O   UNL     1      -6.615  31.787  46.104  1.00  0.00    -0.393 OA
ATOM     31  H   UNL     1      -6.056  31.140  45.592  1.00  0.00     0.210 HD
ENDBRANCH  29  30
ENDBRANCH   1  11
TORSDOF 6
ENDMDL
MODEL 7
REMARK VINA RESULT:    -6.751      4.274      8.999
REMARK INTER + INTRA:         -10.307
REMARK INTER:                  -9.150
REMARK INTRA:                  -1.157
REMARK UNBOUND:                -1.386
REMARK SMILES CC[C@@H](C=C[C@@H](C)[C@@H]1CC[C@H]2C3=CC[C@H]4C[C@H](O)CC[C@@]4(C)[C@H]3CC[C@]21C)C(C)C
REMARK SMILES IDX 6 1 7 2 5 3 4 4 3 5 2 6 1 7 28 8 29 9 30 10 8 11 9 12 26 13
REMARK SMILES IDX 10 14 11 15 25 16 27 17 12 18 24 19 23 20 13 21 21 22 14 23
REMARK SMILES IDX 15 24 20 25 22 26 16 27 19 28 17 29 18 30
REMARK H PARENT 18 31
REMARK Flexibility Score: inf
ROOT
ATOM      1  C   UNL     1      -5.039  24.084  49.810  1.00  0.00     0.012 C 
ATOM      2  C   UNL     1      -4.522  24.299  51.255  1.00  0.00     0.012 C 
ENDROOT
BRANCH   1   3
ATOM      3  C   UNL     1      -4.659  22.739  49.207  1.00  0.00    -0.028 C 
ATOM      4  C   UNL     1      -4.838  22.365  47.926  1.00  0.00    -0.027 C 
BRANCH   4   5
ATOM      5  C   UNL     1      -4.195  21.103  47.383  1.00  0.00     0.014 C 
BRANCH   5   6
ATOM      6  C   UNL     1      -3.874  20.158  48.570  1.00  0.00     0.004 C 
ATOM      7  C   UNL     1      -4.442  18.740  48.435  1.00  0.00     0.004 C 
ENDBRANCH   5   6
BRANCH   5   8
ATOM      8  C   UNL     1      -2.993  21.440  46.470  1.00  0.00    -0.011 C 
ATOM      9  C   UNL     1      -2.767  22.975  46.366  1.00  0.00     0.008 C 
ATOM     10  C   UNL     1      -1.716  20.737  46.987  1.00  0.00     0.008 C 
ENDBRANCH   5   8
ENDBRANCH   4   5
ENDBRANCH   1   3
BRANCH   1  11
ATOM     11  C   UNL     1      -4.742  25.256  48.805  1.00  0.00     0.002 C 
ATOM     12  C   UNL     1      -3.422  26.001  49.094  1.00  0.00     0.005 C 
ATOM     13  C   UNL     1      -5.844  26.378  48.640  1.00  0.00    -0.023 C 
ATOM     14  C   UNL     1      -3.802  27.296  49.780  1.00  0.00     0.009 C 
ATOM     15  C   UNL     1      -5.185  27.682  49.227  1.00  0.00     0.021 C 
ATOM     16  C   UNL     1      -6.189  26.536  47.104  1.00  0.00     0.008 C 
ATOM     17  C   UNL     1      -7.191  26.074  49.364  1.00  0.00     0.012 C 
ATOM     18  C   UNL     1      -5.215  28.808  48.192  1.00  0.00    -0.067 C 
ATOM     19  C   UNL     1      -6.999  27.822  46.764  1.00  0.00     0.009 C 
ATOM     20  C   UNL     1      -6.602  29.055  47.643  1.00  0.00     0.021 C 
ATOM     21  C   UNL     1      -4.157  29.153  47.425  1.00  0.00    -0.027 C 
ATOM     22  C   UNL     1      -6.719  30.495  47.016  1.00  0.00    -0.023 C 
ATOM     23  C   UNL     1      -4.383  29.787  46.079  1.00  0.00     0.031 C 
ATOM     24  C   UNL     1      -5.457  30.895  46.137  1.00  0.00     0.002 C 
ATOM     25  C   UNL     1      -8.030  30.618  46.192  1.00  0.00     0.010 C 
ATOM     26  C   UNL     1      -6.815  31.478  48.213  1.00  0.00     0.012 C 
ATOM     27  C   UNL     1      -5.824  31.354  44.704  1.00  0.00     0.036 C 
ATOM     28  C   UNL     1      -8.183  32.000  45.529  1.00  0.00     0.032 C 
ATOM     29  C   UNL     1      -6.924  32.423  44.707  1.00  0.00     0.114 C 
BRANCH  29  30
ATOM     30  O   UNL     1      -6.401  33.617  45.212  1.00  0.00    -0.393 OA
ATOM     31  H   UNL     1      -7.125  34.299  45.153  1.00  0.00     0.210 HD
ENDBRANCH  29  30
ENDBRANCH   1  11
TORSDOF 6
ENDMDL
MODEL 8
REMARK VINA RESULT:    -6.719      1.718      3.939
REMARK INTER + INTRA:         -10.265
REMARK INTER:                  -9.150
REMARK INTRA:                  -1.115
REMARK UNBOUND:                -1.386
REMARK SMILES CC[C@@H](C=C[C@@H](C)[C@@H]1CC[C@H]2C3=CC[C@H]4C[C@H](O)CC[C@@]4(C)[C@H]3CC[C@]21C)C(C)C
REMARK SMILES IDX 6 1 7 2 5 3 4 4 3 5 2 6 1 7 28 8 29 9 30 10 8 11 9 12 26 13
REMARK SMILES IDX 10 14 11 15 25 16 27 17 12 18 24 19 23 20 13 21 21 22 14 23
REMARK SMILES IDX 15 24 20 25 22 26 16 27 19 28 17 29 18 30
REMARK H PARENT 18 31
REMARK Flexibility Score: inf
ROOT
ATOM      1  C   UNL     1      -2.745  27.321  49.703  1.00  0.00     0.012 C 
ATOM      2  C   UNL     1      -2.018  27.511  51.058  1.00  0.00     0.012 C 
ENDROOT
BRANCH   1   3
ATOM      3  C   UNL     1      -4.262  27.412  49.793  1.00  0.00    -0.028 C 
ATOM      4  C   UNL     1      -5.063  28.128  48.982  1.00  0.00    -0.027 C 
BRANCH   4   5
ATOM      5  C   UNL     1      -6.568  27.944  49.008  1.00  0.00     0.014 C 
BRANCH   5   6
ATOM      6  C   UNL     1      -6.915  26.827  50.027  1.00  0.00     0.004 C 
ATOM      7  C   UNL     1      -7.137  25.440  49.412  1.00  0.00     0.004 C 
ENDBRANCH   5   6
BRANCH   5   8
ATOM      8  C   UNL     1      -7.127  27.726  47.582  1.00  0.00    -0.011 C 
ATOM      9  C   UNL     1      -8.499  28.434  47.393  1.00  0.00     0.008 C 
ATOM     10  C   UNL     1      -6.110  28.222  46.528  1.00  0.00     0.008 C 
ENDBRANCH   5   8
ENDBRANCH   4   5
ENDBRANCH   1   3
BRANCH   1  11
ATOM     11  C   UNL     1      -2.305  26.063  48.870  1.00  0.00     0.002 C 
ATOM     12  C   UNL     1      -2.599  26.184  47.360  1.00  0.00     0.005 C 
ATOM     13  C   UNL     1      -2.878  24.655  49.310  1.00  0.00    -0.023 C 
ATOM     14  C   UNL     1      -3.838  25.357  47.096  1.00  0.00     0.009 C 
ATOM     15  C   UNL     1      -3.814  24.211  48.123  1.00  0.00     0.021 C 
ATOM     16  C   UNL     1      -1.672  23.652  49.511  1.00  0.00     0.008 C 
ATOM     17  C   UNL     1      -3.670  24.669  50.652  1.00  0.00     0.012 C 
ATOM     18  C   UNL     1      -3.397  22.836  47.600  1.00  0.00    -0.067 C 
ATOM     19  C   UNL     1      -2.100  22.157  49.613  1.00  0.00     0.009 C 
ATOM     20  C   UNL     1      -3.317  21.797  48.696  1.00  0.00     0.021 C 
ATOM     21  C   UNL     1      -2.647  22.648  46.491  1.00  0.00    -0.027 C 
ATOM     22  C   UNL     1      -3.412  20.340  48.108  1.00  0.00    -0.023 C 
ATOM     23  C   UNL     1      -1.787  21.419  46.367  1.00  0.00     0.031 C 
ATOM     24  C   UNL     1      -2.544  20.142  46.792  1.00  0.00     0.002 C 
ATOM     25  C   UNL     1      -3.021  19.297  49.192  1.00  0.00     0.010 C 
ATOM     26  C   UNL     1      -4.905  20.117  47.751  1.00  0.00     0.012 C 
ATOM     27  C   UNL     1      -1.562  18.946  46.874  1.00  0.00     0.036 C 
ATOM     28  C   UNL     1      -3.066  17.850  48.662  1.00  0.00     0.032 C 
ATOM     29  C   UNL     1      -2.259  17.662  47.339  1.00  0.00     0.114 C 
BRANCH  29  30
ATOM     30  O   UNL     1      -3.105  17.206  46.322  1.00  0.00    -0.393 OA
ATOM     31  H   UNL     1      -2.602  16.509  45.817  1.00  0.00     0.210 HD
ENDBRANCH  29  30
ENDBRANCH   1  11
TORSDOF 6
ENDMDL
