MODEL 1
REMARK VINA RESULT:    -3.700      0.000      0.000
REMARK INTER + INTRA:          -8.339
REMARK INTER:                  -6.295
REMARK INTRA:                  -2.044
REMARK UNBOUND:                -2.044
REMARK SMILES CCCCCCCCCCCCCC(=O)[O-]
REMARK SMILES IDX 8 1 9 2 10 3 11 4 12 5 13 6 14 7 15 8 16 9 7 10 6 11 5 12
REMARK SMILES IDX 4 13 3 14 2 15 1 16
REMARK H PARENT
REMARK Flexibility Score: inf
ROOT
ATOM      1  C   UNL     1      29.502  32.804   3.823  1.00  0.00     0.000 C 
ENDROOT
BRANCH   1   2
ATOM      2  C   UNL     1      28.598  33.941   4.347  1.00  0.00     0.000 C 
BRANCH   2   3
ATOM      3  C   UNL     1      27.265  34.029   3.589  1.00  0.00     0.000 C 
BRANCH   3   4
ATOM      4  C   UNL     1      27.176  32.946   2.506  1.00  0.00     0.000 C 
BRANCH   4   5
ATOM      5  C   UNL     1      26.504  33.489   1.239  1.00  0.00     0.006 C 
BRANCH   5   6
ATOM      6  C   UNL     1      25.279  34.340   1.586  1.00  0.00     0.053 C 
BRANCH   6   7
ATOM      7  C   UNL     1      24.100  33.919   0.769  1.00  0.00     0.041 C 
ATOM      8  O   UNL     1      23.378  34.783   0.205  1.00  0.00    -0.550 OA
ATOM      9  O   UNL     1      23.825  32.569   0.589  1.00  0.00    -0.550 OA
ENDBRANCH   6   7
ENDBRANCH   5   6
ENDBRANCH   4   5
ENDBRANCH   3   4
ENDBRANCH   2   3
ENDBRANCH   1   2
BRANCH   1  10
ATOM     10  C   UNL     1      31.006  33.133   3.877  1.00  0.00     0.000 C 
BRANCH  10  11
ATOM     11  C   UNL     1      31.649  33.476   2.521  1.00  0.00    -0.000 C 
BRANCH  11  12
ATOM     12  C   UNL     1      30.887  32.954   1.289  1.00  0.00    -0.000 C 
BRANCH  12  13
ATOM     13  C   UNL     1      30.135  34.062   0.535  1.00  0.00    -0.000 C 
BRANCH  13  14
ATOM     14  C   UNL     1      30.523  35.448   1.070  1.00  0.00    -0.000 C 
BRANCH  14  15
ATOM     15  C   UNL     1      29.301  36.297   1.453  1.00  0.00    -0.003 C 
ATOM     16  C   UNL     1      29.484  37.031   2.781  1.00  0.00     0.004 C 
ENDBRANCH  14  15
ENDBRANCH  13  14
ENDBRANCH  12  13
ENDBRANCH  11  12
ENDBRANCH  10  11
ENDBRANCH   1  10
TORSDOF 12
ENDMDL
MODEL 2
REMARK VINA RESULT:    -3.574      3.969      5.725
REMARK INTER + INTRA:          -8.125
REMARK INTER:                  -6.194
REMARK INTRA:                  -1.931
REMARK UNBOUND:                -2.044
REMARK SMILES CCCCCCCCCCCCCC(=O)[O-]
REMARK SMILES IDX 8 1 9 2 10 3 11 4 12 5 13 6 14 7 15 8 16 9 7 10 6 11 5 12
REMARK SMILES IDX 4 13 3 14 2 15 1 16
REMARK H PARENT
REMARK Flexibility Score: inf
ROOT
ATOM      1  C   UNL     1      27.171  33.595   3.836  1.00  0.00     0.000 C 
ENDROOT
BRANCH   1   2
ATOM      2  C   UNL     1      28.611  33.973   4.244  1.00  0.00     0.000 C 
BRANCH   2   3
ATOM      3  C   UNL     1      29.670  33.146   3.498  1.00  0.00     0.000 C 
BRANCH   3   4
ATOM      4  C   UNL     1      30.562  34.047   2.636  1.00  0.00     0.000 C 
BRANCH   4   5
ATOM      5  C   UNL     1      31.336  33.223   1.599  1.00  0.00     0.006 C 
BRANCH   5   6
ATOM      6  C   UNL     1      32.559  32.551   2.231  1.00  0.00     0.053 C 
BRANCH   6   7
ATOM      7  C   UNL     1      33.560  33.578   2.655  1.00  0.00     0.041 C 
ATOM      8  O   UNL     1      33.848  33.718   3.874  1.00  0.00    -0.550 OA
ATOM      9  O   UNL     1      34.213  34.349   1.702  1.00  0.00    -0.550 OA
ENDBRANCH   6   7
ENDBRANCH   5   6
ENDBRANCH   4   5
ENDBRANCH   3   4
ENDBRANCH   2   3
ENDBRANCH   1   2
BRANCH   1  10
ATOM     10  C   UNL     1      27.085  32.825   2.505  1.00  0.00     0.000 C 
BRANCH  10  11
ATOM     11  C   UNL     1      26.060  33.375   1.496  1.00  0.00    -0.000 C 
BRANCH  11  12
ATOM     12  C   UNL     1      26.336  34.809   1.006  1.00  0.00    -0.000 C 
BRANCH  12  13
ATOM     13  C   UNL     1      27.695  34.951   0.303  1.00  0.00    -0.000 C 
BRANCH  13  14
ATOM     14  C   UNL     1      28.412  36.232   0.752  1.00  0.00    -0.000 C 
BRANCH  14  15
ATOM     15  C   UNL     1      27.807  36.832   2.030  1.00  0.00    -0.003 C 
ATOM     16  C   UNL     1      28.864  37.415   2.967  1.00  0.00     0.004 C 
ENDBRANCH  14  15
ENDBRANCH  13  14
ENDBRANCH  12  13
ENDBRANCH  11  12
ENDBRANCH  10  11
ENDBRANCH   1  10
TORSDOF 12
ENDMDL
MODEL 3
REMARK VINA RESULT:    -3.530      1.423      2.587
REMARK INTER + INTRA:          -8.051
REMARK INTER:                  -6.698
REMARK INTRA:                  -1.353
REMARK UNBOUND:                -2.044
REMARK SMILES CCCCCCCCCCCCCC(=O)[O-]
REMARK SMILES IDX 8 1 9 2 10 3 11 4 12 5 13 6 14 7 15 8 16 9 7 10 6 11 5 12
REMARK SMILES IDX 4 13 3 14 2 15 1 16
REMARK H PARENT
REMARK Flexibility Score: inf
ROOT
ATOM      1  C   UNL     1      29.689  32.892   2.156  1.00  0.00     0.000 C 
ENDROOT
BRANCH   1   2
ATOM      2  C   UNL     1      29.596  33.259   3.652  1.00  0.00     0.000 C 
BRANCH   2   3
ATOM      3  C   UNL     1      28.303  34.015   3.993  1.00  0.00     0.000 C 
BRANCH   3   4
ATOM      4  C   UNL     1      27.072  33.256   3.484  1.00  0.00     0.000 C 
BRANCH   4   5
ATOM      5  C   UNL     1      26.280  34.102   2.479  1.00  0.00     0.006 C 
BRANCH   5   6
ATOM      6  C   UNL     1      25.752  33.239   1.329  1.00  0.00     0.053 C 
BRANCH   6   7
ATOM      7  C   UNL     1      24.402  33.715   0.895  1.00  0.00     0.041 C 
ATOM      8  O   UNL     1      24.028  34.888   1.162  1.00  0.00    -0.550 OA
ATOM      9  O   UNL     1      23.575  32.881   0.154  1.00  0.00    -0.550 OA
ENDBRANCH   6   7
ENDBRANCH   5   6
ENDBRANCH   4   5
ENDBRANCH   3   4
ENDBRANCH   2   3
ENDBRANCH   1   2
BRANCH   1  10
ATOM     10  C   UNL     1      29.722  34.113   1.218  1.00  0.00     0.000 C 
BRANCH  10  11
ATOM     11  C   UNL     1      30.948  34.192   0.290  1.00  0.00    -0.000 C 
BRANCH  11  12
ATOM     12  C   UNL     1      31.764  32.891   0.179  1.00  0.00    -0.000 C 
BRANCH  12  13
ATOM     13  C   UNL     1      33.195  33.033   0.718  1.00  0.00    -0.000 C 
BRANCH  13  14
ATOM     14  C   UNL     1      33.300  32.481   2.147  1.00  0.00    -0.000 C 
BRANCH  14  15
ATOM     15  C   UNL     1      33.282  33.588   3.211  1.00  0.00    -0.003 C 
ATOM     16  C   UNL     1      33.754  34.937   2.669  1.00  0.00     0.004 C 
ENDBRANCH  14  15
ENDBRANCH  13  14
ENDBRANCH  12  13
ENDBRANCH  11  12
ENDBRANCH  10  11
ENDBRANCH   1  10
TORSDOF 12
ENDMDL
MODEL 4
REMARK VINA RESULT:    -3.516      3.552      5.336
REMARK INTER + INTRA:          -8.026
REMARK INTER:                  -6.229
REMARK INTRA:                  -1.797
REMARK UNBOUND:                -2.044
REMARK SMILES CCCCCCCCCCCCCC(=O)[O-]
REMARK SMILES IDX 8 1 9 2 10 3 11 4 12 5 13 6 14 7 15 8 16 9 7 10 6 11 5 12
REMARK SMILES IDX 4 13 3 14 2 15 1 16
REMARK H PARENT
REMARK Flexibility Score: inf
ROOT
ATOM      1  C   UNL     1      29.789  33.077   3.881  1.00  0.00     0.000 C 
ENDROOT
BRANCH   1   2
ATOM      2  C   UNL     1      30.821  33.623   2.871  1.00  0.00     0.000 C 
BRANCH   2   3
ATOM      3  C   UNL     1      30.478  35.042   2.389  1.00  0.00     0.000 C 
BRANCH   3   4
ATOM      4  C   UNL     1      30.616  35.153   0.866  1.00  0.00     0.000 C 
BRANCH   4   5
ATOM      5  C   UNL     1      30.464  33.782   0.197  1.00  0.00     0.006 C 
BRANCH   5   6
ATOM      6  C   UNL     1      31.256  33.717  -1.112  1.00  0.00     0.053 C 
BRANCH   6   7
ATOM      7  C   UNL     1      32.412  32.777  -0.978  1.00  0.00     0.041 C 
ATOM      8  O   UNL     1      33.121  32.788   0.063  1.00  0.00    -0.550 OA
ATOM      9  O   UNL     1      32.679  31.854  -1.982  1.00  0.00    -0.550 OA
ENDBRANCH   6   7
ENDBRANCH   5   6
ENDBRANCH   4   5
ENDBRANCH   3   4
ENDBRANCH   2   3
ENDBRANCH   1   2
BRANCH   1  10
ATOM     10  C   UNL     1      28.624  34.045   4.163  1.00  0.00     0.000 C 
BRANCH  10  11
ATOM     11  C   UNL     1      27.253  33.590   3.628  1.00  0.00    -0.000 C 
BRANCH  11  12
ATOM     12  C   UNL     1      27.281  32.954   2.226  1.00  0.00    -0.000 C 
BRANCH  12  13
ATOM     13  C   UNL     1      26.797  33.910   1.125  1.00  0.00    -0.000 C 
BRANCH  13  14
ATOM     14  C   UNL     1      25.554  34.687   1.581  1.00  0.00    -0.000 C 
BRANCH  14  15
ATOM     15  C   UNL     1      25.762  36.209   1.547  1.00  0.00    -0.003 C 
ATOM     16  C   UNL     1      27.227  36.600   1.356  1.00  0.00     0.004 C 
ENDBRANCH  14  15
ENDBRANCH  13  14
ENDBRANCH  12  13
ENDBRANCH  11  12
ENDBRANCH  10  11
ENDBRANCH   1  10
TORSDOF 12
ENDMDL
MODEL 5
REMARK VINA RESULT:    -3.497      3.923      5.956
REMARK INTER + INTRA:          -7.994
REMARK INTER:                  -6.167
REMARK INTRA:                  -1.826
REMARK UNBOUND:                -2.044
REMARK SMILES CCCCCCCCCCCCCC(=O)[O-]
REMARK SMILES IDX 8 1 9 2 10 3 11 4 12 5 13 6 14 7 15 8 16 9 7 10 6 11 5 12
REMARK SMILES IDX 4 13 3 14 2 15 1 16
REMARK H PARENT
REMARK Flexibility Score: inf
ROOT
ATOM      1  C   UNL     1      29.901  33.633   3.397  1.00  0.00     0.000 C 
ENDROOT
BRANCH   1   2
ATOM      2  C   UNL     1      30.023  34.808   2.403  1.00  0.00     0.000 C 
BRANCH   2   3
ATOM      3  C   UNL     1      30.281  34.336   0.963  1.00  0.00     0.000 C 
BRANCH   3   4
ATOM      4  C   UNL     1      30.882  32.926   0.946  1.00  0.00     0.000 C 
BRANCH   4   5
ATOM      5  C   UNL     1      32.396  32.975   0.707  1.00  0.00     0.006 C 
BRANCH   5   6
ATOM      6  C   UNL     1      33.165  32.581   1.972  1.00  0.00     0.053 C 
BRANCH   6   7
ATOM      7  C   UNL     1      33.576  33.799   2.736  1.00  0.00     0.041 C 
ATOM      8  O   UNL     1      33.769  34.889   2.135  1.00  0.00    -0.550 OA
ATOM      9  O   UNL     1      33.698  33.745   4.119  1.00  0.00    -0.550 OA
ENDBRANCH   6   7
ENDBRANCH   5   6
ENDBRANCH   4   5
ENDBRANCH   3   4
ENDBRANCH   2   3
ENDBRANCH   1   2
BRANCH   1  10
ATOM     10  C   UNL     1      28.657  33.712   4.301  1.00  0.00     0.000 C 
BRANCH  10  11
ATOM     11  C   UNL     1      27.327  33.957   3.563  1.00  0.00    -0.000 C 
BRANCH  11  12
ATOM     12  C   UNL     1      26.960  32.892   2.514  1.00  0.00    -0.000 C 
BRANCH  12  13
ATOM     13  C   UNL     1      26.234  33.478   1.293  1.00  0.00    -0.000 C 
BRANCH  13  14
ATOM     14  C   UNL     1      26.124  35.006   1.402  1.00  0.00    -0.000 C 
BRANCH  14  15
ATOM     15  C   UNL     1      26.885  35.735   0.284  1.00  0.00    -0.003 C 
ATOM     16  C   UNL     1      27.129  34.849  -0.938  1.00  0.00     0.004 C 
ENDBRANCH  14  15
ENDBRANCH  13  14
ENDBRANCH  12  13
ENDBRANCH  11  12
ENDBRANCH  10  11
ENDBRANCH   1  10
TORSDOF 12
ENDMDL
MODEL 6
REMARK VINA RESULT:    -3.485      3.511      5.965
REMARK INTER + INTRA:          -7.974
REMARK INTER:                  -6.693
REMARK INTRA:                  -1.282
REMARK UNBOUND:                -2.044
REMARK SMILES CCCCCCCCCCCCCC(=O)[O-]
REMARK SMILES IDX 8 1 9 2 10 3 11 4 12 5 13 6 14 7 15 8 16 9 7 10 6 11 5 12
REMARK SMILES IDX 4 13 3 14 2 15 1 16
REMARK H PARENT
REMARK Flexibility Score: inf
ROOT
ATOM      1  C   UNL     1      30.117  34.671   2.479  1.00  0.00     0.000 C 
ENDROOT
BRANCH   1   2
ATOM      2  C   UNL     1      30.506  33.211   2.798  1.00  0.00     0.000 C 
BRANCH   2   3
ATOM      3  C   UNL     1      31.704  33.117   3.756  1.00  0.00     0.000 C 
BRANCH   3   4
ATOM      4  C   UNL     1      33.014  33.443   3.030  1.00  0.00     0.000 C 
BRANCH   4   5
ATOM      5  C   UNL     1      33.266  32.460   1.880  1.00  0.00     0.006 C 
BRANCH   5   6
ATOM      6  C   UNL     1      33.797  33.187   0.641  1.00  0.00     0.053 C 
BRANCH   6   7
ATOM      7  C   UNL     1      32.987  32.827  -0.563  1.00  0.00     0.041 C 
ATOM      8  O   UNL     1      33.557  32.468  -1.627  1.00  0.00    -0.550 OA
ATOM      9  O   UNL     1      31.599  32.842  -0.498  1.00  0.00    -0.550 OA
ENDBRANCH   6   7
ENDBRANCH   5   6
ENDBRANCH   4   5
ENDBRANCH   3   4
ENDBRANCH   2   3
ENDBRANCH   1   2
BRANCH   1  10
ATOM     10  C   UNL     1      28.830  35.139   3.184  1.00  0.00     0.000 C 
BRANCH  10  11
ATOM     11  C   UNL     1      28.147  34.079   4.067  1.00  0.00    -0.000 C 
BRANCH  11  12
ATOM     12  C   UNL     1      26.776  33.596   3.559  1.00  0.00    -0.000 C 
BRANCH  12  13
ATOM     13  C   UNL     1      26.851  32.918   2.183  1.00  0.00    -0.000 C 
BRANCH  13  14
ATOM     14  C   UNL     1      25.676  33.349   1.294  1.00  0.00    -0.000 C 
BRANCH  14  15
ATOM     15  C   UNL     1      25.392  34.856   1.379  1.00  0.00    -0.003 C 
ATOM     16  C   UNL     1      26.325  35.684   0.496  1.00  0.00     0.004 C 
ENDBRANCH  14  15
ENDBRANCH  13  14
ENDBRANCH  12  13
ENDBRANCH  11  12
ENDBRANCH  10  11
ENDBRANCH   1  10
TORSDOF 12
ENDMDL
MODEL 7
REMARK VINA RESULT:    -3.481      3.448      5.412
REMARK INTER + INTRA:          -7.968
REMARK INTER:                  -6.051
REMARK INTRA:                  -1.917
REMARK UNBOUND:                -2.044
REMARK SMILES CCCCCCCCCCCCCC(=O)[O-]
REMARK SMILES IDX 8 1 9 2 10 3 11 4 12 5 13 6 14 7 15 8 16 9 7 10 6 11 5 12
REMARK SMILES IDX 4 13 3 14 2 15 1 16
REMARK H PARENT
REMARK Flexibility Score: inf
ROOT
ATOM      1  C   UNL     1      27.219  32.879   2.383  1.00  0.00     0.000 C 
ENDROOT
BRANCH   1   2
ATOM      2  C   UNL     1      27.210  33.578   3.760  1.00  0.00     0.000 C 
BRANCH   2   3
ATOM      3  C   UNL     1      28.614  34.011   4.209  1.00  0.00     0.000 C 
BRANCH   3   4
ATOM      4  C   UNL     1      29.649  32.922   3.903  1.00  0.00     0.000 C 
BRANCH   4   5
ATOM      5  C   UNL     1      30.862  33.506   3.169  1.00  0.00     0.006 C 
BRANCH   5   6
ATOM      6  C   UNL     1      30.953  32.966   1.739  1.00  0.00     0.053 C 
BRANCH   6   7
ATOM      7  C   UNL     1      32.382  32.763   1.346  1.00  0.00     0.041 C 
ATOM      8  O   UNL     1      33.251  32.511   2.222  1.00  0.00    -0.550 OA
ATOM      9  O   UNL     1      32.748  32.802   0.006  1.00  0.00    -0.550 OA
ENDBRANCH   6   7
ENDBRANCH   5   6
ENDBRANCH   4   5
ENDBRANCH   3   4
ENDBRANCH   2   3
ENDBRANCH   1   2
BRANCH   1  10
ATOM     10  C   UNL     1      26.415  33.627   1.303  1.00  0.00     0.000 C 
BRANCH  10  11
ATOM     11  C   UNL     1      25.776  34.950   1.762  1.00  0.00    -0.000 C 
BRANCH  11  12
ATOM     12  C   UNL     1      26.396  36.219   1.148  1.00  0.00    -0.000 C 
BRANCH  12  13
ATOM     13  C   UNL     1      27.568  36.772   1.971  1.00  0.00    -0.000 C 
BRANCH  13  14
ATOM     14  C   UNL     1      28.913  36.341   1.369  1.00  0.00    -0.000 C 
BRANCH  14  15
ATOM     15  C   UNL     1      28.897  36.335  -0.168  1.00  0.00    -0.003 C 
ATOM     16  C   UNL     1      29.416  35.024  -0.758  1.00  0.00     0.004 C 
ENDBRANCH  14  15
ENDBRANCH  13  14
ENDBRANCH  12  13
ENDBRANCH  11  12
ENDBRANCH  10  11
ENDBRANCH   1  10
TORSDOF 12
ENDMDL
MODEL 8
REMARK VINA RESULT:    -3.471      3.133      4.876
REMARK INTER + INTRA:          -7.949
REMARK INTER:                  -5.944
REMARK INTRA:                  -2.006
REMARK UNBOUND:                -2.044
REMARK SMILES CCCCCCCCCCCCCC(=O)[O-]
REMARK SMILES IDX 8 1 9 2 10 3 11 4 12 5 13 6 14 7 15 8 16 9 7 10 6 11 5 12
REMARK SMILES IDX 4 13 3 14 2 15 1 16
REMARK H PARENT
REMARK Flexibility Score: inf
ROOT
ATOM      1  C   UNL     1      27.200  33.583   3.810  1.00  0.00     0.000 C 
ENDROOT
BRANCH   1   2
ATOM      2  C   UNL     1      28.621  34.019   4.231  1.00  0.00     0.000 C 
BRANCH   2   3
ATOM      3  C   UNL     1      29.684  32.962   3.895  1.00  0.00     0.000 C 
BRANCH   3   4
ATOM      4  C   UNL     1      30.786  33.553   3.008  1.00  0.00     0.000 C 
BRANCH   4   5
ATOM      5  C   UNL     1      30.790  32.894   1.623  1.00  0.00     0.006 C 
BRANCH   5   6
ATOM      6  C   UNL     1      30.339  33.882   0.543  1.00  0.00     0.053 C 
BRANCH   6   7
ATOM      7  C   UNL     1      31.431  34.101  -0.455  1.00  0.00     0.041 C 
ATOM      8  O   UNL     1      32.080  35.181  -0.458  1.00  0.00    -0.550 OA
ATOM      9  O   UNL     1      31.766  33.095  -1.353  1.00  0.00    -0.550 OA
ENDBRANCH   6   7
ENDBRANCH   5   6
ENDBRANCH   4   5
ENDBRANCH   3   4
ENDBRANCH   2   3
ENDBRANCH   1   2
BRANCH   1  10
ATOM     10  C   UNL     1      27.144  32.900   2.431  1.00  0.00     0.000 C 
BRANCH  10  11
ATOM     11  C   UNL     1      26.724  33.815   1.266  1.00  0.00    -0.000 C 
BRANCH  11  12
ATOM     12  C   UNL     1      25.608  34.821   1.599  1.00  0.00    -0.000 C 
BRANCH  12  13
ATOM     13  C   UNL     1      26.075  36.282   1.521  1.00  0.00    -0.000 C 
BRANCH  13  14
ATOM     14  C   UNL     1      27.598  36.361   1.339  1.00  0.00    -0.000 C 
BRANCH  14  15
ATOM     15  C   UNL     1      28.279  37.223   2.413  1.00  0.00    -0.003 C 
ATOM     16  C   UNL     1      29.795  37.031   2.452  1.00  0.00     0.004 C 
ENDBRANCH  14  15
ENDBRANCH  13  14
ENDBRANCH  12  13
ENDBRANCH  11  12
ENDBRANCH  10  11
ENDBRANCH   1  10
TORSDOF 12
ENDMDL
MODEL 9
REMARK VINA RESULT:    -3.438      1.479      2.618
REMARK INTER + INTRA:          -7.894
REMARK INTER:                  -6.336
REMARK INTRA:                  -1.558
REMARK UNBOUND:                -2.044
REMARK SMILES CCCCCCCCCCCCCC(=O)[O-]
REMARK SMILES IDX 8 1 9 2 10 3 11 4 12 5 13 6 14 7 15 8 16 9 7 10 6 11 5 12
REMARK SMILES IDX 4 13 3 14 2 15 1 16
REMARK H PARENT
REMARK Flexibility Score: inf
ROOT
ATOM      1  C   UNL     1      29.671  33.711   3.219  1.00  0.00     0.000 C 
ENDROOT
BRANCH   1   2
ATOM      2  C   UNL     1      28.545  34.000   4.235  1.00  0.00     0.000 C 
BRANCH   2   3
ATOM      3  C   UNL     1      27.155  33.632   3.693  1.00  0.00     0.000 C 
BRANCH   3   4
ATOM      4  C   UNL     1      27.264  32.894   2.354  1.00  0.00     0.000 C 
BRANCH   4   5
ATOM      5  C   UNL     1      26.437  33.595   1.270  1.00  0.00     0.006 C 
BRANCH   5   6
ATOM      6  C   UNL     1      26.429  35.112   1.477  1.00  0.00     0.053 C 
BRANCH   6   7
ATOM      7  C   UNL     1      25.065  35.669   1.220  1.00  0.00     0.041 C 
ATOM      8  O   UNL     1      24.883  36.915   1.198  1.00  0.00    -0.550 OA
ATOM      9  O   UNL     1      24.002  34.814   0.957  1.00  0.00    -0.550 OA
ENDBRANCH   6   7
ENDBRANCH   5   6
ENDBRANCH   4   5
ENDBRANCH   3   4
ENDBRANCH   2   3
ENDBRANCH   1   2
BRANCH   1  10
ATOM     10  C   UNL     1      30.106  34.945   2.407  1.00  0.00     0.000 C 
BRANCH  10  11
ATOM     11  C   UNL     1      30.573  34.651   0.970  1.00  0.00    -0.000 C 
BRANCH  11  12
ATOM     12  C   UNL     1      31.056  33.209   0.726  1.00  0.00    -0.000 C 
BRANCH  12  13
ATOM     13  C   UNL     1      32.586  33.082   0.718  1.00  0.00    -0.000 C 
BRANCH  13  14
ATOM     14  C   UNL     1      33.090  32.441   2.020  1.00  0.00    -0.000 C 
BRANCH  14  15
ATOM     15  C   UNL     1      33.479  33.482   3.080  1.00  0.00    -0.003 C 
ATOM     16  C   UNL     1      34.031  34.770   2.469  1.00  0.00     0.004 C 
ENDBRANCH  14  15
ENDBRANCH  13  14
ENDBRANCH  12  13
ENDBRANCH  11  12
ENDBRANCH  10  11
ENDBRANCH   1  10
TORSDOF 12
ENDMDL
