MODEL 1
REMARK VINA RESULT:    -3.441      0.000      0.000
REMARK INTER + INTRA:          -4.431
REMARK INTER:                  -4.246
REMARK INTRA:                  -0.185
REMARK UNBOUND:                -0.185
REMARK SMILES C=CC[C@H](C)C(=O)CC
REMARK SMILES IDX 4 1 5 2 6 3 7 4 8 5 9 6 3 7 2 8 1 9
REMARK H PARENT
REMARK Flexibility Score: inf
ROOT
ATOM      1  C   UNL     1       8.153  -7.127 -22.717  1.00  0.00     0.057 C 
ATOM      2  C   UNL     1       9.110  -6.084 -22.124  1.00  0.00     0.016 C 
ENDROOT
BRANCH   1   3
ATOM      3  C   UNL     1       7.314  -6.498 -23.807  1.00  0.00     0.135 C 
ATOM      4  O   UNL     1       7.772  -6.392 -24.938  1.00  0.00    -0.299 OA
BRANCH   3   5
ATOM      5  C   UNL     1       5.922  -6.007 -23.491  1.00  0.00     0.072 C 
ATOM      6  C   UNL     1       4.912  -6.302 -24.600  1.00  0.00     0.012 C 
ENDBRANCH   3   5
ENDBRANCH   1   3
BRANCH   1   7
ATOM      7  C   UNL     1       7.239  -7.744 -21.638  1.00  0.00     0.038 C 
BRANCH   7   8
ATOM      8  C   UNL     1       7.974  -8.719 -20.755  1.00  0.00    -0.034 C 
ATOM      9  C   UNL     1       7.326  -9.572 -19.956  1.00  0.00     0.004 C 
ENDBRANCH   7   8
ENDBRANCH   1   7
TORSDOF 4
ENDMDL
MODEL 2
REMARK VINA RESULT:    -3.425     19.996     21.313
REMARK INTER + INTRA:          -4.411
REMARK INTER:                  -4.192
REMARK INTRA:                  -0.219
REMARK UNBOUND:                -0.185
REMARK SMILES C=CC[C@H](C)C(=O)CC
REMARK SMILES IDX 4 1 5 2 6 3 7 4 8 5 9 6 3 7 2 8 1 9
REMARK H PARENT
REMARK Flexibility Score: inf
ROOT
ATOM      1  C   UNL     1      -3.862 -10.478  -5.930  1.00  0.00     0.057 C 
ATOM      2  C   UNL     1      -4.386  -9.811  -7.209  1.00  0.00     0.016 C 
ENDROOT
BRANCH   1   3
ATOM      3  C   UNL     1      -4.919 -11.393  -5.355  1.00  0.00     0.135 C 
ATOM      4  O   UNL     1      -4.705 -12.597  -5.283  1.00  0.00    -0.299 OA
BRANCH   3   5
ATOM      5  C   UNL     1      -6.229 -10.815  -4.875  1.00  0.00     0.072 C 
ATOM      6  C   UNL     1      -7.434 -11.695  -5.205  1.00  0.00     0.012 C 
ENDBRANCH   3   5
ENDBRANCH   1   3
BRANCH   1   7
ATOM      7  C   UNL     1      -3.434  -9.437  -4.875  1.00  0.00     0.038 C 
BRANCH   7   8
ATOM      8  C   UNL     1      -2.859  -8.193  -5.499  1.00  0.00    -0.034 C 
ATOM      9  C   UNL     1      -1.860  -7.515  -4.927  1.00  0.00     0.004 C 
ENDBRANCH   7   8
ENDBRANCH   1   7
TORSDOF 4
ENDMDL
MODEL 3
REMARK VINA RESULT:    -3.312      1.459      4.048
REMARK INTER + INTRA:          -4.271
REMARK INTER:                  -4.131
REMARK INTRA:                  -0.140
REMARK UNBOUND:                -0.185
REMARK SMILES C=CC[C@H](C)C(=O)CC
REMARK SMILES IDX 4 1 5 2 6 3 7 4 8 5 9 6 3 7 2 8 1 9
REMARK H PARENT
REMARK Flexibility Score: inf
ROOT
ATOM      1  C   UNL     1       7.808  -6.628 -22.154  1.00  0.00     0.057 C 
ATOM      2  C   UNL     1       9.124  -5.849 -22.282  1.00  0.00     0.016 C 
ENDROOT
BRANCH   1   3
ATOM      3  C   UNL     1       8.074  -7.997 -21.570  1.00  0.00     0.135 C 
ATOM      4  O   UNL     1       9.125  -8.571 -21.826  1.00  0.00    -0.299 OA
BRANCH   3   5
ATOM      5  C   UNL     1       7.042  -8.644 -20.678  1.00  0.00     0.072 C 
ATOM      6  C   UNL     1       7.595  -9.815 -19.866  1.00  0.00     0.012 C 
ENDBRANCH   3   5
ENDBRANCH   1   3
BRANCH   1   7
ATOM      7  C   UNL     1       7.087  -6.763 -23.511  1.00  0.00     0.038 C 
BRANCH   7   8
ATOM      8  C   UNL     1       5.924  -5.814 -23.639  1.00  0.00    -0.034 C 
ATOM      9  C   UNL     1       4.938  -6.024 -24.515  1.00  0.00     0.004 C 
ENDBRANCH   7   8
ENDBRANCH   1   7
TORSDOF 4
ENDMDL
MODEL 4
REMARK VINA RESULT:    -2.533     20.141     21.481
REMARK INTER + INTRA:          -3.310
REMARK INTER:                  -3.162
REMARK INTRA:                  -0.148
REMARK UNBOUND:                -0.185
REMARK SMILES C=CC[C@H](C)C(=O)CC
REMARK SMILES IDX 4 1 5 2 6 3 7 4 8 5 9 6 3 7 2 8 1 9
REMARK H PARENT
REMARK Flexibility Score: inf
ROOT
ATOM      1  C   UNL     1      -4.731 -11.090  -5.877  1.00  0.00     0.057 C 
ATOM      2  C   UNL     1      -3.803 -12.144  -5.255  1.00  0.00     0.016 C 
ENDROOT
BRANCH   1   3
ATOM      3  C   UNL     1      -3.983  -9.789  -6.060  1.00  0.00     0.135 C 
ATOM      4  O   UNL     1      -3.980  -9.241  -7.155  1.00  0.00    -0.299 OA
BRANCH   3   5
ATOM      5  C   UNL     1      -3.249  -9.177  -4.890  1.00  0.00     0.072 C 
ATOM      6  C   UNL     1      -2.651  -7.805  -5.205  1.00  0.00     0.012 C 
ENDBRANCH   3   5
ENDBRANCH   1   3
BRANCH   1   7
ATOM      7  C   UNL     1      -5.991 -10.859  -5.018  1.00  0.00     0.038 C 
BRANCH   7   8
ATOM      8  C   UNL     1      -7.187 -11.611  -5.542  1.00  0.00    -0.034 C 
ATOM      9  C   UNL     1      -8.344 -11.648  -4.875  1.00  0.00     0.004 C 
ENDBRANCH   7   8
ENDBRANCH   1   7
TORSDOF 4
ENDMDL
MODEL 5
REMARK VINA RESULT:    -1.476     17.831     19.002
REMARK INTER + INTRA:          -2.006
REMARK INTER:                  -1.801
REMARK INTRA:                  -0.205
REMARK UNBOUND:                -0.185
REMARK SMILES C=CC[C@H](C)C(=O)CC
REMARK SMILES IDX 4 1 5 2 6 3 7 4 8 5 9 6 3 7 2 8 1 9
REMARK H PARENT
REMARK Flexibility Score: inf
ROOT
ATOM      1  C   UNL     1      -7.683 -18.663 -24.839  1.00  0.00     0.057 C 
ATOM      2  C   UNL     1      -8.930 -19.552 -24.947  1.00  0.00     0.016 C 
ENDROOT
BRANCH   1   3
ATOM      3  C   UNL     1      -6.434 -19.508 -24.953  1.00  0.00     0.135 C 
ATOM      4  O   UNL     1      -6.529 -20.729 -24.964  1.00  0.00    -0.299 OA
BRANCH   3   5
ATOM      5  C   UNL     1      -5.084 -18.839 -25.053  1.00  0.00     0.072 C 
ATOM      6  C   UNL     1      -3.923 -19.831 -25.124  1.00  0.00     0.012 C 
ENDBRANCH   3   5
ENDBRANCH   1   3
BRANCH   1   7
ATOM      7  C   UNL     1      -7.661 -17.864 -23.519  1.00  0.00     0.038 C 
BRANCH   7   8
ATOM      8  C   UNL     1      -8.647 -18.396 -22.512  1.00  0.00    -0.034 C 
ATOM      9  C   UNL     1      -8.396 -18.373 -21.200  1.00  0.00     0.004 C 
ENDBRANCH   7   8
ENDBRANCH   1   7
TORSDOF 4
ENDMDL
MODEL 6
REMARK VINA RESULT:    -0.875     18.668     19.854
REMARK INTER + INTRA:          -1.264
REMARK INTER:                  -0.964
REMARK INTRA:                  -0.301
REMARK UNBOUND:                -0.185
REMARK SMILES C=CC[C@H](C)C(=O)CC
REMARK SMILES IDX 4 1 5 2 6 3 7 4 8 5 9 6 3 7 2 8 1 9
REMARK H PARENT
REMARK Flexibility Score: inf
ROOT
ATOM      1  C   UNL     1      -7.495 -18.689 -25.117  1.00  0.00     0.057 C 
ATOM      2  C   UNL     1      -5.966 -18.822 -25.075  1.00  0.00     0.016 C 
ENDROOT
BRANCH   1   3
ATOM      3  C   UNL     1      -7.973 -17.848 -23.955  1.00  0.00     0.135 C 
ATOM      4  O   UNL     1      -8.440 -16.735 -24.165  1.00  0.00    -0.299 OA
BRANCH   3   5
ATOM      5  C   UNL     1      -7.869 -18.387 -22.549  1.00  0.00     0.072 C 
ATOM      6  C   UNL     1      -9.212 -18.431 -21.819  1.00  0.00     0.012 C 
ENDBRANCH   3   5
ENDBRANCH   1   3
BRANCH   1   7
ATOM      7  C   UNL     1      -8.190 -20.066 -25.094  1.00  0.00     0.038 C 
BRANCH   7   8
ATOM      8  C   UNL     1      -9.692 -19.950 -25.125  1.00  0.00    -0.034 C 
ATOM      9  C   UNL     1     -10.483 -21.024 -25.058  1.00  0.00     0.004 C 
ENDBRANCH   7   8
ENDBRANCH   1   7
TORSDOF 4
ENDMDL
MODEL 7
REMARK VINA RESULT:    -0.807     18.685     19.893
REMARK INTER + INTRA:          -1.180
REMARK INTER:                  -1.048
REMARK INTRA:                  -0.132
REMARK UNBOUND:                -0.185
REMARK SMILES C=CC[C@H](C)C(=O)CC
REMARK SMILES IDX 4 1 5 2 6 3 7 4 8 5 9 6 3 7 2 8 1 9
REMARK H PARENT
REMARK Flexibility Score: inf
ROOT
ATOM      1  C   UNL     1      -8.124 -19.175 -24.140  1.00  0.00     0.057 C 
ATOM      2  C   UNL     1      -8.018 -17.748 -23.586  1.00  0.00     0.016 C 
ENDROOT
BRANCH   1   3
ATOM      3  C   UNL     1      -6.831 -19.561 -24.822  1.00  0.00     0.135 C 
ATOM      4  O   UNL     1      -6.632 -20.731 -25.124  1.00  0.00    -0.299 OA
BRANCH   3   5
ATOM      5  C   UNL     1      -5.799 -18.501 -25.123  1.00  0.00     0.072 C 
ATOM      6  C   UNL     1      -4.365 -19.029 -25.092  1.00  0.00     0.012 C 
ENDBRANCH   3   5
ENDBRANCH   1   3
BRANCH   1   7
ATOM      7  C   UNL     1      -9.304 -19.321 -25.124  1.00  0.00     0.038 C 
BRANCH   7   8
ATOM      8  C   UNL     1      -9.975 -20.666 -25.017  1.00  0.00    -0.034 C 
ATOM      9  C   UNL     1     -11.110 -20.835 -24.332  1.00  0.00     0.004 C 
ENDBRANCH   7   8
ENDBRANCH   1   7
TORSDOF 4
ENDMDL
