MODEL 1
REMARK VINA RESULT:    -4.141      0.000      0.000
REMARK INTER + INTRA:          -6.383
REMARK INTER:                  -6.077
REMARK INTRA:                  -0.306
REMARK UNBOUND:                -0.306
REMARK SMILES O=C([O-])CCCCCCCC(=O)[O-]
REMARK SMILES IDX 7 1 6 2 5 3 4 4 2 5 1 6 3 7 8 8 9 9 10 10 11 11 12 12 13 13
REMARK H PARENT
REMARK Flexibility Score: inf
ROOT
ATOM      1  C   UNL     1      44.020  12.342 -33.759  1.00  0.00     0.000 C 
ENDROOT
BRANCH   1   2
ATOM      2  C   UNL     1      43.648  11.875 -35.174  1.00  0.00     0.000 C 
BRANCH   2   3
ATOM      3  C   UNL     1      42.131  11.962 -35.399  1.00  0.00     0.006 C 
BRANCH   3   4
ATOM      4  C   UNL     1      41.755  13.055 -36.410  1.00  0.00     0.053 C 
BRANCH   4   5
ATOM      5  C   UNL     1      40.906  14.120 -35.787  1.00  0.00     0.041 C 
ATOM      6  O   UNL     1      41.424  15.206 -35.417  1.00  0.00    -0.550 OA
ATOM      7  O   UNL     1      39.538  13.926 -35.645  1.00  0.00    -0.550 OA
ENDBRANCH   4   5
ENDBRANCH   3   4
ENDBRANCH   2   3
ENDBRANCH   1   2
BRANCH   1   8
ATOM      8  C   UNL     1      45.519  12.652 -33.613  1.00  0.00     0.000 C 
BRANCH   8   9
ATOM      9  C   UNL     1      45.892  13.118 -32.197  1.00  0.00     0.006 C 
BRANCH   9  10
ATOM     10  C   UNL     1      45.147  12.301 -31.138  1.00  0.00     0.053 C 
BRANCH  10  11
ATOM     11  C   UNL     1      46.111  11.502 -30.319  1.00  0.00     0.041 C 
ATOM     12  O   UNL     1      47.049  10.875 -30.878  1.00  0.00    -0.550 OA
ATOM     13  O   UNL     1      45.944  11.408 -28.942  1.00  0.00    -0.550 OA
ENDBRANCH  10  11
ENDBRANCH   9  10
ENDBRANCH   8   9
ENDBRANCH   1   8
TORSDOF 8
ENDMDL
MODEL 2
REMARK VINA RESULT:    -3.538      1.464      2.006
REMARK INTER + INTRA:          -5.498
REMARK INTER:                  -5.321
REMARK INTRA:                  -0.178
REMARK UNBOUND:                -0.306
REMARK SMILES O=C([O-])CCCCCCCC(=O)[O-]
REMARK SMILES IDX 7 1 6 2 5 3 4 4 2 5 1 6 3 7 8 8 9 9 10 10 11 11 12 12 13 13
REMARK H PARENT
REMARK Flexibility Score: inf
ROOT
ATOM      1  C   UNL     1      43.001  11.758 -35.138  1.00  0.00     0.000 C 
ENDROOT
BRANCH   1   2
ATOM      2  C   UNL     1      42.219  12.760 -36.001  1.00  0.00     0.000 C 
BRANCH   2   3
ATOM      3  C   UNL     1      40.730  12.763 -35.624  1.00  0.00     0.006 C 
BRANCH   3   4
ATOM      4  C   UNL     1      40.054  14.105 -35.940  1.00  0.00     0.053 C 
BRANCH   4   5
ATOM      5  C   UNL     1      38.561  13.996 -35.901  1.00  0.00     0.041 C 
ATOM      6  O   UNL     1      37.937  14.216 -34.829  1.00  0.00    -0.550 OA
ATOM      7  O   UNL     1      37.854  13.684 -37.056  1.00  0.00    -0.550 OA
ENDBRANCH   4   5
ENDBRANCH   3   4
ENDBRANCH   2   3
ENDBRANCH   1   2
BRANCH   1   8
ATOM      8  C   UNL     1      44.363  12.306 -34.681  1.00  0.00     0.000 C 
BRANCH   8   9
ATOM      9  C   UNL     1      44.459  12.456 -33.155  1.00  0.00     0.006 C 
BRANCH   9  10
ATOM     10  C   UNL     1      45.917  12.601 -32.710  1.00  0.00     0.053 C 
BRANCH  10  11
ATOM     11  C   UNL     1      46.077  12.163 -31.289  1.00  0.00     0.041 C 
ATOM     12  O   UNL     1      46.853  11.214 -31.001  1.00  0.00    -0.550 OA
ATOM     13  O   UNL     1      45.331  12.771 -30.286  1.00  0.00    -0.550 OA
ENDBRANCH  10  11
ENDBRANCH   9  10
ENDBRANCH   8   9
ENDBRANCH   1   8
TORSDOF 8
ENDMDL
MODEL 3
REMARK VINA RESULT:    -3.409      1.249      7.055
REMARK INTER + INTRA:          -5.309
REMARK INTER:                  -5.058
REMARK INTRA:                  -0.251
REMARK UNBOUND:                -0.306
REMARK SMILES O=C([O-])CCCCCCCC(=O)[O-]
REMARK SMILES IDX 7 1 6 2 5 3 4 4 2 5 1 6 3 7 8 8 9 9 10 10 11 11 12 12 13 13
REMARK H PARENT
REMARK Flexibility Score: inf
ROOT
ATOM      1  C   UNL     1      43.259  12.074 -35.422  1.00  0.00     0.000 C 
ENDROOT
BRANCH   1   2
ATOM      2  C   UNL     1      43.528  12.054 -33.910  1.00  0.00     0.000 C 
BRANCH   2   3
ATOM      3  C   UNL     1      45.006  12.348 -33.613  1.00  0.00     0.006 C 
BRANCH   3   4
ATOM      4  C   UNL     1      45.196  13.080 -32.277  1.00  0.00     0.053 C 
BRANCH   4   5
ATOM      5  C   UNL     1      45.887  12.220 -31.265  1.00  0.00     0.041 C 
ATOM      6  O   UNL     1      45.509  12.225 -30.064  1.00  0.00    -0.550 OA
ATOM      7  O   UNL     1      46.929  11.387 -31.654  1.00  0.00    -0.550 OA
ENDBRANCH   4   5
ENDBRANCH   3   4
ENDBRANCH   2   3
ENDBRANCH   1   2
BRANCH   1   8
ATOM      8  C   UNL     1      41.759  12.121 -35.756  1.00  0.00     0.000 C 
BRANCH   8   9
ATOM      9  C   UNL     1      41.356  13.409 -36.492  1.00  0.00     0.006 C 
BRANCH   9  10
ATOM     10  C   UNL     1      40.542  14.329 -35.578  1.00  0.00     0.053 C 
BRANCH  10  11
ATOM     11  C   UNL     1      39.079  14.182 -35.856  1.00  0.00     0.041 C 
ATOM     12  O   UNL     1      38.236  14.814 -35.166  1.00  0.00    -0.550 OA
ATOM     13  O   UNL     1      38.644  13.309 -36.846  1.00  0.00    -0.550 OA
ENDBRANCH  10  11
ENDBRANCH   9  10
ENDBRANCH   8   9
ENDBRANCH   1   8
TORSDOF 8
ENDMDL
MODEL 4
REMARK VINA RESULT:    -3.374     19.877     20.661
REMARK INTER + INTRA:          -5.258
REMARK INTER:                  -4.818
REMARK INTRA:                  -0.440
REMARK UNBOUND:                -0.306
REMARK SMILES O=C([O-])CCCCCCCC(=O)[O-]
REMARK SMILES IDX 7 1 6 2 5 3 4 4 2 5 1 6 3 7 8 8 9 9 10 10 11 11 12 12 13 13
REMARK H PARENT
REMARK Flexibility Score: inf
ROOT
ATOM      1  C   UNL     1      56.255  27.911 -34.208  1.00  0.00     0.000 C 
ENDROOT
BRANCH   1   2
ATOM      2  C   UNL     1      56.836  29.236 -34.723  1.00  0.00     0.000 C 
BRANCH   2   3
ATOM      3  C   UNL     1      56.074  29.723 -35.964  1.00  0.00     0.006 C 
BRANCH   3   4
ATOM      4  C   UNL     1      55.617  28.561 -36.858  1.00  0.00     0.053 C 
BRANCH   4   5
ATOM      5  C   UNL     1      54.856  29.046 -38.053  1.00  0.00     0.041 C 
ATOM      6  O   UNL     1      55.003  30.228 -38.460  1.00  0.00    -0.550 OA
ATOM      7  O   UNL     1      54.010  28.182 -38.737  1.00  0.00    -0.550 OA
ENDBRANCH   4   5
ENDBRANCH   3   4
ENDBRANCH   2   3
ENDBRANCH   1   2
BRANCH   1   8
ATOM      8  C   UNL     1      57.016  27.364 -32.989  1.00  0.00     0.000 C 
BRANCH   8   9
ATOM      9  C   UNL     1      56.351  27.745 -31.657  1.00  0.00     0.006 C 
BRANCH   9  10
ATOM     10  C   UNL     1      57.125  28.868 -30.960  1.00  0.00     0.053 C 
BRANCH  10  11
ATOM     11  C   UNL     1      56.242  30.056 -30.743  1.00  0.00     0.041 C 
ATOM     12  O   UNL     1      56.358  30.750 -29.699  1.00  0.00    -0.550 OA
ATOM     13  O   UNL     1      55.256  30.368 -31.672  1.00  0.00    -0.550 OA
ENDBRANCH  10  11
ENDBRANCH   9  10
ENDBRANCH   8   9
ENDBRANCH   1   8
TORSDOF 8
ENDMDL
MODEL 5
REMARK VINA RESULT:    -2.948     19.270     21.077
REMARK INTER + INTRA:          -4.632
REMARK INTER:                  -4.237
REMARK INTRA:                  -0.396
REMARK UNBOUND:                -0.306
REMARK SMILES O=C([O-])CCCCCCCC(=O)[O-]
REMARK SMILES IDX 7 1 6 2 5 3 4 4 2 5 1 6 3 7 8 8 9 9 10 10 11 11 12 12 13 13
REMARK H PARENT
REMARK Flexibility Score: inf
ROOT
ATOM      1  C   UNL     1      56.551  30.091 -33.064  1.00  0.00     0.000 C 
ENDROOT
BRANCH   1   2
ATOM      2  C   UNL     1      56.952  28.681 -32.605  1.00  0.00     0.000 C 
BRANCH   2   3
ATOM      3  C   UNL     1      55.992  27.627 -33.175  1.00  0.00     0.006 C 
BRANCH   3   4
ATOM      4  C   UNL     1      56.677  26.711 -34.199  1.00  0.00     0.053 C 
BRANCH   4   5
ATOM      5  C   UNL     1      55.701  26.163 -35.195  1.00  0.00     0.041 C 
ATOM      6  O   UNL     1      55.265  24.988 -35.073  1.00  0.00    -0.550 OA
ATOM      7  O   UNL     1      55.248  26.961 -36.238  1.00  0.00    -0.550 OA
ENDBRANCH   4   5
ENDBRANCH   3   4
ENDBRANCH   2   3
ENDBRANCH   1   2
BRANCH   1   8
ATOM      8  C   UNL     1      57.067  30.425 -34.474  1.00  0.00     0.000 C 
BRANCH   8   9
ATOM      9  C   UNL     1      55.982  31.037 -35.373  1.00  0.00     0.006 C 
BRANCH   9  10
ATOM     10  C   UNL     1      55.723  30.154 -36.597  1.00  0.00     0.053 C 
BRANCH  10  11
ATOM     11  C   UNL     1      54.800  30.841 -37.553  1.00  0.00     0.041 C 
ATOM     12  O   UNL     1      53.624  31.125 -37.205  1.00  0.00    -0.550 OA
ATOM     13  O   UNL     1      55.224  31.124 -38.846  1.00  0.00    -0.550 OA
ENDBRANCH  10  11
ENDBRANCH   9  10
ENDBRANCH   8   9
ENDBRANCH   1   8
TORSDOF 8
ENDMDL
MODEL 6
REMARK VINA RESULT:    -2.865     19.930     21.338
REMARK INTER + INTRA:          -4.511
REMARK INTER:                  -4.094
REMARK INTRA:                  -0.417
REMARK UNBOUND:                -0.306
REMARK SMILES O=C([O-])CCCCCCCC(=O)[O-]
REMARK SMILES IDX 7 1 6 2 5 3 4 4 2 5 1 6 3 7 8 8 9 9 10 10 11 11 12 12 13 13
REMARK H PARENT
REMARK Flexibility Score: inf
ROOT
ATOM      1  C   UNL     1      56.329  27.956 -34.335  1.00  0.00     0.000 C 
ENDROOT
BRANCH   1   2
ATOM      2  C   UNL     1      57.125  27.374 -33.158  1.00  0.00     0.000 C 
BRANCH   2   3
ATOM      3  C   UNL     1      56.365  27.561 -31.837  1.00  0.00     0.006 C 
BRANCH   3   4
ATOM      4  C   UNL     1      57.125  28.459 -30.851  1.00  0.00     0.053 C 
BRANCH   4   5
ATOM      5  C   UNL     1      56.331  29.674 -30.480  1.00  0.00     0.041 C 
ATOM      6  O   UNL     1      56.616  30.323 -29.440  1.00  0.00    -0.550 OA
ATOM      7  O   UNL     1      55.296  30.107 -31.300  1.00  0.00    -0.550 OA
ENDBRANCH   4   5
ENDBRANCH   3   4
ENDBRANCH   2   3
ENDBRANCH   1   2
BRANCH   1   8
ATOM      8  C   UNL     1      56.795  29.369 -34.725  1.00  0.00     0.000 C 
BRANCH   8   9
ATOM      9  C   UNL     1      56.367  29.762 -36.147  1.00  0.00     0.006 C 
BRANCH   9  10
ATOM     10  C   UNL     1      55.641  28.606 -36.840  1.00  0.00     0.053 C 
BRANCH  10  11
ATOM     11  C   UNL     1      54.779  29.119 -37.950  1.00  0.00     0.041 C 
ATOM     12  O   UNL     1      54.424  28.352 -38.883  1.00  0.00    -0.550 OA
ATOM     13  O   UNL     1      54.407  30.458 -37.979  1.00  0.00    -0.550 OA
ENDBRANCH  10  11
ENDBRANCH   9  10
ENDBRANCH   8   9
ENDBRANCH   1   8
TORSDOF 8
ENDMDL
MODEL 7
REMARK VINA RESULT:    -2.488     19.540     21.135
REMARK INTER + INTRA:          -3.958
REMARK INTER:                  -3.408
REMARK INTRA:                  -0.550
REMARK UNBOUND:                -0.306
REMARK SMILES O=C([O-])CCCCCCCC(=O)[O-]
REMARK SMILES IDX 7 1 6 2 5 3 4 4 2 5 1 6 3 7 8 8 9 9 10 10 11 11 12 12 13 13
REMARK H PARENT
REMARK Flexibility Score: inf
ROOT
ATOM      1  C   UNL     1      57.125  27.038 -33.381  1.00  0.00     0.000 C 
ENDROOT
BRANCH   1   2
ATOM      2  C   UNL     1      56.209  27.045 -32.148  1.00  0.00     0.000 C 
BRANCH   2   3
ATOM      3  C   UNL     1      56.048  28.468 -31.593  1.00  0.00     0.006 C 
BRANCH   3   4
ATOM      4  C   UNL     1      57.072  29.444 -32.190  1.00  0.00     0.053 C 
BRANCH   4   5
ATOM      5  C   UNL     1      56.406  30.586 -32.894  1.00  0.00     0.041 C 
ATOM      6  O   UNL     1      55.381  31.124 -32.398  1.00  0.00    -0.550 OA
ATOM      7  O   UNL     1      56.935  31.077 -34.081  1.00  0.00    -0.550 OA
ENDBRANCH   4   5
ENDBRANCH   3   4
ENDBRANCH   2   3
ENDBRANCH   1   2
BRANCH   1   8
ATOM      8  C   UNL     1      56.371  26.697 -34.677  1.00  0.00     0.000 C 
BRANCH   8   9
ATOM      9  C   UNL     1      55.593  27.895 -35.243  1.00  0.00     0.006 C 
BRANCH   9  10
ATOM     10  C   UNL     1      56.048  28.219 -36.669  1.00  0.00     0.053 C 
BRANCH  10  11
ATOM     11  C   UNL     1      55.188  29.290 -37.262  1.00  0.00     0.041 C 
ATOM     12  O   UNL     1      54.207  28.985 -37.989  1.00  0.00    -0.550 OA
ATOM     13  O   UNL     1      55.501  30.628 -37.053  1.00  0.00    -0.550 OA
ENDBRANCH  10  11
ENDBRANCH   9  10
ENDBRANCH   8   9
ENDBRANCH   1   8
TORSDOF 8
ENDMDL
