MODEL 1
REMARK VINA RESULT:    -5.217      0.000      0.000
REMARK INTER + INTRA:          -9.470
REMARK INTER:                  -8.266
REMARK INTRA:                  -1.203
REMARK UNBOUND:                -1.203
REMARK SMILES CCCCCCCCCCCC(=O)[O-]
REMARK SMILES IDX 7 1 8 2 9 3 10 4 11 5 12 6 13 7 14 8 6 9 5 10 4 11 3 12 2 13
REMARK SMILES IDX 1 14
REMARK H PARENT
REMARK Flexibility Score: inf
ROOT
ATOM      1  C   UNL     1      52.861  52.234  21.059  1.00  0.00     0.000 C 
ENDROOT
BRANCH   1   2
ATOM      2  C   UNL     1      51.859  51.069  20.991  1.00  0.00     0.000 C 
BRANCH   2   3
ATOM      3  C   UNL     1      50.436  51.488  21.396  1.00  0.00     0.000 C 
BRANCH   3   4
ATOM      4  C   UNL     1      49.816  50.536  22.434  1.00  0.00     0.006 C 
BRANCH   4   5
ATOM      5  C   UNL     1      50.532  49.179  22.476  1.00  0.00     0.053 C 
BRANCH   5   6
ATOM      6  C   UNL     1      50.088  48.351  23.643  1.00  0.00     0.041 C 
ATOM      7  O   UNL     1      48.956  48.540  24.159  1.00  0.00    -0.550 OA
ATOM      8  O   UNL     1      50.938  47.390  24.179  1.00  0.00    -0.550 OA
ENDBRANCH   5   6
ENDBRANCH   4   5
ENDBRANCH   3   4
ENDBRANCH   2   3
ENDBRANCH   1   2
BRANCH   1   9
ATOM      9  C   UNL     1      52.179  53.613  21.025  1.00  0.00     0.000 C 
BRANCH   9  10
ATOM     10  C   UNL     1      52.580  54.567  22.166  1.00  0.00    -0.000 C 
BRANCH  10  11
ATOM     11  C   UNL     1      53.286  53.847  23.328  1.00  0.00    -0.000 C 
BRANCH  11  12
ATOM     12  C   UNL     1      52.296  53.293  24.367  1.00  0.00    -0.000 C 
BRANCH  12  13
ATOM     13  C   UNL     1      51.008  54.124  24.459  1.00  0.00    -0.003 C 
ATOM     14  C   UNL     1      49.819  53.251  24.849  1.00  0.00     0.004 C 
ENDBRANCH  12  13
ENDBRANCH  11  12
ENDBRANCH  10  11
ENDBRANCH   9  10
ENDBRANCH   1   9
TORSDOF 10
ENDMDL
MODEL 2
REMARK VINA RESULT:    -5.209      1.412      2.733
REMARK INTER + INTRA:          -9.457
REMARK INTER:                  -8.829
REMARK INTRA:                  -0.628
REMARK UNBOUND:                -1.203
REMARK SMILES CCCCCCCCCCCC(=O)[O-]
REMARK SMILES IDX 7 1 8 2 9 3 10 4 11 5 12 6 13 7 14 8 6 9 5 10 4 11 3 12 2 13
REMARK SMILES IDX 1 14
REMARK H PARENT
REMARK Flexibility Score: inf
ROOT
ATOM      1  C   UNL     1      50.262  51.712  21.499  1.00  0.00     0.000 C 
ENDROOT
BRANCH   1   2
ATOM      2  C   UNL     1      49.896  51.537  22.983  1.00  0.00     0.000 C 
BRANCH   2   3
ATOM      3  C   UNL     1      48.577  50.775  23.182  1.00  0.00     0.000 C 
BRANCH   3   4
ATOM      4  C   UNL     1      48.793  49.362  23.751  1.00  0.00     0.006 C 
BRANCH   4   5
ATOM      5  C   UNL     1      50.102  48.732  23.255  1.00  0.00     0.053 C 
BRANCH   5   6
ATOM      6  C   UNL     1      50.481  47.528  24.062  1.00  0.00     0.041 C 
ATOM      7  O   UNL     1      51.610  46.992  23.908  1.00  0.00    -0.550 OA
ATOM      8  O   UNL     1      49.577  46.979  24.963  1.00  0.00    -0.550 OA
ENDBRANCH   5   6
ENDBRANCH   4   5
ENDBRANCH   3   4
ENDBRANCH   2   3
ENDBRANCH   1   2
BRANCH   1   9
ATOM      9  C   UNL     1      51.674  51.198  21.166  1.00  0.00     0.000 C 
BRANCH   9  10
ATOM     10  C   UNL     1      52.753  52.289  21.039  1.00  0.00    -0.000 C 
BRANCH  10  11
ATOM     11  C   UNL     1      53.149  52.900  22.395  1.00  0.00    -0.000 C 
BRANCH  11  12
ATOM     12  C   UNL     1      52.707  54.367  22.532  1.00  0.00    -0.000 C 
BRANCH  12  13
ATOM     13  C   UNL     1      52.088  54.922  21.241  1.00  0.00    -0.003 C 
ATOM     14  C   UNL     1      52.630  56.313  20.927  1.00  0.00     0.004 C 
ENDBRANCH  12  13
ENDBRANCH  11  12
ENDBRANCH  10  11
ENDBRANCH   9  10
ENDBRANCH   1   9
TORSDOF 10
ENDMDL
MODEL 3
REMARK VINA RESULT:    -4.993      2.699      4.777
REMARK INTER + INTRA:          -9.115
REMARK INTER:                  -8.380
REMARK INTRA:                  -0.735
REMARK UNBOUND:                -1.203
REMARK SMILES CCCCCCCCCCCC(=O)[O-]
REMARK SMILES IDX 7 1 8 2 9 3 10 4 11 5 12 6 13 7 14 8 6 9 5 10 4 11 3 12 2 13
REMARK SMILES IDX 1 14
REMARK H PARENT
REMARK Flexibility Score: inf
ROOT
ATOM      1  C   UNL     1      50.754  50.937  22.456  1.00  0.00     0.000 C 
ENDROOT
BRANCH   1   2
ATOM      2  C   UNL     1      51.515  51.134  21.133  1.00  0.00     0.000 C 
BRANCH   2   3
ATOM      3  C   UNL     1      52.649  52.165  21.249  1.00  0.00     0.000 C 
BRANCH   3   4
ATOM      4  C   UNL     1      52.125  53.590  21.502  1.00  0.00     0.006 C 
BRANCH   4   5
ATOM      5  C   UNL     1      52.909  54.306  22.612  1.00  0.00     0.053 C 
BRANCH   5   6
ATOM      6  C   UNL     1      52.604  53.737  23.965  1.00  0.00     0.041 C 
ATOM      7  O   UNL     1      51.510  53.998  24.529  1.00  0.00    -0.550 OA
ATOM      8  O   UNL     1      53.542  52.942  24.613  1.00  0.00    -0.550 OA
ENDBRANCH   5   6
ENDBRANCH   4   5
ENDBRANCH   3   4
ENDBRANCH   2   3
ENDBRANCH   1   2
BRANCH   1   9
ATOM      9  C   UNL     1      50.195  49.513  22.617  1.00  0.00     0.000 C 
BRANCH   9  10
ATOM     10  C   UNL     1      48.992  49.388  23.571  1.00  0.00    -0.000 C 
BRANCH  10  11
ATOM     11  C   UNL     1      47.934  50.483  23.347  1.00  0.00    -0.000 C 
BRANCH  11  12
ATOM     12  C   UNL     1      47.504  51.164  24.656  1.00  0.00    -0.000 C 
BRANCH  12  13
ATOM     13  C   UNL     1      48.362  52.392  24.995  1.00  0.00    -0.003 C 
ATOM     14  C   UNL     1      47.834  53.104  26.237  1.00  0.00     0.004 C 
ENDBRANCH  12  13
ENDBRANCH  11  12
ENDBRANCH  10  11
ENDBRANCH   9  10
ENDBRANCH   1   9
TORSDOF 10
ENDMDL
MODEL 4
REMARK VINA RESULT:    -4.968      1.913      2.701
REMARK INTER + INTRA:          -9.075
REMARK INTER:                  -8.210
REMARK INTRA:                  -0.865
REMARK UNBOUND:                -1.203
REMARK SMILES CCCCCCCCCCCC(=O)[O-]
REMARK SMILES IDX 7 1 8 2 9 3 10 4 11 5 12 6 13 7 14 8 6 9 5 10 4 11 3 12 2 13
REMARK SMILES IDX 1 14
REMARK H PARENT
REMARK Flexibility Score: inf
ROOT
ATOM      1  C   UNL     1      51.504  50.924  21.082  1.00  0.00     0.000 C 
ENDROOT
BRANCH   1   2
ATOM      2  C   UNL     1      50.591  50.861  22.318  1.00  0.00     0.000 C 
BRANCH   2   3
ATOM      3  C   UNL     1      50.131  49.431  22.643  1.00  0.00     0.000 C 
BRANCH   3   4
ATOM      4  C   UNL     1      48.933  49.402  23.607  1.00  0.00     0.006 C 
BRANCH   4   5
ATOM      5  C   UNL     1      48.024  50.628  23.439  1.00  0.00     0.053 C 
BRANCH   5   6
ATOM      6  C   UNL     1      47.480  51.103  24.752  1.00  0.00     0.041 C 
ATOM      7  O   UNL     1      46.450  50.568  25.241  1.00  0.00    -0.550 OA
ATOM      8  O   UNL     1      48.094  52.154  25.421  1.00  0.00    -0.550 OA
ENDBRANCH   5   6
ENDBRANCH   4   5
ENDBRANCH   3   4
ENDBRANCH   2   3
ENDBRANCH   1   2
BRANCH   1   9
ATOM      9  C   UNL     1      52.620  51.975  21.216  1.00  0.00     0.000 C 
BRANCH   9  10
ATOM     10  C   UNL     1      52.261  53.379  20.695  1.00  0.00    -0.000 C 
BRANCH  10  11
ATOM     11  C   UNL     1      52.150  54.424  21.819  1.00  0.00    -0.000 C 
BRANCH  11  12
ATOM     12  C   UNL     1      53.049  54.094  23.021  1.00  0.00    -0.000 C 
BRANCH  12  13
ATOM     13  C   UNL     1      52.338  54.296  24.368  1.00  0.00    -0.003 C 
ATOM     14  C   UNL     1      50.940  53.685  24.346  1.00  0.00     0.004 C 
ENDBRANCH  12  13
ENDBRANCH  11  12
ENDBRANCH  10  11
ENDBRANCH   9  10
ENDBRANCH   1   9
TORSDOF 10
ENDMDL
MODEL 5
REMARK VINA RESULT:    -4.953      2.346      3.791
REMARK INTER + INTRA:          -9.052
REMARK INTER:                  -8.361
REMARK INTRA:                  -0.691
REMARK UNBOUND:                -1.203
REMARK SMILES CCCCCCCCCCCC(=O)[O-]
REMARK SMILES IDX 7 1 8 2 9 3 10 4 11 5 12 6 13 7 14 8 6 9 5 10 4 11 3 12 2 13
REMARK SMILES IDX 1 14
REMARK H PARENT
REMARK Flexibility Score: inf
ROOT
ATOM      1  C   UNL     1      50.938  50.921  22.384  1.00  0.00     0.000 C 
ENDROOT
BRANCH   1   2
ATOM      2  C   UNL     1      50.019  49.689  22.322  1.00  0.00     0.000 C 
BRANCH   2   3
ATOM      3  C   UNL     1      48.894  49.735  23.369  1.00  0.00     0.000 C 
BRANCH   3   4
ATOM      4  C   UNL     1      48.112  51.059  23.335  1.00  0.00     0.006 C 
BRANCH   4   5
ATOM      5  C   UNL     1      47.642  51.490  24.732  1.00  0.00     0.053 C 
BRANCH   5   6
ATOM      6  C   UNL     1      48.473  52.610  25.278  1.00  0.00     0.041 C 
ATOM      7  O   UNL     1      49.469  53.032  24.634  1.00  0.00    -0.550 OA
ATOM      8  O   UNL     1      48.165  53.169  26.513  1.00  0.00    -0.550 OA
ENDBRANCH   5   6
ENDBRANCH   4   5
ENDBRANCH   3   4
ENDBRANCH   2   3
ENDBRANCH   1   2
BRANCH   1   9
ATOM      9  C   UNL     1      51.663  51.193  21.054  1.00  0.00     0.000 C 
BRANCH   9  10
ATOM     10  C   UNL     1      52.822  52.204  21.139  1.00  0.00    -0.000 C 
BRANCH  10  11
ATOM     11  C   UNL     1      52.953  52.850  22.529  1.00  0.00    -0.000 C 
BRANCH  11  12
ATOM     12  C   UNL     1      52.608  54.348  22.517  1.00  0.00    -0.000 C 
BRANCH  12  13
ATOM     13  C   UNL     1      52.126  54.835  21.142  1.00  0.00    -0.003 C 
ATOM     14  C   UNL     1      52.549  56.279  20.892  1.00  0.00     0.004 C 
ENDBRANCH  12  13
ENDBRANCH  11  12
ENDBRANCH  10  11
ENDBRANCH   9  10
ENDBRANCH   1   9
TORSDOF 10
ENDMDL
MODEL 6
REMARK VINA RESULT:    -4.913      2.428      4.718
REMARK INTER + INTRA:          -8.989
REMARK INTER:                  -8.064
REMARK INTRA:                  -0.925
REMARK UNBOUND:                -1.203
REMARK SMILES CCCCCCCCCCCC(=O)[O-]
REMARK SMILES IDX 7 1 8 2 9 3 10 4 11 5 12 6 13 7 14 8 6 9 5 10 4 11 3 12 2 13
REMARK SMILES IDX 1 14
REMARK H PARENT
REMARK Flexibility Score: inf
ROOT
ATOM      1  C   UNL     1      52.121  53.386  22.337  1.00  0.00     0.000 C 
ENDROOT
BRANCH   1   2
ATOM      2  C   UNL     1      50.634  53.537  22.702  1.00  0.00     0.000 C 
BRANCH   2   3
ATOM      3  C   UNL     1      50.379  53.409  24.213  1.00  0.00     0.000 C 
BRANCH   3   4
ATOM      4  C   UNL     1      49.100  52.614  24.528  1.00  0.00     0.006 C 
BRANCH   4   5
ATOM      5  C   UNL     1      48.509  52.987  25.896  1.00  0.00     0.053 C 
BRANCH   5   6
ATOM      6  C   UNL     1      47.018  52.847  25.916  1.00  0.00     0.041 C 
ATOM      7  O   UNL     1      46.489  51.705  25.924  1.00  0.00    -0.550 OA
ATOM      8  O   UNL     1      46.211  53.979  25.895  1.00  0.00    -0.550 OA
ENDBRANCH   5   6
ENDBRANCH   4   5
ENDBRANCH   3   4
ENDBRANCH   2   3
ENDBRANCH   1   2
BRANCH   1   9
ATOM      9  C   UNL     1      52.407  52.119  21.511  1.00  0.00     0.000 C 
BRANCH   9  10
ATOM     10  C   UNL     1      51.161  51.312  21.101  1.00  0.00    -0.000 C 
BRANCH  10  11
ATOM     11  C   UNL     1      51.026  49.986  21.871  1.00  0.00    -0.000 C 
BRANCH  11  12
ATOM     12  C   UNL     1      49.581  49.707  22.314  1.00  0.00    -0.000 C 
BRANCH  12  13
ATOM     13  C   UNL     1      49.506  48.873  23.602  1.00  0.00    -0.003 C 
ATOM     14  C   UNL     1      50.705  47.937  23.720  1.00  0.00     0.004 C 
ENDBRANCH  12  13
ENDBRANCH  11  12
ENDBRANCH  10  11
ENDBRANCH   9  10
ENDBRANCH   1   9
TORSDOF 10
ENDMDL
MODEL 7
REMARK VINA RESULT:    -4.873      3.116      4.953
REMARK INTER + INTRA:          -8.925
REMARK INTER:                  -8.328
REMARK INTRA:                  -0.597
REMARK UNBOUND:                -1.203
REMARK SMILES CCCCCCCCCCCC(=O)[O-]
REMARK SMILES IDX 7 1 8 2 9 3 10 4 11 5 12 6 13 7 14 8 6 9 5 10 4 11 3 12 2 13
REMARK SMILES IDX 1 14
REMARK H PARENT
REMARK Flexibility Score: inf
ROOT
ATOM      1  C   UNL     1      50.172  49.740  22.431  1.00  0.00     0.000 C 
ENDROOT
BRANCH   1   2
ATOM      2  C   UNL     1      50.621  51.184  22.148  1.00  0.00     0.000 C 
BRANCH   2   3
ATOM      3  C   UNL     1      51.761  51.260  21.120  1.00  0.00     0.000 C 
BRANCH   3   4
ATOM      4  C   UNL     1      52.632  52.516  21.297  1.00  0.00     0.006 C 
BRANCH   4   5
ATOM      5  C   UNL     1      51.977  53.548  22.226  1.00  0.00     0.053 C 
BRANCH   5   6
ATOM      6  C   UNL     1      52.809  53.807  23.445  1.00  0.00     0.041 C 
ATOM      7  O   UNL     1      52.331  54.458  24.411  1.00  0.00    -0.550 OA
ATOM      8  O   UNL     1      54.122  53.355  23.502  1.00  0.00    -0.550 OA
ENDBRANCH   5   6
ENDBRANCH   4   5
ENDBRANCH   3   4
ENDBRANCH   2   3
ENDBRANCH   1   2
BRANCH   1   9
ATOM      9  C   UNL     1      49.112  49.651  23.543  1.00  0.00     0.000 C 
BRANCH   9  10
ATOM     10  C   UNL     1      47.928  50.625  23.397  1.00  0.00    -0.000 C 
BRANCH  10  11
ATOM     11  C   UNL     1      47.474  51.221  24.741  1.00  0.00    -0.000 C 
BRANCH  11  12
ATOM     12  C   UNL     1      48.340  52.415  25.178  1.00  0.00    -0.000 C 
BRANCH  12  13
ATOM     13  C   UNL     1      47.722  53.199  26.345  1.00  0.00    -0.003 C 
ATOM     14  C   UNL     1      46.286  53.607  26.033  1.00  0.00     0.004 C 
ENDBRANCH  12  13
ENDBRANCH  11  12
ENDBRANCH  10  11
ENDBRANCH   9  10
ENDBRANCH   1   9
TORSDOF 10
ENDMDL
MODEL 8
REMARK VINA RESULT:    -4.801      1.255      3.081
REMARK INTER + INTRA:          -8.810
REMARK INTER:                  -7.910
REMARK INTRA:                  -0.901
REMARK UNBOUND:                -1.203
REMARK SMILES CCCCCCCCCCCC(=O)[O-]
REMARK SMILES IDX 7 1 8 2 9 3 10 4 11 5 12 6 13 7 14 8 6 9 5 10 4 11 3 12 2 13
REMARK SMILES IDX 1 14
REMARK H PARENT
REMARK Flexibility Score: inf
ROOT
ATOM      1  C   UNL     1      49.660  53.007  24.837  1.00  0.00     0.000 C 
ENDROOT
BRANCH   1   2
ATOM      2  C   UNL     1      49.184  52.130  23.666  1.00  0.00     0.000 C 
BRANCH   2   3
ATOM      3  C   UNL     1      47.838  51.445  23.947  1.00  0.00     0.000 C 
BRANCH   3   4
ATOM      4  C   UNL     1      47.986  49.933  24.194  1.00  0.00     0.006 C 
BRANCH   4   5
ATOM      5  C   UNL     1      49.235  49.356  23.512  1.00  0.00     0.053 C 
BRANCH   5   6
ATOM      6  C   UNL     1      49.612  48.021  24.079  1.00  0.00     0.041 C 
ATOM      7  O   UNL     1      48.745  47.306  24.647  1.00  0.00    -0.550 OA
ATOM      8  O   UNL     1      50.927  47.579  24.006  1.00  0.00    -0.550 OA
ENDBRANCH   5   6
ENDBRANCH   4   5
ENDBRANCH   3   4
ENDBRANCH   2   3
ENDBRANCH   1   2
BRANCH   1   9
ATOM      9  C   UNL     1      50.799  53.964  24.443  1.00  0.00     0.000 C 
BRANCH   9  10
ATOM     10  C   UNL     1      52.151  53.285  24.154  1.00  0.00    -0.000 C 
BRANCH  10  11
ATOM     11  C   UNL     1      52.888  53.906  22.954  1.00  0.00    -0.000 C 
BRANCH  11  12
ATOM     12  C   UNL     1      52.272  53.493  21.607  1.00  0.00    -0.000 C 
BRANCH  12  13
ATOM     13  C   UNL     1      52.747  52.110  21.137  1.00  0.00    -0.003 C 
ATOM     14  C   UNL     1      51.600  51.104  21.142  1.00  0.00     0.004 C 
ENDBRANCH  12  13
ENDBRANCH  11  12
ENDBRANCH  10  11
ENDBRANCH   9  10
ENDBRANCH   1   9
TORSDOF 10
ENDMDL
MODEL 9
REMARK VINA RESULT:    -4.791      1.425      2.480
REMARK INTER + INTRA:          -8.795
REMARK INTER:                  -7.946
REMARK INTRA:                  -0.849
REMARK UNBOUND:                -1.203
REMARK SMILES CCCCCCCCCCCC(=O)[O-]
REMARK SMILES IDX 7 1 8 2 9 3 10 4 11 5 12 6 13 7 14 8 6 9 5 10 4 11 3 12 2 13
REMARK SMILES IDX 1 14
REMARK H PARENT
REMARK Flexibility Score: inf
ROOT
ATOM      1  C   UNL     1      53.387  53.245  22.821  1.00  0.00     0.000 C 
ENDROOT
BRANCH   1   2
ATOM      2  C   UNL     1      53.245  52.481  21.493  1.00  0.00     0.000 C 
BRANCH   2   3
ATOM      3  C   UNL     1      51.778  52.228  21.108  1.00  0.00     0.000 C 
BRANCH   3   4
ATOM      4  C   UNL     1      51.366  50.758  21.295  1.00  0.00     0.006 C 
BRANCH   4   5
ATOM      5  C   UNL     1      49.898  50.618  21.723  1.00  0.00     0.053 C 
BRANCH   5   6
ATOM      6  C   UNL     1      49.724  49.577  22.787  1.00  0.00     0.041 C 
ATOM      7  O   UNL     1      48.811  49.695  23.645  1.00  0.00    -0.550 OA
ATOM      8  O   UNL     1      50.590  48.492  22.847  1.00  0.00    -0.550 OA
ENDBRANCH   5   6
ENDBRANCH   4   5
ENDBRANCH   3   4
ENDBRANCH   2   3
ENDBRANCH   1   2
BRANCH   1   9
ATOM      9  C   UNL     1      52.137  54.071  23.171  1.00  0.00     0.000 C 
BRANCH   9  10
ATOM     10  C   UNL     1      51.429  53.662  24.476  1.00  0.00    -0.000 C 
BRANCH  10  11
ATOM     11  C   UNL     1      49.970  53.228  24.255  1.00  0.00    -0.000 C 
BRANCH  11  12
ATOM     12  C   UNL     1      49.149  53.234  25.555  1.00  0.00    -0.000 C 
BRANCH  12  13
ATOM     13  C   UNL     1      47.774  52.571  25.392  1.00  0.00    -0.003 C 
ATOM     14  C   UNL     1      46.736  53.231  26.294  1.00  0.00     0.004 C 
ENDBRANCH  12  13
ENDBRANCH  11  12
ENDBRANCH  10  11
ENDBRANCH   9  10
ENDBRANCH   1   9
TORSDOF 10
ENDMDL
