MODEL 1
REMARK VINA RESULT:    -2.768      0.000      0.000
REMARK INTER + INTRA:          -2.768
REMARK INTER:                  -2.768
REMARK INTRA:                   0.000
REMARK UNBOUND:                 0.000
REMARK SMILES CC(=O)[O-]
REMARK SMILES IDX 1 1 2 2 3 3 4 4
REMARK H PARENT
REMARK Flexibility Score: inf
ROOT
ATOM      1  C   UNL     1      22.388  -0.225  25.910  1.00  0.00     0.063 C 
ATOM      2  C   UNL     1      21.428  -0.941  26.798  1.00  0.00     0.038 C 
ATOM      3  O   UNL     1      21.187  -2.163  26.613  1.00  0.00    -0.550 OA
ATOM      4  O   UNL     1      20.757  -0.251  27.798  1.00  0.00    -0.550 OA
ENDROOT
TORSDOF 0
ENDMDL
MODEL 2
REMARK VINA RESULT:    -2.728     15.440     15.545
REMARK INTER + INTRA:          -2.728
REMARK INTER:                  -2.728
REMARK INTRA:                   0.000
REMARK UNBOUND:                 0.000
REMARK SMILES CC(=O)[O-]
REMARK SMILES IDX 1 1 2 2 3 3 4 4
REMARK H PARENT
REMARK Flexibility Score: inf
ROOT
ATOM      1  C   UNL     1      34.075   0.764  34.781  1.00  0.00     0.063 C 
ATOM      2  C   UNL     1      35.106   0.158  33.891  1.00  0.00     0.038 C 
ATOM      3  O   UNL     1      35.471  -1.034  34.068  1.00  0.00    -0.550 OA
ATOM      4  O   UNL     1      35.706   0.921  32.899  1.00  0.00    -0.550 OA
ENDROOT
TORSDOF 0
ENDMDL
MODEL 3
REMARK VINA RESULT:    -2.707     15.244     15.455
REMARK INTER + INTRA:          -2.707
REMARK INTER:                  -2.707
REMARK INTRA:                   0.000
REMARK UNBOUND:                 0.000
REMARK SMILES CC(=O)[O-]
REMARK SMILES IDX 1 1 2 2 3 3 4 4
REMARK H PARENT
REMARK Flexibility Score: inf
ROOT
ATOM      1  C   UNL     1      35.475  -0.550  31.461  1.00  0.00     0.063 C 
ATOM      2  C   UNL     1      35.538   0.047  32.825  1.00  0.00     0.038 C 
ATOM      3  O   UNL     1      35.845   1.260  32.971  1.00  0.00    -0.550 OA
ATOM      4  O   UNL     1      35.310  -0.744  33.943  1.00  0.00    -0.550 OA
ENDROOT
TORSDOF 0
ENDMDL
MODEL 4
REMARK VINA RESULT:    -2.687      1.450      2.587
REMARK INTER + INTRA:          -2.687
REMARK INTER:                  -2.687
REMARK INTRA:                   0.000
REMARK UNBOUND:                 0.000
REMARK SMILES CC(=O)[O-]
REMARK SMILES IDX 1 1 2 2 3 3 4 4
REMARK H PARENT
REMARK Flexibility Score: inf
ROOT
ATOM      1  C   UNL     1      21.246  -1.653  29.273  1.00  0.00     0.063 C 
ATOM      2  C   UNL     1      21.009  -1.081  27.917  1.00  0.00     0.038 C 
ATOM      3  O   UNL     1      20.534   0.078  27.794  1.00  0.00    -0.550 OA
ATOM      4  O   UNL     1      21.260  -1.845  26.785  1.00  0.00    -0.550 OA
ENDROOT
TORSDOF 0
ENDMDL
MODEL 5
REMARK VINA RESULT:    -2.623      1.473      2.056
REMARK INTER + INTRA:          -2.623
REMARK INTER:                  -2.623
REMARK INTRA:                   0.000
REMARK UNBOUND:                 0.000
REMARK SMILES CC(=O)[O-]
REMARK SMILES IDX 1 1 2 2 3 3 4 4
REMARK H PARENT
REMARK Flexibility Score: inf
ROOT
ATOM      1  C   UNL     1      21.195  -1.747  29.275  1.00  0.00     0.063 C 
ATOM      2  C   UNL     1      20.999  -1.182  27.909  1.00  0.00     0.038 C 
ATOM      3  O   UNL     1      21.293  -1.868  26.895  1.00  0.00    -0.550 OA
ATOM      4  O   UNL     1      20.544   0.120  27.752  1.00  0.00    -0.550 OA
ENDROOT
TORSDOF 0
ENDMDL
MODEL 6
REMARK VINA RESULT:    -2.589      2.290      2.872
REMARK INTER + INTRA:          -2.589
REMARK INTER:                  -2.589
REMARK INTRA:                   0.000
REMARK UNBOUND:                 0.000
REMARK SMILES CC(=O)[O-]
REMARK SMILES IDX 1 1 2 2 3 3 4 4
REMARK H PARENT
REMARK Flexibility Score: inf
ROOT
ATOM      1  C   UNL     1      20.861  -0.624  27.951  1.00  0.00     0.063 C 
ATOM      2  C   UNL     1      21.248  -1.641  28.969  1.00  0.00     0.038 C 
ATOM      3  O   UNL     1      21.896  -1.296  29.993  1.00  0.00    -0.550 OA
ATOM      4  O   UNL     1      20.945  -2.980  28.767  1.00  0.00    -0.550 OA
ENDROOT
TORSDOF 0
ENDMDL
MODEL 7
REMARK VINA RESULT:    -2.492     14.506     14.647
REMARK INTER + INTRA:          -2.492
REMARK INTER:                  -2.492
REMARK INTRA:                   0.000
REMARK UNBOUND:                 0.000
REMARK SMILES CC(=O)[O-]
REMARK SMILES IDX 1 1 2 2 3 3 4 4
REMARK H PARENT
REMARK Flexibility Score: inf
ROOT
ATOM      1  C   UNL     1      34.361  -0.584  30.314  1.00  0.00     0.063 C 
ATOM      2  C   UNL     1      35.307  -0.686  31.462  1.00  0.00     0.038 C 
ATOM      3  O   UNL     1      35.809  -1.798  31.771  1.00  0.00    -0.550 OA
ATOM      4  O   UNL     1      35.596   0.436  32.227  1.00  0.00    -0.550 OA
ENDROOT
TORSDOF 0
ENDMDL
MODEL 8
REMARK VINA RESULT:    -2.462     14.622     14.802
REMARK INTER + INTRA:          -2.462
REMARK INTER:                  -2.462
REMARK INTRA:                   0.000
REMARK UNBOUND:                 0.000
REMARK SMILES CC(=O)[O-]
REMARK SMILES IDX 1 1 2 2 3 3 4 4
REMARK H PARENT
REMARK Flexibility Score: inf
ROOT
ATOM      1  C   UNL     1      35.535   0.336  32.660  1.00  0.00     0.063 C 
ATOM      2  C   UNL     1      35.288  -0.665  31.583  1.00  0.00     0.038 C 
ATOM      3  O   UNL     1      34.561  -0.368  30.599  1.00  0.00    -0.550 OA
ATOM      4  O   UNL     1      35.813  -1.946  31.689  1.00  0.00    -0.550 OA
ENDROOT
TORSDOF 0
ENDMDL
MODEL 9
REMARK VINA RESULT:    -2.083     11.172     11.484
REMARK INTER + INTRA:          -2.083
REMARK INTER:                  -2.083
REMARK INTRA:                   0.000
REMARK UNBOUND:                 0.000
REMARK SMILES CC(=O)[O-]
REMARK SMILES IDX 1 1 2 2 3 3 4 4
REMARK H PARENT
REMARK Flexibility Score: inf
ROOT
ATOM      1  C   UNL     1      28.866  -8.881  30.196  1.00  0.00     0.063 C 
ATOM      2  C   UNL     1      28.739  -8.163  31.496  1.00  0.00     0.038 C 
ATOM      3  O   UNL     1      28.798  -6.906  31.532  1.00  0.00    -0.550 OA
ATOM      4  O   UNL     1      28.611  -8.880  32.678  1.00  0.00    -0.550 OA
ENDROOT
TORSDOF 0
ENDMDL
