MODEL 1
REMARK VINA RESULT:     3.250      0.000      0.000
REMARK INTER + INTRA:           3.585
REMARK INTER:                   3.725
REMARK INTRA:                  -0.140
REMARK UNBOUND:                -0.140
REMARK SMILES O=C([O-])C=Cc1ccc(O)cc1
REMARK SMILES IDX 6 1 7 2 12 3 8 4 11 5 9 6 5 7 4 8 2 9 1 10 3 11 10 12
REMARK H PARENT 10 13
REMARK Flexibility Score: inf
ROOT
ATOM      1  C   UNL     1      -3.256  -0.452   2.102  1.00  0.00    -0.025 A 
ATOM      2  C   UNL     1      -3.960  -0.135   3.281  1.00  0.00     0.012 A 
ATOM      3  C   UNL     1      -1.902  -0.087   2.002  1.00  0.00     0.012 A 
ATOM      4  C   UNL     1      -3.325   0.553   4.321  1.00  0.00     0.047 A 
ATOM      5  C   UNL     1      -1.272   0.600   3.044  1.00  0.00     0.047 A 
ATOM      6  C   UNL     1      -1.984   0.924   4.205  1.00  0.00     0.115 A 
ENDROOT
BRANCH   1   7
ATOM      7  C   UNL     1      -3.877  -1.190   0.973  1.00  0.00     0.010 C 
ATOM      8  C   UNL     1      -4.858  -2.092   1.123  1.00  0.00     0.025 C 
BRANCH   8   9
ATOM      9  C   UNL     1      -5.459  -2.797  -0.021  1.00  0.00     0.064 C 
ATOM     10  O   UNL     1      -6.677  -3.125  -0.020  1.00  0.00    -0.545 OA
ATOM     11  O   UNL     1      -4.672  -3.104  -1.123  1.00  0.00    -0.545 OA
ENDBRANCH   8   9
ENDBRANCH   1   7
BRANCH   6  12
ATOM     12  O   UNL     1      -1.367   1.610   5.249  1.00  0.00    -0.508 OA
ATOM     13  H   UNL     1      -1.337   2.623   5.273  1.00  0.00     0.293 HD
ENDBRANCH   6  12
TORSDOF 3
ENDMDL
MODEL 2
REMARK VINA RESULT:     3.558      1.509      5.710
REMARK INTER + INTRA:           3.938
REMARK INTER:                   4.075
REMARK INTRA:                  -0.137
REMARK UNBOUND:                -0.140
REMARK SMILES O=C([O-])C=Cc1ccc(O)cc1
REMARK SMILES IDX 6 1 7 2 12 3 8 4 11 5 9 6 5 7 4 8 2 9 1 10 3 11 10 12
REMARK H PARENT 10 13
REMARK Flexibility Score: inf
ROOT
ATOM      1  C   UNL     1      -3.445  -0.815   2.023  1.00  0.00    -0.025 A 
ATOM      2  C   UNL     1      -3.574  -0.966   0.628  1.00  0.00     0.012 A 
ATOM      3  C   UNL     1      -4.365  -1.466   2.863  1.00  0.00     0.012 A 
ATOM      4  C   UNL     1      -4.616  -1.730   0.092  1.00  0.00     0.047 A 
ATOM      5  C   UNL     1      -5.405  -2.229   2.323  1.00  0.00     0.047 A 
ATOM      6  C   UNL     1      -5.534  -2.360   0.935  1.00  0.00     0.115 A 
ENDROOT
BRANCH   1   7
ATOM      7  C   UNL     1      -2.353  -0.026   2.645  1.00  0.00     0.010 C 
ATOM      8  C   UNL     1      -1.059  -0.373   2.592  1.00  0.00     0.025 C 
BRANCH   8   9
ATOM      9  C   UNL     1      -0.000   0.441   3.211  1.00  0.00     0.064 C 
ATOM     10  O   UNL     1      -0.263   1.262   4.131  1.00  0.00    -0.545 OA
ATOM     11  O   UNL     1       1.311   0.301   2.777  1.00  0.00    -0.545 OA
ENDBRANCH   8   9
ENDBRANCH   1   7
BRANCH   6  12
ATOM     12  O   UNL     1      -6.567  -3.117   0.386  1.00  0.00    -0.508 OA
ATOM     13  H   UNL     1      -6.402  -3.766  -0.375  1.00  0.00     0.293 HD
ENDBRANCH   6  12
TORSDOF 3
ENDMDL
MODEL 3
REMARK VINA RESULT:     5.870      0.799      1.767
REMARK INTER + INTRA:           6.587
REMARK INTER:                   6.724
REMARK INTRA:                  -0.136
REMARK UNBOUND:                -0.140
REMARK SMILES O=C([O-])C=Cc1ccc(O)cc1
REMARK SMILES IDX 6 1 7 2 12 3 8 4 11 5 9 6 5 7 4 8 2 9 1 10 3 11 10 12
REMARK H PARENT 10 13
REMARK Flexibility Score: inf
ROOT
ATOM      1  C   UNL     1      -3.062  -0.759   2.284  1.00  0.00    -0.025 A 
ATOM      2  C   UNL     1      -1.725  -0.403   2.017  1.00  0.00     0.012 A 
ATOM      3  C   UNL     1      -3.668  -0.282   3.459  1.00  0.00     0.012 A 
ATOM      4  C   UNL     1      -1.010   0.390   2.920  1.00  0.00     0.047 A 
ATOM      5  C   UNL     1      -2.950   0.510   4.359  1.00  0.00     0.047 A 
ATOM      6  C   UNL     1      -1.617   0.846   4.092  1.00  0.00     0.115 A 
ENDROOT
BRANCH   1   7
ATOM      7  C   UNL     1      -3.871  -1.588   1.355  1.00  0.00     0.010 C 
ATOM      8  C   UNL     1      -4.568  -1.087   0.324  1.00  0.00     0.025 C 
BRANCH   8   9
ATOM      9  C   UNL     1      -5.350  -1.942  -0.584  1.00  0.00     0.064 C 
ATOM     10  O   UNL     1      -4.955  -3.099  -0.894  1.00  0.00    -0.545 OA
ATOM     11  O   UNL     1      -6.544  -1.467  -1.108  1.00  0.00    -0.545 OA
ENDBRANCH   8   9
ENDBRANCH   1   7
BRANCH   6  12
ATOM     12  O   UNL     1      -0.890   1.633   4.983  1.00  0.00    -0.508 OA
ATOM     13  H   UNL     1       0.062   1.400   5.241  1.00  0.00     0.293 HD
ENDBRANCH   6  12
TORSDOF 3
ENDMDL
