MODEL 1
REMARK VINA RESULT:    -5.687      0.000      0.000
REMARK INTER + INTRA:          -6.470
REMARK INTER:                  -6.352
REMARK INTRA:                  -0.119
REMARK UNBOUND:                -0.119
REMARK SMILES COc1cc2ccc(=O)oc2cc1OC
REMARK SMILES IDX 3 1 13 2 12 3 11 4 5 5 4 6 6 7 7 8 8 9 9 10 10 11 2 12 1 13
REMARK SMILES IDX 14 14 15 15
REMARK H PARENT
REMARK Flexibility Score: inf
ROOT
ATOM      1  C   UNL     1      59.067  -1.844  -0.331  1.00  0.00     0.161 A 
ATOM      2  C   UNL     1      57.906  -1.197   0.127  1.00  0.00     0.164 A 
ATOM      3  C   UNL     1      57.496   0.010  -0.473  1.00  0.00     0.098 A 
ATOM      4  C   UNL     1      58.234   0.568  -1.519  1.00  0.00     0.142 A 
ATOM      5  C   UNL     1      59.398  -0.081  -1.978  1.00  0.00     0.022 A 
ATOM      6  C   UNL     1      59.812  -1.281  -1.386  1.00  0.00     0.062 A 
ATOM      7  C   UNL     1      60.117   0.503  -3.027  1.00  0.00     0.019 A 
ATOM      8  C   UNL     1      59.665   1.699  -3.584  1.00  0.00     0.094 A 
ATOM      9  C   UNL     1      58.501   2.285  -3.077  1.00  0.00     0.336 A 
ATOM     10  O   UNL     1      58.076   3.365  -3.565  1.00  0.00    -0.246 OA
ATOM     11  O   UNL     1      57.837   1.708  -2.078  1.00  0.00    -0.423 OA
ENDROOT
BRANCH   1  12
ATOM     12  O   UNL     1      59.448  -3.045   0.289  1.00  0.00    -0.493 OA
ATOM     13  C   UNL     1      60.510  -3.168   1.230  1.00  0.00     0.278 C 
ENDBRANCH   1  12
BRANCH   2  14
ATOM     14  O   UNL     1      57.189  -1.787   1.180  1.00  0.00    -0.493 OA
ATOM     15  C   UNL     1      56.057  -1.200   1.813  1.00  0.00     0.278 C 
ENDBRANCH   2  14
TORSDOF 2
ENDMDL
MODEL 2
REMARK VINA RESULT:    -5.109      1.717      3.241
REMARK INTER + INTRA:          -5.825
REMARK INTER:                  -5.707
REMARK INTRA:                  -0.118
REMARK UNBOUND:                -0.119
REMARK SMILES COc1cc2ccc(=O)oc2cc1OC
REMARK SMILES IDX 3 1 13 2 12 3 11 4 5 5 4 6 6 7 7 8 8 9 9 10 10 11 2 12 1 13
REMARK SMILES IDX 14 14 15 15
REMARK H PARENT
REMARK Flexibility Score: inf
ROOT
ATOM      1  C   UNL     1      59.584  -1.989  -1.286  1.00  0.00     0.161 A 
ATOM      2  C   UNL     1      60.387  -1.811  -2.426  1.00  0.00     0.164 A 
ATOM      3  C   UNL     1      60.329  -0.598  -3.140  1.00  0.00     0.098 A 
ATOM      4  C   UNL     1      59.479   0.428  -2.724  1.00  0.00     0.142 A 
ATOM      5  C   UNL     1      58.673   0.251  -1.580  1.00  0.00     0.022 A 
ATOM      6  C   UNL     1      58.726  -0.952  -0.866  1.00  0.00     0.062 A 
ATOM      7  C   UNL     1      57.832   1.298  -1.189  1.00  0.00     0.019 A 
ATOM      8  C   UNL     1      57.814   2.477  -1.933  1.00  0.00     0.094 A 
ATOM      9  C   UNL     1      58.641   2.581  -3.056  1.00  0.00     0.336 A 
ATOM     10  O   UNL     1      58.640   3.637  -3.742  1.00  0.00    -0.246 OA
ATOM     11  O   UNL     1      59.431   1.570  -3.406  1.00  0.00    -0.423 OA
ENDROOT
BRANCH   1  12
ATOM     12  O   UNL     1      59.667  -3.210  -0.597  1.00  0.00    -0.493 OA
ATOM     13  C   UNL     1      58.864  -3.561   0.525  1.00  0.00     0.278 C 
ENDBRANCH   1  12
BRANCH   2  14
ATOM     14  O   UNL     1      61.229  -2.865  -2.815  1.00  0.00    -0.493 OA
ATOM     15  C   UNL     1      61.007  -3.698  -3.948  1.00  0.00     0.278 C 
ENDBRANCH   2  14
TORSDOF 2
ENDMDL
MODEL 3
REMARK VINA RESULT:    -4.917      1.447      2.871
REMARK INTER + INTRA:          -5.611
REMARK INTER:                  -5.492
REMARK INTRA:                  -0.119
REMARK UNBOUND:                -0.119
REMARK SMILES COc1cc2ccc(=O)oc2cc1OC
REMARK SMILES IDX 3 1 13 2 12 3 11 4 5 5 4 6 6 7 7 8 8 9 9 10 10 11 2 12 1 13
REMARK SMILES IDX 14 14 15 15
REMARK H PARENT
REMARK Flexibility Score: inf
ROOT
ATOM      1  C   UNL     1      57.863  -1.318   0.605  1.00  0.00     0.161 A 
ATOM      2  C   UNL     1      59.152  -1.873   0.516  1.00  0.00     0.164 A 
ATOM      3  C   UNL     1      60.045  -1.412  -0.471  1.00  0.00     0.098 A 
ATOM      4  C   UNL     1      59.659  -0.407  -1.361  1.00  0.00     0.142 A 
ATOM      5  C   UNL     1      58.367   0.150  -1.272  1.00  0.00     0.022 A 
ATOM      6  C   UNL     1      57.475  -0.304  -0.293  1.00  0.00     0.062 A 
ATOM      7  C   UNL     1      58.011   1.154  -2.178  1.00  0.00     0.019 A 
ATOM      8  C   UNL     1      58.935   1.573  -3.135  1.00  0.00     0.094 A 
ATOM      9  C   UNL     1      60.198   0.974  -3.164  1.00  0.00     0.336 A 
ATOM     10  O   UNL     1      61.047   1.337  -4.020  1.00  0.00    -0.246 OA
ATOM     11  O   UNL     1      60.511   0.021  -2.290  1.00  0.00    -0.423 OA
ENDROOT
BRANCH   1  12
ATOM     12  O   UNL     1      56.998  -1.800   1.601  1.00  0.00    -0.493 OA
ATOM     13  C   UNL     1      55.850  -1.108   2.078  1.00  0.00     0.278 C 
ENDBRANCH   1  12
BRANCH   2  14
ATOM     14  O   UNL     1      59.505  -2.881   1.427  1.00  0.00    -0.493 OA
ATOM     15  C   UNL     1      60.373  -2.694   2.540  1.00  0.00     0.278 C 
ENDBRANCH   2  14
TORSDOF 2
ENDMDL
MODEL 4
REMARK VINA RESULT:    -4.771     11.580     12.543
REMARK INTER + INTRA:          -5.448
REMARK INTER:                  -5.306
REMARK INTRA:                  -0.142
REMARK UNBOUND:                -0.119
REMARK SMILES COc1cc2ccc(=O)oc2cc1OC
REMARK SMILES IDX 3 1 13 2 12 3 11 4 5 5 4 6 6 7 7 8 8 9 9 10 10 11 2 12 1 13
REMARK SMILES IDX 14 14 15 15
REMARK H PARENT
REMARK Flexibility Score: inf
ROOT
ATOM      1  C   UNL     1      51.175  -7.622  -5.648  1.00  0.00     0.161 A 
ATOM      2  C   UNL     1      50.323  -6.521  -5.842  1.00  0.00     0.164 A 
ATOM      3  C   UNL     1      49.428  -6.142  -4.823  1.00  0.00     0.098 A 
ATOM      4  C   UNL     1      49.381  -6.852  -3.621  1.00  0.00     0.142 A 
ATOM      5  C   UNL     1      50.235  -7.956  -3.426  1.00  0.00     0.022 A 
ATOM      6  C   UNL     1      51.128  -8.339  -4.436  1.00  0.00     0.062 A 
ATOM      7  C   UNL     1      50.164  -8.648  -2.213  1.00  0.00     0.019 A 
ATOM      8  C   UNL     1      49.259  -8.230  -1.238  1.00  0.00     0.094 A 
ATOM      9  C   UNL     1      48.443  -7.125  -1.502  1.00  0.00     0.336 A 
ATOM     10  O   UNL     1      47.619  -6.731  -0.635  1.00  0.00    -0.246 OA
ATOM     11  O   UNL     1      48.531  -6.486  -2.665  1.00  0.00    -0.423 OA
ENDROOT
BRANCH   1  12
ATOM     12  O   UNL     1      52.055  -7.973  -6.685  1.00  0.00    -0.493 OA
ATOM     13  C   UNL     1      51.905  -9.115  -7.521  1.00  0.00     0.278 C 
ENDBRANCH   1  12
BRANCH   2  14
ATOM     14  O   UNL     1      50.397  -5.830  -7.062  1.00  0.00    -0.493 OA
ATOM     15  C   UNL     1      49.599  -6.123  -8.204  1.00  0.00     0.278 C 
ENDBRANCH   2  14
TORSDOF 2
ENDMDL
MODEL 5
REMARK VINA RESULT:    -4.722      1.951      5.617
REMARK INTER + INTRA:          -5.393
REMARK INTER:                  -5.282
REMARK INTRA:                  -0.110
REMARK UNBOUND:                -0.119
REMARK SMILES COc1cc2ccc(=O)oc2cc1OC
REMARK SMILES IDX 3 1 13 2 12 3 11 4 5 5 4 6 6 7 7 8 8 9 9 10 10 11 2 12 1 13
REMARK SMILES IDX 14 14 15 15
REMARK H PARENT
REMARK Flexibility Score: inf
ROOT
ATOM      1  C   UNL     1      58.396  -0.226  -2.063  1.00  0.00     0.161 A 
ATOM      2  C   UNL     1      58.646  -1.543  -2.487  1.00  0.00     0.164 A 
ATOM      3  C   UNL     1      58.128  -2.625  -1.748  1.00  0.00     0.098 A 
ATOM      4  C   UNL     1      57.368  -2.398  -0.599  1.00  0.00     0.142 A 
ATOM      5  C   UNL     1      57.117  -1.078  -0.174  1.00  0.00     0.022 A 
ATOM      6  C   UNL     1      57.629   0.002  -0.903  1.00  0.00     0.062 A 
ATOM      7  C   UNL     1      56.353  -0.883   0.982  1.00  0.00     0.019 A 
ATOM      8  C   UNL     1      55.865  -1.991   1.674  1.00  0.00     0.094 A 
ATOM      9  C   UNL     1      56.155  -3.272   1.193  1.00  0.00     0.336 A 
ATOM     10  O   UNL     1      55.724  -4.286   1.804  1.00  0.00    -0.246 OA
ATOM     11  O   UNL     1      56.884  -3.428   0.092  1.00  0.00    -0.423 OA
ENDROOT
BRANCH   1  12
ATOM     12  O   UNL     1      58.927   0.829  -2.823  1.00  0.00    -0.493 OA
ATOM     13  C   UNL     1      58.269   2.071  -3.053  1.00  0.00     0.278 C 
ENDBRANCH   1  12
BRANCH   2  14
ATOM     14  O   UNL     1      59.414  -1.733  -3.647  1.00  0.00    -0.493 OA
ATOM     15  C   UNL     1      60.383  -2.763  -3.813  1.00  0.00     0.278 C 
ENDBRANCH   2  14
TORSDOF 2
ENDMDL
MODEL 6
REMARK VINA RESULT:    -4.628      1.927      3.415
REMARK INTER + INTRA:          -5.287
REMARK INTER:                  -5.167
REMARK INTRA:                  -0.120
REMARK UNBOUND:                -0.119
REMARK SMILES COc1cc2ccc(=O)oc2cc1OC
REMARK SMILES IDX 3 1 13 2 12 3 11 4 5 5 4 6 6 7 7 8 8 9 9 10 10 11 2 12 1 13
REMARK SMILES IDX 14 14 15 15
REMARK H PARENT
REMARK Flexibility Score: inf
ROOT
ATOM      1  C   UNL     1      60.401  -1.928   0.917  1.00  0.00     0.161 A 
ATOM      2  C   UNL     1      61.314  -2.036  -0.146  1.00  0.00     0.164 A 
ATOM      3  C   UNL     1      61.137  -1.251  -1.302  1.00  0.00     0.098 A 
ATOM      4  C   UNL     1      60.060  -0.368  -1.400  1.00  0.00     0.142 A 
ATOM      5  C   UNL     1      59.144  -0.259  -0.334  1.00  0.00     0.022 A 
ATOM      6  C   UNL     1      59.314  -1.036   0.819  1.00  0.00     0.062 A 
ATOM      7  C   UNL     1      58.075   0.635  -0.462  1.00  0.00     0.019 A 
ATOM      8  C   UNL     1      57.948   1.387  -1.629  1.00  0.00     0.094 A 
ATOM      9  C   UNL     1      58.895   1.226  -2.645  1.00  0.00     0.336 A 
ATOM     10  O   UNL     1      58.798   1.895  -3.708  1.00  0.00    -0.246 OA
ATOM     11  O   UNL     1      59.901   0.368  -2.497  1.00  0.00    -0.423 OA
ENDROOT
BRANCH   1  12
ATOM     12  O   UNL     1      60.608  -2.724   2.056  1.00  0.00    -0.493 OA
ATOM     13  C   UNL     1      61.114  -2.244   3.297  1.00  0.00     0.278 C 
ENDBRANCH   1  12
BRANCH   2  14
ATOM     14  O   UNL     1      62.385  -2.935  -0.013  1.00  0.00    -0.493 OA
ATOM     15  C   UNL     1      63.125  -3.474  -1.103  1.00  0.00     0.278 C 
ENDBRANCH   2  14
TORSDOF 2
ENDMDL
MODEL 7
REMARK VINA RESULT:    -4.623      1.934      2.095
REMARK INTER + INTRA:          -5.282
REMARK INTER:                  -5.168
REMARK INTRA:                  -0.114
REMARK UNBOUND:                -0.119
REMARK SMILES COc1cc2ccc(=O)oc2cc1OC
REMARK SMILES IDX 3 1 13 2 12 3 11 4 5 5 4 6 6 7 7 8 8 9 9 10 10 11 2 12 1 13
REMARK SMILES IDX 14 14 15 15
REMARK H PARENT
REMARK Flexibility Score: inf
ROOT
ATOM      1  C   UNL     1      57.976  -3.283  -1.361  1.00  0.00     0.161 A 
ATOM      2  C   UNL     1      57.240  -2.655  -0.341  1.00  0.00     0.164 A 
ATOM      3  C   UNL     1      57.155  -1.249  -0.304  1.00  0.00     0.098 A 
ATOM      4  C   UNL     1      57.797  -0.475  -1.273  1.00  0.00     0.142 A 
ATOM      5  C   UNL     1      58.534  -1.104  -2.297  1.00  0.00     0.022 A 
ATOM      6  C   UNL     1      58.623  -2.501  -2.339  1.00  0.00     0.062 A 
ATOM      7  C   UNL     1      59.166  -0.302  -3.253  1.00  0.00     0.019 A 
ATOM      8  C   UNL     1      59.049   1.085  -3.168  1.00  0.00     0.094 A 
ATOM      9  C   UNL     1      58.300   1.639  -2.124  1.00  0.00     0.336 A 
ATOM     10  O   UNL     1      58.182   2.889  -2.029  1.00  0.00    -0.246 OA
ATOM     11  O   UNL     1      57.710   0.852  -1.228  1.00  0.00    -0.423 OA
ENDROOT
BRANCH   1  12
ATOM     12  O   UNL     1      58.039  -4.686  -1.368  1.00  0.00    -0.493 OA
ATOM     13  C   UNL     1      57.637  -5.507  -2.460  1.00  0.00     0.278 C 
ENDBRANCH   1  12
BRANCH   2  14
ATOM     14  O   UNL     1      56.608  -3.465   0.617  1.00  0.00    -0.493 OA
ATOM     15  C   UNL     1      55.541  -3.037   1.456  1.00  0.00     0.278 C 
ENDBRANCH   2  14
TORSDOF 2
ENDMDL
MODEL 8
REMARK VINA RESULT:    -4.576      1.688      2.945
REMARK INTER + INTRA:          -5.230
REMARK INTER:                  -5.088
REMARK INTRA:                  -0.142
REMARK UNBOUND:                -0.119
REMARK SMILES COc1cc2ccc(=O)oc2cc1OC
REMARK SMILES IDX 3 1 13 2 12 3 11 4 5 5 4 6 6 7 7 8 8 9 9 10 10 11 2 12 1 13
REMARK SMILES IDX 14 14 15 15
REMARK H PARENT
REMARK Flexibility Score: inf
ROOT
ATOM      1  C   UNL     1      57.479  -2.041   0.486  1.00  0.00     0.161 A 
ATOM      2  C   UNL     1      58.439  -2.786  -0.219  1.00  0.00     0.164 A 
ATOM      3  C   UNL     1      59.151  -2.187  -1.277  1.00  0.00     0.098 A 
ATOM      4  C   UNL     1      58.908  -0.858  -1.630  1.00  0.00     0.142 A 
ATOM      5  C   UNL     1      57.946  -0.109  -0.922  1.00  0.00     0.022 A 
ATOM      6  C   UNL     1      57.235  -0.699   0.131  1.00  0.00     0.062 A 
ATOM      7  C   UNL     1      57.725   1.220  -1.300  1.00  0.00     0.019 A 
ATOM      8  C   UNL     1      58.458   1.762  -2.355  1.00  0.00     0.094 A 
ATOM      9  C   UNL     1      59.397   0.959  -3.011  1.00  0.00     0.336 A 
ATOM     10  O   UNL     1      60.069   1.430  -3.966  1.00  0.00    -0.246 OA
ATOM     11  O   UNL     1      59.586  -0.302  -2.631  1.00  0.00    -0.423 OA
ENDROOT
BRANCH   1  12
ATOM     12  O   UNL     1      56.788  -2.669   1.536  1.00  0.00    -0.493 OA
ATOM     13  C   UNL     1      55.517  -3.296   1.405  1.00  0.00     0.278 C 
ENDBRANCH   1  12
BRANCH   2  14
ATOM     14  O   UNL     1      58.656  -4.120   0.163  1.00  0.00    -0.493 OA
ATOM     15  C   UNL     1      58.451  -5.245  -0.685  1.00  0.00     0.278 C 
ENDBRANCH   2  14
TORSDOF 2
ENDMDL
MODEL 9
REMARK VINA RESULT:    -4.565      2.306      5.436
REMARK INTER + INTRA:          -5.218
REMARK INTER:                  -5.053
REMARK INTRA:                  -0.165
REMARK UNBOUND:                -0.119
REMARK SMILES COc1cc2ccc(=O)oc2cc1OC
REMARK SMILES IDX 3 1 13 2 12 3 11 4 5 5 4 6 6 7 7 8 8 9 9 10 10 11 2 12 1 13
REMARK SMILES IDX 14 14 15 15
REMARK H PARENT
REMARK Flexibility Score: inf
ROOT
ATOM      1  C   UNL     1      59.248  -1.412   0.180  1.00  0.00     0.161 A 
ATOM      2  C   UNL     1      58.158  -0.526   0.219  1.00  0.00     0.164 A 
ATOM      3  C   UNL     1      56.881  -1.004   0.575  1.00  0.00     0.098 A 
ATOM      4  C   UNL     1      56.692  -2.351   0.890  1.00  0.00     0.142 A 
ATOM      5  C   UNL     1      57.786  -3.240   0.851  1.00  0.00     0.022 A 
ATOM      6  C   UNL     1      59.057  -2.772   0.498  1.00  0.00     0.062 A 
ATOM      7  C   UNL     1      57.564  -4.584   1.170  1.00  0.00     0.019 A 
ATOM      8  C   UNL     1      56.280  -5.002   1.516  1.00  0.00     0.094 A 
ATOM      9  C   UNL     1      55.243  -4.064   1.533  1.00  0.00     0.336 A 
ATOM     10  O   UNL     1      54.076  -4.421   1.842  1.00  0.00    -0.246 OA
ATOM     11  O   UNL     1      55.482  -2.792   1.224  1.00  0.00    -0.423 OA
ENDROOT
BRANCH   1  12
ATOM     12  O   UNL     1      60.507  -0.902  -0.179  1.00  0.00    -0.493 OA
ATOM     13  C   UNL     1      61.086  -1.018  -1.475  1.00  0.00     0.278 C 
ENDBRANCH   1  12
BRANCH   2  14
ATOM     14  O   UNL     1      58.385   0.822  -0.104  1.00  0.00    -0.493 OA
ATOM     15  C   UNL     1      58.072   1.414  -1.360  1.00  0.00     0.278 C 
ENDBRANCH   2  14
TORSDOF 2
ENDMDL
