MODEL 1
REMARK VINA RESULT:    -3.613      0.000      0.000
REMARK INTER + INTRA:          -7.838
REMARK INTER:                  -6.147
REMARK INTRA:                  -1.691
REMARK UNBOUND:                -1.691
REMARK SMILES CCCCCCCCCCCCCC(=O)[O-]
REMARK SMILES IDX 8 1 9 2 10 3 11 4 12 5 13 6 14 7 15 8 16 9 7 10 6 11 5 12
REMARK SMILES IDX 4 13 3 14 2 15 1 16
REMARK H PARENT
REMARK Flexibility Score: inf
ROOT
ATOM      1  C   UNL     1       3.862  -0.882  -4.282  1.00  0.00     0.000 C 
ENDROOT
BRANCH   1   2
ATOM      2  C   UNL     1       2.790   0.169  -3.952  1.00  0.00     0.000 C 
BRANCH   2   3
ATOM      3  C   UNL     1       2.523   1.077  -5.162  1.00  0.00     0.000 C 
BRANCH   3   4
ATOM      4  C   UNL     1       3.738   1.942  -5.535  1.00  0.00     0.000 C 
BRANCH   4   5
ATOM      5  C   UNL     1       3.336   3.314  -6.101  1.00  0.00     0.006 C 
BRANCH   5   6
ATOM      6  C   UNL     1       1.816   3.448  -6.271  1.00  0.00     0.053 C 
BRANCH   6   7
ATOM      7  C   UNL     1       1.320   4.781  -5.802  1.00  0.00     0.041 C 
ATOM      8  O   UNL     1       2.004   5.465  -4.996  1.00  0.00    -0.550 OA
ATOM      9  O   UNL     1       0.089   5.257  -6.235  1.00  0.00    -0.550 OA
ENDBRANCH   6   7
ENDBRANCH   5   6
ENDBRANCH   4   5
ENDBRANCH   3   4
ENDBRANCH   2   3
ENDBRANCH   1   2
BRANCH   1  10
ATOM     10  C   UNL     1       3.281  -2.146  -4.941  1.00  0.00     0.000 C 
BRANCH  10  11
ATOM     11  C   UNL     1       3.590  -2.296  -6.443  1.00  0.00    -0.000 C 
BRANCH  11  12
ATOM     12  C   UNL     1       2.383  -2.685  -7.319  1.00  0.00    -0.000 C 
BRANCH  12  13
ATOM     13  C   UNL     1       2.217  -1.801  -8.573  1.00  0.00    -0.000 C 
BRANCH  13  14
ATOM     14  C   UNL     1       3.131  -0.564  -8.544  1.00  0.00    -0.000 C 
BRANCH  14  15
ATOM     15  C   UNL     1       2.372   0.739  -8.837  1.00  0.00    -0.003 C 
ATOM     16  C   UNL     1       0.882   0.644  -8.511  1.00  0.00     0.004 C 
ENDBRANCH  14  15
ENDBRANCH  13  14
ENDBRANCH  12  13
ENDBRANCH  11  12
ENDBRANCH  10  11
ENDBRANCH   1  10
TORSDOF 12
ENDMDL
MODEL 2
REMARK VINA RESULT:    -3.591      1.811      3.457
REMARK INTER + INTRA:          -7.801
REMARK INTER:                  -6.303
REMARK INTRA:                  -1.498
REMARK UNBOUND:                -1.691
REMARK SMILES CCCCCCCCCCCCCC(=O)[O-]
REMARK SMILES IDX 8 1 9 2 10 3 11 4 12 5 13 6 14 7 15 8 16 9 7 10 6 11 5 12
REMARK SMILES IDX 4 13 3 14 2 15 1 16
REMARK H PARENT
REMARK Flexibility Score: inf
ROOT
ATOM      1  C   UNL     1       2.393   1.230  -5.257  1.00  0.00     0.000 C 
ENDROOT
BRANCH   1   2
ATOM      2  C   UNL     1       3.621   2.007  -5.758  1.00  0.00     0.000 C 
BRANCH   2   3
ATOM      3  C   UNL     1       3.263   3.475  -6.038  1.00  0.00     0.000 C 
BRANCH   3   4
ATOM      4  C   UNL     1       1.750   3.700  -6.184  1.00  0.00     0.000 C 
BRANCH   4   5
ATOM      5  C   UNL     1       1.370   4.303  -7.547  1.00  0.00     0.006 C 
BRANCH   5   6
ATOM      6  C   UNL     1       1.194   3.226  -8.627  1.00  0.00     0.053 C 
BRANCH   6   7
ATOM      7  C   UNL     1       0.001   2.361  -8.360  1.00  0.00     0.041 C 
ATOM      8  O   UNL     1      -1.145   2.872  -8.267  1.00  0.00    -0.550 OA
ATOM      9  O   UNL     1       0.160   0.992  -8.187  1.00  0.00    -0.550 OA
ENDBRANCH   6   7
ENDBRANCH   5   6
ENDBRANCH   4   5
ENDBRANCH   3   4
ENDBRANCH   2   3
ENDBRANCH   1   2
BRANCH   1  10
ATOM     10  C   UNL     1       2.726   0.253  -4.114  1.00  0.00     0.000 C 
BRANCH  10  11
ATOM     11  C   UNL     1       4.228  -0.027  -3.916  1.00  0.00    -0.000 C 
BRANCH  11  12
ATOM     12  C   UNL     1       4.607  -1.519  -3.845  1.00  0.00    -0.000 C 
BRANCH  12  13
ATOM     13  C   UNL     1       3.654  -2.439  -4.637  1.00  0.00    -0.000 C 
BRANCH  13  14
ATOM     14  C   UNL     1       3.974  -2.457  -6.143  1.00  0.00    -0.000 C 
BRANCH  14  15
ATOM     15  C   UNL     1       2.719  -2.296  -7.015  1.00  0.00    -0.003 C 
ATOM     16  C   UNL     1       2.873  -1.213  -8.081  1.00  0.00     0.004 C 
ENDBRANCH  14  15
ENDBRANCH  13  14
ENDBRANCH  12  13
ENDBRANCH  11  12
ENDBRANCH  10  11
ENDBRANCH   1  10
TORSDOF 12
ENDMDL
MODEL 3
REMARK VINA RESULT:    -3.473      2.341      4.766
REMARK INTER + INTRA:          -7.601
REMARK INTER:                  -6.391
REMARK INTRA:                  -1.210
REMARK UNBOUND:                -1.691
REMARK SMILES CCCCCCCCCCCCCC(=O)[O-]
REMARK SMILES IDX 8 1 9 2 10 3 11 4 12 5 13 6 14 7 15 8 16 9 7 10 6 11 5 12
REMARK SMILES IDX 4 13 3 14 2 15 1 16
REMARK H PARENT
REMARK Flexibility Score: inf
ROOT
ATOM      1  C   UNL     1       3.726  -2.102  -4.668  1.00  0.00     0.000 C 
ENDROOT
BRANCH   1   2
ATOM      2  C   UNL     1       4.631  -2.642  -5.787  1.00  0.00     0.000 C 
BRANCH   2   3
ATOM      3  C   UNL     1       4.022  -2.357  -7.169  1.00  0.00     0.000 C 
BRANCH   3   4
ATOM      4  C   UNL     1       2.493  -2.510  -7.187  1.00  0.00     0.000 C 
BRANCH   4   5
ATOM      5  C   UNL     1       1.889  -2.252  -8.579  1.00  0.00     0.006 C 
BRANCH   5   6
ATOM      6  C   UNL     1       1.732  -0.753  -8.873  1.00  0.00     0.053 C 
BRANCH   6   7
ATOM      7  C   UNL     1       0.293  -0.341  -8.902  1.00  0.00     0.041 C 
ATOM      8  O   UNL     1      -0.021   0.875  -8.815  1.00  0.00    -0.550 OA
ATOM      9  O   UNL     1      -0.704  -1.303  -8.999  1.00  0.00    -0.550 OA
ENDBRANCH   6   7
ENDBRANCH   5   6
ENDBRANCH   4   5
ENDBRANCH   3   4
ENDBRANCH   2   3
ENDBRANCH   1   2
BRANCH   1  10
ATOM     10  C   UNL     1       4.393  -0.985  -3.844  1.00  0.00     0.000 C 
BRANCH  10  11
ATOM     11  C   UNL     1       3.891   0.438  -4.151  1.00  0.00    -0.000 C 
BRANCH  11  12
ATOM     12  C   UNL     1       2.511   0.507  -4.834  1.00  0.00    -0.000 C 
BRANCH  12  13
ATOM     13  C   UNL     1       2.312   1.765  -5.705  1.00  0.00    -0.000 C 
BRANCH  13  14
ATOM     14  C   UNL     1       3.553   2.674  -5.714  1.00  0.00    -0.000 C 
BRANCH  14  15
ATOM     15  C   UNL     1       3.243   4.094  -6.214  1.00  0.00    -0.003 C 
ATOM     16  C   UNL     1       1.783   4.492  -6.001  1.00  0.00     0.004 C 
ENDBRANCH  14  15
ENDBRANCH  13  14
ENDBRANCH  12  13
ENDBRANCH  11  12
ENDBRANCH  10  11
ENDBRANCH   1  10
TORSDOF 12
ENDMDL
MODEL 4
REMARK VINA RESULT:    -3.445     17.918     19.968
REMARK INTER + INTRA:          -7.552
REMARK INTER:                  -7.172
REMARK INTRA:                  -0.380
REMARK UNBOUND:                -1.691
REMARK SMILES CCCCCCCCCCCCCC(=O)[O-]
REMARK SMILES IDX 8 1 9 2 10 3 11 4 12 5 13 6 14 7 15 8 16 9 7 10 6 11 5 12
REMARK SMILES IDX 4 13 3 14 2 15 1 16
REMARK H PARENT
REMARK Flexibility Score: inf
ROOT
ATOM      1  C   UNL     1     -11.157 -13.252  -0.819  1.00  0.00     0.000 C 
ENDROOT
BRANCH   1   2
ATOM      2  C   UNL     1     -10.258 -13.828  -1.924  1.00  0.00     0.000 C 
BRANCH   2   3
ATOM      3  C   UNL     1      -9.172 -12.820  -2.327  1.00  0.00     0.000 C 
BRANCH   3   4
ATOM      4  C   UNL     1      -8.208 -13.376  -3.387  1.00  0.00     0.000 C 
BRANCH   4   5
ATOM      5  C   UNL     1      -6.871 -12.616  -3.429  1.00  0.00     0.006 C 
BRANCH   5   6
ATOM      6  C   UNL     1      -5.819 -13.344  -4.278  1.00  0.00     0.053 C 
BRANCH   6   7
ATOM      7  C   UNL     1      -5.454 -12.559  -5.501  1.00  0.00     0.041 C 
ATOM      8  O   UNL     1      -6.128 -11.548  -5.831  1.00  0.00    -0.550 OA
ATOM      9  O   UNL     1      -4.386 -12.962  -6.292  1.00  0.00    -0.550 OA
ENDBRANCH   6   7
ENDBRANCH   5   6
ENDBRANCH   4   5
ENDBRANCH   3   4
ENDBRANCH   2   3
ENDBRANCH   1   2
BRANCH   1  10
ATOM     10  C   UNL     1     -12.454 -12.628  -1.366  1.00  0.00     0.000 C 
BRANCH  10  11
ATOM     11  C   UNL     1     -13.285 -11.845  -0.331  1.00  0.00    -0.000 C 
BRANCH  11  12
ATOM     12  C   UNL     1     -13.156 -12.347   1.120  1.00  0.00    -0.000 C 
BRANCH  12  13
ATOM     13  C   UNL     1     -13.415 -11.256   2.180  1.00  0.00    -0.000 C 
BRANCH  13  14
ATOM     14  C   UNL     1     -12.780 -11.597   3.539  1.00  0.00    -0.000 C 
BRANCH  14  15
ATOM     15  C   UNL     1     -12.770 -10.401   4.504  1.00  0.00    -0.003 C 
ATOM     16  C   UNL     1     -11.360  -9.994   4.929  1.00  0.00     0.004 C 
ENDBRANCH  14  15
ENDBRANCH  13  14
ENDBRANCH  12  13
ENDBRANCH  11  12
ENDBRANCH  10  11
ENDBRANCH   1  10
TORSDOF 12
ENDMDL
MODEL 5
REMARK VINA RESULT:    -3.425      1.185      2.049
REMARK INTER + INTRA:          -7.518
REMARK INTER:                  -6.274
REMARK INTRA:                  -1.245
REMARK UNBOUND:                -1.691
REMARK SMILES CCCCCCCCCCCCCC(=O)[O-]
REMARK SMILES IDX 8 1 9 2 10 3 11 4 12 5 13 6 14 7 15 8 16 9 7 10 6 11 5 12
REMARK SMILES IDX 4 13 3 14 2 15 1 16
REMARK H PARENT
REMARK Flexibility Score: inf
ROOT
ATOM      1  C   UNL     1       2.645   0.131  -4.360  1.00  0.00     0.000 C 
ENDROOT
BRANCH   1   2
ATOM      2  C   UNL     1       2.942   1.314  -5.295  1.00  0.00     0.000 C 
BRANCH   2   3
ATOM      3  C   UNL     1       2.739   0.914  -6.765  1.00  0.00     0.000 C 
BRANCH   3   4
ATOM      4  C   UNL     1       1.644   1.739  -7.458  1.00  0.00     0.000 C 
BRANCH   4   5
ATOM      5  C   UNL     1       1.941   3.248  -7.444  1.00  0.00     0.006 C 
BRANCH   5   6
ATOM      6  C   UNL     1       0.712   4.076  -7.043  1.00  0.00     0.053 C 
BRANCH   6   7
ATOM      7  C   UNL     1       1.014   5.003  -5.906  1.00  0.00     0.041 C 
ATOM      8  O   UNL     1       2.115   4.927  -5.301  1.00  0.00    -0.550 OA
ATOM      9  O   UNL     1       0.068   5.935  -5.499  1.00  0.00    -0.550 OA
ENDBRANCH   6   7
ENDBRANCH   5   6
ENDBRANCH   4   5
ENDBRANCH   3   4
ENDBRANCH   2   3
ENDBRANCH   1   2
BRANCH   1  10
ATOM     10  C   UNL     1       3.842  -0.824  -4.200  1.00  0.00     0.000 C 
BRANCH  10  11
ATOM     11  C   UNL     1       3.657  -2.211  -4.845  1.00  0.00    -0.000 C 
BRANCH  11  12
ATOM     12  C   UNL     1       4.656  -2.541  -5.971  1.00  0.00    -0.000 C 
BRANCH  12  13
ATOM     13  C   UNL     1       3.999  -2.690  -7.360  1.00  0.00    -0.000 C 
BRANCH  13  14
ATOM     14  C   UNL     1       2.463  -2.623  -7.291  1.00  0.00    -0.000 C 
BRANCH  14  15
ATOM     15  C   UNL     1       1.805  -2.729  -8.675  1.00  0.00    -0.003 C 
ATOM     16  C   UNL     1       0.492  -1.953  -8.769  1.00  0.00     0.004 C 
ENDBRANCH  14  15
ENDBRANCH  13  14
ENDBRANCH  12  13
ENDBRANCH  11  12
ENDBRANCH  10  11
ENDBRANCH   1  10
TORSDOF 12
ENDMDL
MODEL 6
REMARK VINA RESULT:    -3.384     19.911     21.772
REMARK INTER + INTRA:          -7.448
REMARK INTER:                  -6.118
REMARK INTRA:                  -1.331
REMARK UNBOUND:                -1.691
REMARK SMILES CCCCCCCCCCCCCC(=O)[O-]
REMARK SMILES IDX 8 1 9 2 10 3 11 4 12 5 13 6 14 7 15 8 16 9 7 10 6 11 5 12
REMARK SMILES IDX 4 13 3 14 2 15 1 16
REMARK H PARENT
REMARK Flexibility Score: inf
ROOT
ATOM      1  C   UNL     1     -13.080 -12.641   1.601  1.00  0.00     0.000 C 
ENDROOT
BRANCH   1   2
ATOM      2  C   UNL     1     -13.215 -11.504   0.576  1.00  0.00     0.000 C 
BRANCH   2   3
ATOM      3  C   UNL     1     -13.072 -12.038  -0.857  1.00  0.00     0.000 C 
BRANCH   3   4
ATOM      4  C   UNL     1     -12.794 -13.549  -0.903  1.00  0.00     0.000 C 
BRANCH   4   5
ATOM      5  C   UNL     1     -11.611 -13.906  -1.819  1.00  0.00     0.006 C 
BRANCH   5   6
ATOM      6  C   UNL     1     -10.341 -13.123  -1.456  1.00  0.00     0.053 C 
BRANCH   6   7
ATOM      7  C   UNL     1      -9.524 -12.798  -2.669  1.00  0.00     0.041 C 
ATOM      8  O   UNL     1      -8.319 -12.455  -2.548  1.00  0.00    -0.550 OA
ATOM      9  O   UNL     1     -10.102 -12.848  -3.931  1.00  0.00    -0.550 OA
ENDBRANCH   6   7
ENDBRANCH   5   6
ENDBRANCH   4   5
ENDBRANCH   3   4
ENDBRANCH   2   3
ENDBRANCH   1   2
BRANCH   1  10
ATOM     10  C   UNL     1     -14.147 -12.580   2.710  1.00  0.00     0.000 C 
BRANCH  10  11
ATOM     11  C   UNL     1     -14.600 -11.159   3.097  1.00  0.00    -0.000 C 
BRANCH  11  12
ATOM     12  C   UNL     1     -14.092 -10.665   4.465  1.00  0.00    -0.000 C 
BRANCH  12  13
ATOM     13  C   UNL     1     -12.922  -9.664   4.368  1.00  0.00    -0.000 C 
BRANCH  13  14
ATOM     14  C   UNL     1     -11.578 -10.292   4.779  1.00  0.00    -0.000 C 
BRANCH  14  15
ATOM     15  C   UNL     1     -11.751 -11.621   5.530  1.00  0.00    -0.003 C 
ATOM     16  C   UNL     1     -11.039 -12.786   4.845  1.00  0.00     0.004 C 
ENDBRANCH  14  15
ENDBRANCH  13  14
ENDBRANCH  12  13
ENDBRANCH  11  12
ENDBRANCH  10  11
ENDBRANCH   1  10
TORSDOF 12
ENDMDL
MODEL 7
REMARK VINA RESULT:    -3.379      1.949      2.847
REMARK INTER + INTRA:          -7.440
REMARK INTER:                  -5.620
REMARK INTRA:                  -1.820
REMARK UNBOUND:                -1.691
REMARK SMILES CCCCCCCCCCCCCC(=O)[O-]
REMARK SMILES IDX 8 1 9 2 10 3 11 4 12 5 13 6 14 7 15 8 16 9 7 10 6 11 5 12
REMARK SMILES IDX 4 13 3 14 2 15 1 16
REMARK H PARENT
REMARK Flexibility Score: inf
ROOT
ATOM      1  C   UNL     1       3.288  -0.009  -3.903  1.00  0.00     0.000 C 
ENDROOT
BRANCH   1   2
ATOM      2  C   UNL     1       4.698   0.601  -3.899  1.00  0.00     0.000 C 
BRANCH   2   3
ATOM      3  C   UNL     1       4.933   1.447  -5.160  1.00  0.00     0.000 C 
BRANCH   3   4
ATOM      4  C   UNL     1       3.662   2.166  -5.638  1.00  0.00     0.000 C 
BRANCH   4   5
ATOM      5  C   UNL     1       3.369   1.923  -7.129  1.00  0.00     0.006 C 
BRANCH   5   6
ATOM      6  C   UNL     1       2.219   0.927  -7.338  1.00  0.00     0.053 C 
BRANCH   6   7
ATOM      7  C   UNL     1       1.005   1.594  -7.907  1.00  0.00     0.041 C 
ATOM      8  O   UNL     1       0.913   2.849  -7.910  1.00  0.00    -0.550 OA
ATOM      9  O   UNL     1      -0.038   0.826  -8.411  1.00  0.00    -0.550 OA
ENDBRANCH   6   7
ENDBRANCH   5   6
ENDBRANCH   4   5
ENDBRANCH   3   4
ENDBRANCH   2   3
ENDBRANCH   1   2
BRANCH   1  10
ATOM     10  C   UNL     1       3.258  -1.451  -4.442  1.00  0.00     0.000 C 
BRANCH  10  11
ATOM     11  C   UNL     1       4.625  -2.161  -4.472  1.00  0.00    -0.000 C 
BRANCH  11  12
ATOM     12  C   UNL     1       5.038  -2.718  -5.848  1.00  0.00    -0.000 C 
BRANCH  12  13
ATOM     13  C   UNL     1       4.768  -1.747  -7.017  1.00  0.00    -0.000 C 
BRANCH  13  14
ATOM     14  C   UNL     1       3.907  -2.386  -8.122  1.00  0.00    -0.000 C 
BRANCH  14  15
ATOM     15  C   UNL     1       2.521  -2.816  -7.617  1.00  0.00    -0.003 C 
ATOM     16  C   UNL     1       1.405  -2.513  -8.615  1.00  0.00     0.004 C 
ENDBRANCH  14  15
ENDBRANCH  13  14
ENDBRANCH  12  13
ENDBRANCH  11  12
ENDBRANCH  10  11
ENDBRANCH   1  10
TORSDOF 12
ENDMDL
MODEL 8
REMARK VINA RESULT:    -3.286      1.403      2.205
REMARK INTER + INTRA:          -7.281
REMARK INTER:                  -5.654
REMARK INTRA:                  -1.627
REMARK UNBOUND:                -1.691
REMARK SMILES CCCCCCCCCCCCCC(=O)[O-]
REMARK SMILES IDX 8 1 9 2 10 3 11 4 12 5 13 6 14 7 15 8 16 9 7 10 6 11 5 12
REMARK SMILES IDX 4 13 3 14 2 15 1 16
REMARK H PARENT
REMARK Flexibility Score: inf
ROOT
ATOM      1  C   UNL     1       3.285  -2.071  -4.721  1.00  0.00     0.000 C 
ENDROOT
BRANCH   1   2
ATOM      2  C   UNL     1       4.424  -1.270  -4.070  1.00  0.00     0.000 C 
BRANCH   2   3
ATOM      3  C   UNL     1       4.005   0.190  -3.840  1.00  0.00     0.000 C 
BRANCH   3   4
ATOM      4  C   UNL     1       2.552   0.463  -4.259  1.00  0.00     0.000 C 
BRANCH   4   5
ATOM      5  C   UNL     1       2.453   1.227  -5.591  1.00  0.00     0.006 C 
BRANCH   5   6
ATOM      6  C   UNL     1       3.774   1.917  -5.962  1.00  0.00     0.053 C 
BRANCH   6   7
ATOM      7  C   UNL     1       3.686   3.404  -5.805  1.00  0.00     0.041 C 
ATOM      8  O   UNL     1       4.726   4.110  -5.865  1.00  0.00    -0.550 OA
ATOM      9  O   UNL     1       2.458   4.007  -5.565  1.00  0.00    -0.550 OA
ENDBRANCH   6   7
ENDBRANCH   5   6
ENDBRANCH   4   5
ENDBRANCH   3   4
ENDBRANCH   2   3
ENDBRANCH   1   2
BRANCH   1  10
ATOM     10  C   UNL     1       3.614  -2.524  -6.155  1.00  0.00     0.000 C 
BRANCH  10  11
ATOM     11  C   UNL     1       4.627  -1.634  -6.901  1.00  0.00    -0.000 C 
BRANCH  11  12
ATOM     12  C   UNL     1       4.708  -1.876  -8.421  1.00  0.00    -0.000 C 
BRANCH  12  13
ATOM     13  C   UNL     1       3.334  -1.868  -9.125  1.00  0.00    -0.000 C 
BRANCH  13  14
ATOM     14  C   UNL     1       2.603  -0.524  -8.968  1.00  0.00    -0.000 C 
BRANCH  14  15
ATOM     15  C   UNL     1       1.091  -0.694  -8.751  1.00  0.00    -0.003 C 
ATOM     16  C   UNL     1       0.657  -2.159  -8.725  1.00  0.00     0.004 C 
ENDBRANCH  14  15
ENDBRANCH  13  14
ENDBRANCH  12  13
ENDBRANCH  11  12
ENDBRANCH  10  11
ENDBRANCH   1  10
TORSDOF 12
ENDMDL
MODEL 9
REMARK VINA RESULT:    -3.233     21.277     22.980
REMARK INTER + INTRA:          -7.192
REMARK INTER:                  -5.503
REMARK INTRA:                  -1.688
REMARK UNBOUND:                -1.691
REMARK SMILES CCCCCCCCCCCCCC(=O)[O-]
REMARK SMILES IDX 8 1 9 2 10 3 11 4 12 5 13 6 14 7 15 8 16 9 7 10 6 11 5 12
REMARK SMILES IDX 4 13 3 14 2 15 1 16
REMARK H PARENT
REMARK Flexibility Score: inf
ROOT
ATOM      1  C   UNL     1     -11.688 -11.407   5.565  1.00  0.00     0.000 C 
ENDROOT
BRANCH   1   2
ATOM      2  C   UNL     1     -11.440 -12.681   4.742  1.00  0.00     0.000 C 
BRANCH   2   3
ATOM      3  C   UNL     1     -12.706 -13.549   4.682  1.00  0.00     0.000 C 
BRANCH   3   4
ATOM      4  C   UNL     1     -13.546 -13.289   3.422  1.00  0.00     0.000 C 
BRANCH   4   5
ATOM      5  C   UNL     1     -12.683 -12.941   2.197  1.00  0.00     0.006 C 
BRANCH   5   6
ATOM      6  C   UNL     1     -13.275 -11.782   1.382  1.00  0.00     0.053 C 
BRANCH   6   7
ATOM      7  C   UNL     1     -12.879 -11.858  -0.060  1.00  0.00     0.041 C 
ATOM      8  O   UNL     1     -13.441 -11.121  -0.912  1.00  0.00    -0.550 OA
ATOM      9  O   UNL     1     -11.906 -12.763  -0.467  1.00  0.00    -0.550 OA
ENDBRANCH   6   7
ENDBRANCH   5   6
ENDBRANCH   4   5
ENDBRANCH   3   4
ENDBRANCH   2   3
ENDBRANCH   1   2
BRANCH   1  10
ATOM     10  C   UNL     1     -11.730 -10.134   4.700  1.00  0.00     0.000 C 
BRANCH  10  11
ATOM     11  C   UNL     1     -13.143  -9.609   4.383  1.00  0.00    -0.000 C 
BRANCH  11  12
ATOM     12  C   UNL     1     -14.262 -10.177   5.277  1.00  0.00    -0.000 C 
BRANCH  12  13
ATOM     13  C   UNL     1     -14.697  -9.222   6.409  1.00  0.00    -0.000 C 
BRANCH  13  14
ATOM     14  C   UNL     1     -14.194  -9.682   7.789  1.00  0.00    -0.000 C 
BRANCH  14  15
ATOM     15  C   UNL     1     -12.848  -9.046   8.169  1.00  0.00    -0.003 C 
ATOM     16  C   UNL     1     -12.111  -9.823   9.259  1.00  0.00     0.004 C 
ENDBRANCH  14  15
ENDBRANCH  13  14
ENDBRANCH  12  13
ENDBRANCH  11  12
ENDBRANCH  10  11
ENDBRANCH   1  10
TORSDOF 12
ENDMDL
