MODEL 1
REMARK VINA RESULT:    -3.420      0.000      0.000
REMARK INTER + INTRA:          -5.379
REMARK INTER:                  -4.820
REMARK INTRA:                  -0.559
REMARK UNBOUND:                -0.559
REMARK SMILES CCCCCCCCC(=O)[O-]
REMARK SMILES IDX 6 1 7 2 8 3 9 4 10 5 11 6 5 7 4 8 3 9 2 10 1 11
REMARK H PARENT
REMARK Flexibility Score: inf
ROOT
ATOM      1  C   UNL     1     165.434 160.927 188.148  1.00  0.00     0.000 C 
ENDROOT
BRANCH   1   2
ATOM      2  C   UNL     1     166.684 160.724 189.020  1.00  0.00     0.006 C 
BRANCH   2   3
ATOM      3  C   UNL     1     166.585 161.446 190.370  1.00  0.00     0.053 C 
BRANCH   3   4
ATOM      4  C   UNL     1     166.769 162.920 190.187  1.00  0.00     0.041 C 
ATOM      5  O   UNL     1     167.819 163.365 189.653  1.00  0.00    -0.550 OA
ATOM      6  O   UNL     1     165.760 163.797 190.561  1.00  0.00    -0.550 OA
ENDBRANCH   3   4
ENDBRANCH   2   3
ENDBRANCH   1   2
BRANCH   1   7
ATOM      7  C   UNL     1     164.209 160.173 188.684  1.00  0.00     0.000 C 
BRANCH   7   8
ATOM      8  C   UNL     1     162.937 161.018 188.541  1.00  0.00    -0.000 C 
BRANCH   8   9
ATOM      9  C   UNL     1     163.281 162.501 188.341  1.00  0.00    -0.000 C 
BRANCH   9  10
ATOM     10  C   UNL     1     162.151 163.436 188.798  1.00  0.00    -0.003 C 
ATOM     11  C   UNL     1     160.798 162.729 188.886  1.00  0.00     0.004 C 
ENDBRANCH   9  10
ENDBRANCH   8   9
ENDBRANCH   7   8
ENDBRANCH   1   7
TORSDOF 7
ENDMDL
MODEL 2
REMARK VINA RESULT:    -3.371     16.702     18.310
REMARK INTER + INTRA:          -5.310
REMARK INTER:                  -4.600
REMARK INTRA:                  -0.710
REMARK UNBOUND:                -0.559
REMARK SMILES CCCCCCCCC(=O)[O-]
REMARK SMILES IDX 6 1 7 2 8 3 9 4 10 5 11 6 5 7 4 8 3 9 2 10 1 11
REMARK H PARENT
REMARK Flexibility Score: inf
ROOT
ATOM      1  C   UNL     1     176.882 175.314 189.064  1.00  0.00     0.000 C 
ENDROOT
BRANCH   1   2
ATOM      2  C   UNL     1     176.034 175.076 187.803  1.00  0.00     0.006 C 
BRANCH   2   3
ATOM      3  C   UNL     1     176.557 175.849 186.586  1.00  0.00     0.053 C 
BRANCH   3   4
ATOM      4  C   UNL     1     177.628 175.066 185.892  1.00  0.00     0.041 C 
ATOM      5  O   UNL     1     177.367 173.940 185.394  1.00  0.00    -0.550 OA
ATOM      6  O   UNL     1     178.901 175.602 185.755  1.00  0.00    -0.550 OA
ENDBRANCH   3   4
ENDBRANCH   2   3
ENDBRANCH   1   2
BRANCH   1   7
ATOM      7  C   UNL     1     177.670 174.067 189.491  1.00  0.00     0.000 C 
BRANCH   7   8
ATOM      8  C   UNL     1     179.121 174.138 188.998  1.00  0.00    -0.000 C 
BRANCH   8   9
ATOM      9  C   UNL     1     179.551 172.809 188.360  1.00  0.00    -0.000 C 
BRANCH   9  10
ATOM     10  C   UNL     1     178.377 171.839 188.166  1.00  0.00    -0.003 C 
ATOM     11  C   UNL     1     178.651 170.454 188.753  1.00  0.00     0.004 C 
ENDBRANCH   9  10
ENDBRANCH   8   9
ENDBRANCH   7   8
ENDBRANCH   1   7
TORSDOF 7
ENDMDL
MODEL 3
REMARK VINA RESULT:    -3.351     13.388     15.072
REMARK INTER + INTRA:          -5.281
REMARK INTER:                  -4.599
REMARK INTRA:                  -0.683
REMARK UNBOUND:                -0.559
REMARK SMILES CCCCCCCCC(=O)[O-]
REMARK SMILES IDX 6 1 7 2 8 3 9 4 10 5 11 6 5 7 4 8 3 9 2 10 1 11
REMARK H PARENT
REMARK Flexibility Score: inf
ROOT
ATOM      1  C   UNL     1     161.190 177.369 186.931  1.00  0.00     0.000 C 
ENDROOT
BRANCH   1   2
ATOM      2  C   UNL     1     162.508 177.683 187.658  1.00  0.00     0.006 C 
BRANCH   2   3
ATOM      3  C   UNL     1     163.741 177.228 186.868  1.00  0.00     0.053 C 
BRANCH   3   4
ATOM      4  C   UNL     1     164.949 178.000 187.299  1.00  0.00     0.041 C 
ATOM      5  O   UNL     1     165.349 177.937 188.491  1.00  0.00    -0.550 OA
ATOM      6  O   UNL     1     165.661 178.750 186.372  1.00  0.00    -0.550 OA
ENDBRANCH   3   4
ENDBRANCH   2   3
ENDBRANCH   1   2
BRANCH   1   7
ATOM      7  C   UNL     1     160.040 177.052 187.899  1.00  0.00     0.000 C 
BRANCH   7   8
ATOM      8  C   UNL     1     160.523 176.174 189.059  1.00  0.00    -0.000 C 
BRANCH   8   9
ATOM      9  C   UNL     1     160.484 174.687 188.678  1.00  0.00    -0.000 C 
BRANCH   9  10
ATOM     10  C   UNL     1     161.846 173.998 188.847  1.00  0.00    -0.003 C 
ATOM     11  C   UNL     1     162.541 173.724 187.513  1.00  0.00     0.004 C 
ENDBRANCH   9  10
ENDBRANCH   8   9
ENDBRANCH   7   8
ENDBRANCH   1   7
TORSDOF 7
ENDMDL
MODEL 4
REMARK VINA RESULT:    -3.301     16.340     18.362
REMARK INTER + INTRA:          -5.210
REMARK INTER:                  -4.548
REMARK INTRA:                  -0.662
REMARK UNBOUND:                -0.559
REMARK SMILES CCCCCCCCC(=O)[O-]
REMARK SMILES IDX 6 1 7 2 8 3 9 4 10 5 11 6 5 7 4 8 3 9 2 10 1 11
REMARK H PARENT
REMARK Flexibility Score: inf
ROOT
ATOM      1  C   UNL     1     179.410 172.905 188.304  1.00  0.00     0.000 C 
ENDROOT
BRANCH   1   2
ATOM      2  C   UNL     1     179.412 172.836 186.768  1.00  0.00     0.006 C 
BRANCH   2   3
ATOM      3  C   UNL     1     178.092 173.316 186.153  1.00  0.00     0.053 C 
BRANCH   3   4
ATOM      4  C   UNL     1     178.324 174.520 185.295  1.00  0.00     0.041 C 
ATOM      5  O   UNL     1     178.834 175.560 185.788  1.00  0.00    -0.550 OA
ATOM      6  O   UNL     1     178.021 174.477 183.941  1.00  0.00    -0.550 OA
ENDBRANCH   3   4
ENDBRANCH   2   3
ENDBRANCH   1   2
BRANCH   1   7
ATOM      7  C   UNL     1     179.740 174.308 188.834  1.00  0.00     0.000 C 
BRANCH   7   8
ATOM      8  C   UNL     1     178.765 174.720 189.944  1.00  0.00    -0.000 C 
BRANCH   8   9
ATOM      9  C   UNL     1     177.330 174.824 189.406  1.00  0.00    -0.000 C 
BRANCH   9  10
ATOM     10  C   UNL     1     176.321 174.041 190.259  1.00  0.00    -0.003 C 
ATOM     11  C   UNL     1     176.102 172.614 189.755  1.00  0.00     0.004 C 
ENDBRANCH   9  10
ENDBRANCH   8   9
ENDBRANCH   7   8
ENDBRANCH   1   7
TORSDOF 7
ENDMDL
MODEL 5
REMARK VINA RESULT:    -3.299      1.691      4.145
REMARK INTER + INTRA:          -5.208
REMARK INTER:                  -4.600
REMARK INTRA:                  -0.609
REMARK UNBOUND:                -0.559
REMARK SMILES CCCCCCCCC(=O)[O-]
REMARK SMILES IDX 6 1 7 2 8 3 9 4 10 5 11 6 5 7 4 8 3 9 2 10 1 11
REMARK H PARENT
REMARK Flexibility Score: inf
ROOT
ATOM      1  C   UNL     1     163.439 161.123 187.361  1.00  0.00     0.000 C 
ENDROOT
BRANCH   1   2
ATOM      2  C   UNL     1     162.466 161.281 188.542  1.00  0.00     0.006 C 
BRANCH   2   3
ATOM      3  C   UNL     1     161.802 162.663 188.579  1.00  0.00     0.053 C 
BRANCH   3   4
ATOM      4  C   UNL     1     162.838 163.741 188.527  1.00  0.00     0.041 C 
ATOM      5  O   UNL     1     163.701 163.834 189.440  1.00  0.00    -0.550 OA
ATOM      6  O   UNL     1     162.881 164.612 187.447  1.00  0.00    -0.550 OA
ENDBRANCH   3   4
ENDBRANCH   2   3
ENDBRANCH   1   2
BRANCH   1   7
ATOM      7  C   UNL     1     164.763 160.461 187.769  1.00  0.00     0.000 C 
BRANCH   7   8
ATOM      8  C   UNL     1     164.715 159.986 189.226  1.00  0.00    -0.000 C 
BRANCH   8   9
ATOM      9  C   UNL     1     166.027 160.312 189.956  1.00  0.00    -0.000 C 
BRANCH   9  10
ATOM     10  C   UNL     1     166.624 161.659 189.524  1.00  0.00    -0.003 C 
ATOM     11  C   UNL     1     166.791 162.633 190.691  1.00  0.00     0.004 C 
ENDBRANCH   9  10
ENDBRANCH   8   9
ENDBRANCH   7   8
ENDBRANCH   1   7
TORSDOF 7
ENDMDL
MODEL 6
REMARK VINA RESULT:    -3.276     10.075     12.297
REMARK INTER + INTRA:          -5.176
REMARK INTER:                  -4.584
REMARK INTRA:                  -0.592
REMARK UNBOUND:                -0.559
REMARK SMILES CCCCCCCCC(=O)[O-]
REMARK SMILES IDX 6 1 7 2 8 3 9 4 10 5 11 6 5 7 4 8 3 9 2 10 1 11
REMARK H PARENT
REMARK Flexibility Score: inf
ROOT
ATOM      1  C   UNL     1     177.148 163.549 189.756  1.00  0.00     0.000 C 
ENDROOT
BRANCH   1   2
ATOM      2  C   UNL     1     176.530 164.221 188.519  1.00  0.00     0.006 C 
BRANCH   2   3
ATOM      3  C   UNL     1     177.292 165.481 188.089  1.00  0.00     0.053 C 
BRANCH   3   4
ATOM      4  C   UNL     1     177.995 165.247 186.789  1.00  0.00     0.041 C 
ATOM      5  O   UNL     1     178.566 166.201 186.197  1.00  0.00    -0.550 OA
ATOM      6  O   UNL     1     178.061 163.967 186.255  1.00  0.00    -0.550 OA
ENDBRANCH   3   4
ENDBRANCH   2   3
ENDBRANCH   1   2
BRANCH   1   7
ATOM      7  C   UNL     1     177.214 162.020 189.629  1.00  0.00     0.000 C 
BRANCH   7   8
ATOM      8  C   UNL     1     176.661 161.557 188.276  1.00  0.00    -0.000 C 
BRANCH   8   9
ATOM      9  C   UNL     1     175.486 160.586 188.464  1.00  0.00    -0.000 C 
BRANCH   9  10
ATOM     10  C   UNL     1     174.180 161.114 187.852  1.00  0.00    -0.003 C 
ATOM     11  C   UNL     1     173.294 161.827 188.874  1.00  0.00     0.004 C 
ENDBRANCH   9  10
ENDBRANCH   8   9
ENDBRANCH   7   8
ENDBRANCH   1   7
TORSDOF 7
ENDMDL
MODEL 7
REMARK VINA RESULT:    -3.255     11.247     12.491
REMARK INTER + INTRA:          -5.145
REMARK INTER:                  -4.481
REMARK INTRA:                  -0.665
REMARK UNBOUND:                -0.559
REMARK SMILES CCCCCCCCC(=O)[O-]
REMARK SMILES IDX 6 1 7 2 8 3 9 4 10 5 11 6 5 7 4 8 3 9 2 10 1 11
REMARK H PARENT
REMARK Flexibility Score: inf
ROOT
ATOM      1  C   UNL     1     175.147 160.604 185.854  1.00  0.00     0.000 C 
ENDROOT
BRANCH   1   2
ATOM      2  C   UNL     1     175.096 161.606 184.688  1.00  0.00     0.006 C 
BRANCH   2   3
ATOM      3  C   UNL     1     176.049 162.791 184.887  1.00  0.00     0.053 C 
BRANCH   3   4
ATOM      4  C   UNL     1     177.472 162.335 184.805  1.00  0.00     0.041 C 
ATOM      5  O   UNL     1     178.256 162.532 185.771  1.00  0.00    -0.550 OA
ATOM      6  O   UNL     1     177.919 161.651 183.683  1.00  0.00    -0.550 OA
ENDBRANCH   3   4
ENDBRANCH   2   3
ENDBRANCH   1   2
BRANCH   1   7
ATOM      7  C   UNL     1     174.866 161.263 187.212  1.00  0.00     0.000 C 
BRANCH   7   8
ATOM      8  C   UNL     1     175.657 160.574 188.331  1.00  0.00    -0.000 C 
BRANCH   8   9
ATOM      9  C   UNL     1     176.790 161.477 188.841  1.00  0.00    -0.000 C 
BRANCH   9  10
ATOM     10  C   UNL     1     176.424 162.967 188.795  1.00  0.00    -0.003 C 
ATOM     11  C   UNL     1     177.159 163.790 189.854  1.00  0.00     0.004 C 
ENDBRANCH   9  10
ENDBRANCH   8   9
ENDBRANCH   7   8
ENDBRANCH   1   7
TORSDOF 7
ENDMDL
MODEL 8
REMARK VINA RESULT:    -3.231      3.320      5.358
REMARK INTER + INTRA:          -5.113
REMARK INTER:                  -4.692
REMARK INTRA:                  -0.421
REMARK UNBOUND:                -0.559
REMARK SMILES CCCCCCCCC(=O)[O-]
REMARK SMILES IDX 6 1 7 2 8 3 9 4 10 5 11 6 5 7 4 8 3 9 2 10 1 11
REMARK H PARENT
REMARK Flexibility Score: inf
ROOT
ATOM      1  C   UNL     1     163.285 161.085 187.708  1.00  0.00     0.000 C 
ENDROOT
BRANCH   1   2
ATOM      2  C   UNL     1     162.163 161.763 188.510  1.00  0.00     0.006 C 
BRANCH   2   3
ATOM      3  C   UNL     1     160.766 161.411 187.985  1.00  0.00     0.053 C 
BRANCH   3   4
ATOM      4  C   UNL     1     160.668 161.711 186.522  1.00  0.00     0.041 C 
ATOM      5  O   UNL     1     160.685 162.903 186.117  1.00  0.00    -0.550 OA
ATOM      6  O   UNL     1     160.608 160.672 185.603  1.00  0.00    -0.550 OA
ENDBRANCH   3   4
ENDBRANCH   2   3
ENDBRANCH   1   2
BRANCH   1   7
ATOM      7  C   UNL     1     164.131 160.130 188.564  1.00  0.00     0.000 C 
BRANCH   7   8
ATOM      8  C   UNL     1     165.608 160.544 188.553  1.00  0.00    -0.000 C 
BRANCH   8   9
ATOM      9  C   UNL     1     166.170 160.615 189.981  1.00  0.00    -0.000 C 
BRANCH   9  10
ATOM     10  C   UNL     1     166.688 162.014 190.343  1.00  0.00    -0.003 C 
ATOM     11  C   UNL     1     165.801 163.133 189.795  1.00  0.00     0.004 C 
ENDBRANCH   9  10
ENDBRANCH   8   9
ENDBRANCH   7   8
ENDBRANCH   1   7
TORSDOF 7
ENDMDL
MODEL 9
REMARK VINA RESULT:    -2.093      3.692      5.681
REMARK INTER + INTRA:          -3.508
REMARK INTER:                  -2.751
REMARK INTRA:                  -0.758
REMARK UNBOUND:                -0.559
REMARK SMILES CCCCCCCCC(=O)[O-]
REMARK SMILES IDX 6 1 7 2 8 3 9 4 10 5 11 6 5 7 4 8 3 9 2 10 1 11
REMARK H PARENT
REMARK Flexibility Score: inf
ROOT
ATOM      1  C   UNL     1     159.875 161.783 187.658  1.00  0.00     0.000 C 
ENDROOT
BRANCH   1   2
ATOM      2  C   UNL     1     160.362 162.199 186.260  1.00  0.00     0.006 C 
BRANCH   2   3
ATOM      3  C   UNL     1     160.767 161.000 185.394  1.00  0.00     0.053 C 
BRANCH   3   4
ATOM      4  C   UNL     1     162.118 161.226 184.791  1.00  0.00     0.041 C 
ATOM      5  O   UNL     1     162.851 160.246 184.495  1.00  0.00    -0.550 OA
ATOM      6  O   UNL     1     162.547 162.517 184.511  1.00  0.00    -0.550 OA
ENDBRANCH   3   4
ENDBRANCH   2   3
ENDBRANCH   1   2
BRANCH   1   7
ATOM      7  C   UNL     1     160.999 161.793 188.704  1.00  0.00     0.000 C 
BRANCH   7   8
ATOM      8  C   UNL     1     162.088 162.806 188.331  1.00  0.00    -0.000 C 
BRANCH   8   9
ATOM      9  C   UNL     1     163.488 162.190 188.478  1.00  0.00    -0.000 C 
BRANCH   9  10
ATOM     10  C   UNL     1     163.519 160.701 188.105  1.00  0.00    -0.003 C 
ATOM     11  C   UNL     1     164.878 160.255 187.564  1.00  0.00     0.004 C 
ENDBRANCH   9  10
ENDBRANCH   8   9
ENDBRANCH   7   8
ENDBRANCH   1   7
TORSDOF 7
ENDMDL
