MODEL 1
REMARK VINA RESULT:    -5.003      0.000      0.000
REMARK INTER + INTRA:          -6.305
REMARK INTER:                  -6.173
REMARK INTRA:                  -0.132
REMARK UNBOUND:                -0.132
REMARK SMILES CCCCC=CC(C)=O
REMARK SMILES IDX 4 1 3 2 2 3 1 4 5 5 6 6 7 7 9 8 8 9
REMARK H PARENT
REMARK Flexibility Score: inf
ROOT
ATOM      1  C   UNL     1      15.997  25.976 -25.610  1.00  0.00     0.027 C 
ENDROOT
BRANCH   1   2
ATOM      2  C   UNL     1      14.584  25.400 -25.427  1.00  0.00     0.004 C 
BRANCH   2   3
ATOM      3  C   UNL     1      14.431  24.023 -26.089  1.00  0.00    -0.003 C 
ATOM      4  C   UNL     1      12.969  23.726 -26.407  1.00  0.00     0.004 C 
ENDBRANCH   2   3
ENDBRANCH   1   2
BRANCH   1   5
ATOM      5  C   UNL     1      17.062  25.052 -25.088  1.00  0.00    -0.023 C 
ATOM      6  C   UNL     1      17.096  24.679 -23.803  1.00  0.00     0.042 C 
BRANCH   6   7
ATOM      7  C   UNL     1      18.122  23.773 -23.249  1.00  0.00     0.152 C 
ATOM      8  O   UNL     1      17.799  22.583 -22.989  1.00  0.00    -0.295 OA
ATOM      9  C   UNL     1      19.529  24.216 -22.984  1.00  0.00     0.093 C 
ENDBRANCH   6   7
ENDBRANCH   1   5
TORSDOF 4
ENDMDL
MODEL 2
REMARK VINA RESULT:    -4.280      2.141      4.950
REMARK INTER + INTRA:          -5.413
REMARK INTER:                  -5.244
REMARK INTRA:                  -0.169
REMARK UNBOUND:                -0.132
REMARK SMILES CCCCC=CC(C)=O
REMARK SMILES IDX 4 1 3 2 2 3 1 4 5 5 6 6 7 7 9 8 8 9
REMARK H PARENT
REMARK Flexibility Score: inf
ROOT
ATOM      1  C   UNL     1      17.325  25.761 -24.875  1.00  0.00     0.027 C 
ENDROOT
BRANCH   1   2
ATOM      2  C   UNL     1      17.853  24.361 -24.524  1.00  0.00     0.004 C 
BRANCH   2   3
ATOM      3  C   UNL     1      18.106  24.200 -23.018  1.00  0.00    -0.003 C 
ATOM      4  C   UNL     1      19.595  24.291 -22.698  1.00  0.00     0.004 C 
ENDBRANCH   2   3
ENDBRANCH   1   2
BRANCH   1   5
ATOM      5  C   UNL     1      15.916  25.726 -25.398  1.00  0.00    -0.023 C 
ATOM      6  C   UNL     1      15.185  24.605 -25.365  1.00  0.00     0.042 C 
BRANCH   6   7
ATOM      7  C   UNL     1      13.798  24.525 -25.865  1.00  0.00     0.152 C 
ATOM      8  O   UNL     1      12.938  25.312 -25.386  1.00  0.00    -0.295 OA
ATOM      9  C   UNL     1      13.378  23.545 -26.918  1.00  0.00     0.093 C 
ENDBRANCH   6   7
ENDBRANCH   1   5
TORSDOF 4
ENDMDL
MODEL 3
REMARK VINA RESULT:    -4.268     14.575     15.751
REMARK INTER + INTRA:          -5.398
REMARK INTER:                  -5.215
REMARK INTRA:                  -0.182
REMARK UNBOUND:                -0.132
REMARK SMILES CCCCC=CC(C)=O
REMARK SMILES IDX 4 1 3 2 2 3 1 4 5 5 6 6 7 7 9 8 8 9
REMARK H PARENT
REMARK Flexibility Score: inf
ROOT
ATOM      1  C   UNL     1      21.467   9.616 -24.879  1.00  0.00     0.027 C 
ENDROOT
BRANCH   1   2
ATOM      2  C   UNL     1      21.607  11.068 -25.361  1.00  0.00     0.004 C 
BRANCH   2   3
ATOM      3  C   UNL     1      20.250  11.695 -25.710  1.00  0.00    -0.003 C 
ATOM      4  C   UNL     1      20.424  12.933 -26.584  1.00  0.00     0.004 C 
ENDBRANCH   2   3
ENDBRANCH   1   2
BRANCH   1   5
ATOM      5  C   UNL     1      20.048   9.124 -24.952  1.00  0.00    -0.023 C 
ATOM      6  C   UNL     1      19.570   8.235 -24.073  1.00  0.00     0.042 C 
BRANCH   6   7
ATOM      7  C   UNL     1      18.184   7.727 -24.106  1.00  0.00     0.152 C 
ATOM      8  O   UNL     1      17.236   8.556 -24.055  1.00  0.00    -0.295 OA
ATOM      9  C   UNL     1      17.865   6.265 -24.196  1.00  0.00     0.093 C 
ENDBRANCH   6   7
ENDBRANCH   1   5
TORSDOF 4
ENDMDL
MODEL 4
REMARK VINA RESULT:    -4.140     13.507     14.617
REMARK INTER + INTRA:          -5.240
REMARK INTER:                  -5.049
REMARK INTRA:                  -0.192
REMARK UNBOUND:                -0.132
REMARK SMILES CCCCC=CC(C)=O
REMARK SMILES IDX 4 1 3 2 2 3 1 4 5 5 6 6 7 7 9 8 8 9
REMARK H PARENT
REMARK Flexibility Score: inf
ROOT
ATOM      1  C   UNL     1      20.116  12.568 -25.610  1.00  0.00     0.027 C 
ENDROOT
BRANCH   1   2
ATOM      2  C   UNL     1      20.541  13.033 -27.011  1.00  0.00     0.004 C 
BRANCH   2   3
ATOM      3  C   UNL     1      21.578  12.093 -27.643  1.00  0.00    -0.003 C 
ATOM      4  C   UNL     1      22.963  12.323 -27.048  1.00  0.00     0.004 C 
ENDBRANCH   2   3
ENDBRANCH   1   2
BRANCH   1   5
ATOM      5  C   UNL     1      19.242  11.346 -25.654  1.00  0.00    -0.023 C 
ATOM      6  C   UNL     1      19.696  10.147 -25.270  1.00  0.00     0.042 C 
BRANCH   6   7
ATOM      7  C   UNL     1      18.872   8.922 -25.294  1.00  0.00     0.152 C 
ATOM      8  O   UNL     1      18.169   8.687 -26.314  1.00  0.00    -0.295 OA
ATOM      9  C   UNL     1      18.839   7.951 -24.152  1.00  0.00     0.093 C 
ENDBRANCH   6   7
ENDBRANCH   1   5
TORSDOF 4
ENDMDL
MODEL 5
REMARK VINA RESULT:    -4.134     14.347     15.349
REMARK INTER + INTRA:          -5.233
REMARK INTER:                  -5.058
REMARK INTRA:                  -0.175
REMARK UNBOUND:                -0.132
REMARK SMILES CCCCC=CC(C)=O
REMARK SMILES IDX 4 1 3 2 2 3 1 4 5 5 6 6 7 7 9 8 8 9
REMARK H PARENT
REMARK Flexibility Score: inf
ROOT
ATOM      1  C   UNL     1      19.670   8.486 -24.441  1.00  0.00     0.027 C 
ENDROOT
BRANCH   1   2
ATOM      2  C   UNL     1      18.184   8.804 -24.666  1.00  0.00     0.004 C 
BRANCH   2   3
ATOM      3  C   UNL     1      17.264   7.792 -23.968  1.00  0.00    -0.003 C 
ATOM      4  C   UNL     1      17.803   6.372 -24.108  1.00  0.00     0.004 C 
ENDBRANCH   2   3
ENDBRANCH   1   2
BRANCH   1   5
ATOM      5  C   UNL     1      20.568   9.609 -24.877  1.00  0.00    -0.023 C 
ATOM      6  C   UNL     1      20.097  10.652 -25.571  1.00  0.00     0.042 C 
BRANCH   6   7
ATOM      7  C   UNL     1      20.942  11.778 -26.018  1.00  0.00     0.152 C 
ATOM      8  O   UNL     1      22.190  11.694 -25.863  1.00  0.00    -0.295 OA
ATOM      9  C   UNL     1      20.371  13.014 -26.645  1.00  0.00     0.093 C 
ENDBRANCH   6   7
ENDBRANCH   1   5
TORSDOF 4
ENDMDL
MODEL 6
REMARK VINA RESULT:    -3.874      8.235      9.877
REMARK INTER + INTRA:          -4.912
REMARK INTER:                  -4.785
REMARK INTRA:                  -0.126
REMARK UNBOUND:                -0.132
REMARK SMILES CCCCC=CC(C)=O
REMARK SMILES IDX 4 1 3 2 2 3 1 4 5 5 6 6 7 7 9 8 8 9
REMARK H PARENT
REMARK Flexibility Score: inf
ROOT
ATOM      1  C   UNL     1       9.462  22.041 -21.936  1.00  0.00     0.027 C 
ENDROOT
BRANCH   1   2
ATOM      2  C   UNL     1       9.245  20.729 -21.167  1.00  0.00     0.004 C 
BRANCH   2   3
ATOM      3  C   UNL     1      10.159  20.623 -19.937  1.00  0.00    -0.003 C 
ATOM      4  C   UNL     1      11.622  20.492 -20.350  1.00  0.00     0.004 C 
ENDBRANCH   2   3
ENDBRANCH   1   2
BRANCH   1   5
ATOM      5  C   UNL     1       8.182  22.804 -22.140  1.00  0.00    -0.023 C 
ATOM      6  C   UNL     1       8.173  24.137 -22.253  1.00  0.00     0.042 C 
BRANCH   6   7
ATOM      7  C   UNL     1       6.941  24.926 -22.456  1.00  0.00     0.152 C 
ATOM      8  O   UNL     1       6.739  25.451 -23.583  1.00  0.00    -0.295 OA
ATOM      9  C   UNL     1       5.925  25.124 -21.371  1.00  0.00     0.093 C 
ENDBRANCH   6   7
ENDBRANCH   1   5
TORSDOF 4
ENDMDL
MODEL 7
REMARK VINA RESULT:    -3.827      8.311      9.322
REMARK INTER + INTRA:          -4.854
REMARK INTER:                  -4.744
REMARK INTRA:                  -0.110
REMARK UNBOUND:                -0.132
REMARK SMILES CCCCC=CC(C)=O
REMARK SMILES IDX 4 1 3 2 2 3 1 4 5 5 6 6 7 7 9 8 8 9
REMARK H PARENT
REMARK Flexibility Score: inf
ROOT
ATOM      1  C   UNL     1       9.930  21.381 -21.164  1.00  0.00     0.027 C 
ENDROOT
BRANCH   1   2
ATOM      2  C   UNL     1       8.632  21.760 -21.893  1.00  0.00     0.004 C 
BRANCH   2   3
ATOM      3  C   UNL     1       8.802  23.018 -22.758  1.00  0.00    -0.003 C 
ATOM      4  C   UNL     1       8.038  24.198 -22.168  1.00  0.00     0.004 C 
ENDBRANCH   2   3
ENDBRANCH   1   2
BRANCH   1   5
ATOM      5  C   UNL     1       9.772  20.147 -20.319  1.00  0.00    -0.023 C 
ATOM      6  C   UNL     1      10.382  20.029 -19.134  1.00  0.00     0.042 C 
BRANCH   6   7
ATOM      7  C   UNL     1      10.253  18.838 -18.271  1.00  0.00     0.152 C 
ATOM      8  O   UNL     1      10.346  18.983 -17.022  1.00  0.00    -0.295 OA
ATOM      9  C   UNL     1      10.017  17.465 -18.824  1.00  0.00     0.093 C 
ENDBRANCH   6   7
ENDBRANCH   1   5
TORSDOF 4
ENDMDL
MODEL 8
REMARK VINA RESULT:    -3.791      8.230      9.695
REMARK INTER + INTRA:          -4.809
REMARK INTER:                  -4.701
REMARK INTRA:                  -0.108
REMARK UNBOUND:                -0.132
REMARK SMILES CCCCC=CC(C)=O
REMARK SMILES IDX 4 1 3 2 2 3 1 4 5 5 6 6 7 7 9 8 8 9
REMARK H PARENT
REMARK Flexibility Score: inf
ROOT
ATOM      1  C   UNL     1      10.341  20.878 -21.090  1.00  0.00     0.027 C 
ENDROOT
BRANCH   1   2
ATOM      2  C   UNL     1      10.399  20.546 -19.591  1.00  0.00     0.004 C 
BRANCH   2   3
ATOM      3  C   UNL     1      10.202  19.047 -19.323  1.00  0.00    -0.003 C 
ATOM      4  C   UNL     1      10.177  18.756 -17.826  1.00  0.00     0.004 C 
ENDBRANCH   2   3
ENDBRANCH   1   2
BRANCH   1   5
ATOM      5  C   UNL     1       9.315  21.932 -21.403  1.00  0.00    -0.023 C 
ATOM      6  C   UNL     1       9.146  22.395 -22.648  1.00  0.00     0.042 C 
BRANCH   6   7
ATOM      7  C   UNL     1       8.151  23.427 -23.000  1.00  0.00     0.152 C 
ATOM      8  O   UNL     1       7.602  23.374 -24.134  1.00  0.00    -0.295 OA
ATOM      9  C   UNL     1       7.770  24.532 -22.062  1.00  0.00     0.093 C 
ENDBRANCH   6   7
ENDBRANCH   1   5
TORSDOF 4
ENDMDL
MODEL 9
REMARK VINA RESULT:    -3.772      7.838      8.452
REMARK INTER + INTRA:          -4.786
REMARK INTER:                  -4.588
REMARK INTRA:                  -0.198
REMARK UNBOUND:                -0.132
REMARK SMILES CCCCC=CC(C)=O
REMARK SMILES IDX 4 1 3 2 2 3 1 4 5 5 6 6 7 7 9 8 8 9
REMARK H PARENT
REMARK Flexibility Score: inf
ROOT
ATOM      1  C   UNL     1       8.769  23.022 -23.196  1.00  0.00     0.027 C 
ENDROOT
BRANCH   1   2
ATOM      2  C   UNL     1       8.135  23.993 -22.187  1.00  0.00     0.004 C 
BRANCH   2   3
ATOM      3  C   UNL     1       7.214  25.015 -22.869  1.00  0.00    -0.003 C 
ATOM      4  C   UNL     1       6.436  24.375 -24.015  1.00  0.00     0.004 C 
ENDBRANCH   2   3
ENDBRANCH   1   2
BRANCH   1   5
ATOM      5  C   UNL     1       9.547  21.925 -22.523  1.00  0.00    -0.023 C 
ATOM      6  C   UNL     1       9.254  21.521 -21.281  1.00  0.00     0.042 C 
BRANCH   6   7
ATOM      7  C   UNL     1       9.990  20.447 -20.583  1.00  0.00     0.152 C 
ATOM      8  O   UNL     1       9.350  19.435 -20.190  1.00  0.00    -0.295 OA
ATOM      9  C   UNL     1      11.465  20.518 -20.326  1.00  0.00     0.093 C 
ENDBRANCH   6   7
ENDBRANCH   1   5
TORSDOF 4
ENDMDL
