MODEL 1
REMARK VINA RESULT:    -4.730      0.000      0.000
REMARK INTER + INTRA:          -6.532
REMARK INTER:                  -6.666
REMARK INTRA:                   0.134
REMARK UNBOUND:                 0.134
REMARK SMILES CC1=CCC(=C(C)C)C(=O)CC(C)=CCC1
REMARK SMILES IDX 12 1 14 2 13 3 15 4 16 5 2 6 1 7 3 8 11 10 9 11 10 12 5 13
REMARK SMILES IDX 6 14 7 15 8 16 4 17
REMARK H PARENT
REMARK Flexibility Score: 60.00
ROOT
ATOM      1  C   UNL     1      32.766  40.707  84.837  1.00  0.00    -0.070 C 
ATOM      2  C   UNL     1      33.842  40.150  85.464  1.00  0.00    -0.027 C 
ATOM      3  C   UNL     1      31.701  41.308  85.726  1.00  0.00     0.039 C 
ENDROOT
BRANCH   2   4
ATOM      4  C   UNL     1      35.062  39.416  84.916  1.00  0.00     0.032 C 
BRANCH   4   5
ATOM      5  C   UNL     1      36.390  40.179  84.894  1.00  0.00     0.034 C 
BRANCH   5   6
ATOM      6  C   UNL     1      36.394  41.650  85.337  1.00  0.00    -0.077 C 
ATOM      7  C   UNL     1      36.716  41.887  86.796  1.00  0.00     0.039 C 
ATOM      8  C   UNL     1      36.067  42.765  84.618  1.00  0.00    -0.023 CG0
ATOM      9  G   UNL     1      35.636  42.924  83.173  1.00  0.00     0.000 G0
ENDBRANCH   5   6
ENDBRANCH   4   5
ENDBRANCH   2   4
BRANCH   1  10
ATOM     10  C   UNL     1      32.528  40.793  83.338  1.00  0.00     0.111 C 
BRANCH  10  11
ATOM     11  C   UNL     1      33.696  41.400  82.622  1.00  0.00     0.163 C 
ATOM     12  O   UNL     1      34.310  40.712  81.762  1.00  0.00    -0.294 OA
BRANCH  11  13
ATOM     13  C   UNL     1      34.155  42.775  82.947  1.00  0.00    -0.002 C 
ATOM     14  C   UNL     1      33.280  43.818  83.029  1.00  0.00    -0.069 C 
ATOM     15  C   UNL     1      33.757  45.237  83.253  1.00  0.00     0.039 C 
ATOM     16  C   UNL     1      31.789  43.598  82.916  1.00  0.00     0.039 C 
BRANCH  13  17
ATOM     17  C   UNL     1      35.645  42.945  83.159  1.00  0.00     0.066 CG0
ATOM     18  G   UNL     1      36.035  42.770  84.614  1.00  0.00     0.000 G0
ENDBRANCH  13  17
ENDBRANCH  11  13
ENDBRANCH  10  11
ENDBRANCH   1  10
TORSDOF 0
ENDMDL
MODEL 2
REMARK VINA RESULT:    -4.616      1.670      3.743
REMARK INTER + INTRA:          -6.370
REMARK INTER:                  -6.441
REMARK INTRA:                   0.071
REMARK UNBOUND:                 0.134
REMARK SMILES CC1=CCC(=C(C)C)C(=O)CC(C)=CCC1
REMARK SMILES IDX 12 1 14 2 13 3 15 4 16 5 2 6 1 7 3 8 11 10 9 11 10 12 5 13
REMARK SMILES IDX 6 14 7 15 8 16 4 17
REMARK H PARENT
REMARK Flexibility Score: 60.00
ROOT
ATOM      1  C   UNL     1      34.342  41.654  86.580  1.00  0.00    -0.070 C 
ATOM      2  C   UNL     1      33.017  41.522  86.281  1.00  0.00    -0.027 C 
ATOM      3  C   UNL     1      34.747  42.906  87.322  1.00  0.00     0.039 C 
ENDROOT
BRANCH   2   4
ATOM      4  C   UNL     1      32.258  40.447  85.510  1.00  0.00     0.032 C 
BRANCH   4   5
ATOM      5  C   UNL     1      31.908  40.745  84.048  1.00  0.00     0.034 C 
BRANCH   5   6
ATOM      6  C   UNL     1      32.416  42.055  83.430  1.00  0.00    -0.077 C 
ATOM      7  C   UNL     1      31.419  43.193  83.411  1.00  0.00     0.039 C 
ATOM      8  C   UNL     1      33.611  42.311  82.819  1.00  0.00    -0.023 CG0
ATOM      9  G   UNL     1      34.818  41.422  82.587  1.00  0.00     0.000 G0
ENDBRANCH   5   6
ENDBRANCH   4   5
ENDBRANCH   2   4
BRANCH   1  10
ATOM     10  C   UNL     1      35.453  40.669  86.252  1.00  0.00     0.111 C 
BRANCH  10  11
ATOM     11  C   UNL     1      35.501  40.351  84.789  1.00  0.00     0.163 C 
ATOM     12  O   UNL     1      35.366  39.152  84.420  1.00  0.00    -0.294 OA
BRANCH  11  13
ATOM     13  C   UNL     1      35.745  41.419  83.785  1.00  0.00    -0.002 C 
ATOM     14  C   UNL     1      36.734  42.343  83.954  1.00  0.00    -0.069 C 
ATOM     15  C   UNL     1      36.915  43.494  82.990  1.00  0.00     0.039 C 
ATOM     16  C   UNL     1      37.705  42.246  85.108  1.00  0.00     0.039 C 
BRANCH  13  17
ATOM     17  C   UNL     1      34.821  41.426  82.586  1.00  0.00     0.066 CG0
ATOM     18  G   UNL     1      33.606  42.306  82.810  1.00  0.00     0.000 G0
ENDBRANCH  13  17
ENDBRANCH  11  13
ENDBRANCH  10  11
ENDBRANCH   1  10
TORSDOF 0
ENDMDL
MODEL 3
REMARK VINA RESULT:    -4.539      2.206      4.445
REMARK INTER + INTRA:          -6.263
REMARK INTER:                  -6.388
REMARK INTRA:                   0.125
REMARK UNBOUND:                 0.134
REMARK SMILES CC1=CCC(=C(C)C)C(=O)CC(C)=CCC1
REMARK SMILES IDX 12 1 14 2 13 3 15 4 16 5 2 6 1 7 3 8 11 10 9 11 10 12 5 13
REMARK SMILES IDX 6 14 7 15 8 16 4 17
REMARK H PARENT
REMARK Flexibility Score: 60.00
ROOT
ATOM      1  C   UNL     1      34.874  39.765  85.123  1.00  0.00    -0.070 C 
ATOM      2  C   UNL     1      33.543  39.766  84.821  1.00  0.00    -0.027 C 
ATOM      3  C   UNL     1      35.763  38.904  84.257  1.00  0.00     0.039 C 
ENDROOT
BRANCH   2   4
ATOM      4  C   UNL     1      32.357  40.453  85.490  1.00  0.00     0.032 C 
BRANCH   4   5
ATOM      5  C   UNL     1      31.623  41.531  84.686  1.00  0.00     0.034 C 
BRANCH   5   6
ATOM      6  C   UNL     1      32.306  42.893  84.499  1.00  0.00    -0.077 C 
ATOM      7  C   UNL     1      32.129  43.526  83.137  1.00  0.00     0.039 C 
ATOM      8  C   UNL     1      33.120  43.572  85.362  1.00  0.00    -0.023 CG0
ATOM      9  G   UNL     1      33.579  43.235  86.767  1.00  0.00     0.000 G0
ENDBRANCH   5   6
ENDBRANCH   4   5
ENDBRANCH   2   4
BRANCH   1  10
ATOM     10  C   UNL     1      35.557  40.546  86.235  1.00  0.00     0.111 C 
BRANCH  10  11
ATOM     11  C   UNL     1      35.632  42.010  85.923  1.00  0.00     0.163 C 
ATOM     12  O   UNL     1      36.212  42.380  84.866  1.00  0.00    -0.294 OA
BRANCH  11  13
ATOM     13  C   UNL     1      35.071  43.016  86.861  1.00  0.00    -0.002 C 
ATOM     14  C   UNL     1      35.863  43.676  87.754  1.00  0.00    -0.069 C 
ATOM     15  C   UNL     1      35.280  44.621  88.782  1.00  0.00     0.039 C 
ATOM     16  C   UNL     1      37.365  43.503  87.745  1.00  0.00     0.039 C 
BRANCH  13  17
ATOM     17  C   UNL     1      33.577  43.245  86.774  1.00  0.00     0.066 CG0
ATOM     18  G   UNL     1      33.131  43.553  85.358  1.00  0.00     0.000 G0
ENDBRANCH  13  17
ENDBRANCH  11  13
ENDBRANCH  10  11
ENDBRANCH   1  10
TORSDOF 0
ENDMDL
MODEL 4
REMARK VINA RESULT:    -4.497      1.440      3.372
REMARK INTER + INTRA:          -6.203
REMARK INTER:                  -6.367
REMARK INTRA:                   0.164
REMARK UNBOUND:                 0.134
REMARK SMILES CC1=CCC(=C(C)C)C(=O)CC(C)=CCC1
REMARK SMILES IDX 12 1 14 2 13 3 15 4 16 5 2 6 1 7 3 8 11 10 9 11 10 12 5 13
REMARK SMILES IDX 6 14 7 15 8 16 4 17
REMARK H PARENT
REMARK Flexibility Score: 60.00
ROOT
ATOM      1  C   UNL     1      34.448  40.150  85.444  1.00  0.00    -0.070 C 
ATOM      2  C   UNL     1      33.118  40.288  85.717  1.00  0.00    -0.027 C 
ATOM      3  C   UNL     1      35.397  40.294  86.612  1.00  0.00     0.039 C 
ENDROOT
BRANCH   2   4
ATOM      4  C   UNL     1      31.893  40.263  84.809  1.00  0.00     0.032 C 
BRANCH   4   5
ATOM      5  C   UNL     1      31.537  41.560  84.073  1.00  0.00     0.034 C 
BRANCH   5   6
ATOM      6  C   UNL     1      32.100  42.882  84.614  1.00  0.00    -0.077 C 
ATOM      7  C   UNL     1      31.327  43.497  85.759  1.00  0.00     0.039 C 
ATOM      8  C   UNL     1      33.152  43.622  84.150  1.00  0.00    -0.023 CG0
ATOM      9  G   UNL     1      34.111  43.375  83.002  1.00  0.00     0.000 G0
ENDBRANCH   5   6
ENDBRANCH   4   5
ENDBRANCH   2   4
BRANCH   1  10
ATOM     10  C   UNL     1      35.076  39.857  84.091  1.00  0.00     0.111 C 
BRANCH  10  11
ATOM     11  C   UNL     1      34.756  40.922  83.087  1.00  0.00     0.163 C 
ATOM     12  O   UNL     1      34.165  40.599  82.020  1.00  0.00    -0.294 OA
BRANCH  11  13
ATOM     13  C   UNL     1      35.165  42.332  83.318  1.00  0.00    -0.002 C 
ATOM     14  C   UNL     1      36.402  42.646  83.800  1.00  0.00    -0.069 C 
ATOM     15  C   UNL     1      36.783  44.070  84.138  1.00  0.00     0.039 C 
ATOM     16  C   UNL     1      37.455  41.580  84.003  1.00  0.00     0.039 C 
BRANCH  13  17
ATOM     17  C   UNL     1      34.123  43.385  83.006  1.00  0.00     0.066 CG0
ATOM     18  G   UNL     1      33.169  43.601  84.165  1.00  0.00     0.000 G0
ENDBRANCH  13  17
ENDBRANCH  11  13
ENDBRANCH  10  11
ENDBRANCH   1  10
TORSDOF 0
ENDMDL
MODEL 5
REMARK VINA RESULT:    -4.381      1.895      3.151
REMARK INTER + INTRA:          -6.039
REMARK INTER:                  -6.144
REMARK INTRA:                   0.105
REMARK UNBOUND:                 0.134
REMARK SMILES CC1=CCC(=C(C)C)C(=O)CC(C)=CCC1
REMARK SMILES IDX 12 1 14 2 13 3 15 4 16 5 2 6 1 7 3 8 11 10 9 11 10 12 5 13
REMARK SMILES IDX 6 14 7 15 8 16 4 17
REMARK H PARENT
REMARK Flexibility Score: 60.00
ROOT
ATOM      1  C   UNL     1      32.473  42.230  83.239  1.00  0.00    -0.070 C 
ATOM      2  C   UNL     1      33.703  42.047  82.676  1.00  0.00    -0.027 C 
ATOM      3  C   UNL     1      31.744  43.503  82.875  1.00  0.00     0.039 C 
ENDROOT
BRANCH   2   4
ATOM      4  C   UNL     1      34.736  40.939  82.844  1.00  0.00     0.032 C 
BRANCH   4   5
ATOM      5  C   UNL     1      35.999  41.271  83.647  1.00  0.00     0.034 C 
BRANCH   5   6
ATOM      6  C   UNL     1      35.999  42.537  84.516  1.00  0.00    -0.077 C 
ATOM      7  C   UNL     1      36.815  43.692  83.980  1.00  0.00     0.039 C 
ATOM      8  C   UNL     1      35.433  42.737  85.743  1.00  0.00    -0.023 CG0
ATOM      9  G   UNL     1      34.608  41.813  86.619  1.00  0.00     0.000 G0
ENDBRANCH   5   6
ENDBRANCH   4   5
ENDBRANCH   2   4
BRANCH   1  10
ATOM     10  C   UNL     1      31.756  41.282  84.187  1.00  0.00     0.111 C 
BRANCH  10  11
ATOM     11  C   UNL     1      32.630  40.872  85.332  1.00  0.00     0.163 C 
ATOM     12  O   UNL     1      32.907  39.650  85.482  1.00  0.00    -0.294 OA
BRANCH  11  13
ATOM     13  C   UNL     1      33.132  41.877  86.304  1.00  0.00    -0.002 C 
ATOM     14  C   UNL     1      32.304  42.808  86.859  1.00  0.00    -0.069 C 
ATOM     15  C   UNL     1      32.832  43.899  87.764  1.00  0.00     0.039 C 
ATOM     16  C   UNL     1      30.814  42.779  86.603  1.00  0.00     0.039 C 
BRANCH  13  17
ATOM     17  C   UNL     1      34.612  41.813  86.620  1.00  0.00     0.066 CG0
ATOM     18  G   UNL     1      35.420  42.753  85.746  1.00  0.00     0.000 G0
ENDBRANCH  13  17
ENDBRANCH  11  13
ENDBRANCH  10  11
ENDBRANCH   1  10
TORSDOF 0
ENDMDL
MODEL 6
REMARK VINA RESULT:    -4.356      2.282      3.153
REMARK INTER + INTRA:          -6.004
REMARK INTER:                  -6.162
REMARK INTRA:                   0.158
REMARK UNBOUND:                 0.134
REMARK SMILES CC1=CCC(=C(C)C)C(=O)CC(C)=CCC1
REMARK SMILES IDX 12 1 14 2 13 3 15 4 16 5 2 6 1 7 3 8 11 10 9 11 10 12 5 13
REMARK SMILES IDX 6 14 7 15 8 16 4 17
REMARK H PARENT
REMARK Flexibility Score: 60.00
ROOT
ATOM      1  C   UNL     1      33.643  40.545  83.561  1.00  0.00    -0.070 C 
ATOM      2  C   UNL     1      34.681  40.160  84.358  1.00  0.00    -0.027 C 
ATOM      3  C   UNL     1      33.934  40.666  82.082  1.00  0.00     0.039 C 
ENDROOT
BRANCH   2   4
ATOM      4  C   UNL     1      34.781  39.986  85.870  1.00  0.00     0.032 C 
BRANCH   4   5
ATOM      5  C   UNL     1      35.545  41.061  86.652  1.00  0.00     0.034 C 
BRANCH   5   6
ATOM      6  C   UNL     1      35.178  42.533  86.416  1.00  0.00    -0.077 C 
ATOM      7  C   UNL     1      36.348  43.469  86.210  1.00  0.00     0.039 C 
ATOM      8  C   UNL     1      33.948  43.128  86.449  1.00  0.00    -0.023 CG0
ATOM      9  G   UNL     1      32.568  42.545  86.687  1.00  0.00     0.000 G0
ENDBRANCH   5   6
ENDBRANCH   4   5
ENDBRANCH   2   4
BRANCH   1  10
ATOM     10  C   UNL     1      32.221  40.858  84.001  1.00  0.00     0.111 C 
BRANCH  10  11
ATOM     11  C   UNL     1      32.013  42.327  84.208  1.00  0.00     0.163 C 
ATOM     12  O   UNL     1      32.220  43.115  83.245  1.00  0.00    -0.294 OA
BRANCH  11  13
ATOM     13  C   UNL     1      31.612  42.859  85.536  1.00  0.00    -0.002 C 
ATOM     14  C   UNL     1      30.473  43.592  85.696  1.00  0.00    -0.069 C 
ATOM     15  C   UNL     1      30.117  44.225  87.023  1.00  0.00     0.039 C 
ATOM     16  C   UNL     1      29.505  43.791  84.552  1.00  0.00     0.039 C 
BRANCH  13  17
ATOM     17  C   UNL     1      32.550  42.553  86.685  1.00  0.00     0.066 CG0
ATOM     18  G   UNL     1      33.937  43.120  86.451  1.00  0.00     0.000 G0
ENDBRANCH  13  17
ENDBRANCH  11  13
ENDBRANCH  10  11
ENDBRANCH   1  10
TORSDOF 0
ENDMDL
MODEL 7
REMARK VINA RESULT:    -4.337      1.697      3.666
REMARK INTER + INTRA:          -5.977
REMARK INTER:                  -6.394
REMARK INTRA:                   0.417
REMARK UNBOUND:                 0.134
REMARK SMILES CC1=CCC(=C(C)C)C(=O)CC(C)=CCC1
REMARK SMILES IDX 12 1 14 2 13 3 15 4 16 5 2 6 1 7 3 8 11 10 9 11 10 12 5 13
REMARK SMILES IDX 6 14 7 15 8 16 4 17
REMARK H PARENT
REMARK Flexibility Score: 60.00
ROOT
ATOM      1  C   UNL     1      35.657  40.146  84.934  1.00  0.00    -0.070 C 
ATOM      2  C   UNL     1      34.410  39.602  84.835  1.00  0.00    -0.027 C 
ATOM      3  C   UNL     1      36.810  39.283  84.477  1.00  0.00     0.039 C 
ENDROOT
BRANCH   2   4
ATOM      4  C   UNL     1      33.040  40.136  85.239  1.00  0.00     0.032 C 
BRANCH   4   5
ATOM      5  C   UNL     1      32.175  40.758  84.138  1.00  0.00     0.034 C 
BRANCH   5   6
ATOM      6  C   UNL     1      32.104  42.289  84.044  1.00  0.00    -0.077 C 
ATOM      7  C   UNL     1      30.804  42.909  84.505  1.00  0.00     0.039 C 
ATOM      8  C   UNL     1      33.019  43.162  83.525  1.00  0.00    -0.023 CG0
ATOM      9  G   UNL     1      34.388  42.921  82.917  1.00  0.00     0.000 G0
ENDBRANCH   5   6
ENDBRANCH   4   5
ENDBRANCH   2   4
BRANCH   1  10
ATOM     10  C   UNL     1      36.008  41.533  85.449  1.00  0.00     0.111 C 
BRANCH  10  11
ATOM     11  C   UNL     1      36.442  42.445  84.342  1.00  0.00     0.163 C 
ATOM     12  O   UNL     1      37.623  42.360  83.908  1.00  0.00    -0.294 OA
BRANCH  11  13
ATOM     13  C   UNL     1      35.513  43.464  83.789  1.00  0.00    -0.002 C 
ATOM     14  C   UNL     1      35.655  44.789  84.077  1.00  0.00    -0.069 C 
ATOM     15  C   UNL     1      34.650  45.816  83.604  1.00  0.00     0.039 C 
ATOM     16  C   UNL     1      36.839  45.293  84.872  1.00  0.00     0.039 C 
BRANCH  13  17
ATOM     17  C   UNL     1      34.398  42.938  82.909  1.00  0.00     0.066 CG0
ATOM     18  G   UNL     1      33.034  43.146  83.537  1.00  0.00     0.000 G0
ENDBRANCH  13  17
ENDBRANCH  11  13
ENDBRANCH  10  11
ENDBRANCH   1  10
TORSDOF 0
ENDMDL
MODEL 8
REMARK VINA RESULT:    -4.286      2.193      3.973
REMARK INTER + INTRA:          -5.905
REMARK INTER:                  -5.987
REMARK INTRA:                   0.082
REMARK UNBOUND:                 0.134
REMARK SMILES CC1=CCC(=C(C)C)C(=O)CC(C)=CCC1
REMARK SMILES IDX 12 1 14 2 13 3 15 4 16 5 2 6 1 7 3 8 11 10 9 11 10 12 5 13
REMARK SMILES IDX 6 14 7 15 8 16 4 17
REMARK H PARENT
REMARK Flexibility Score: 60.00
ROOT
ATOM      1  C   UNL     1      33.776  40.636  83.543  1.00  0.00    -0.070 C 
ATOM      2  C   UNL     1      32.532  41.155  83.759  1.00  0.00    -0.027 C 
ATOM      3  C   UNL     1      34.520  41.146  82.330  1.00  0.00     0.039 C 
ENDROOT
BRANCH   2   4
ATOM      4  C   UNL     1      31.483  40.850  84.823  1.00  0.00     0.032 C 
BRANCH   4   5
ATOM      5  C   UNL     1      31.791  41.286  86.259  1.00  0.00     0.034 C 
BRANCH   5   6
ATOM      6  C   UNL     1      32.688  42.514  86.472  1.00  0.00    -0.077 C 
ATOM      7  C   UNL     1      32.004  43.853  86.310  1.00  0.00     0.039 C 
ATOM      8  C   UNL     1      34.034  42.566  86.705  1.00  0.00    -0.023 CG0
ATOM      9  G   UNL     1      35.058  41.458  86.862  1.00  0.00     0.000 G0
ENDBRANCH   5   6
ENDBRANCH   4   5
ENDBRANCH   2   4
BRANCH   1  10
ATOM     10  C   UNL     1      34.496  39.606  84.399  1.00  0.00     0.111 C 
BRANCH  10  11
ATOM     11  C   UNL     1      35.837  40.097  84.851  1.00  0.00     0.163 C 
ATOM     12  O   UNL     1      36.861  39.410  84.585  1.00  0.00    -0.294 OA
BRANCH  11  13
ATOM     13  C   UNL     1      35.961  41.351  85.639  1.00  0.00    -0.002 C 
ATOM     14  C   UNL     1      36.846  42.327  85.288  1.00  0.00    -0.069 C 
ATOM     15  C   UNL     1      37.052  43.556  86.147  1.00  0.00     0.039 C 
ATOM     16  C   UNL     1      37.651  42.232  84.012  1.00  0.00     0.039 C 
BRANCH  13  17
ATOM     17  C   UNL     1      35.065  41.463  86.854  1.00  0.00     0.066 CG0
ATOM     18  G   UNL     1      34.044  42.575  86.705  1.00  0.00     0.000 G0
ENDBRANCH  13  17
ENDBRANCH  11  13
ENDBRANCH  10  11
ENDBRANCH   1  10
TORSDOF 0
ENDMDL
MODEL 9
REMARK VINA RESULT:    -4.245      2.232      3.657
REMARK INTER + INTRA:          -5.848
REMARK INTER:                  -6.016
REMARK INTRA:                   0.168
REMARK UNBOUND:                 0.134
REMARK SMILES CC1=CCC(=C(C)C)C(=O)CC(C)=CCC1
REMARK SMILES IDX 12 1 14 2 13 3 15 4 16 5 2 6 1 7 3 8 11 10 9 11 10 12 5 13
REMARK SMILES IDX 6 14 7 15 8 16 4 17
REMARK H PARENT
REMARK Flexibility Score: 60.00
ROOT
ATOM      1  C   UNL     1      34.933  40.961  83.406  1.00  0.00    -0.070 C 
ATOM      2  C   UNL     1      35.953  41.840  83.182  1.00  0.00    -0.027 C 
ATOM      3  C   UNL     1      33.875  40.864  82.332  1.00  0.00     0.039 C 
ENDROOT
BRANCH   2   4
ATOM      4  C   UNL     1      37.146  42.243  84.043  1.00  0.00     0.032 C 
BRANCH   4   5
ATOM      5  C   UNL     1      36.925  43.356  85.074  1.00  0.00     0.034 C 
BRANCH   5   6
ATOM      6  C   UNL     1      35.658  44.216  84.957  1.00  0.00    -0.077 C 
ATOM      7  C   UNL     1      35.753  45.384  84.001  1.00  0.00     0.039 C 
ATOM      8  C   UNL     1      34.489  44.124  85.658  1.00  0.00    -0.023 CG0
ATOM      9  G   UNL     1      34.048  43.146  86.731  1.00  0.00     0.000 G0
ENDBRANCH   5   6
ENDBRANCH   4   5
ENDBRANCH   2   4
BRANCH   1  10
ATOM     10  C   UNL     1      34.754  40.063  84.620  1.00  0.00     0.111 C 
BRANCH  10  11
ATOM     11  C   UNL     1      34.719  40.849  85.895  1.00  0.00     0.163 C 
ATOM     12  O   UNL     1      35.618  40.654  86.757  1.00  0.00    -0.294 OA
BRANCH  11  13
ATOM     13  C   UNL     1      33.621  41.813  86.163  1.00  0.00    -0.002 C 
ATOM     14  C   UNL     1      32.321  41.508  85.889  1.00  0.00    -0.069 C 
ATOM     15  C   UNL     1      31.214  42.525  86.060  1.00  0.00     0.039 C 
ATOM     16  C   UNL     1      31.926  40.127  85.415  1.00  0.00     0.039 C 
BRANCH  13  17
ATOM     17  C   UNL     1      34.038  43.151  86.737  1.00  0.00     0.066 CG0
ATOM     18  G   UNL     1      34.481  44.119  85.657  1.00  0.00     0.000 G0
ENDBRANCH  13  17
ENDBRANCH  11  13
ENDBRANCH  10  11
ENDBRANCH   1  10
TORSDOF 0
ENDMDL
