MODEL 1
REMARK VINA RESULT:    -7.013      0.000      0.000
REMARK INTER + INTRA:          -8.224
REMARK INTER:                  -8.243
REMARK INTRA:                   0.019
REMARK UNBOUND:                 0.019
REMARK SMILES O=c1c(O)c(-c2ccc(O)cc2)oc2cc(O)cc(O)c12
REMARK SMILES IDX 5 1 3 2 2 3 1 4 21 5 19 6 18 7 16 8 15 9 14 10 13 11 6 12
REMARK SMILES IDX 7 13 8 14 9 15 12 16 11 17 10 18 4 20 20 22 17 24
REMARK H PARENT 10 19 4 21 20 23 17 25
REMARK Flexibility Score: inf
ROOT
ATOM      1  C   UNL     1     -21.768 -15.643 -13.911  1.00  0.00     0.180 A 
ATOM      2  C   UNL     1     -22.314 -14.849 -14.938  1.00  0.00     0.208 A 
ATOM      3  C   UNL     1     -23.640 -15.075 -15.338  1.00  0.00     0.238 A 
ATOM      4  O   UNL     1     -24.143 -14.364 -16.250  1.00  0.00    -0.285 OA
ATOM      5  C   UNL     1     -24.390 -16.098 -14.721  1.00  0.00     0.111 A 
ATOM      6  C   UNL     1     -25.730 -16.393 -15.069  1.00  0.00     0.134 A 
ATOM      7  C   UNL     1     -26.406 -17.433 -14.415  1.00  0.00     0.093 A 
ATOM      8  C   UNL     1     -25.766 -18.184 -13.422  1.00  0.00     0.123 A 
ATOM      9  C   UNL     1     -24.445 -17.897 -13.077  1.00  0.00     0.094 A 
ATOM     10  C   UNL     1     -23.755 -16.863 -13.715  1.00  0.00     0.146 A 
ATOM     11  O   UNL     1     -22.500 -16.608 -13.362  1.00  0.00    -0.452 OA
ENDROOT
BRANCH   1  12
ATOM     12  C   UNL     1     -20.385 -15.453 -13.420  1.00  0.00     0.021 A 
ATOM     13  C   UNL     1     -19.959 -14.173 -13.026  1.00  0.00     0.016 A 
ATOM     14  C   UNL     1     -18.650 -13.968 -12.579  1.00  0.00     0.047 A 
ATOM     15  C   UNL     1     -17.747 -15.033 -12.534  1.00  0.00     0.115 A 
ATOM     16  C   UNL     1     -19.465 -16.518 -13.390  1.00  0.00     0.016 A 
ATOM     17  C   UNL     1     -18.156 -16.309 -12.944  1.00  0.00     0.047 A 
BRANCH  15  18
ATOM     18  O   UNL     1     -16.446 -14.814 -12.086  1.00  0.00    -0.508 OA
ATOM     19  H   UNL     1     -15.803 -14.221 -12.597  1.00  0.00     0.293 HD
ENDBRANCH  15  18
ENDBRANCH   1  12
BRANCH   2  20
ATOM     20  O   UNL     1     -21.535 -13.875 -15.566  1.00  0.00    -0.502 OA
ATOM     21  H   UNL     1     -21.113 -13.107 -15.059  1.00  0.00     0.293 HD
ENDBRANCH   2  20
BRANCH   6  22
ATOM     22  O   UNL     1     -26.394 -15.662 -16.056  1.00  0.00    -0.507 OA
ATOM     23  H   UNL     1     -25.904 -15.009 -16.656  1.00  0.00     0.293 HD
ENDBRANCH   6  22
BRANCH   8  24
ATOM     24  O   UNL     1     -26.437 -19.219 -12.773  1.00  0.00    -0.508 OA
ATOM     25  H   UNL     1     -27.423 -19.153 -12.547  1.00  0.00     0.293 HD
ENDBRANCH   8  24
TORSDOF 5
ENDMDL
MODEL 2
REMARK VINA RESULT:    -5.843      1.628      1.784
REMARK INTER + INTRA:          -6.849
REMARK INTER:                  -7.393
REMARK INTRA:                   0.544
REMARK UNBOUND:                 0.019
REMARK SMILES O=c1c(O)c(-c2ccc(O)cc2)oc2cc(O)cc(O)c12
REMARK SMILES IDX 5 1 3 2 2 3 1 4 21 5 19 6 18 7 16 8 15 9 14 10 13 11 6 12
REMARK SMILES IDX 7 13 8 14 9 15 12 16 11 17 10 18 4 20 20 22 17 24
REMARK H PARENT 10 19 4 21 20 23 17 25
REMARK Flexibility Score: inf
ROOT
ATOM      1  C   UNL     1     -21.269 -16.136 -13.351  1.00  0.00     0.180 A 
ATOM      2  C   UNL     1     -22.360 -15.249 -13.421  1.00  0.00     0.208 A 
ATOM      3  C   UNL     1     -23.639 -15.766 -13.682  1.00  0.00     0.238 A 
ATOM      4  O   UNL     1     -24.626 -14.983 -13.736  1.00  0.00    -0.285 OA
ATOM      5  C   UNL     1     -23.802 -17.152 -13.886  1.00  0.00     0.111 A 
ATOM      6  C   UNL     1     -25.055 -17.753 -14.158  1.00  0.00     0.134 A 
ATOM      7  C   UNL     1     -25.133 -19.138 -14.359  1.00  0.00     0.093 A 
ATOM      8  C   UNL     1     -23.983 -19.933 -14.295  1.00  0.00     0.123 A 
ATOM      9  C   UNL     1     -22.746 -19.346 -14.028  1.00  0.00     0.094 A 
ATOM     10  C   UNL     1     -22.647 -17.967 -13.822  1.00  0.00     0.146 A 
ATOM     11  O   UNL     1     -21.458 -17.435 -13.564  1.00  0.00    -0.452 OA
ENDROOT
BRANCH   1  12
ATOM     12  C   UNL     1     -19.894 -15.671 -13.061  1.00  0.00     0.021 A 
ATOM     13  C   UNL     1     -19.683 -14.341 -12.658  1.00  0.00     0.016 A 
ATOM     14  C   UNL     1     -18.391 -13.875 -12.400  1.00  0.00     0.047 A 
ATOM     15  C   UNL     1     -17.292 -14.725 -12.555  1.00  0.00     0.115 A 
ATOM     16  C   UNL     1     -18.782 -16.515 -13.234  1.00  0.00     0.016 A 
ATOM     17  C   UNL     1     -17.490 -16.046 -12.976  1.00  0.00     0.047 A 
BRANCH  15  18
ATOM     18  O   UNL     1     -16.010 -14.247 -12.293  1.00  0.00    -0.508 OA
ATOM     19  H   UNL     1     -15.288 -14.848 -11.913  1.00  0.00     0.293 HD
ENDBRANCH  15  18
ENDBRANCH   1  12
BRANCH   2  20
ATOM     20  O   UNL     1     -22.165 -13.875 -13.264  1.00  0.00    -0.502 OA
ATOM     21  H   UNL     1     -21.248 -13.447 -13.318  1.00  0.00     0.293 HD
ENDBRANCH   2  20
BRANCH   6  22
ATOM     22  O   UNL     1     -26.219 -16.986 -14.229  1.00  0.00    -0.507 OA
ATOM     23  H   UNL     1     -26.232 -16.011 -13.954  1.00  0.00     0.293 HD
ENDBRANCH   6  22
BRANCH   8  24
ATOM     24  O   UNL     1     -24.061 -21.310 -14.496  1.00  0.00    -0.508 OA
ATOM     25  H   UNL     1     -24.888 -21.742 -14.891  1.00  0.00     0.293 HD
ENDBRANCH   8  24
TORSDOF 5
ENDMDL
