MODEL 1
REMARK VINA RESULT:    -4.035      0.000      0.000
REMARK INTER + INTRA:          -6.274
REMARK INTER:                  -6.157
REMARK INTRA:                  -0.117
REMARK UNBOUND:                -0.117
REMARK SMILES CC1=CCC[C@@H](C)C(=O)C[C@H](C(C)C)C(=O)C1
REMARK SMILES IDX 8 1 9 2 6 3 7 4 5 5 4 6 3 7 2 8 1 9 10 11 11 12 15 13 16 14
REMARK SMILES IDX 17 15 12 17 13 18 14 19
REMARK H PARENT
REMARK Flexibility Score: 70.00
ROOT
ATOM      1  C   UNL     1     102.191 112.783 125.935  1.00  0.00     0.136 C 
ATOM      2  O   UNL     1     102.707 111.733 126.294  1.00  0.00    -0.299 OA
ENDROOT
BRANCH   1   3
ATOM      3  C   UNL     1     101.074 113.390 126.763  1.00  0.00     0.053 C 
ATOM      4  C   UNL     1      99.706 112.922 126.248  1.00  0.00     0.016 C 
BRANCH   3   5
ATOM      5  C   UNL     1     101.174 114.932 126.747  1.00  0.00     0.015 C 
BRANCH   5   6
ATOM      6  C   UNL     1      99.875 115.595 126.249  1.00  0.00     0.028 C 
BRANCH   6   7
ATOM      7  C   UNL     1     100.165 116.804 125.398  1.00  0.00    -0.028 C 
ATOM      8  C   UNL     1     100.245 116.805 124.048  1.00  0.00    -0.070 CG0
ATOM      9  C   UNL     1     100.484 118.124 123.356  1.00  0.00     0.039 C 
ATOM     10  G   UNL     1     100.093 115.552 123.200  1.00  0.00     0.000 G0
ENDBRANCH   6   7
ENDBRANCH   5   6
ENDBRANCH   3   5
ENDBRANCH   1   3
BRANCH   1  11
ATOM     11  C   UNL     1     102.681 113.452 124.672  1.00  0.00     0.087 C 
BRANCH  11  12
ATOM     12  C   UNL     1     101.623 113.425 123.538  1.00  0.00     0.066 C 
BRANCH  12  13
ATOM     13  C   UNL     1     101.394 114.823 122.976  1.00  0.00     0.140 C 
ATOM     14  O   UNL     1     102.313 115.379 122.390  1.00  0.00    -0.299 OA
BRANCH  13  15
ATOM     15  C   UNL     1     100.094 115.567 123.181  1.00  0.00     0.106 CG0
ATOM     16  G   UNL     1     100.264 116.794 124.064  1.00  0.00     0.000 G0
ENDBRANCH  13  15
ENDBRANCH  12  13
BRANCH  12  17
ATOM     17  C   UNL     1     101.966 112.401 122.408  1.00  0.00    -0.006 C 
ATOM     18  C   UNL     1     103.362 111.778 122.585  1.00  0.00     0.008 C 
ATOM     19  C   UNL     1     100.923 111.269 122.353  1.00  0.00     0.008 C 
ENDBRANCH  12  17
ENDBRANCH  11  12
ENDBRANCH   1  11
TORSDOF 1
ENDMDL
MODEL 2
REMARK VINA RESULT:    -4.014      2.058      4.576
REMARK INTER + INTRA:          -6.242
REMARK INTER:                  -6.321
REMARK INTRA:                   0.079
REMARK UNBOUND:                -0.117
REMARK SMILES CC1=CCC[C@@H](C)C(=O)C[C@H](C(C)C)C(=O)C1
REMARK SMILES IDX 8 1 9 2 6 3 7 4 5 5 4 6 3 7 2 8 1 9 10 11 11 12 15 13 16 14
REMARK SMILES IDX 17 15 12 17 13 18 14 19
REMARK H PARENT
REMARK Flexibility Score: 70.00
ROOT
ATOM      1  C   UNL     1      99.919 118.294 124.235  1.00  0.00     0.136 C 
ATOM      2  O   UNL     1     100.380 119.272 123.662  1.00  0.00    -0.299 OA
ENDROOT
BRANCH   1   3
ATOM      3  C   UNL     1      99.618 118.368 125.719  1.00  0.00     0.053 C 
ATOM      4  C   UNL     1      99.809 119.800 126.237  1.00  0.00     0.016 C 
BRANCH   3   5
ATOM      5  C   UNL     1     100.512 117.375 126.496  1.00  0.00     0.015 C 
BRANCH   5   6
ATOM      6  C   UNL     1      99.899 115.962 126.553  1.00  0.00     0.028 C 
BRANCH   6   7
ATOM      7  C   UNL     1     100.964 114.897 126.500  1.00  0.00    -0.028 C 
ATOM      8  C   UNL     1     101.320 114.206 125.394  1.00  0.00    -0.070 CG0
ATOM      9  C   UNL     1     102.453 113.218 125.511  1.00  0.00     0.039 C 
ATOM     10  G   UNL     1     100.646 114.386 124.042  1.00  0.00     0.000 G0
ENDBRANCH   6   7
ENDBRANCH   5   6
ENDBRANCH   3   5
ENDBRANCH   1   3
BRANCH   1  11
ATOM     11  C   UNL     1      99.659 117.033 123.444  1.00  0.00     0.087 C 
BRANCH  11  12
ATOM     12  C   UNL     1     100.886 116.599 122.600  1.00  0.00     0.066 C 
BRANCH  12  13
ATOM     13  C   UNL     1     101.445 115.270 123.097  1.00  0.00     0.140 C 
ATOM     14  O   UNL     1     102.537 114.903 122.685  1.00  0.00    -0.299 OA
BRANCH  13  15
ATOM     15  C   UNL     1     100.663 114.366 124.022  1.00  0.00     0.106 CG0
ATOM     16  G   UNL     1     101.323 114.226 125.385  1.00  0.00     0.000 G0
ENDBRANCH  13  15
ENDBRANCH  12  13
BRANCH  12  17
ATOM     17  C   UNL     1     100.587 116.557 121.066  1.00  0.00    -0.006 C 
ATOM     18  C   UNL     1      99.096 116.321 120.765  1.00  0.00     0.008 C 
ATOM     19  C   UNL     1     101.026 117.866 120.382  1.00  0.00     0.008 C 
ENDBRANCH  12  17
ENDBRANCH  11  12
ENDBRANCH   1  11
TORSDOF 1
ENDMDL
MODEL 3
REMARK VINA RESULT:    -4.000      1.944      3.559
REMARK INTER + INTRA:          -6.221
REMARK INTER:                  -6.611
REMARK INTRA:                   0.390
REMARK UNBOUND:                -0.117
REMARK SMILES CC1=CCC[C@@H](C)C(=O)C[C@H](C(C)C)C(=O)C1
REMARK SMILES IDX 8 1 9 2 6 3 7 4 5 5 4 6 3 7 2 8 1 9 10 11 11 12 15 13 16 14
REMARK SMILES IDX 17 15 12 17 13 18 14 19
REMARK H PARENT
REMARK Flexibility Score: 70.00
ROOT
ATOM      1  C   UNL     1     100.320 116.466 125.836  1.00  0.00     0.136 C 
ATOM      2  O   UNL     1      99.506 116.056 126.653  1.00  0.00    -0.299 OA
ENDROOT
BRANCH   1   3
ATOM      3  C   UNL     1     100.230 117.897 125.342  1.00  0.00     0.053 C 
ATOM      4  C   UNL     1      99.905 118.847 126.503  1.00  0.00     0.016 C 
BRANCH   3   5
ATOM      5  C   UNL     1      99.172 118.010 124.221  1.00  0.00     0.015 C 
BRANCH   5   6
ATOM      6  C   UNL     1      99.212 116.806 123.259  1.00  0.00     0.028 C 
BRANCH   6   7
ATOM      7  C   UNL     1     100.273 116.980 122.203  1.00  0.00    -0.028 C 
ATOM      8  C   UNL     1     100.954 115.974 121.610  1.00  0.00    -0.070 CG0
ATOM      9  C   UNL     1     101.940 116.331 120.527  1.00  0.00     0.039 C 
ATOM     10  G   UNL     1     100.765 114.509 121.972  1.00  0.00     0.000 G0
ENDBRANCH   6   7
ENDBRANCH   5   6
ENDBRANCH   3   5
ENDBRANCH   1   3
BRANCH   1  11
ATOM     11  C   UNL     1     101.398 115.531 125.338  1.00  0.00     0.087 C 
BRANCH  11  12
ATOM     12  C   UNL     1     100.817 114.287 124.617  1.00  0.00     0.066 C 
BRANCH  12  13
ATOM     13  C   UNL     1     101.460 114.101 123.248  1.00  0.00     0.140 C 
ATOM     14  O   UNL     1     102.608 113.683 123.190  1.00  0.00    -0.299 OA
BRANCH  13  15
ATOM     15  C   UNL     1     100.749 114.485 121.969  1.00  0.00     0.106 CG0
ATOM     16  G   UNL     1     100.945 115.953 121.619  1.00  0.00     0.000 G0
ENDBRANCH  13  15
ENDBRANCH  12  13
BRANCH  12  17
ATOM     17  C   UNL     1     100.913 112.984 125.476  1.00  0.00    -0.006 C 
ATOM     18  C   UNL     1     102.033 113.057 126.529  1.00  0.00     0.008 C 
ATOM     19  C   UNL     1      99.581 112.695 126.193  1.00  0.00     0.008 C 
ENDBRANCH  12  17
ENDBRANCH  11  12
ENDBRANCH   1  11
TORSDOF 1
ENDMDL
MODEL 4
REMARK VINA RESULT:    -3.910      2.003      4.372
REMARK INTER + INTRA:          -6.084
REMARK INTER:                  -6.224
REMARK INTRA:                   0.140
REMARK UNBOUND:                -0.117
REMARK SMILES CC1=CCC[C@@H](C)C(=O)C[C@H](C(C)C)C(=O)C1
REMARK SMILES IDX 8 1 9 2 6 3 7 4 5 5 4 6 3 7 2 8 1 9 10 11 11 12 15 13 16 14
REMARK SMILES IDX 17 15 12 17 13 18 14 19
REMARK H PARENT
REMARK Flexibility Score: 70.00
ROOT
ATOM      1  C   UNL     1     100.249 115.972 125.616  1.00  0.00     0.136 C 
ATOM      2  O   UNL     1     100.629 117.082 125.965  1.00  0.00    -0.299 OA
ENDROOT
BRANCH   1   3
ATOM      3  C   UNL     1     100.420 114.792 126.554  1.00  0.00     0.053 C 
ATOM      4  C   UNL     1     101.847 114.756 127.119  1.00  0.00     0.016 C 
BRANCH   3   5
ATOM      5  C   UNL     1     100.082 113.474 125.822  1.00  0.00     0.015 C 
BRANCH   5   6
ATOM      6  C   UNL     1     101.346 112.689 125.420  1.00  0.00     0.028 C 
BRANCH   6   7
ATOM      7  C   UNL     1     101.203 112.079 124.049  1.00  0.00    -0.028 C 
ATOM      8  C   UNL     1     101.531 112.689 122.888  1.00  0.00    -0.070 CG0
ATOM      9  C   UNL     1     101.377 111.903 121.609  1.00  0.00     0.039 C 
ATOM     10  G   UNL     1     102.056 114.114 122.810  1.00  0.00     0.000 G0
ENDBRANCH   6   7
ENDBRANCH   5   6
ENDBRANCH   3   5
ENDBRANCH   1   3
BRANCH   1  11
ATOM     11  C   UNL     1      99.617 115.805 124.254  1.00  0.00     0.087 C 
BRANCH  11  12
ATOM     12  C   UNL     1     100.549 116.273 123.106  1.00  0.00     0.066 C 
BRANCH  12  13
ATOM     13  C   UNL     1     101.031 115.088 122.278  1.00  0.00     0.140 C 
ATOM     14  O   UNL     1     100.524 114.892 121.182  1.00  0.00    -0.299 OA
BRANCH  13  15
ATOM     15  C   UNL     1     102.061 114.111 122.799  1.00  0.00     0.106 CG0
ATOM     16  G   UNL     1     101.518 112.693 122.888  1.00  0.00     0.000 G0
ENDBRANCH  13  15
ENDBRANCH  12  13
BRANCH  12  17
ATOM     17  C   UNL     1      99.901 117.375 122.206  1.00  0.00    -0.006 C 
ATOM     18  C   UNL     1      99.054 118.372 123.017  1.00  0.00     0.008 C 
ATOM     19  C   UNL     1     100.978 118.159 121.432  1.00  0.00     0.008 C 
ENDBRANCH  12  17
ENDBRANCH  11  12
ENDBRANCH   1  11
TORSDOF 1
ENDMDL
MODEL 5
REMARK VINA RESULT:    -3.805      1.976      4.362
REMARK INTER + INTRA:          -5.924
REMARK INTER:                  -6.061
REMARK INTRA:                   0.138
REMARK UNBOUND:                -0.117
REMARK SMILES CC1=CCC[C@@H](C)C(=O)C[C@H](C(C)C)C(=O)C1
REMARK SMILES IDX 8 1 9 2 6 3 7 4 5 5 4 6 3 7 2 8 1 9 10 11 11 12 15 13 16 14
REMARK SMILES IDX 17 15 12 17 13 18 14 19
REMARK H PARENT
REMARK Flexibility Score: 70.00
ROOT
ATOM      1  C   UNL     1     100.013 115.290 125.616  1.00  0.00     0.136 C 
ATOM      2  O   UNL     1     100.101 115.818 126.717  1.00  0.00    -0.299 OA
ENDROOT
BRANCH   1   3
ATOM      3  C   UNL     1     100.529 113.878 125.419  1.00  0.00     0.053 C 
ATOM      4  C   UNL     1      99.719 112.885 126.264  1.00  0.00     0.016 C 
BRANCH   3   5
ATOM      5  C   UNL     1     102.033 113.805 125.769  1.00  0.00     0.015 C 
BRANCH   5   6
ATOM      6  C   UNL     1     102.924 114.309 124.616  1.00  0.00     0.028 C 
BRANCH   6   7
ATOM      7  C   UNL     1     102.644 113.563 123.338  1.00  0.00    -0.028 C 
ATOM      8  C   UNL     1     102.322 114.137 122.156  1.00  0.00    -0.070 CG0
ATOM      9  C   UNL     1     102.135 113.236 120.961  1.00  0.00     0.039 C 
ATOM     10  G   UNL     1     102.155 115.637 121.973  1.00  0.00     0.000 G0
ENDBRANCH   6   7
ENDBRANCH   5   6
ENDBRANCH   3   5
ENDBRANCH   1   3
BRANCH   1  11
ATOM     11  C   UNL     1      99.388 116.062 124.478  1.00  0.00     0.087 C 
BRANCH  11  12
ATOM     12  C   UNL     1     100.439 116.835 123.639  1.00  0.00     0.066 C 
BRANCH  12  13
ATOM     13  C   UNL     1     100.742 116.102 122.337  1.00  0.00     0.140 C 
ATOM     14  O   UNL     1      99.814 115.819 121.592  1.00  0.00    -0.299 OA
BRANCH  13  15
ATOM     15  C   UNL     1     102.140 115.653 121.976  1.00  0.00     0.106 CG0
ATOM     16  G   UNL     1     102.325 114.153 122.145  1.00  0.00     0.000 G0
ENDBRANCH  13  15
ENDBRANCH  12  13
BRANCH  12  17
ATOM     17  C   UNL     1     100.036 118.323 123.377  1.00  0.00    -0.006 C 
ATOM     18  C   UNL     1      98.766 118.445 122.517  1.00  0.00     0.008 C 
ATOM     19  C   UNL     1      99.807 119.074 124.703  1.00  0.00     0.008 C 
ENDBRANCH  12  17
ENDBRANCH  11  12
ENDBRANCH   1  11
TORSDOF 1
ENDMDL
MODEL 6
REMARK VINA RESULT:    -3.801      1.916      2.312
REMARK INTER + INTRA:          -5.917
REMARK INTER:                  -6.074
REMARK INTRA:                   0.157
REMARK UNBOUND:                -0.117
REMARK SMILES CC1=CCC[C@@H](C)C(=O)C[C@H](C(C)C)C(=O)C1
REMARK SMILES IDX 8 1 9 2 6 3 7 4 5 5 4 6 3 7 2 8 1 9 10 11 11 12 15 13 16 14
REMARK SMILES IDX 17 15 12 17 13 18 14 19
REMARK H PARENT
REMARK Flexibility Score: 70.00
ROOT
ATOM      1  C   UNL     1     101.319 114.041 124.419  1.00  0.00     0.136 C 
ATOM      2  O   UNL     1     100.554 113.305 123.809  1.00  0.00    -0.299 OA
ENDROOT
BRANCH   1   3
ATOM      3  C   UNL     1     101.503 113.857 125.913  1.00  0.00     0.053 C 
ATOM      4  C   UNL     1     100.419 112.930 126.479  1.00  0.00     0.016 C 
BRANCH   3   5
ATOM      5  C   UNL     1     101.487 115.228 126.627  1.00  0.00     0.015 C 
BRANCH   5   6
ATOM      6  C   UNL     1     100.112 115.918 126.532  1.00  0.00     0.028 C 
BRANCH   6   7
ATOM      7  C   UNL     1     100.244 117.346 126.069  1.00  0.00    -0.028 C 
ATOM      8  C   UNL     1      99.947 117.792 124.827  1.00  0.00    -0.070 CG0
ATOM      9  C   UNL     1     100.081 119.270 124.556  1.00  0.00     0.039 C 
ATOM     10  G   UNL     1      99.473 116.883 123.703  1.00  0.00     0.000 G0
ENDBRANCH   6   7
ENDBRANCH   5   6
ENDBRANCH   3   5
ENDBRANCH   1   3
BRANCH   1  11
ATOM     11  C   UNL     1     102.063 115.118 123.664  1.00  0.00     0.087 C 
BRANCH  11  12
ATOM     12  C   UNL     1     101.342 115.530 122.355  1.00  0.00     0.066 C 
BRANCH  12  13
ATOM     13  C   UNL     1     100.501 116.784 122.568  1.00  0.00     0.140 C 
ATOM     14  O   UNL     1     100.706 117.757 121.855  1.00  0.00    -0.299 OA
BRANCH  13  15
ATOM     15  C   UNL     1      99.477 116.884 123.676  1.00  0.00     0.106 CG0
ATOM     16  G   UNL     1      99.940 117.786 124.809  1.00  0.00     0.000 G0
ENDBRANCH  13  15
ENDBRANCH  12  13
BRANCH  12  17
ATOM     17  C   UNL     1     102.320 115.695 121.146  1.00  0.00    -0.006 C 
ATOM     18  C   UNL     1     103.663 114.979 121.376  1.00  0.00     0.008 C 
ATOM     19  C   UNL     1     101.689 115.156 119.848  1.00  0.00     0.008 C 
ENDBRANCH  12  17
ENDBRANCH  11  12
ENDBRANCH   1  11
TORSDOF 1
ENDMDL
MODEL 7
REMARK VINA RESULT:    -3.616      2.207      4.251
REMARK INTER + INTRA:          -5.635
REMARK INTER:                  -5.486
REMARK INTRA:                  -0.149
REMARK UNBOUND:                -0.117
REMARK SMILES CC1=CCC[C@@H](C)C(=O)C[C@H](C(C)C)C(=O)C1
REMARK SMILES IDX 8 1 9 2 6 3 7 4 5 5 4 6 3 7 2 8 1 9 10 11 11 12 15 13 16 14
REMARK SMILES IDX 17 15 12 17 13 18 14 19
REMARK H PARENT
REMARK Flexibility Score: 70.00
ROOT
ATOM      1  C   UNL     1      99.667 115.972 124.127  1.00  0.00     0.136 C 
ATOM      2  O   UNL     1      99.142 117.011 123.747  1.00  0.00    -0.299 OA
ENDROOT
BRANCH   1   3
ATOM      3  C   UNL     1      99.560 115.567 125.584  1.00  0.00     0.053 C 
ATOM      4  C   UNL     1     100.573 116.344 126.435  1.00  0.00     0.016 C 
BRANCH   3   5
ATOM      5  C   UNL     1      99.766 114.042 125.732  1.00  0.00     0.015 C 
BRANCH   5   6
ATOM      6  C   UNL     1     101.087 113.700 126.450  1.00  0.00     0.028 C 
BRANCH   6   7
ATOM      7  C   UNL     1     101.874 112.665 125.689  1.00  0.00    -0.028 C 
ATOM      8  C   UNL     1     102.859 112.932 124.802  1.00  0.00    -0.070 CG0
ATOM      9  C   UNL     1     103.584 111.766 124.178  1.00  0.00     0.039 C 
ATOM     10  G   UNL     1     103.277 114.343 124.416  1.00  0.00     0.000 G0
ENDBRANCH   6   7
ENDBRANCH   5   6
ENDBRANCH   3   5
ENDBRANCH   1   3
BRANCH   1  11
ATOM     11  C   UNL     1     100.411 115.116 123.128  1.00  0.00     0.087 C 
BRANCH  11  12
ATOM     12  C   UNL     1     101.781 115.725 122.729  1.00  0.00     0.066 C 
BRANCH  12  13
ATOM     13  C   UNL     1     102.916 114.752 123.024  1.00  0.00     0.140 C 
ATOM     14  O   UNL     1     103.503 114.233 122.084  1.00  0.00    -0.299 OA
BRANCH  13  15
ATOM     15  C   UNL     1     103.288 114.356 124.435  1.00  0.00     0.106 CG0
ATOM     16  G   UNL     1     102.854 112.937 124.769  1.00  0.00     0.000 G0
ENDBRANCH  13  15
ENDBRANCH  12  13
BRANCH  12  17
ATOM     17  C   UNL     1     101.820 116.220 121.246  1.00  0.00    -0.006 C 
ATOM     18  C   UNL     1     100.877 115.414 120.335  1.00  0.00     0.008 C 
ATOM     19  C   UNL     1     101.443 117.710 121.151  1.00  0.00     0.008 C 
ENDBRANCH  12  17
ENDBRANCH  11  12
ENDBRANCH   1  11
TORSDOF 1
ENDMDL
MODEL 8
REMARK VINA RESULT:    -3.545      6.493      8.786
REMARK INTER + INTRA:          -5.527
REMARK INTER:                  -5.241
REMARK INTRA:                  -0.286
REMARK UNBOUND:                -0.117
REMARK SMILES CC1=CCC[C@@H](C)C(=O)C[C@H](C(C)C)C(=O)C1
REMARK SMILES IDX 8 1 9 2 6 3 7 4 5 5 4 6 3 7 2 8 1 9 10 11 11 12 15 13 16 14
REMARK SMILES IDX 17 15 12 17 13 18 14 19
REMARK H PARENT
REMARK Flexibility Score: 70.00
ROOT
ATOM      1  C   UNL     1     101.150 106.198 119.492  1.00  0.00     0.136 C 
ATOM      2  O   UNL     1     102.003 105.372 119.792  1.00  0.00    -0.299 OA
ENDROOT
BRANCH   1   3
ATOM      3  C   UNL     1     100.656 106.278 118.061  1.00  0.00     0.053 C 
ATOM      4  C   UNL     1     100.060 104.933 117.621  1.00  0.00     0.016 C 
BRANCH   3   5
ATOM      5  C   UNL     1     101.805 106.708 117.121  1.00  0.00     0.015 C 
BRANCH   5   6
ATOM      6  C   UNL     1     101.906 108.240 116.988  1.00  0.00     0.028 C 
BRANCH   6   7
ATOM      7  C   UNL     1     100.551 108.864 116.777  1.00  0.00    -0.028 C 
ATOM      8  C   UNL     1     100.004 109.821 117.561  1.00  0.00    -0.070 CG0
ATOM      9  C   UNL     1      98.659 110.376 117.163  1.00  0.00     0.039 C 
ATOM     10  G   UNL     1     100.681 110.370 118.806  1.00  0.00     0.000 G0
ENDBRANCH   6   7
ENDBRANCH   5   6
ENDBRANCH   3   5
ENDBRANCH   1   3
BRANCH   1  11
ATOM     11  C   UNL     1     100.610 107.120 120.560  1.00  0.00     0.087 C 
BRANCH  11  12
ATOM     12  C   UNL     1     101.313 108.503 120.560  1.00  0.00     0.066 C 
BRANCH  12  13
ATOM     13  C   UNL     1     100.372 109.591 120.054  1.00  0.00     0.140 C 
ATOM     14  O   UNL     1      99.318 109.777 120.645  1.00  0.00    -0.299 OA
BRANCH  13  15
ATOM     15  C   UNL     1     100.670 110.393 118.807  1.00  0.00     0.106 CG0
ATOM     16  G   UNL     1      99.991 109.816 117.574  1.00  0.00     0.000 G0
ENDBRANCH  13  15
ENDBRANCH  12  13
BRANCH  12  17
ATOM     17  C   UNL     1     101.926 108.877 121.949  1.00  0.00    -0.006 C 
ATOM     18  C   UNL     1     102.204 107.638 122.819  1.00  0.00     0.008 C 
ATOM     19  C   UNL     1     103.238 109.666 121.779  1.00  0.00     0.008 C 
ENDBRANCH  12  17
ENDBRANCH  11  12
ENDBRANCH   1  11
TORSDOF 1
ENDMDL
MODEL 9
REMARK VINA RESULT:    -3.424      6.679      9.616
REMARK INTER + INTRA:          -5.342
REMARK INTER:                  -5.100
REMARK INTRA:                  -0.242
REMARK UNBOUND:                -0.117
REMARK SMILES CC1=CCC[C@@H](C)C(=O)C[C@H](C(C)C)C(=O)C1
REMARK SMILES IDX 8 1 9 2 6 3 7 4 5 5 4 6 3 7 2 8 1 9 10 11 11 12 15 13 16 14
REMARK SMILES IDX 17 15 12 17 13 18 14 19
REMARK H PARENT
REMARK Flexibility Score: 70.00
ROOT
ATOM      1  C   UNL     1     100.833 105.757 117.850  1.00  0.00     0.136 C 
ATOM      2  O   UNL     1     101.042 104.786 117.135  1.00  0.00    -0.299 OA
ENDROOT
BRANCH   1   3
ATOM      3  C   UNL     1     100.568 107.110 117.217  1.00  0.00     0.053 C 
ATOM      4  C   UNL     1      99.357 107.036 116.277  1.00  0.00     0.016 C 
BRANCH   3   5
ATOM      5  C   UNL     1     101.824 107.604 116.464  1.00  0.00     0.015 C 
BRANCH   5   6
ATOM      6  C   UNL     1     102.614 108.651 117.275  1.00  0.00     0.028 C 
BRANCH   6   7
ATOM      7  C   UNL     1     101.706 109.451 118.172  1.00  0.00    -0.028 C 
ATOM      8  C   UNL     1     101.736 109.436 119.524  1.00  0.00    -0.070 CG0
ATOM      9  C   UNL     1     100.790 110.350 120.262  1.00  0.00     0.039 C 
ATOM     10  G   UNL     1     102.680 108.556 120.329  1.00  0.00     0.000 G0
ENDBRANCH   6   7
ENDBRANCH   5   6
ENDBRANCH   3   5
ENDBRANCH   1   3
BRANCH   1  11
ATOM     11  C   UNL     1     100.845 105.583 119.351  1.00  0.00     0.087 C 
BRANCH  11  12
ATOM     12  C   UNL     1     102.204 105.982 119.983  1.00  0.00     0.066 C 
BRANCH  12  13
ATOM     13  C   UNL     1     102.072 107.268 120.791  1.00  0.00     0.140 C 
ATOM     14  O   UNL     1     101.396 107.254 121.810  1.00  0.00    -0.299 OA
BRANCH  13  15
ATOM     15  C   UNL     1     102.690 108.570 120.333  1.00  0.00     0.106 CG0
ATOM     16  G   UNL     1     101.715 109.422 119.535  1.00  0.00     0.000 G0
ENDBRANCH  13  15
ENDBRANCH  12  13
BRANCH  12  17
ATOM     17  C   UNL     1     102.842 104.835 120.832  1.00  0.00    -0.006 C 
ATOM     18  C   UNL     1     102.244 103.457 120.499  1.00  0.00     0.008 C 
ATOM     19  C   UNL     1     104.367 104.774 120.622  1.00  0.00     0.008 C 
ENDBRANCH  12  17
ENDBRANCH  11  12
ENDBRANCH   1  11
TORSDOF 1
ENDMDL
