MODEL 1
REMARK VINA RESULT:    -7.133      0.000      0.000
REMARK INTER + INTRA:          -8.679
REMARK INTER:                  -8.383
REMARK INTRA:                  -0.296
REMARK UNBOUND:                -0.296
REMARK SMILES O=c1c(O)c(-c2ccc(O)cc2)oc2cc(O)cc(O)c12
REMARK SMILES IDX 5 1 3 2 2 3 1 4 21 5 19 6 18 7 16 8 15 9 14 10 13 11 6 12
REMARK SMILES IDX 7 13 8 14 9 15 12 16 11 17 10 18 4 20 20 22 17 24
REMARK H PARENT 10 19 4 21 20 23 17 25
REMARK Flexibility Score: inf
ROOT
ATOM      1  C   UNL     1     165.568 154.597 151.274  1.00  0.00     0.180 A 
ATOM      2  C   UNL     1     164.485 153.704 151.363  1.00  0.00     0.208 A 
ATOM      3  C   UNL     1     164.677 152.363 150.993  1.00  0.00     0.238 A 
ATOM      4  O   UNL     1     163.726 151.553 151.145  1.00  0.00    -0.285 OA
ATOM      5  C   UNL     1     165.931 151.944 150.485  1.00  0.00     0.111 A 
ATOM      6  C   UNL     1     166.225 150.620 150.037  1.00  0.00     0.134 A 
ATOM      7  C   UNL     1     167.532 150.295 149.654  1.00  0.00     0.093 A 
ATOM      8  C   UNL     1     168.541 151.260 149.642  1.00  0.00     0.123 A 
ATOM      9  C   UNL     1     168.252 152.568 150.024  1.00  0.00     0.094 A 
ATOM     10  C   UNL     1     166.966 152.915 150.448  1.00  0.00     0.146 A 
ATOM     11  O   UNL     1     166.740 154.167 150.825  1.00  0.00    -0.452 OA
ENDROOT
BRANCH   1  12
ATOM     12  C   UNL     1     165.447 156.022 151.660  1.00  0.00     0.021 A 
ATOM     13  C   UNL     1     165.740 156.455 152.966  1.00  0.00     0.016 A 
ATOM     14  C   UNL     1     165.643 157.810 153.299  1.00  0.00     0.047 A 
ATOM     15  C   UNL     1     165.267 158.749 152.329  1.00  0.00     0.115 A 
ATOM     16  C   UNL     1     165.091 156.973 150.689  1.00  0.00     0.016 A 
ATOM     17  C   UNL     1     164.994 158.326 151.025  1.00  0.00     0.047 A 
BRANCH  15  18
ATOM     18  O   UNL     1     165.165 160.100 152.650  1.00  0.00    -0.508 OA
ATOM     19  H   UNL     1     164.588 160.732 152.107  1.00  0.00     0.293 HD
ENDBRANCH  15  18
ENDBRANCH   1  12
BRANCH   2  20
ATOM     20  O   UNL     1     163.235 154.155 151.794  1.00  0.00    -0.502 OA
ATOM     21  H   UNL     1     162.419 154.154 151.193  1.00  0.00     0.293 HD
ENDBRANCH   2  20
BRANCH   6  22
ATOM     22  O   UNL     1     165.273 149.602 149.925  1.00  0.00    -0.507 OA
ATOM     23  H   UNL     1     164.447 149.517 150.497  1.00  0.00     0.293 HD
ENDBRANCH   6  22
BRANCH   8  24
ATOM     24  O   UNL     1     169.835 150.932 149.242  1.00  0.00    -0.508 OA
ATOM     25  H   UNL     1     170.017 150.480 148.354  1.00  0.00     0.293 HD
ENDBRANCH   8  24
TORSDOF 5
ENDMDL
MODEL 2
REMARK VINA RESULT:    -6.731      2.691      4.821
REMARK INTER + INTRA:          -8.207
REMARK INTER:                  -8.323
REMARK INTRA:                   0.116
REMARK UNBOUND:                -0.296
REMARK SMILES O=c1c(O)c(-c2ccc(O)cc2)oc2cc(O)cc(O)c12
REMARK SMILES IDX 5 1 3 2 2 3 1 4 21 5 19 6 18 7 16 8 15 9 14 10 13 11 6 12
REMARK SMILES IDX 7 13 8 14 9 15 12 16 11 17 10 18 4 20 20 22 17 24
REMARK H PARENT 10 19 4 21 20 23 17 25
REMARK Flexibility Score: inf
ROOT
ATOM      1  C   UNL     1     167.129 151.946 149.714  1.00  0.00     0.180 A 
ATOM      2  C   UNL     1     167.855 152.649 148.737  1.00  0.00     0.208 A 
ATOM      3  C   UNL     1     168.990 152.047 148.169  1.00  0.00     0.238 A 
ATOM      4  O   UNL     1     169.591 152.650 147.242  1.00  0.00    -0.285 OA
ATOM      5  C   UNL     1     169.416 150.775 148.623  1.00  0.00     0.111 A 
ATOM      6  C   UNL     1     170.576 150.091 148.150  1.00  0.00     0.134 A 
ATOM      7  C   UNL     1     170.841 148.790 148.597  1.00  0.00     0.093 A 
ATOM      8  C   UNL     1     170.023 148.174 149.546  1.00  0.00     0.123 A 
ATOM      9  C   UNL     1     168.920 148.854 150.055  1.00  0.00     0.094 A 
ATOM     10  C   UNL     1     168.607 150.138 149.601  1.00  0.00     0.146 A 
ATOM     11  O   UNL     1     167.534 150.741 150.096  1.00  0.00    -0.452 OA
ENDROOT
BRANCH   1  12
ATOM     12  C   UNL     1     165.914 152.508 150.349  1.00  0.00     0.021 A 
ATOM     13  C   UNL     1     164.755 151.731 150.532  1.00  0.00     0.016 A 
ATOM     14  C   UNL     1     163.630 152.277 151.156  1.00  0.00     0.047 A 
ATOM     15  C   UNL     1     163.653 153.599 151.618  1.00  0.00     0.115 A 
ATOM     16  C   UNL     1     165.935 153.826 150.834  1.00  0.00     0.016 A 
ATOM     17  C   UNL     1     164.808 154.370 151.457  1.00  0.00     0.047 A 
BRANCH  15  18
ATOM     18  O   UNL     1     162.537 154.154 152.241  1.00  0.00    -0.508 OA
ATOM     19  H   UNL     1     161.808 153.572 152.637  1.00  0.00     0.293 HD
ENDBRANCH  15  18
ENDBRANCH   1  12
BRANCH   2  20
ATOM     20  O   UNL     1     167.462 153.935 148.357  1.00  0.00    -0.502 OA
ATOM     21  H   UNL     1     167.724 154.343 147.468  1.00  0.00     0.293 HD
ENDBRANCH   2  20
BRANCH   6  22
ATOM     22  O   UNL     1     171.509 150.647 147.269  1.00  0.00    -0.507 OA
ATOM     23  H   UNL     1     172.113 150.119 146.659  1.00  0.00     0.293 HD
ENDBRANCH   6  22
BRANCH   8  24
ATOM     24  O   UNL     1     170.304 146.886 149.998  1.00  0.00    -0.508 OA
ATOM     25  H   UNL     1     170.040 146.067 149.462  1.00  0.00     0.293 HD
ENDBRANCH   8  24
TORSDOF 5
ENDMDL
MODEL 3
REMARK VINA RESULT:    -6.690      1.885      6.773
REMARK INTER + INTRA:          -8.159
REMARK INTER:                  -7.871
REMARK INTRA:                  -0.288
REMARK UNBOUND:                -0.296
REMARK SMILES O=c1c(O)c(-c2ccc(O)cc2)oc2cc(O)cc(O)c12
REMARK SMILES IDX 5 1 3 2 2 3 1 4 21 5 19 6 18 7 16 8 15 9 14 10 13 11 6 12
REMARK SMILES IDX 7 13 8 14 9 15 12 16 11 17 10 18 4 20 20 22 17 24
REMARK H PARENT 10 19 4 21 20 23 17 25
REMARK Flexibility Score: inf
ROOT
ATOM      1  C   UNL     1     166.641 151.524 149.364  1.00  0.00     0.180 A 
ATOM      2  C   UNL     1     165.464 150.936 149.859  1.00  0.00     0.208 A 
ATOM      3  C   UNL     1     164.540 151.739 150.547  1.00  0.00     0.238 A 
ATOM      4  O   UNL     1     163.455 151.223 150.922  1.00  0.00    -0.285 OA
ATOM      5  C   UNL     1     164.830 153.105 150.783  1.00  0.00     0.111 A 
ATOM      6  C   UNL     1     163.987 154.001 151.507  1.00  0.00     0.134 A 
ATOM      7  C   UNL     1     164.326 155.358 151.585  1.00  0.00     0.093 A 
ATOM      8  C   UNL     1     165.509 155.838 151.020  1.00  0.00     0.123 A 
ATOM      9  C   UNL     1     166.365 154.962 150.357  1.00  0.00     0.094 A 
ATOM     10  C   UNL     1     166.036 153.610 150.229  1.00  0.00     0.146 A 
ATOM     11  O   UNL     1     166.869 152.815 149.571  1.00  0.00    -0.452 OA
ENDROOT
BRANCH   1  12
ATOM     12  C   UNL     1     167.655 150.747 148.615  1.00  0.00     0.021 A 
ATOM     13  C   UNL     1     168.722 150.108 149.273  1.00  0.00     0.016 A 
ATOM     14  C   UNL     1     169.653 149.359 148.547  1.00  0.00     0.047 A 
ATOM     15  C   UNL     1     169.522 149.227 147.158  1.00  0.00     0.115 A 
ATOM     16  C   UNL     1     167.519 150.591 147.225  1.00  0.00     0.016 A 
ATOM     17  C   UNL     1     168.452 149.843 146.501  1.00  0.00     0.047 A 
BRANCH  15  18
ATOM     18  O   UNL     1     170.444 148.485 146.424  1.00  0.00    -0.508 OA
ATOM     19  H   UNL     1     170.309 148.299 145.437  1.00  0.00     0.293 HD
ENDBRANCH  15  18
ENDBRANCH   1  12
BRANCH   2  20
ATOM     20  O   UNL     1     165.232 149.569 149.683  1.00  0.00    -0.502 OA
ATOM     21  H   UNL     1     165.439 148.886 150.401  1.00  0.00     0.293 HD
ENDBRANCH   2  20
BRANCH   6  22
ATOM     22  O   UNL     1     162.829 153.611 152.187  1.00  0.00    -0.507 OA
ATOM     23  H   UNL     1     162.232 152.843 151.918  1.00  0.00     0.293 HD
ENDBRANCH   6  22
BRANCH   8  24
ATOM     24  O   UNL     1     165.847 157.186 151.117  1.00  0.00    -0.508 OA
ATOM     25  H   UNL     1     165.924 157.650 152.015  1.00  0.00     0.293 HD
ENDBRANCH   8  24
TORSDOF 5
ENDMDL
MODEL 4
REMARK VINA RESULT:    -6.684      3.127      5.399
REMARK INTER + INTRA:          -8.152
REMARK INTER:                  -7.956
REMARK INTRA:                  -0.196
REMARK UNBOUND:                -0.296
REMARK SMILES O=c1c(O)c(-c2ccc(O)cc2)oc2cc(O)cc(O)c12
REMARK SMILES IDX 5 1 3 2 2 3 1 4 21 5 19 6 18 7 16 8 15 9 14 10 13 11 6 12
REMARK SMILES IDX 7 13 8 14 9 15 12 16 11 17 10 18 4 20 20 22 17 24
REMARK H PARENT 10 19 4 21 20 23 17 25
REMARK Flexibility Score: inf
ROOT
ATOM      1  C   UNL     1     166.743 150.548 149.454  1.00  0.00     0.180 A 
ATOM      2  C   UNL     1     167.121 150.756 148.116  1.00  0.00     0.208 A 
ATOM      3  C   UNL     1     168.072 149.901 147.536  1.00  0.00     0.238 A 
ATOM      4  O   UNL     1     168.350 150.046 146.317  1.00  0.00    -0.285 OA
ATOM      5  C   UNL     1     168.677 148.886 148.317  1.00  0.00     0.111 A 
ATOM      6  C   UNL     1     169.685 147.991 147.846  1.00  0.00     0.134 A 
ATOM      7  C   UNL     1     170.133 146.956 148.677  1.00  0.00     0.093 A 
ATOM      8  C   UNL     1     169.656 146.823 149.983  1.00  0.00     0.123 A 
ATOM      9  C   UNL     1     168.713 147.724 150.470  1.00  0.00     0.094 A 
ATOM     10  C   UNL     1     168.218 148.744 149.653  1.00  0.00     0.146 A 
ATOM     11  O   UNL     1     167.303 149.567 150.150  1.00  0.00    -0.452 OA
ENDROOT
BRANCH   1  12
ATOM     12  C   UNL     1     165.736 151.398 150.130  1.00  0.00     0.021 A 
ATOM     13  C   UNL     1     166.016 152.732 150.477  1.00  0.00     0.016 A 
ATOM     14  C   UNL     1     165.040 153.522 151.092  1.00  0.00     0.047 A 
ATOM     15  C   UNL     1     163.769 152.994 151.355  1.00  0.00     0.115 A 
ATOM     16  C   UNL     1     164.452 150.883 150.378  1.00  0.00     0.016 A 
ATOM     17  C   UNL     1     163.479 151.675 150.994  1.00  0.00     0.047 A 
BRANCH  15  18
ATOM     18  O   UNL     1     162.790 153.771 151.968  1.00  0.00    -0.508 OA
ATOM     19  H   UNL     1     162.864 154.046 152.941  1.00  0.00     0.293 HD
ENDBRANCH  15  18
ENDBRANCH   1  12
BRANCH   2  20
ATOM     20  O   UNL     1     166.569 151.812 147.385  1.00  0.00    -0.502 OA
ATOM     21  H   UNL     1     167.132 152.566 147.009  1.00  0.00     0.293 HD
ENDBRANCH   2  20
BRANCH   6  22
ATOM     22  O   UNL     1     170.294 148.088 146.591  1.00  0.00    -0.507 OA
ATOM     23  H   UNL     1     171.000 147.458 146.241  1.00  0.00     0.293 HD
ENDBRANCH   6  22
BRANCH   8  24
ATOM     24  O   UNL     1     170.121 145.802 150.809  1.00  0.00    -0.508 OA
ATOM     25  H   UNL     1     171.105 145.704 151.028  1.00  0.00     0.293 HD
ENDBRANCH   8  24
TORSDOF 5
ENDMDL
MODEL 5
REMARK VINA RESULT:    -6.683      2.508      4.086
REMARK INTER + INTRA:          -8.151
REMARK INTER:                  -7.866
REMARK INTRA:                  -0.284
REMARK UNBOUND:                -0.296
REMARK SMILES O=c1c(O)c(-c2ccc(O)cc2)oc2cc(O)cc(O)c12
REMARK SMILES IDX 5 1 3 2 2 3 1 4 21 5 19 6 18 7 16 8 15 9 14 10 13 11 6 12
REMARK SMILES IDX 7 13 8 14 9 15 12 16 11 17 10 18 4 20 20 22 17 24
REMARK H PARENT 10 19 4 21 20 23 17 25
REMARK Flexibility Score: inf
ROOT
ATOM      1  C   UNL     1     165.363 151.020 150.134  1.00  0.00     0.180 A 
ATOM      2  C   UNL     1     164.686 150.486 149.024  1.00  0.00     0.208 A 
ATOM      3  C   UNL     1     164.998 149.184 148.599  1.00  0.00     0.238 A 
ATOM      4  O   UNL     1     164.335 148.684 147.653  1.00  0.00    -0.285 OA
ATOM      5  C   UNL     1     166.022 148.456 149.251  1.00  0.00     0.111 A 
ATOM      6  C   UNL     1     166.453 147.147 148.876  1.00  0.00     0.134 A 
ATOM      7  C   UNL     1     167.402 146.481 149.661  1.00  0.00     0.093 A 
ATOM      8  C   UNL     1     167.983 147.100 150.770  1.00  0.00     0.123 A 
ATOM      9  C   UNL     1     167.610 148.397 151.112  1.00  0.00     0.094 A 
ATOM     10  C   UNL     1     166.637 149.074 150.371  1.00  0.00     0.146 A 
ATOM     11  O   UNL     1     166.296 150.301 150.745  1.00  0.00    -0.452 OA
ENDROOT
BRANCH   1  12
ATOM     12  C   UNL     1     165.079 152.379 150.651  1.00  0.00     0.021 A 
ATOM     13  C   UNL     1     163.999 152.623 151.519  1.00  0.00     0.016 A 
ATOM     14  C   UNL     1     163.767 153.910 152.013  1.00  0.00     0.047 A 
ATOM     15  C   UNL     1     164.618 154.965 151.659  1.00  0.00     0.115 A 
ATOM     16  C   UNL     1     165.940 153.439 150.318  1.00  0.00     0.016 A 
ATOM     17  C   UNL     1     165.704 154.725 150.812  1.00  0.00     0.047 A 
BRANCH  15  18
ATOM     18  O   UNL     1     164.395 156.251 152.144  1.00  0.00    -0.508 OA
ATOM     19  H   UNL     1     165.114 156.761 152.643  1.00  0.00     0.293 HD
ENDBRANCH  15  18
ENDBRANCH   1  12
BRANCH   2  20
ATOM     20  O   UNL     1     163.732 151.250 148.347  1.00  0.00    -0.502 OA
ATOM     21  H   UNL     1     162.779 151.347 148.677  1.00  0.00     0.293 HD
ENDBRANCH   2  20
BRANCH   6  22
ATOM     22  O   UNL     1     166.004 146.471 147.737  1.00  0.00    -0.507 OA
ATOM     23  H   UNL     1     165.315 145.734 147.736  1.00  0.00     0.293 HD
ENDBRANCH   6  22
BRANCH   8  24
ATOM     24  O   UNL     1     168.940 146.436 151.535  1.00  0.00    -0.508 OA
ATOM     25  H   UNL     1     169.314 146.842 152.385  1.00  0.00     0.293 HD
ENDBRANCH   8  24
TORSDOF 5
ENDMDL
MODEL 6
REMARK VINA RESULT:    -6.615      2.364      3.860
REMARK INTER + INTRA:          -8.071
REMARK INTER:                  -7.834
REMARK INTRA:                  -0.237
REMARK UNBOUND:                -0.296
REMARK SMILES O=c1c(O)c(-c2ccc(O)cc2)oc2cc(O)cc(O)c12
REMARK SMILES IDX 5 1 3 2 2 3 1 4 21 5 19 6 18 7 16 8 15 9 14 10 13 11 6 12
REMARK SMILES IDX 7 13 8 14 9 15 12 16 11 17 10 18 4 20 20 22 17 24
REMARK H PARENT 10 19 4 21 20 23 17 25
REMARK Flexibility Score: inf
ROOT
ATOM      1  C   UNL     1     166.375 152.049 149.519  1.00  0.00     0.180 A 
ATOM      2  C   UNL     1     165.862 151.636 148.277  1.00  0.00     0.208 A 
ATOM      3  C   UNL     1     166.618 150.754 147.487  1.00  0.00     0.238 A 
ATOM      4  O   UNL     1     166.119 150.331 146.412  1.00  0.00    -0.285 OA
ATOM      5  C   UNL     1     167.901 150.342 147.921  1.00  0.00     0.111 A 
ATOM      6  C   UNL     1     168.773 149.487 147.181  1.00  0.00     0.134 A 
ATOM      7  C   UNL     1     169.975 149.061 147.758  1.00  0.00     0.093 A 
ATOM      8  C   UNL     1     170.367 149.508 149.022  1.00  0.00     0.123 A 
ATOM      9  C   UNL     1     169.550 150.386 149.729  1.00  0.00     0.094 A 
ATOM     10  C   UNL     1     168.325 150.800 149.196  1.00  0.00     0.146 A 
ATOM     11  O   UNL     1     167.567 151.619 149.914  1.00  0.00    -0.452 OA
ENDROOT
BRANCH   1  12
ATOM     12  C   UNL     1     165.631 152.964 150.415  1.00  0.00     0.021 A 
ATOM     13  C   UNL     1     164.517 152.524 151.153  1.00  0.00     0.016 A 
ATOM     14  C   UNL     1     163.846 153.401 152.010  1.00  0.00     0.047 A 
ATOM     15  C   UNL     1     164.288 154.723 152.152  1.00  0.00     0.115 A 
ATOM     16  C   UNL     1     166.080 154.285 150.579  1.00  0.00     0.016 A 
ATOM     17  C   UNL     1     165.407 155.161 151.437  1.00  0.00     0.047 A 
BRANCH  15  18
ATOM     18  O   UNL     1     163.627 155.606 153.003  1.00  0.00    -0.508 OA
ATOM     19  H   UNL     1     163.981 155.814 153.930  1.00  0.00     0.293 HD
ENDBRANCH  15  18
ENDBRANCH   1  12
BRANCH   2  20
ATOM     20  O   UNL     1     164.626 152.115 147.832  1.00  0.00    -0.502 OA
ATOM     21  H   UNL     1     164.457 152.366 146.865  1.00  0.00     0.293 HD
ENDBRANCH   2  20
BRANCH   6  22
ATOM     22  O   UNL     1     168.521 149.052 145.876  1.00  0.00    -0.507 OA
ATOM     23  H   UNL     1     168.846 148.182 145.484  1.00  0.00     0.293 HD
ENDBRANCH   6  22
BRANCH   8  24
ATOM     24  O   UNL     1     171.574 149.092 149.581  1.00  0.00    -0.508 OA
ATOM     25  H   UNL     1     171.708 148.142 149.904  1.00  0.00     0.293 HD
ENDBRANCH   8  24
TORSDOF 5
ENDMDL
MODEL 7
REMARK VINA RESULT:    -6.546      9.596     12.525
REMARK INTER + INTRA:          -7.990
REMARK INTER:                  -7.693
REMARK INTRA:                  -0.297
REMARK UNBOUND:                -0.296
REMARK SMILES O=c1c(O)c(-c2ccc(O)cc2)oc2cc(O)cc(O)c12
REMARK SMILES IDX 5 1 3 2 2 3 1 4 21 5 19 6 18 7 16 8 15 9 14 10 13 11 6 12
REMARK SMILES IDX 7 13 8 14 9 15 12 16 11 17 10 18 4 20 20 22 17 24
REMARK H PARENT 10 19 4 21 20 23 17 25
REMARK Flexibility Score: inf
ROOT
ATOM      1  C   UNL     1     169.266 143.596 152.201  1.00  0.00     0.180 A 
ATOM      2  C   UNL     1     170.609 143.513 152.608  1.00  0.00     0.208 A 
ATOM      3  C   UNL     1     171.021 144.227 153.745  1.00  0.00     0.238 A 
ATOM      4  O   UNL     1     172.206 144.090 154.147  1.00  0.00    -0.285 OA
ATOM      5  C   UNL     1     170.100 145.060 154.427  1.00  0.00     0.111 A 
ATOM      6  C   UNL     1     170.419 145.863 155.564  1.00  0.00     0.134 A 
ATOM      7  C   UNL     1     169.401 146.564 156.221  1.00  0.00     0.093 A 
ATOM      8  C   UNL     1     168.087 146.542 155.746  1.00  0.00     0.123 A 
ATOM      9  C   UNL     1     167.776 145.805 154.606  1.00  0.00     0.094 A 
ATOM     10  C   UNL     1     168.763 145.064 153.950  1.00  0.00     0.146 A 
ATOM     11  O   UNL     1     168.419 144.358 152.880  1.00  0.00    -0.452 OA
ENDROOT
BRANCH   1  12
ATOM     12  C   UNL     1     168.754 142.860 151.022  1.00  0.00     0.021 A 
ATOM     13  C   UNL     1     168.237 141.557 151.138  1.00  0.00     0.016 A 
ATOM     14  C   UNL     1     167.736 140.893 150.014  1.00  0.00     0.047 A 
ATOM     15  C   UNL     1     167.732 141.528 148.764  1.00  0.00     0.115 A 
ATOM     16  C   UNL     1     168.726 143.497 149.770  1.00  0.00     0.016 A 
ATOM     17  C   UNL     1     168.225 142.831 148.647  1.00  0.00     0.047 A 
BRANCH  15  18
ATOM     18  O   UNL     1     167.236 140.876 147.638  1.00  0.00    -0.508 OA
ATOM     19  H   UNL     1     167.017 139.886 147.652  1.00  0.00     0.293 HD
ENDBRANCH  15  18
ENDBRANCH   1  12
BRANCH   2  20
ATOM     20  O   UNL     1     171.521 142.747 151.877  1.00  0.00    -0.502 OA
ATOM     21  H   UNL     1     172.468 143.056 151.694  1.00  0.00     0.293 HD
ENDBRANCH   2  20
BRANCH   6  22
ATOM     22  O   UNL     1     171.712 146.028 156.069  1.00  0.00    -0.507 OA
ATOM     23  H   UNL     1     172.106 145.500 156.832  1.00  0.00     0.293 HD
ENDBRANCH   6  22
BRANCH   8  24
ATOM     24  O   UNL     1     167.084 147.257 156.396  1.00  0.00    -0.508 OA
ATOM     25  H   UNL     1     166.110 146.985 156.328  1.00  0.00     0.293 HD
ENDBRANCH   8  24
TORSDOF 5
ENDMDL
MODEL 8
REMARK VINA RESULT:    -6.534      4.982      7.694
REMARK INTER + INTRA:          -7.975
REMARK INTER:                  -7.682
REMARK INTRA:                  -0.294
REMARK UNBOUND:                -0.296
REMARK SMILES O=c1c(O)c(-c2ccc(O)cc2)oc2cc(O)cc(O)c12
REMARK SMILES IDX 5 1 3 2 2 3 1 4 21 5 19 6 18 7 16 8 15 9 14 10 13 11 6 12
REMARK SMILES IDX 7 13 8 14 9 15 12 16 11 17 10 18 4 20 20 22 17 24
REMARK H PARENT 10 19 4 21 20 23 17 25
REMARK Flexibility Score: inf
ROOT
ATOM      1  C   UNL     1     168.868 148.515 149.774  1.00  0.00     0.180 A 
ATOM      2  C   UNL     1     169.763 147.643 149.130  1.00  0.00     0.208 A 
ATOM      3  C   UNL     1     169.890 146.327 149.603  1.00  0.00     0.238 A 
ATOM      4  O   UNL     1     170.637 145.531 148.977  1.00  0.00    -0.285 OA
ATOM      5  C   UNL     1     169.165 145.916 150.748  1.00  0.00     0.111 A 
ATOM      6  C   UNL     1     169.250 144.620 151.341  1.00  0.00     0.134 A 
ATOM      7  C   UNL     1     168.404 144.292 152.408  1.00  0.00     0.093 A 
ATOM      8  C   UNL     1     167.522 145.233 152.944  1.00  0.00     0.123 A 
ATOM      9  C   UNL     1     167.470 146.517 152.408  1.00  0.00     0.094 A 
ATOM     10  C   UNL     1     168.274 146.863 151.318  1.00  0.00     0.146 A 
ATOM     11  O   UNL     1     168.176 148.090 150.824  1.00  0.00    -0.452 OA
ENDROOT
BRANCH   1  12
ATOM     12  C   UNL     1     168.668 149.912 149.324  1.00  0.00     0.021 A 
ATOM     13  C   UNL     1     167.651 150.251 148.413  1.00  0.00     0.016 A 
ATOM     14  C   UNL     1     167.467 151.581 148.023  1.00  0.00     0.047 A 
ATOM     15  C   UNL     1     168.285 152.589 148.549  1.00  0.00     0.115 A 
ATOM     16  C   UNL     1     169.470 150.932 149.862  1.00  0.00     0.016 A 
ATOM     17  C   UNL     1     169.284 152.261 149.470  1.00  0.00     0.047 A 
BRANCH  15  18
ATOM     18  O   UNL     1     168.111 153.917 148.167  1.00  0.00    -0.508 OA
ATOM     19  H   UNL     1     167.352 154.198 147.556  1.00  0.00     0.293 HD
ENDBRANCH  15  18
ENDBRANCH   1  12
BRANCH   2  20
ATOM     20  O   UNL     1     170.528 148.091 148.050  1.00  0.00    -0.502 OA
ATOM     21  H   UNL     1     170.173 148.755 147.371  1.00  0.00     0.293 HD
ENDBRANCH   2  20
BRANCH   6  22
ATOM     22  O   UNL     1     170.158 143.634 150.943  1.00  0.00    -0.507 OA
ATOM     23  H   UNL     1     170.628 142.996 151.565  1.00  0.00     0.293 HD
ENDBRANCH   6  22
BRANCH   8  24
ATOM     24  O   UNL     1     166.697 144.903 154.018  1.00  0.00    -0.508 OA
ATOM     25  H   UNL     1     167.071 144.511 154.873  1.00  0.00     0.293 HD
ENDBRANCH   8  24
TORSDOF 5
ENDMDL
MODEL 9
REMARK VINA RESULT:    -6.524      2.593      8.161
REMARK INTER + INTRA:          -7.964
REMARK INTER:                  -7.683
REMARK INTRA:                  -0.281
REMARK UNBOUND:                -0.296
REMARK SMILES O=c1c(O)c(-c2ccc(O)cc2)oc2cc(O)cc(O)c12
REMARK SMILES IDX 5 1 3 2 2 3 1 4 21 5 19 6 18 7 16 8 15 9 14 10 13 11 6 12
REMARK SMILES IDX 7 13 8 14 9 15 12 16 11 17 10 18 4 20 20 22 17 24
REMARK H PARENT 10 19 4 21 20 23 17 25
REMARK Flexibility Score: inf
ROOT
ATOM      1  C   UNL     1     167.340 149.667 150.047  1.00  0.00     0.180 A 
ATOM      2  C   UNL     1     168.290 150.604 149.605  1.00  0.00     0.208 A 
ATOM      3  C   UNL     1     167.987 151.972 149.692  1.00  0.00     0.238 A 
ATOM      4  O   UNL     1     168.870 152.807 149.366  1.00  0.00    -0.285 OA
ATOM      5  C   UNL     1     166.718 152.385 150.165  1.00  0.00     0.111 A 
ATOM      6  C   UNL     1     166.286 153.744 150.254  1.00  0.00     0.134 A 
ATOM      7  C   UNL     1     165.048 154.038 150.838  1.00  0.00     0.093 A 
ATOM      8  C   UNL     1     164.198 153.021 151.279  1.00  0.00     0.123 A 
ATOM      9  C   UNL     1     164.586 151.690 151.147  1.00  0.00     0.094 A 
ATOM     10  C   UNL     1     165.832 151.365 150.603  1.00  0.00     0.146 A 
ATOM     11  O   UNL     1     166.171 150.085 150.517  1.00  0.00    -0.452 OA
ENDROOT
BRANCH   1  12
ATOM     12  C   UNL     1     167.592 148.208 150.001  1.00  0.00     0.021 A 
ATOM     13  C   UNL     1     167.364 147.460 148.831  1.00  0.00     0.016 A 
ATOM     14  C   UNL     1     167.633 146.089 148.806  1.00  0.00     0.047 A 
ATOM     15  C   UNL     1     168.146 145.450 149.942  1.00  0.00     0.115 A 
ATOM     16  C   UNL     1     168.126 147.563 151.130  1.00  0.00     0.016 A 
ATOM     17  C   UNL     1     168.393 146.191 151.102  1.00  0.00     0.047 A 
BRANCH  15  18
ATOM     18  O   UNL     1     168.417 144.084 149.929  1.00  0.00    -0.508 OA
ATOM     19  H   UNL     1     169.318 143.725 149.635  1.00  0.00     0.293 HD
ENDBRANCH  15  18
ENDBRANCH   1  12
BRANCH   2  20
ATOM     20  O   UNL     1     169.507 150.173 149.070  1.00  0.00    -0.502 OA
ATOM     21  H   UNL     1     170.399 150.529 149.393  1.00  0.00     0.293 HD
ENDBRANCH   2  20
BRANCH   6  22
ATOM     22  O   UNL     1     167.016 154.831 149.764  1.00  0.00    -0.507 OA
ATOM     23  H   UNL     1     167.989 155.009 149.960  1.00  0.00     0.293 HD
ENDBRANCH   6  22
BRANCH   8  24
ATOM     24  O   UNL     1     162.961 153.323 151.843  1.00  0.00    -0.508 OA
ATOM     25  H   UNL     1     162.098 153.197 151.326  1.00  0.00     0.293 HD
ENDBRANCH   8  24
TORSDOF 5
ENDMDL
