MODEL 1
REMARK VINA RESULT:    -2.683      0.000      0.000
REMARK INTER + INTRA:          -2.970
REMARK INTER:                  -2.840
REMARK INTRA:                  -0.130
REMARK UNBOUND:                -0.130
REMARK SMILES C=C(C)[C@H]1CC=C(C)CC1
REMARK SMILES IDX 8 1 7 2 6 3 5 4 4 5 10 6 9 7 2 8 1 9 3 10
REMARK H PARENT
REMARK Flexibility Score: inf
ROOT
ATOM      1  C   UNL     1      -2.251 -14.928 -10.003  1.00  0.00     0.039 C 
ATOM      2  C   UNL     1      -2.640 -14.946  -8.551  1.00  0.00    -0.077 C 
ATOM      3  C   UNL     1      -1.672 -15.026  -7.613  1.00  0.00    -0.027 C 
ATOM      4  C   UNL     1      -1.963 -15.104  -6.134  1.00  0.00     0.035 C 
ATOM      5  C   UNL     1      -3.350 -14.536  -5.784  1.00  0.00     0.018 C 
ATOM      6  C   UNL     1      -4.408 -15.125  -6.730  1.00  0.00     0.013 C 
ATOM      7  C   UNL     1      -4.096 -14.738  -8.181  1.00  0.00     0.031 C 
ENDROOT
BRANCH   5   8
ATOM      8  C   UNL     1      -3.702 -14.777  -4.322  1.00  0.00    -0.077 C 
ATOM      9  C   UNL     1      -2.762 -15.119  -3.424  1.00  0.00     0.008 C 
ATOM     10  C   UNL     1      -5.128 -14.640  -3.855  1.00  0.00     0.039 C 
ENDBRANCH   5   8
TORSDOF 1
ENDMDL
MODEL 2
REMARK VINA RESULT:    -2.377      0.937      4.501
REMARK INTER + INTRA:          -2.646
REMARK INTER:                  -2.519
REMARK INTRA:                  -0.127
REMARK UNBOUND:                -0.130
REMARK SMILES C=C(C)[C@H]1CC=C(C)CC1
REMARK SMILES IDX 8 1 7 2 6 3 5 4 4 5 10 6 9 7 2 8 1 9 3 10
REMARK H PARENT
REMARK Flexibility Score: inf
ROOT
ATOM      1  C   UNL     1      -5.525 -15.124  -2.903  1.00  0.00     0.039 C 
ATOM      2  C   UNL     1      -4.663 -15.045  -4.133  1.00  0.00    -0.077 C 
ATOM      3  C   UNL     1      -5.247 -15.117  -5.348  1.00  0.00    -0.027 C 
ATOM      4  C   UNL     1      -4.465 -15.101  -6.639  1.00  0.00     0.035 C 
ATOM      5  C   UNL     1      -3.078 -14.456  -6.471  1.00  0.00     0.018 C 
ATOM      6  C   UNL     1      -2.373 -15.048  -5.241  1.00  0.00     0.013 C 
ATOM      7  C   UNL     1      -3.183 -14.755  -3.973  1.00  0.00     0.031 C 
ENDROOT
BRANCH   5   8
ATOM      8  C   UNL     1      -2.236 -14.602  -7.731  1.00  0.00    -0.077 C 
ATOM      9  C   UNL     1      -0.998 -15.124  -7.688  1.00  0.00     0.008 C 
ATOM     10  C   UNL     1      -2.782 -14.152  -9.061  1.00  0.00     0.039 C 
ENDBRANCH   5   8
TORSDOF 1
ENDMDL
MODEL 3
REMARK VINA RESULT:    -1.572      1.612      4.407
REMARK INTER + INTRA:          -1.793
REMARK INTER:                  -1.664
REMARK INTRA:                  -0.130
REMARK UNBOUND:                -0.130
REMARK SMILES C=C(C)[C@H]1CC=C(C)CC1
REMARK SMILES IDX 8 1 7 2 6 3 5 4 4 5 10 6 9 7 2 8 1 9 3 10
REMARK H PARENT
REMARK Flexibility Score: inf
ROOT
ATOM      1  C   UNL     1       0.653 -15.125  -3.849  1.00  0.00     0.039 C 
ATOM      2  C   UNL     1      -0.300 -15.066  -5.012  1.00  0.00    -0.077 C 
ATOM      3  C   UNL     1      -1.628 -15.123  -4.774  1.00  0.00    -0.027 C 
ATOM      4  C   UNL     1      -2.661 -15.125  -5.874  1.00  0.00     0.035 C 
ATOM      5  C   UNL     1      -2.122 -14.514  -7.180  1.00  0.00     0.018 C 
ATOM      6  C   UNL     1      -0.752 -15.125  -7.514  1.00  0.00     0.013 C 
ATOM      7  C   UNL     1       0.254 -14.813  -6.400  1.00  0.00     0.031 C 
ENDROOT
BRANCH   5   8
ATOM      8  C   UNL     1      -3.110 -14.680  -8.326  1.00  0.00    -0.077 C 
ATOM      9  C   UNL     1      -4.385 -15.045  -8.104  1.00  0.00     0.008 C 
ATOM     10  C   UNL     1      -2.667 -14.438  -9.746  1.00  0.00     0.039 C 
ENDBRANCH   5   8
TORSDOF 1
ENDMDL
MODEL 4
REMARK VINA RESULT:    -1.161      7.990      9.409
REMARK INTER + INTRA:          -1.359
REMARK INTER:                  -1.233
REMARK INTRA:                  -0.126
REMARK UNBOUND:                -0.130
REMARK SMILES C=C(C)[C@H]1CC=C(C)CC1
REMARK SMILES IDX 8 1 7 2 6 3 5 4 4 5 10 6 9 7 2 8 1 9 3 10
REMARK H PARENT
REMARK Flexibility Score: inf
ROOT
ATOM      1  C   UNL     1       0.737 -12.031 -15.250  1.00  0.00     0.039 C 
ATOM      2  C   UNL     1      -0.592 -12.733 -15.214  1.00  0.00    -0.077 C 
ATOM      3  C   UNL     1      -1.593 -12.281 -16.001  1.00  0.00    -0.027 C 
ATOM      4  C   UNL     1      -2.977 -12.883 -15.997  1.00  0.00     0.035 C 
ATOM      5  C   UNL     1      -2.981 -14.331 -15.474  1.00  0.00     0.018 C 
ATOM      6  C   UNL     1      -2.186 -14.413 -14.161  1.00  0.00     0.013 C 
ATOM      7  C   UNL     1      -0.728 -14.004 -14.398  1.00  0.00     0.031 C 
ENDROOT
BRANCH   5   8
ATOM      8  C   UNL     1      -4.398 -14.865 -15.312  1.00  0.00    -0.077 C 
ATOM      9  C   UNL     1      -4.913 -15.125 -14.097  1.00  0.00     0.008 C 
ATOM     10  C   UNL     1      -5.254 -15.117 -16.526  1.00  0.00     0.039 C 
ENDBRANCH   5   8
TORSDOF 1
ENDMDL
MODEL 5
REMARK VINA RESULT:    -0.465      7.426      9.209
REMARK INTER + INTRA:          -0.622
REMARK INTER:                  -0.497
REMARK INTRA:                  -0.126
REMARK UNBOUND:                -0.130
REMARK SMILES C=C(C)[C@H]1CC=C(C)CC1
REMARK SMILES IDX 8 1 7 2 6 3 5 4 4 5 10 6 9 7 2 8 1 9 3 10
REMARK H PARENT
REMARK Flexibility Score: inf
ROOT
ATOM      1  C   UNL     1      -6.508 -15.125 -14.462  1.00  0.00     0.039 C 
ATOM      2  C   UNL     1      -5.062 -14.740 -14.617  1.00  0.00    -0.077 C 
ATOM      3  C   UNL     1      -4.672 -14.097 -15.738  1.00  0.00    -0.027 C 
ATOM      4  C   UNL     1      -3.237 -13.717 -16.011  1.00  0.00     0.035 C 
ATOM      5  C   UNL     1      -2.405 -13.619 -14.720  1.00  0.00     0.018 C 
ATOM      6  C   UNL     1      -2.638 -14.868 -13.854  1.00  0.00     0.013 C 
ATOM      7  C   UNL     1      -4.115 -14.967 -13.454  1.00  0.00     0.031 C 
ENDROOT
BRANCH   5   8
ATOM      8  C   UNL     1      -0.927 -13.407 -15.019  1.00  0.00    -0.077 C 
ATOM      9  C   UNL     1      -0.031 -14.395 -14.855  1.00  0.00     0.008 C 
ATOM     10  C   UNL     1      -0.440 -12.067 -15.506  1.00  0.00     0.039 C 
ENDBRANCH   5   8
TORSDOF 1
ENDMDL
MODEL 6
REMARK VINA RESULT:    -0.456      0.760      4.843
REMARK INTER + INTRA:          -0.613
REMARK INTER:                  -0.484
REMARK INTRA:                  -0.129
REMARK UNBOUND:                -0.130
REMARK SMILES C=C(C)[C@H]1CC=C(C)CC1
REMARK SMILES IDX 8 1 7 2 6 3 5 4 4 5 10 6 9 7 2 8 1 9 3 10
REMARK H PARENT
REMARK Flexibility Score: inf
ROOT
ATOM      1  C   UNL     1      -4.237 -14.582  -4.389  1.00  0.00     0.039 C 
ATOM      2  C   UNL     1      -3.719 -14.730  -5.794  1.00  0.00    -0.077 C 
ATOM      3  C   UNL     1      -4.602 -14.861  -6.807  1.00  0.00    -0.027 C 
ATOM      4  C   UNL     1      -4.181 -15.068  -8.242  1.00  0.00     0.035 C 
ATOM      5  C   UNL     1      -2.749 -14.570  -8.506  1.00  0.00     0.018 C 
ATOM      6  C   UNL     1      -1.802 -15.108  -7.422  1.00  0.00     0.013 C 
ATOM      7  C   UNL     1      -2.229 -14.595  -6.042  1.00  0.00     0.031 C 
ENDROOT
BRANCH   5   8
ATOM      8  C   UNL     1      -2.276 -14.941  -9.906  1.00  0.00    -0.077 C 
ATOM      9  C   UNL     1      -3.146 -15.116 -10.915  1.00  0.00     0.008 C 
ATOM     10  C   UNL     1      -0.806 -15.124 -10.182  1.00  0.00     0.039 C 
ENDBRANCH   5   8
TORSDOF 1
ENDMDL
MODEL 7
REMARK VINA RESULT:    -0.366      8.010      9.255
REMARK INTER + INTRA:          -0.517
REMARK INTER:                  -0.395
REMARK INTRA:                  -0.123
REMARK UNBOUND:                -0.130
REMARK SMILES C=C(C)[C@H]1CC=C(C)CC1
REMARK SMILES IDX 8 1 7 2 6 3 5 4 4 5 10 6 9 7 2 8 1 9 3 10
REMARK H PARENT
REMARK Flexibility Score: inf
ROOT
ATOM      1  C   UNL     1       0.758 -12.061 -15.176  1.00  0.00     0.039 C 
ATOM      2  C   UNL     1      -0.573 -12.760 -15.192  1.00  0.00    -0.077 C 
ATOM      3  C   UNL     1      -0.746 -13.856 -14.422  1.00  0.00    -0.027 C 
ATOM      4  C   UNL     1      -2.025 -14.658 -14.409  1.00  0.00     0.035 C 
ATOM      5  C   UNL     1      -3.234 -13.833 -14.885  1.00  0.00     0.018 C 
ATOM      6  C   UNL     1      -2.886 -13.106 -16.194  1.00  0.00     0.013 C 
ATOM      7  C   UNL     1      -1.718 -12.139 -15.968  1.00  0.00     0.031 C 
ENDROOT
BRANCH   5   8
ATOM      8  C   UNL     1      -4.479 -14.697 -15.033  1.00  0.00    -0.077 C 
ATOM      9  C   UNL     1      -5.165 -15.125 -13.959  1.00  0.00     0.008 C 
ATOM     10  C   UNL     1      -4.965 -15.095 -16.403  1.00  0.00     0.039 C 
ENDBRANCH   5   8
TORSDOF 1
ENDMDL
