MODEL 1
REMARK VINA RESULT:    -4.981      0.000      0.000
REMARK INTER + INTRA:          -6.079
REMARK INTER:                  -5.854
REMARK INTRA:                  -0.225
REMARK UNBOUND:                -0.225
REMARK SMILES CCC=Cc1oc(O)c2ccc(O)cc12
REMARK SMILES IDX 7 1 6 2 5 3 15 4 14 5 12 6 11 7 10 8 9 9 8 10 4 12 3 13 2 14
REMARK SMILES IDX 1 15 13 16
REMARK H PARENT 8 11 13 17
REMARK Flexibility Score: inf
ROOT
ATOM      1  C   UNL     1      13.781  17.079  33.449  1.00  0.00     0.290 A 
ATOM      2  O   UNL     1      12.601  16.638  33.060  1.00  0.00    -0.425 OA
ATOM      3  C   UNL     1      12.606  16.515  31.744  1.00  0.00     0.138 A 
ATOM      4  C   UNL     1      13.846  16.893  31.261  1.00  0.00     0.035 A 
ATOM      5  C   UNL     1      14.365  16.945  29.966  1.00  0.00     0.059 A 
ATOM      6  C   UNL     1      15.693  17.384  29.804  1.00  0.00     0.116 A 
ATOM      7  C   UNL     1      16.463  17.756  30.934  1.00  0.00     0.047 A 
ATOM      8  C   UNL     1      15.912  17.692  32.227  1.00  0.00     0.020 A 
ATOM      9  C   UNL     1      14.595  17.253  32.349  1.00  0.00     0.067 A 
ENDROOT
BRANCH   1  10
ATOM     10  O   UNL     1      14.120  17.323  34.777  1.00  0.00    -0.480 OA
ATOM     11  H   UNL     1      15.048  17.122  35.127  1.00  0.00     0.297 HD
ENDBRANCH   1  10
BRANCH   3  12
ATOM     12  C   UNL     1      11.461  16.046  30.944  1.00  0.00     0.043 C 
ATOM     13  C   UNL     1      11.478  14.860  30.329  1.00  0.00    -0.023 C 
BRANCH  13  14
ATOM     14  C   UNL     1      10.306  14.376  29.525  1.00  0.00     0.024 C 
ATOM     15  C   UNL     1      10.677  14.194  28.056  1.00  0.00     0.008 C 
ENDBRANCH  13  14
ENDBRANCH   3  12
BRANCH   6  16
ATOM     16  O   UNL     1      16.240  17.448  28.525  1.00  0.00    -0.508 OA
ATOM     17  H   UNL     1      16.436  18.336  28.078  1.00  0.00     0.293 HD
ENDBRANCH   6  16
TORSDOF 4
ENDMDL
MODEL 2
REMARK VINA RESULT:    -4.840      1.043      3.356
REMARK INTER + INTRA:          -5.913
REMARK INTER:                  -5.688
REMARK INTRA:                  -0.225
REMARK UNBOUND:                -0.225
REMARK SMILES CCC=Cc1oc(O)c2ccc(O)cc12
REMARK SMILES IDX 7 1 6 2 5 3 15 4 14 5 12 6 11 7 10 8 9 9 8 10 4 12 3 13 2 14
REMARK SMILES IDX 1 15 13 16
REMARK H PARENT 8 11 13 17
REMARK Flexibility Score: inf
ROOT
ATOM      1  C   UNL     1      15.783  17.102  29.499  1.00  0.00     0.290 A 
ATOM      2  O   UNL     1      14.861  16.262  29.071  1.00  0.00    -0.425 OA
ATOM      3  C   UNL     1      14.052  15.972  30.075  1.00  0.00     0.138 A 
ATOM      4  C   UNL     1      14.469  16.657  31.203  1.00  0.00     0.035 A 
ATOM      5  C   UNL     1      13.967  16.701  32.505  1.00  0.00     0.059 A 
ATOM      6  C   UNL     1      14.633  17.514  33.442  1.00  0.00     0.116 A 
ATOM      7  C   UNL     1      15.776  18.257  33.055  1.00  0.00     0.047 A 
ATOM      8  C   UNL     1      16.258  18.192  31.734  1.00  0.00     0.020 A 
ATOM      9  C   UNL     1      15.573  17.378  30.835  1.00  0.00     0.067 A 
ENDROOT
BRANCH   1  10
ATOM     10  O   UNL     1      16.799  17.613  28.698  1.00  0.00    -0.480 OA
ATOM     11  H   UNL     1      16.687  17.697  27.696  1.00  0.00     0.297 HD
ENDBRANCH   1  10
BRANCH   3  12
ATOM     12  C   UNL     1      12.896  15.063  29.982  1.00  0.00     0.043 C 
ATOM     13  C   UNL     1      11.643  15.525  29.975  1.00  0.00    -0.023 C 
BRANCH  13  14
ATOM     14  C   UNL     1      10.465  14.600  29.865  1.00  0.00     0.024 C 
ATOM     15  C   UNL     1      10.150  14.272  28.408  1.00  0.00     0.008 C 
ENDBRANCH  13  14
ENDBRANCH   3  12
BRANCH   6  16
ATOM     16  O   UNL     1      14.159  17.580  34.749  1.00  0.00    -0.508 OA
ATOM     17  H   UNL     1      13.935  16.742  35.273  1.00  0.00     0.293 HD
ENDBRANCH   6  16
TORSDOF 4
ENDMDL
MODEL 3
REMARK VINA RESULT:    -4.714      2.367      3.972
REMARK INTER + INTRA:          -5.765
REMARK INTER:                  -5.524
REMARK INTRA:                  -0.241
REMARK UNBOUND:                -0.225
REMARK SMILES CCC=Cc1oc(O)c2ccc(O)cc12
REMARK SMILES IDX 7 1 6 2 5 3 15 4 14 5 12 6 11 7 10 8 9 9 8 10 4 12 3 13 2 14
REMARK SMILES IDX 1 15 13 16
REMARK H PARENT 8 11 13 17
REMARK Flexibility Score: inf
ROOT
ATOM      1  C   UNL     1      13.866  15.452  30.051  1.00  0.00     0.290 A 
ATOM      2  O   UNL     1      13.143  15.430  31.153  1.00  0.00    -0.425 OA
ATOM      3  C   UNL     1      13.599  16.356  31.979  1.00  0.00     0.138 A 
ATOM      4  C   UNL     1      14.664  17.006  31.382  1.00  0.00     0.035 A 
ATOM      5  C   UNL     1      15.484  18.048  31.822  1.00  0.00     0.059 A 
ATOM      6  C   UNL     1      16.503  18.494  30.959  1.00  0.00     0.116 A 
ATOM      7  C   UNL     1      16.675  17.892  29.687  1.00  0.00     0.047 A 
ATOM      8  C   UNL     1      15.832  16.845  29.273  1.00  0.00     0.020 A 
ATOM      9  C   UNL     1      14.834  16.429  30.152  1.00  0.00     0.067 A 
ENDROOT
BRANCH   1  10
ATOM     10  O   UNL     1      13.657  14.603  28.968  1.00  0.00    -0.480 OA
ATOM     11  H   UNL     1      14.303  13.853  28.756  1.00  0.00     0.297 HD
ENDBRANCH   1  10
BRANCH   3  12
ATOM     12  C   UNL     1      13.042  16.632  33.314  1.00  0.00     0.043 C 
ATOM     13  C   UNL     1      11.745  16.904  33.489  1.00  0.00    -0.023 C 
BRANCH  13  14
ATOM     14  C   UNL     1      11.175  17.171  34.851  1.00  0.00     0.024 C 
ATOM     15  C   UNL     1      12.228  17.755  35.789  1.00  0.00     0.008 C 
ENDBRANCH  13  14
ENDBRANCH   3  12
BRANCH   6  16
ATOM     16  O   UNL     1      17.339  19.531  31.367  1.00  0.00    -0.508 OA
ATOM     17  H   UNL     1      17.138  20.076  32.197  1.00  0.00     0.293 HD
ENDBRANCH   6  16
TORSDOF 4
ENDMDL
MODEL 4
REMARK VINA RESULT:    -4.700      2.415      4.033
REMARK INTER + INTRA:          -5.749
REMARK INTER:                  -5.514
REMARK INTRA:                  -0.235
REMARK UNBOUND:                -0.225
REMARK SMILES CCC=Cc1oc(O)c2ccc(O)cc12
REMARK SMILES IDX 7 1 6 2 5 3 15 4 14 5 12 6 11 7 10 8 9 9 8 10 4 12 3 13 2 14
REMARK SMILES IDX 1 15 13 16
REMARK H PARENT 8 11 13 17
REMARK Flexibility Score: inf
ROOT
ATOM      1  C   UNL     1      15.507  17.326  29.606  1.00  0.00     0.290 A 
ATOM      2  O   UNL     1      14.437  16.712  30.073  1.00  0.00    -0.425 OA
ATOM      3  C   UNL     1      14.376  16.901  31.380  1.00  0.00     0.138 A 
ATOM      4  C   UNL     1      15.454  17.673  31.775  1.00  0.00     0.035 A 
ATOM      5  C   UNL     1      15.848  18.152  33.026  1.00  0.00     0.059 A 
ATOM      6  C   UNL     1      17.021  18.928  33.095  1.00  0.00     0.116 A 
ATOM      7  C   UNL     1      17.763  19.204  31.920  1.00  0.00     0.047 A 
ATOM      8  C   UNL     1      17.339  18.708  30.674  1.00  0.00     0.020 A 
ATOM      9  C   UNL     1      16.175  17.944  30.643  1.00  0.00     0.067 A 
ENDROOT
BRANCH   1  10
ATOM     10  O   UNL     1      15.876  17.330  28.265  1.00  0.00    -0.480 OA
ATOM     11  H   UNL     1      15.395  17.910  27.589  1.00  0.00     0.297 HD
ENDBRANCH   1  10
BRANCH   3  12
ATOM     12  C   UNL     1      13.317  16.366  32.253  1.00  0.00     0.043 C 
ATOM     13  C   UNL     1      12.068  16.837  32.206  1.00  0.00    -0.023 C 
BRANCH  13  14
ATOM     14  C   UNL     1      10.985  16.282  33.086  1.00  0.00     0.024 C 
ATOM     15  C   UNL     1      10.921  17.020  34.420  1.00  0.00     0.008 C 
ENDBRANCH  13  14
ENDBRANCH   3  12
BRANCH   6  16
ATOM     16  O   UNL     1      17.442  19.420  34.328  1.00  0.00    -0.508 OA
ATOM     17  H   UNL     1      18.302  19.100  34.760  1.00  0.00     0.293 HD
ENDBRANCH   6  16
TORSDOF 4
ENDMDL
MODEL 5
REMARK VINA RESULT:    -4.680      2.902      5.962
REMARK INTER + INTRA:          -5.725
REMARK INTER:                  -5.540
REMARK INTRA:                  -0.185
REMARK UNBOUND:                -0.225
REMARK SMILES CCC=Cc1oc(O)c2ccc(O)cc12
REMARK SMILES IDX 7 1 6 2 5 3 15 4 14 5 12 6 11 7 10 8 9 9 8 10 4 12 3 13 2 14
REMARK SMILES IDX 1 15 13 16
REMARK H PARENT 8 11 13 17
REMARK Flexibility Score: inf
ROOT
ATOM      1  C   UNL     1      16.422  18.637  32.026  1.00  0.00     0.290 A 
ATOM      2  O   UNL     1      17.536  18.817  31.342  1.00  0.00    -0.425 OA
ATOM      3  C   UNL     1      17.499  18.054  30.263  1.00  0.00     0.138 A 
ATOM      4  C   UNL     1      16.308  17.350  30.249  1.00  0.00     0.035 A 
ATOM      5  C   UNL     1      15.783  16.424  29.345  1.00  0.00     0.059 A 
ATOM      6  C   UNL     1      14.516  15.876  29.622  1.00  0.00     0.116 A 
ATOM      7  C   UNL     1      13.811  16.266  30.788  1.00  0.00     0.047 A 
ATOM      8  C   UNL     1      14.366  17.201  31.680  1.00  0.00     0.020 A 
ATOM      9  C   UNL     1      15.621  17.723  31.374  1.00  0.00     0.067 A 
ENDROOT
BRANCH   1  10
ATOM     10  O   UNL     1      16.132  19.288  33.221  1.00  0.00    -0.480 OA
ATOM     11  H   UNL     1      16.509  20.205  33.425  1.00  0.00     0.297 HD
ENDBRANCH   1  10
BRANCH   3  12
ATOM     12  C   UNL     1      18.568  17.984  29.253  1.00  0.00     0.043 C 
ATOM     13  C   UNL     1      19.423  18.994  29.068  1.00  0.00    -0.023 C 
BRANCH  13  14
ATOM     14  C   UNL     1      20.521  18.917  28.048  1.00  0.00     0.024 C 
ATOM     15  C   UNL     1      21.061  20.303  27.707  1.00  0.00     0.008 C 
ENDBRANCH  13  14
ENDBRANCH   3  12
BRANCH   6  16
ATOM     16  O   UNL     1      13.965  14.950  28.741  1.00  0.00    -0.508 OA
ATOM     17  H   UNL     1      14.004  13.954  28.926  1.00  0.00     0.293 HD
ENDBRANCH   6  16
TORSDOF 4
ENDMDL
MODEL 6
REMARK VINA RESULT:    -4.540      2.460      4.224
REMARK INTER + INTRA:          -5.561
REMARK INTER:                  -5.350
REMARK INTRA:                  -0.211
REMARK UNBOUND:                -0.225
REMARK SMILES CCC=Cc1oc(O)c2ccc(O)cc12
REMARK SMILES IDX 7 1 6 2 5 3 15 4 14 5 12 6 11 7 10 8 9 9 8 10 4 12 3 13 2 14
REMARK SMILES IDX 1 15 13 16
REMARK H PARENT 8 11 13 17
REMARK Flexibility Score: inf
ROOT
ATOM      1  C   UNL     1      16.239  18.535  31.979  1.00  0.00     0.290 A 
ATOM      2  O   UNL     1      15.635  18.412  33.145  1.00  0.00    -0.425 OA
ATOM      3  C   UNL     1      14.716  17.467  33.049  1.00  0.00     0.138 A 
ATOM      4  C   UNL     1      14.727  16.956  31.762  1.00  0.00     0.035 A 
ATOM      5  C   UNL     1      13.968  15.957  31.150  1.00  0.00     0.059 A 
ATOM      6  C   UNL     1      14.229  15.666  29.797  1.00  0.00     0.116 A 
ATOM      7  C   UNL     1      15.236  16.376  29.097  1.00  0.00     0.047 A 
ATOM      8  C   UNL     1      15.985  17.377  29.742  1.00  0.00     0.020 A 
ATOM      9  C   UNL     1      15.700  17.638  31.081  1.00  0.00     0.067 A 
ENDROOT
BRANCH   1  10
ATOM     10  O   UNL     1      17.263  19.444  31.728  1.00  0.00    -0.480 OA
ATOM     11  H   UNL     1      18.055  19.529  32.352  1.00  0.00     0.297 HD
ENDBRANCH   1  10
BRANCH   3  12
ATOM     12  C   UNL     1      13.834  17.043  34.150  1.00  0.00     0.043 C 
ATOM     13  C   UNL     1      13.318  17.924  35.010  1.00  0.00    -0.023 C 
BRANCH  13  14
ATOM     14  C   UNL     1      12.408  17.494  36.124  1.00  0.00     0.024 C 
ATOM     15  C   UNL     1      11.076  16.980  35.586  1.00  0.00     0.008 C 
ENDBRANCH  13  14
ENDBRANCH   3  12
BRANCH   6  16
ATOM     16  O   UNL     1      13.489  14.676  29.157  1.00  0.00    -0.508 OA
ATOM     17  H   UNL     1      13.174  13.848  29.650  1.00  0.00     0.293 HD
ENDBRANCH   6  16
TORSDOF 4
ENDMDL
MODEL 7
REMARK VINA RESULT:    -4.469      4.098      7.924
REMARK INTER + INTRA:          -5.478
REMARK INTER:                  -5.244
REMARK INTRA:                  -0.234
REMARK UNBOUND:                -0.225
REMARK SMILES CCC=Cc1oc(O)c2ccc(O)cc12
REMARK SMILES IDX 7 1 6 2 5 3 15 4 14 5 12 6 11 7 10 8 9 9 8 10 4 12 3 13 2 14
REMARK SMILES IDX 1 15 13 16
REMARK H PARENT 8 11 13 17
REMARK Flexibility Score: inf
ROOT
ATOM      1  C   UNL     1       9.027  14.011  27.043  1.00  0.00     0.290 A 
ATOM      2  O   UNL     1      10.167  14.090  27.701  1.00  0.00    -0.425 OA
ATOM      3  C   UNL     1       9.905  14.213  28.991  1.00  0.00     0.138 A 
ATOM      4  C   UNL     1       8.533  14.213  29.174  1.00  0.00     0.035 A 
ATOM      5  C   UNL     1       7.747  14.313  30.324  1.00  0.00     0.059 A 
ATOM      6  C   UNL     1       6.348  14.279  30.171  1.00  0.00     0.116 A 
ATOM      7  C   UNL     1       5.775  14.146  28.882  1.00  0.00     0.047 A 
ATOM      8  C   UNL     1       6.594  14.046  27.742  1.00  0.00     0.020 A 
ATOM      9  C   UNL     1       7.974  14.083  27.931  1.00  0.00     0.067 A 
ENDROOT
BRANCH   1  10
ATOM     10  O   UNL     1       8.937  13.876  25.661  1.00  0.00    -0.480 OA
ATOM     11  H   UNL     1       8.128  14.209  25.152  1.00  0.00     0.297 HD
ENDBRANCH   1  10
BRANCH   3  12
ATOM     12  C   UNL     1      10.928  14.329  30.045  1.00  0.00     0.043 C 
ATOM     13  C   UNL     1      11.645  15.445  30.203  1.00  0.00    -0.023 C 
BRANCH  13  14
ATOM     14  C   UNL     1      12.678  15.567  31.286  1.00  0.00     0.024 C 
ATOM     15  C   UNL     1      12.473  16.837  32.107  1.00  0.00     0.008 C 
ENDBRANCH  13  14
ENDBRANCH   3  12
BRANCH   6  16
ATOM     16  O   UNL     1       5.535  14.378  31.297  1.00  0.00    -0.508 OA
ATOM     17  H   UNL     1       5.910  14.649  32.199  1.00  0.00     0.293 HD
ENDBRANCH   6  16
TORSDOF 4
ENDMDL
MODEL 8
REMARK VINA RESULT:    -4.456      1.518      2.371
REMARK INTER + INTRA:          -5.462
REMARK INTER:                  -5.224
REMARK INTRA:                  -0.238
REMARK UNBOUND:                -0.225
REMARK SMILES CCC=Cc1oc(O)c2ccc(O)cc12
REMARK SMILES IDX 7 1 6 2 5 3 15 4 14 5 12 6 11 7 10 8 9 9 8 10 4 12 3 13 2 14
REMARK SMILES IDX 1 15 13 16
REMARK H PARENT 8 11 13 17
REMARK Flexibility Score: inf
ROOT
ATOM      1  C   UNL     1      15.896  18.384  33.393  1.00  0.00     0.290 A 
ATOM      2  O   UNL     1      14.813  17.676  33.137  1.00  0.00    -0.425 OA
ATOM      3  C   UNL     1      14.854  17.279  31.876  1.00  0.00     0.138 A 
ATOM      4  C   UNL     1      16.016  17.752  31.292  1.00  0.00     0.035 A 
ATOM      5  C   UNL     1      16.532  17.615  30.002  1.00  0.00     0.059 A 
ATOM      6  C   UNL     1      17.766  18.230  29.717  1.00  0.00     0.116 A 
ATOM      7  C   UNL     1      18.448  18.959  30.723  1.00  0.00     0.047 A 
ATOM      8  C   UNL     1      17.903  19.078  32.014  1.00  0.00     0.020 A 
ATOM      9  C   UNL     1      16.680  18.456  32.260  1.00  0.00     0.067 A 
ENDROOT
BRANCH   1  10
ATOM     10  O   UNL     1      16.173  18.958  34.630  1.00  0.00    -0.480 OA
ATOM     11  H   UNL     1      17.104  19.281  34.862  1.00  0.00     0.297 HD
ENDBRANCH   1  10
BRANCH   3  12
ATOM     12  C   UNL     1      13.816  16.463  31.224  1.00  0.00     0.043 C 
ATOM     13  C   UNL     1      12.529  16.821  31.245  1.00  0.00    -0.023 C 
BRANCH  13  14
ATOM     14  C   UNL     1      11.473  15.996  30.567  1.00  0.00     0.024 C 
ATOM     15  C   UNL     1      12.089  14.839  29.786  1.00  0.00     0.008 C 
ENDBRANCH  13  14
ENDBRANCH   3  12
BRANCH   6  16
ATOM     16  O   UNL     1      18.308  18.114  28.439  1.00  0.00    -0.508 OA
ATOM     17  H   UNL     1      19.029  18.746  28.111  1.00  0.00     0.293 HD
ENDBRANCH   6  16
TORSDOF 4
ENDMDL
MODEL 9
REMARK VINA RESULT:    -4.277      2.315      5.341
REMARK INTER + INTRA:          -5.252
REMARK INTER:                  -5.025
REMARK INTRA:                  -0.227
REMARK UNBOUND:                -0.225
REMARK SMILES CCC=Cc1oc(O)c2ccc(O)cc12
REMARK SMILES IDX 7 1 6 2 5 3 15 4 14 5 12 6 11 7 10 8 9 9 8 10 4 12 3 13 2 14
REMARK SMILES IDX 1 15 13 16
REMARK H PARENT 8 11 13 17
REMARK Flexibility Score: inf
ROOT
ATOM      1  C   UNL     1      10.295  15.498  32.673  1.00  0.00     0.290 A 
ATOM      2  O   UNL     1      11.433  16.160  32.584  1.00  0.00    -0.425 OA
ATOM      3  C   UNL     1      11.857  16.109  31.333  1.00  0.00     0.138 A 
ATOM      4  C   UNL     1      10.952  15.382  30.579  1.00  0.00     0.035 A 
ATOM      5  C   UNL     1      10.930  15.040  29.226  1.00  0.00     0.059 A 
ATOM      6  C   UNL     1       9.844  14.275  28.757  1.00  0.00     0.116 A 
ATOM      7  C   UNL     1       8.817  13.875  29.647  1.00  0.00     0.047 A 
ATOM      8  C   UNL     1       8.868  14.236  31.006  1.00  0.00     0.020 A 
ATOM      9  C   UNL     1       9.956  14.993  31.435  1.00  0.00     0.067 A 
ENDROOT
BRANCH   1  10
ATOM     10  O   UNL     1       9.573  15.352  33.853  1.00  0.00    -0.480 OA
ATOM     11  H   UNL     1       9.525  16.097  34.536  1.00  0.00     0.297 HD
ENDBRANCH   1  10
BRANCH   3  12
ATOM     12  C   UNL     1      13.098  16.735  30.845  1.00  0.00     0.043 C 
ATOM     13  C   UNL     1      14.176  16.850  31.625  1.00  0.00    -0.023 C 
BRANCH  13  14
ATOM     14  C   UNL     1      15.445  17.476  31.123  1.00  0.00     0.024 C 
ATOM     15  C   UNL     1      15.423  17.637  29.606  1.00  0.00     0.008 C 
ENDBRANCH  13  14
ENDBRANCH   3  12
BRANCH   6  16
ATOM     16  O   UNL     1       9.792  13.917  27.412  1.00  0.00    -0.508 OA
ATOM     17  H   UNL     1      10.587  14.049  26.798  1.00  0.00     0.293 HD
ENDBRANCH   6  16
TORSDOF 4
ENDMDL
