MODEL 1
REMARK VINA RESULT:    -3.788      0.000      0.000
REMARK INTER + INTRA:          -4.282
REMARK INTER:                  -4.009
REMARK INTRA:                  -0.273
REMARK UNBOUND:                -0.273
REMARK SMILES CC1=C[C@@H]2C(=C(C)CC[C@H]2C(C)C)CC1
REMARK SMILES IDX 1 1 2 2 3 3 4 4 10 5 9 6 8 7 6 8 5 9 14 10 15 11 7 12 11 13
REMARK SMILES IDX 12 14 13 15
REMARK H PARENT
REMARK Flexibility Score: inf
ROOT
ATOM      1  C   UNL     1      53.122  33.236  26.435  1.00  0.00     0.039 C 
ATOM      2  C   UNL     1      52.913  31.749  26.536  1.00  0.00    -0.076 C 
ATOM      3  C   UNL     1      53.959  30.919  26.332  1.00  0.00    -0.020 C 
ATOM      4  C   UNL     1      53.862  29.397  26.353  1.00  0.00     0.041 C 
ATOM      5  C   UNL     1      54.926  28.745  27.292  1.00  0.00     0.003 C 
ATOM      6  C   UNL     1      54.691  27.221  27.281  1.00  0.00     0.009 C 
ATOM      7  C   UNL     1      53.319  26.875  27.848  1.00  0.00     0.031 C 
ATOM      8  C   UNL     1      52.198  27.726  27.291  1.00  0.00    -0.073 C 
ATOM      9  C   UNL     1      52.440  28.927  26.689  1.00  0.00    -0.064 C 
ATOM     10  C   UNL     1      51.322  29.846  26.240  1.00  0.00     0.036 C 
ATOM     11  C   UNL     1      51.543  31.213  26.878  1.00  0.00     0.035 C 
ATOM     12  C   UNL     1      50.794  27.245  27.577  1.00  0.00     0.039 C 
ENDROOT
BRANCH   5  13
ATOM     13  C   UNL     1      56.437  29.037  26.966  1.00  0.00    -0.013 C 
ATOM     14  C   UNL     1      57.161  29.897  28.014  1.00  0.00     0.007 C 
ATOM     15  C   UNL     1      57.240  27.769  26.623  1.00  0.00     0.007 C 
ENDBRANCH   5  13
TORSDOF 1
ENDMDL
MODEL 2
REMARK VINA RESULT:    -3.767      4.847      5.992
REMARK INTER + INTRA:          -4.260
REMARK INTER:                  -3.984
REMARK INTRA:                  -0.275
REMARK UNBOUND:                -0.273
REMARK SMILES CC1=C[C@@H]2C(=C(C)CC[C@H]2C(C)C)CC1
REMARK SMILES IDX 1 1 2 2 3 3 4 4 10 5 9 6 8 7 6 8 5 9 14 10 15 11 7 12 11 13
REMARK SMILES IDX 12 14 13 15
REMARK H PARENT
REMARK Flexibility Score: inf
ROOT
ATOM      1  C   UNL     1      52.937  35.894  28.660  1.00  0.00     0.039 C 
ATOM      2  C   UNL     1      51.869  34.848  28.840  1.00  0.00    -0.076 C 
ATOM      3  C   UNL     1      51.221  34.372  27.755  1.00  0.00    -0.020 C 
ATOM      4  C   UNL     1      50.086  33.355  27.813  1.00  0.00     0.041 C 
ATOM      5  C   UNL     1      50.322  32.143  26.855  1.00  0.00     0.003 C 
ATOM      6  C   UNL     1      49.150  31.160  27.046  1.00  0.00     0.009 C 
ATOM      7  C   UNL     1      49.123  30.610  28.468  1.00  0.00     0.031 C 
ATOM      8  C   UNL     1      49.280  31.672  29.534  1.00  0.00    -0.073 C 
ATOM      9  C   UNL     1      49.809  32.899  29.252  1.00  0.00    -0.064 C 
ATOM     10  C   UNL     1      50.088  33.927  30.330  1.00  0.00     0.036 C 
ATOM     11  C   UNL     1      51.552  34.341  30.226  1.00  0.00     0.035 C 
ATOM     12  C   UNL     1      48.964  31.246  30.949  1.00  0.00     0.039 C 
ENDROOT
BRANCH   5  13
ATOM     13  C   UNL     1      50.481  32.466  25.324  1.00  0.00    -0.013 C 
ATOM     14  C   UNL     1      50.863  31.259  24.453  1.00  0.00     0.007 C 
ATOM     15  C   UNL     1      49.281  33.229  24.736  1.00  0.00     0.007 C 
ENDBRANCH   5  13
TORSDOF 1
ENDMDL
MODEL 3
REMARK VINA RESULT:    -3.760      3.616      5.939
REMARK INTER + INTRA:          -4.253
REMARK INTER:                  -3.979
REMARK INTRA:                  -0.273
REMARK UNBOUND:                -0.273
REMARK SMILES CC1=C[C@@H]2C(=C(C)CC[C@H]2C(C)C)CC1
REMARK SMILES IDX 1 1 2 2 3 3 4 4 10 5 9 6 8 7 6 8 5 9 14 10 15 11 7 12 11 13
REMARK SMILES IDX 12 14 13 15
REMARK H PARENT
REMARK Flexibility Score: inf
ROOT
ATOM      1  C   UNL     1      52.224  31.357  24.919  1.00  0.00     0.039 C 
ATOM      2  C   UNL     1      51.673  31.844  26.233  1.00  0.00    -0.076 C 
ATOM      3  C   UNL     1      50.653  31.173  26.811  1.00  0.00    -0.020 C 
ATOM      4  C   UNL     1      49.975  31.598  28.109  1.00  0.00     0.041 C 
ATOM      5  C   UNL     1      49.894  30.434  29.148  1.00  0.00     0.003 C 
ATOM      6  C   UNL     1      49.252  30.994  30.432  1.00  0.00     0.009 C 
ATOM      7  C   UNL     1      50.122  32.086  31.047  1.00  0.00     0.031 C 
ATOM      8  C   UNL     1      50.612  33.109  30.046  1.00  0.00    -0.073 C 
ATOM      9  C   UNL     1      50.632  32.850  28.706  1.00  0.00    -0.064 C 
ATOM     10  C   UNL     1      51.235  33.814  27.705  1.00  0.00     0.036 C 
ATOM     11  C   UNL     1      52.279  33.062  26.887  1.00  0.00     0.035 C 
ATOM     12  C   UNL     1      51.218  34.367  30.624  1.00  0.00     0.039 C 
ENDROOT
BRANCH   5  13
ATOM     13  C   UNL     1      49.119  29.138  28.706  1.00  0.00    -0.013 C 
ATOM     14  C   UNL     1      50.000  27.887  28.555  1.00  0.00     0.007 C 
ATOM     15  C   UNL     1      47.875  28.852  29.566  1.00  0.00     0.007 C 
ENDBRANCH   5  13
TORSDOF 1
ENDMDL
MODEL 4
REMARK VINA RESULT:    -3.668      3.311      5.824
REMARK INTER + INTRA:          -4.155
REMARK INTER:                  -3.945
REMARK INTRA:                  -0.209
REMARK UNBOUND:                -0.273
REMARK SMILES CC1=C[C@@H]2C(=C(C)CC[C@H]2C(C)C)CC1
REMARK SMILES IDX 1 1 2 2 3 3 4 4 10 5 9 6 8 7 6 8 5 9 14 10 15 11 7 12 11 13
REMARK SMILES IDX 12 14 13 15
REMARK H PARENT
REMARK Flexibility Score: inf
ROOT
ATOM      1  C   UNL     1      52.434  32.125  25.539  1.00  0.00     0.039 C 
ATOM      2  C   UNL     1      51.651  31.380  26.586  1.00  0.00    -0.076 C 
ATOM      3  C   UNL     1      51.243  32.033  27.696  1.00  0.00    -0.020 C 
ATOM      4  C   UNL     1      50.492  31.376  28.850  1.00  0.00     0.041 C 
ATOM      5  C   UNL     1      49.192  32.152  29.234  1.00  0.00     0.003 C 
ATOM      6  C   UNL     1      48.491  31.366  30.359  1.00  0.00     0.009 C 
ATOM      7  C   UNL     1      48.064  29.983  29.876  1.00  0.00     0.031 C 
ATOM      8  C   UNL     1      49.144  29.242  29.120  1.00  0.00    -0.073 C 
ATOM      9  C   UNL     1      50.210  29.894  28.568  1.00  0.00    -0.064 C 
ATOM     10  C   UNL     1      51.231  29.184  27.702  1.00  0.00     0.036 C 
ATOM     11  C   UNL     1      51.323  29.922  26.371  1.00  0.00     0.035 C 
ATOM     12  C   UNL     1      48.897  27.771  28.878  1.00  0.00     0.039 C 
ENDROOT
BRANCH   5  13
ATOM     13  C   UNL     1      49.363  33.651  29.680  1.00  0.00    -0.013 C 
ATOM     14  C   UNL     1      48.085  34.301  30.235  1.00  0.00     0.007 C 
ATOM     15  C   UNL     1      50.562  33.872  30.618  1.00  0.00     0.007 C 
ENDBRANCH   5  13
TORSDOF 1
ENDMDL
MODEL 5
REMARK VINA RESULT:    -3.666      3.390      6.157
REMARK INTER + INTRA:          -4.153
REMARK INTER:                  -3.889
REMARK INTRA:                  -0.263
REMARK UNBOUND:                -0.273
REMARK SMILES CC1=C[C@@H]2C(=C(C)CC[C@H]2C(C)C)CC1
REMARK SMILES IDX 1 1 2 2 3 3 4 4 10 5 9 6 8 7 6 8 5 9 14 10 15 11 7 12 11 13
REMARK SMILES IDX 12 14 13 15
REMARK H PARENT
REMARK Flexibility Score: inf
ROOT
ATOM      1  C   UNL     1      47.875  28.641  29.482  1.00  0.00     0.039 C 
ATOM      2  C   UNL     1      48.755  29.861  29.516  1.00  0.00    -0.076 C 
ATOM      3  C   UNL     1      49.633  30.071  28.511  1.00  0.00    -0.020 C 
ATOM      4  C   UNL     1      50.613  31.238  28.459  1.00  0.00     0.041 C 
ATOM      5  C   UNL     1      50.544  32.016  27.107  1.00  0.00     0.003 C 
ATOM      6  C   UNL     1      51.526  33.201  27.195  1.00  0.00     0.009 C 
ATOM      7  C   UNL     1      51.112  34.173  28.295  1.00  0.00     0.031 C 
ATOM      8  C   UNL     1      50.762  33.499  29.604  1.00  0.00    -0.073 C 
ATOM      9  C   UNL     1      50.442  32.173  29.665  1.00  0.00    -0.064 C 
ATOM     10  C   UNL     1      49.968  31.514  30.944  1.00  0.00     0.036 C 
ATOM     11  C   UNL     1      48.633  30.834  30.664  1.00  0.00     0.035 C 
ATOM     12  C   UNL     1      50.637  34.406  30.806  1.00  0.00     0.039 C 
ENDROOT
BRANCH   5  13
ATOM     13  C   UNL     1      50.842  31.196  25.797  1.00  0.00    -0.013 C 
ATOM     14  C   UNL     1      50.732  32.008  24.497  1.00  0.00     0.007 C 
ATOM     15  C   UNL     1      52.162  30.407  25.862  1.00  0.00     0.007 C 
ENDBRANCH   5  13
TORSDOF 1
ENDMDL
MODEL 6
REMARK VINA RESULT:    -3.587      3.186      6.282
REMARK INTER + INTRA:          -4.069
REMARK INTER:                  -3.799
REMARK INTRA:                  -0.271
REMARK UNBOUND:                -0.273
REMARK SMILES CC1=C[C@@H]2C(=C(C)CC[C@H]2C(C)C)CC1
REMARK SMILES IDX 1 1 2 2 3 3 4 4 10 5 9 6 8 7 6 8 5 9 14 10 15 11 7 12 11 13
REMARK SMILES IDX 12 14 13 15
REMARK H PARENT
REMARK Flexibility Score: inf
ROOT
ATOM      1  C   UNL     1      54.115  31.114  26.151  1.00  0.00     0.039 C 
ATOM      2  C   UNL     1      52.719  31.668  26.055  1.00  0.00    -0.076 C 
ATOM      3  C   UNL     1      51.962  31.749  27.171  1.00  0.00    -0.020 C 
ATOM      4  C   UNL     1      50.518  32.239  27.194  1.00  0.00     0.041 C 
ATOM      5  C   UNL     1      50.283  33.353  28.264  1.00  0.00     0.003 C 
ATOM      6  C   UNL     1      48.815  33.810  28.151  1.00  0.00     0.009 C 
ATOM      7  C   UNL     1      48.540  34.433  26.786  1.00  0.00     0.031 C 
ATOM      8  C   UNL     1      49.075  33.621  25.628  1.00  0.00    -0.073 C 
ATOM      9  C   UNL     1      50.049  32.680  25.800  1.00  0.00    -0.064 C 
ATOM     10  C   UNL     1      50.683  31.949  24.634  1.00  0.00     0.036 C 
ATOM     11  C   UNL     1      52.194  32.134  24.719  1.00  0.00     0.035 C 
ATOM     12  C   UNL     1      48.583  34.016  24.254  1.00  0.00     0.039 C 
ENDROOT
BRANCH   5  13
ATOM     13  C   UNL     1      50.593  32.979  29.761  1.00  0.00    -0.013 C 
ATOM     14  C   UNL     1      51.017  34.166  30.640  1.00  0.00     0.007 C 
ATOM     15  C   UNL     1      49.477  32.154  30.424  1.00  0.00     0.007 C 
ENDBRANCH   5  13
TORSDOF 1
ENDMDL
MODEL 7
REMARK VINA RESULT:    -3.585      1.321      4.535
REMARK INTER + INTRA:          -4.067
REMARK INTER:                  -3.994
REMARK INTRA:                  -0.073
REMARK UNBOUND:                -0.273
REMARK SMILES CC1=C[C@@H]2C(=C(C)CC[C@H]2C(C)C)CC1
REMARK SMILES IDX 1 1 2 2 3 3 4 4 10 5 9 6 8 7 6 8 5 9 14 10 15 11 7 12 11 13
REMARK SMILES IDX 12 14 13 15
REMARK H PARENT
REMARK Flexibility Score: inf
ROOT
ATOM      1  C   UNL     1      51.169  28.314  28.533  1.00  0.00     0.039 C 
ATOM      2  C   UNL     1      52.462  28.276  27.764  1.00  0.00    -0.076 C 
ATOM      3  C   UNL     1      52.636  29.116  26.721  1.00  0.00    -0.020 C 
ATOM      4  C   UNL     1      53.875  29.135  25.832  1.00  0.00     0.041 C 
ATOM      5  C   UNL     1      54.482  30.567  25.685  1.00  0.00     0.003 C 
ATOM      6  C   UNL     1      55.755  30.451  24.824  1.00  0.00     0.009 C 
ATOM      7  C   UNL     1      56.805  29.587  25.515  1.00  0.00     0.031 C 
ATOM      8  C   UNL     1      56.257  28.291  26.071  1.00  0.00    -0.073 C 
ATOM      9  C   UNL     1      54.923  28.118  26.305  1.00  0.00    -0.064 C 
ATOM     10  C   UNL     1      54.375  26.875  26.977  1.00  0.00     0.036 C 
ATOM     11  C   UNL     1      53.545  27.310  28.179  1.00  0.00     0.035 C 
ATOM     12  C   UNL     1      57.281  27.264  26.496  1.00  0.00     0.039 C 
ENDROOT
BRANCH   5  13
ATOM     13  C   UNL     1      53.547  31.677  25.076  1.00  0.00    -0.013 C 
ATOM     14  C   UNL     1      52.648  31.194  23.926  1.00  0.00     0.007 C 
ATOM     15  C   UNL     1      52.741  32.442  26.141  1.00  0.00     0.007 C 
ENDBRANCH   5  13
TORSDOF 1
ENDMDL
MODEL 8
REMARK VINA RESULT:    -3.555      2.717      4.390
REMARK INTER + INTRA:          -4.036
REMARK INTER:                  -3.765
REMARK INTRA:                  -0.270
REMARK UNBOUND:                -0.273
REMARK SMILES CC1=C[C@@H]2C(=C(C)CC[C@H]2C(C)C)CC1
REMARK SMILES IDX 1 1 2 2 3 3 4 4 10 5 9 6 8 7 6 8 5 9 14 10 15 11 7 12 11 13
REMARK SMILES IDX 12 14 13 15
REMARK H PARENT
REMARK Flexibility Score: inf
ROOT
ATOM      1  C   UNL     1      50.868  34.033  30.773  1.00  0.00     0.039 C 
ATOM      2  C   UNL     1      50.422  32.800  30.035  1.00  0.00    -0.076 C 
ATOM      3  C   UNL     1      50.793  32.630  28.747  1.00  0.00    -0.020 C 
ATOM      4  C   UNL     1      50.360  31.454  27.879  1.00  0.00     0.041 C 
ATOM      5  C   UNL     1      51.569  30.749  27.184  1.00  0.00     0.003 C 
ATOM      6  C   UNL     1      51.019  29.547  26.390  1.00  0.00     0.009 C 
ATOM      7  C   UNL     1      50.377  28.524  27.322  1.00  0.00     0.031 C 
ATOM      8  C   UNL     1      49.441  29.134  28.342  1.00  0.00    -0.073 C 
ATOM      9  C   UNL     1      49.496  30.459  28.665  1.00  0.00    -0.064 C 
ATOM     10  C   UNL     1      48.651  31.057  29.773  1.00  0.00     0.036 C 
ATOM     11  C   UNL     1      49.580  31.770  30.749  1.00  0.00     0.035 C 
ATOM     12  C   UNL     1      48.551  28.167  29.089  1.00  0.00     0.039 C 
ENDROOT
BRANCH   5  13
ATOM     13  C   UNL     1      52.458  31.633  26.232  1.00  0.00    -0.013 C 
ATOM     14  C   UNL     1      53.940  31.230  26.188  1.00  0.00     0.007 C 
ATOM     15  C   UNL     1      51.870  31.782  24.818  1.00  0.00     0.007 C 
ENDBRANCH   5  13
TORSDOF 1
ENDMDL
MODEL 9
REMARK VINA RESULT:    -3.495     20.699     22.831
REMARK INTER + INTRA:          -3.972
REMARK INTER:                  -3.704
REMARK INTRA:                  -0.268
REMARK UNBOUND:                -0.273
REMARK SMILES CC1=C[C@@H]2C(=C(C)CC[C@H]2C(C)C)CC1
REMARK SMILES IDX 1 1 2 2 3 3 4 4 10 5 9 6 8 7 6 8 5 9 14 10 15 11 7 12 11 13
REMARK SMILES IDX 12 14 13 15
REMARK H PARENT
REMARK Flexibility Score: inf
ROOT
ATOM      1  C   UNL     1      62.178  37.389  43.956  1.00  0.00     0.039 C 
ATOM      2  C   UNL     1      62.919  38.649  43.597  1.00  0.00    -0.076 C 
ATOM      3  C   UNL     1      62.221  39.733  43.192  1.00  0.00    -0.020 C 
ATOM      4  C   UNL     1      62.859  41.046  42.751  1.00  0.00     0.041 C 
ATOM      5  C   UNL     1      62.252  42.282  43.490  1.00  0.00     0.003 C 
ATOM      6  C   UNL     1      63.012  43.535  43.012  1.00  0.00     0.009 C 
ATOM      7  C   UNL     1      64.486  43.460  43.396  1.00  0.00     0.031 C 
ATOM      8  C   UNL     1      65.131  42.129  43.079  1.00  0.00    -0.073 C 
ATOM      9  C   UNL     1      64.388  41.001  42.875  1.00  0.00    -0.064 C 
ATOM     10  C   UNL     1      65.022  39.639  42.682  1.00  0.00     0.036 C 
ATOM     11  C   UNL     1      64.424  38.684  43.708  1.00  0.00     0.035 C 
ATOM     12  C   UNL     1      66.640  42.086  43.152  1.00  0.00     0.039 C 
ENDROOT
BRANCH   5  13
ATOM     13  C   UNL     1      60.706  42.521  43.325  1.00  0.00    -0.013 C 
ATOM     14  C   UNL     1      60.156  43.713  44.125  1.00  0.00     0.007 C 
ATOM     15  C   UNL     1      60.253  42.569  41.856  1.00  0.00     0.007 C 
ENDBRANCH   5  13
TORSDOF 1
ENDMDL
