MODEL 1
REMARK VINA RESULT:    -8.341      0.000      0.000
REMARK INTER + INTRA:         -16.617
REMARK INTER:                 -13.704
REMARK INTRA:                  -2.913
REMARK UNBOUND:                -2.913
REMARK SMILES C[C@H]1O[C@@H](OC[C@H]2O[C@H](Oc3c(-c4ccc(O)c(O)c4)oc4cc(O)cc(O)c4c3=O)[C@H](O)[C@H](O)[C@@H]2O)[C@H](O)[C@H](O)[C@H]1O
REMARK SMILES IDX 7 1 36 2 34 3 32 4 9 5 8 6 6 7 5 8 4 9 1 10 2 11 42 12 3 13
REMARK SMILES IDX 40 14 38 15 43 16 41 18 39 20 37 22 35 24 10 26 11 27 12 28
REMARK SMILES IDX 30 29 21 30 29 31 31 32 22 33 27 34 23 35 26 36 24 37 13 38
REMARK SMILES IDX 20 39 14 40 18 41 15 42 16 43 19 44 17 46 28 48 25 50 33 52
REMARK H PARENT 43 17 41 19 39 21 37 23 35 25 19 45 17 47 28 49 25 51 33 53
REMARK Flexibility Score: inf
ROOT
ATOM      1  C   UNL     1      14.844  -0.687  24.456  1.00  0.00     0.180 C 
ATOM      2  C   UNL     1      14.189  -1.417  23.254  1.00  0.00     0.177 C 
ATOM      3  C   UNL     1      12.659  -1.443  23.389  1.00  0.00     0.180 C 
ATOM      4  C   UNL     1      12.228  -1.890  24.797  1.00  0.00     0.214 C 
ATOM      5  C   UNL     1      12.990  -1.091  25.876  1.00  0.00     0.339 C 
ATOM      6  O   UNL     1      14.397  -1.198  25.709  1.00  0.00    -0.332 OA
ENDROOT
BRANCH   1   7
ATOM      7  C   UNL     1      14.740   0.849  24.372  1.00  0.00     0.198 C 
BRANCH   7   8
ATOM      8  O   UNL     1      16.038   1.412  24.369  1.00  0.00    -0.347 OA
BRANCH   8   9
ATOM      9  C   UNL     1      16.068   2.642  25.081  1.00  0.00     0.281 C 
ATOM     10  C   UNL     1      18.846   1.305  24.831  1.00  0.00     0.041 C 
ATOM     11  C   UNL     1      18.401   2.554  25.613  1.00  0.00     0.150 C 
ATOM     12  C   UNL     1      18.113   2.308  27.116  1.00  0.00     0.174 C 
ATOM     13  O   UNL     1      17.347   3.252  24.958  1.00  0.00    -0.344 OA
ATOM     14  C   UNL     1      16.743   1.644  27.324  1.00  0.00     0.179 C 
ATOM     15  C   UNL     1      15.654   2.413  26.552  1.00  0.00     0.202 C 
BRANCH  12  16
ATOM     16  O   UNL     1      19.146   1.573  27.727  1.00  0.00    -0.388 OA
ATOM     17  H   UNL     1      19.010   1.600  28.708  1.00  0.00     0.211 HD
ENDBRANCH  12  16
BRANCH  14  18
ATOM     18  O   UNL     1      16.442   1.616  28.693  1.00  0.00    -0.387 OA
ATOM     19  H   UNL     1      15.665   2.216  28.833  1.00  0.00     0.211 HD
ENDBRANCH  14  18
BRANCH  15  20
ATOM     20  O   UNL     1      15.321   3.626  27.192  1.00  0.00    -0.385 OA
ATOM     21  H   UNL     1      14.865   3.415  28.046  1.00  0.00     0.211 HD
ENDBRANCH  15  20
ENDBRANCH   8   9
ENDBRANCH   7   8
ENDBRANCH   1   7
BRANCH   2  22
ATOM     22  O   UNL     1      14.685  -2.732  23.179  1.00  0.00    -0.387 OA
ATOM     23  H   UNL     1      15.635  -2.674  22.901  1.00  0.00     0.211 HD
ENDBRANCH   2  22
BRANCH   3  24
ATOM     24  O   UNL     1      12.108  -2.286  22.410  1.00  0.00    -0.387 OA
ATOM     25  H   UNL     1      11.159  -2.435  22.665  1.00  0.00     0.211 HD
ENDBRANCH   3  24
BRANCH   5  26
ATOM     26  O   UNL     1      12.628  -1.625  27.149  1.00  0.00    -0.454 OA
BRANCH  26  27
ATOM     27  C   UNL     1      13.492  -1.862  28.234  1.00  0.00     0.214 A 
ATOM     28  C   UNL     1      13.500  -0.941  29.298  1.00  0.00     0.180 A 
ATOM     29  C   UNL     1      14.364  -2.971  28.295  1.00  0.00     0.239 A 
ATOM     30  O   UNL     1      14.353  -1.093  30.302  1.00  0.00    -0.452 OA
ATOM     31  C   UNL     1      15.286  -3.088  29.367  1.00  0.00     0.111 A 
ATOM     32  O   UNL     1      14.283  -3.857  27.408  1.00  0.00    -0.285 OA
ATOM     33  C   UNL     1      15.219  -2.092  30.380  1.00  0.00     0.146 A 
ATOM     34  C   UNL     1      16.259  -4.127  29.504  1.00  0.00     0.134 A 
ATOM     35  C   UNL     1      16.067  -2.144  31.488  1.00  0.00     0.094 A 
ATOM     36  C   UNL     1      17.075  -4.163  30.643  1.00  0.00     0.093 A 
ATOM     37  C   UNL     1      16.989  -3.179  31.625  1.00  0.00     0.123 A 
BRANCH  28  38
ATOM     38  C   UNL     1      12.605   0.240  29.315  1.00  0.00     0.025 A 
ATOM     39  C   UNL     1      13.039   1.499  28.864  1.00  0.00     0.062 A 
ATOM     40  C   UNL     1      11.281   0.093  29.764  1.00  0.00     0.016 A 
ATOM     41  C   UNL     1      12.179   2.604  28.902  1.00  0.00     0.158 A 
ATOM     42  C   UNL     1      10.421   1.194  29.801  1.00  0.00     0.051 A 
ATOM     43  C   UNL     1      10.866   2.454  29.378  1.00  0.00     0.157 A 
BRANCH  41  44
ATOM     44  O   UNL     1      12.647   3.842  28.458  1.00  0.00    -0.504 OA
ATOM     45  H   UNL     1      12.019   4.566  28.133  1.00  0.00     0.293 HD
ENDBRANCH  41  44
BRANCH  43  46
ATOM     46  O   UNL     1      10.008   3.552  29.427  1.00  0.00    -0.504 OA
ATOM     47  H   UNL     1       9.831   4.045  30.292  1.00  0.00     0.293 HD
ENDBRANCH  43  46
ENDBRANCH  28  38
BRANCH  34  48
ATOM     48  O   UNL     1      16.486  -5.138  28.561  1.00  0.00    -0.507 OA
ATOM     49  H   UNL     1      16.475  -5.028  27.557  1.00  0.00     0.293 HD
ENDBRANCH  34  48
BRANCH  37  50
ATOM     50  O   UNL     1      17.831  -3.238  32.733  1.00  0.00    -0.508 OA
ATOM     51  H   UNL     1      17.522  -3.638  33.611  1.00  0.00     0.293 HD
ENDBRANCH  37  50
ENDBRANCH  26  27
ENDBRANCH   5  26
BRANCH   4  52
ATOM     52  O   UNL     1      12.372  -3.280  24.960  1.00  0.00    -0.384 OA
ATOM     53  H   UNL     1      11.508  -3.721  24.746  1.00  0.00     0.211 HD
ENDBRANCH   4  52
TORSDOF 16
ENDMDL
MODEL 2
REMARK VINA RESULT:    -8.193      3.156      4.931
REMARK INTER + INTRA:         -16.374
REMARK INTER:                 -13.988
REMARK INTRA:                  -2.386
REMARK UNBOUND:                -2.913
REMARK SMILES C[C@H]1O[C@@H](OC[C@H]2O[C@H](Oc3c(-c4ccc(O)c(O)c4)oc4cc(O)cc(O)c4c3=O)[C@H](O)[C@H](O)[C@@H]2O)[C@H](O)[C@H](O)[C@H]1O
REMARK SMILES IDX 7 1 36 2 34 3 32 4 9 5 8 6 6 7 5 8 4 9 1 10 2 11 42 12 3 13
REMARK SMILES IDX 40 14 38 15 43 16 41 18 39 20 37 22 35 24 10 26 11 27 12 28
REMARK SMILES IDX 30 29 21 30 29 31 31 32 22 33 27 34 23 35 26 36 24 37 13 38
REMARK SMILES IDX 20 39 14 40 18 41 15 42 16 43 19 44 17 46 28 48 25 50 33 52
REMARK H PARENT 43 17 41 19 39 21 37 23 35 25 19 45 17 47 28 49 25 51 33 53
REMARK Flexibility Score: inf
ROOT
ATOM      1  C   UNL     1      18.890  -1.339  26.252  1.00  0.00     0.180 C 
ATOM      2  C   UNL     1      19.324  -1.495  24.771  1.00  0.00     0.177 C 
ATOM      3  C   UNL     1      18.122  -1.829  23.874  1.00  0.00     0.180 C 
ATOM      4  C   UNL     1      17.272  -2.962  24.475  1.00  0.00     0.214 C 
ATOM      5  C   UNL     1      16.951  -2.671  25.957  1.00  0.00     0.339 C 
ATOM      6  O   UNL     1      18.134  -2.455  26.715  1.00  0.00    -0.332 OA
ENDROOT
BRANCH   1   7
ATOM      7  C   UNL     1      18.201   0.007  26.551  1.00  0.00     0.198 C 
BRANCH   7   8
ATOM      8  O   UNL     1      19.154   0.926  27.051  1.00  0.00    -0.347 OA
BRANCH   8   9
ATOM      9  C   UNL     1      19.944   0.343  28.078  1.00  0.00     0.281 C 
ATOM     10  C   UNL     1      18.618   3.007  28.920  1.00  0.00     0.041 C 
ATOM     11  C   UNL     1      19.638   2.119  29.655  1.00  0.00     0.150 C 
ATOM     12  C   UNL     1      21.112   2.577  29.519  1.00  0.00     0.174 C 
ATOM     13  O   UNL     1      19.461   0.738  29.356  1.00  0.00    -0.344 OA
ATOM     14  C   UNL     1      21.699   2.186  28.155  1.00  0.00     0.179 C 
ATOM     15  C   UNL     1      21.434   0.696  27.866  1.00  0.00     0.202 C 
BRANCH  12  16
ATOM     16  O   UNL     1      21.250   3.955  29.769  1.00  0.00    -0.388 OA
ATOM     17  H   UNL     1      21.978   4.306  29.195  1.00  0.00     0.211 HD
ENDBRANCH  12  16
BRANCH  14  18
ATOM     18  O   UNL     1      23.077   2.446  28.148  1.00  0.00    -0.387 OA
ATOM     19  H   UNL     1      23.384   2.365  27.208  1.00  0.00     0.211 HD
ENDBRANCH  14  18
BRANCH  15  20
ATOM     20  O   UNL     1      22.278  -0.139  28.627  1.00  0.00    -0.385 OA
ATOM     21  H   UNL     1      21.842  -1.024  28.721  1.00  0.00     0.211 HD
ENDBRANCH  15  20
ENDBRANCH   8   9
ENDBRANCH   7   8
ENDBRANCH   1   7
BRANCH   2  22
ATOM     22  O   UNL     1      20.292  -2.511  24.672  1.00  0.00    -0.387 OA
ATOM     23  H   UNL     1      19.814  -3.355  24.466  1.00  0.00     0.211 HD
ENDBRANCH   2  22
BRANCH   3  24
ATOM     24  O   UNL     1      18.569  -2.173  22.587  1.00  0.00    -0.387 OA
ATOM     25  H   UNL     1      18.236  -3.092  22.407  1.00  0.00     0.211 HD
ENDBRANCH   3  24
BRANCH   5  26
ATOM     26  O   UNL     1      16.259  -3.803  26.482  1.00  0.00    -0.454 OA
BRANCH  26  27
ATOM     27  C   UNL     1      16.648  -4.584  27.587  1.00  0.00     0.214 A 
ATOM     28  C   UNL     1      16.313  -4.132  28.877  1.00  0.00     0.180 A 
ATOM     29  C   UNL     1      17.372  -5.788  27.460  1.00  0.00     0.239 A 
ATOM     30  O   UNL     1      16.726  -4.804  29.944  1.00  0.00    -0.452 OA
ATOM     31  C   UNL     1      17.826  -6.466  28.620  1.00  0.00     0.111 A 
ATOM     32  O   UNL     1      17.575  -6.257  26.312  1.00  0.00    -0.285 OA
ATOM     33  C   UNL     1      17.446  -5.914  29.874  1.00  0.00     0.146 A 
ATOM     34  C   UNL     1      18.620  -7.656  28.619  1.00  0.00     0.134 A 
ATOM     35  C   UNL     1      17.821  -6.531  31.069  1.00  0.00     0.094 A 
ATOM     36  C   UNL     1      18.956  -8.263  29.837  1.00  0.00     0.093 A 
ATOM     37  C   UNL     1      18.568  -7.707  31.053  1.00  0.00     0.123 A 
BRANCH  28  38
ATOM     38  C   UNL     1      15.542  -2.885  29.092  1.00  0.00     0.025 A 
ATOM     39  C   UNL     1      14.143  -2.852  28.959  1.00  0.00     0.062 A 
ATOM     40  C   UNL     1      16.222  -1.713  29.467  1.00  0.00     0.016 A 
ATOM     41  C   UNL     1      13.437  -1.658  29.154  1.00  0.00     0.158 A 
ATOM     42  C   UNL     1      15.520  -0.521  29.664  1.00  0.00     0.051 A 
ATOM     43  C   UNL     1      14.128  -0.484  29.502  1.00  0.00     0.157 A 
BRANCH  41  44
ATOM     44  O   UNL     1      12.050  -1.658  29.001  1.00  0.00    -0.504 OA
ATOM     45  H   UNL     1      11.451  -1.055  29.550  1.00  0.00     0.293 HD
ENDBRANCH  41  44
BRANCH  43  46
ATOM     46  O   UNL     1      13.432   0.709  29.688  1.00  0.00    -0.504 OA
ATOM     47  H   UNL     1      12.907   1.136  28.937  1.00  0.00     0.293 HD
ENDBRANCH  43  46
ENDBRANCH  28  38
BRANCH  34  48
ATOM     48  O   UNL     1      19.123  -8.279  27.469  1.00  0.00    -0.507 OA
ATOM     49  H   UNL     1      19.956  -8.013  26.964  1.00  0.00     0.293 HD
ENDBRANCH  34  48
BRANCH  37  50
ATOM     50  O   UNL     1      18.938  -8.329  32.243  1.00  0.00    -0.508 OA
ATOM     51  H   UNL     1      19.325  -9.266  32.252  1.00  0.00     0.293 HD
ENDBRANCH  37  50
ENDBRANCH  26  27
ENDBRANCH   5  26
BRANCH   4  52
ATOM     52  O   UNL     1      17.889  -4.215  24.297  1.00  0.00    -0.384 OA
ATOM     53  H   UNL     1      18.220  -4.538  25.176  1.00  0.00     0.211 HD
ENDBRANCH   4  52
TORSDOF 16
ENDMDL
MODEL 3
REMARK VINA RESULT:    -8.183      3.233      6.978
REMARK INTER + INTRA:         -16.358
REMARK INTER:                 -14.538
REMARK INTRA:                  -1.821
REMARK UNBOUND:                -2.913
REMARK SMILES C[C@H]1O[C@@H](OC[C@H]2O[C@H](Oc3c(-c4ccc(O)c(O)c4)oc4cc(O)cc(O)c4c3=O)[C@H](O)[C@H](O)[C@@H]2O)[C@H](O)[C@H](O)[C@H]1O
REMARK SMILES IDX 7 1 36 2 34 3 32 4 9 5 8 6 6 7 5 8 4 9 1 10 2 11 42 12 3 13
REMARK SMILES IDX 40 14 38 15 43 16 41 18 39 20 37 22 35 24 10 26 11 27 12 28
REMARK SMILES IDX 30 29 21 30 29 31 31 32 22 33 27 34 23 35 26 36 24 37 13 38
REMARK SMILES IDX 20 39 14 40 18 41 15 42 16 43 19 44 17 46 28 48 25 50 33 52
REMARK H PARENT 43 17 41 19 39 21 37 23 35 25 19 45 17 47 28 49 25 51 33 53
REMARK Flexibility Score: inf
ROOT
ATOM      1  C   UNL     1      14.129  -1.349  27.519  1.00  0.00     0.180 C 
ATOM      2  C   UNL     1      13.483  -1.720  26.159  1.00  0.00     0.177 C 
ATOM      3  C   UNL     1      13.581  -3.231  25.894  1.00  0.00     0.180 C 
ATOM      4  C   UNL     1      15.002  -3.756  26.158  1.00  0.00     0.214 C 
ATOM      5  C   UNL     1      15.510  -3.275  27.535  1.00  0.00     0.339 C 
ATOM      6  O   UNL     1      15.453  -1.859  27.648  1.00  0.00    -0.332 OA
ENDROOT
BRANCH   1   7
ATOM      7  C   UNL     1      13.242  -1.691  28.733  1.00  0.00     0.198 C 
BRANCH   7   8
ATOM      8  O   UNL     1      13.313  -0.644  29.682  1.00  0.00    -0.347 OA
BRANCH   8   9
ATOM      9  C   UNL     1      13.027   0.614  29.087  1.00  0.00     0.281 C 
ATOM     10  C   UNL     1      14.378   0.853  31.859  1.00  0.00     0.041 C 
ATOM     11  C   UNL     1      13.790   1.933  30.934  1.00  0.00     0.150 C 
ATOM     12  C   UNL     1      12.349   2.378  31.291  1.00  0.00     0.174 C 
ATOM     13  O   UNL     1      13.938   1.601  29.557  1.00  0.00    -0.344 OA
ATOM     14  C   UNL     1      11.309   1.352  30.815  1.00  0.00     0.179 C 
ATOM     15  C   UNL     1      11.550   0.995  29.336  1.00  0.00     0.202 C 
BRANCH  12  16
ATOM     16  O   UNL     1      12.218   2.651  32.666  1.00  0.00    -0.388 OA
ATOM     17  H   UNL     1      12.729   3.476  32.870  1.00  0.00     0.211 HD
ENDBRANCH  12  16
BRANCH  14  18
ATOM     18  O   UNL     1      10.021   1.880  30.985  1.00  0.00    -0.387 OA
ATOM     19  H   UNL     1       9.401   1.303  30.469  1.00  0.00     0.211 HD
ENDBRANCH  14  18
BRANCH  15  20
ATOM     20  O   UNL     1      11.130   2.031  28.475  1.00  0.00    -0.385 OA
ATOM     21  H   UNL     1      11.077   2.871  28.999  1.00  0.00     0.211 HD
ENDBRANCH  15  20
ENDBRANCH   8   9
ENDBRANCH   7   8
ENDBRANCH   1   7
BRANCH   2  22
ATOM     22  O   UNL     1      14.126  -1.012  25.127  1.00  0.00    -0.387 OA
ATOM     23  H   UNL     1      13.581  -0.205  24.939  1.00  0.00     0.211 HD
ENDBRANCH   2  22
BRANCH   3  24
ATOM     24  O   UNL     1      13.185  -3.510  24.575  1.00  0.00    -0.387 OA
ATOM     25  H   UNL     1      13.972  -3.917  24.124  1.00  0.00     0.211 HD
ENDBRANCH   3  24
BRANCH   5  26
ATOM     26  O   UNL     1      16.865  -3.701  27.672  1.00  0.00    -0.454 OA
BRANCH  26  27
ATOM     27  C   UNL     1      17.343  -4.714  28.525  1.00  0.00     0.214 A 
ATOM     28  C   UNL     1      17.867  -5.885  27.945  1.00  0.00     0.180 A 
ATOM     29  C   UNL     1      17.304  -4.617  29.932  1.00  0.00     0.239 A 
ATOM     30  O   UNL     1      18.258  -6.890  28.717  1.00  0.00    -0.452 OA
ATOM     31  C   UNL     1      17.700  -5.721  30.729  1.00  0.00     0.111 A 
ATOM     32  O   UNL     1      16.945  -3.533  30.456  1.00  0.00    -0.285 OA
ATOM     33  C   UNL     1      18.198  -6.861  30.040  1.00  0.00     0.146 A 
ATOM     34  C   UNL     1      17.645  -5.766  32.157  1.00  0.00     0.134 A 
ATOM     35  C   UNL     1      18.641  -7.983  30.743  1.00  0.00     0.094 A 
ATOM     36  C   UNL     1      18.123  -6.898  32.832  1.00  0.00     0.093 A 
ATOM     37  C   UNL     1      18.611  -8.001  32.137  1.00  0.00     0.123 A 
BRANCH  28  38
ATOM     38  C   UNL     1      17.954  -6.057  26.476  1.00  0.00     0.025 A 
ATOM     39  C   UNL     1      17.115  -6.951  25.788  1.00  0.00     0.062 A 
ATOM     40  C   UNL     1      18.879  -5.289  25.748  1.00  0.00     0.016 A 
ATOM     41  C   UNL     1      17.226  -7.106  24.401  1.00  0.00     0.158 A 
ATOM     42  C   UNL     1      18.990  -5.441  24.364  1.00  0.00     0.051 A 
ATOM     43  C   UNL     1      18.171  -6.354  23.684  1.00  0.00     0.157 A 
BRANCH  41  44
ATOM     44  O   UNL     1      16.385  -8.011  23.751  1.00  0.00    -0.504 OA
ATOM     45  H   UNL     1      15.492  -8.288  24.140  1.00  0.00     0.293 HD
ENDBRANCH  41  44
BRANCH  43  46
ATOM     46  O   UNL     1      18.293  -6.511  22.304  1.00  0.00    -0.504 OA
ATOM     47  H   UNL     1      19.102  -6.168  21.803  1.00  0.00     0.293 HD
ENDBRANCH  43  46
ENDBRANCH  28  38
BRANCH  34  48
ATOM     48  O   UNL     1      17.123  -4.749  32.968  1.00  0.00    -0.507 OA
ATOM     49  H   UNL     1      17.657  -4.054  33.469  1.00  0.00     0.293 HD
ENDBRANCH  34  48
BRANCH  37  50
ATOM     50  O   UNL     1      19.058  -9.116  32.842  1.00  0.00    -0.508 OA
ATOM     51  H   UNL     1      19.926  -9.097  33.365  1.00  0.00     0.293 HD
ENDBRANCH  37  50
ENDBRANCH  26  27
ENDBRANCH   5  26
BRANCH   4  52
ATOM     52  O   UNL     1      15.880  -3.408  25.114  1.00  0.00    -0.384 OA
ATOM     53  H   UNL     1      16.278  -4.237  24.740  1.00  0.00     0.211 HD
ENDBRANCH   4  52
TORSDOF 16
ENDMDL
MODEL 4
REMARK VINA RESULT:    -8.183      1.866      5.007
REMARK INTER + INTRA:         -16.358
REMARK INTER:                 -13.497
REMARK INTRA:                  -2.860
REMARK UNBOUND:                -2.913
REMARK SMILES C[C@H]1O[C@@H](OC[C@H]2O[C@H](Oc3c(-c4ccc(O)c(O)c4)oc4cc(O)cc(O)c4c3=O)[C@H](O)[C@H](O)[C@@H]2O)[C@H](O)[C@H](O)[C@H]1O
REMARK SMILES IDX 7 1 36 2 34 3 32 4 9 5 8 6 6 7 5 8 4 9 1 10 2 11 42 12 3 13
REMARK SMILES IDX 40 14 38 15 43 16 41 18 39 20 37 22 35 24 10 26 11 27 12 28
REMARK SMILES IDX 30 29 21 30 29 31 31 32 22 33 27 34 23 35 26 36 24 37 13 38
REMARK SMILES IDX 20 39 14 40 18 41 15 42 16 43 19 44 17 46 28 48 25 50 33 52
REMARK H PARENT 43 17 41 19 39 21 37 23 35 25 19 45 17 47 28 49 25 51 33 53
REMARK Flexibility Score: inf
ROOT
ATOM      1  C   UNL     1      14.565   2.811  28.261  1.00  0.00     0.180 C 
ATOM      2  C   UNL     1      13.625   3.684  29.133  1.00  0.00     0.177 C 
ATOM      3  C   UNL     1      13.560   3.156  30.575  1.00  0.00     0.180 C 
ATOM      4  C   UNL     1      13.328   1.635  30.605  1.00  0.00     0.214 C 
ATOM      5  C   UNL     1      14.322   0.918  29.665  1.00  0.00     0.339 C 
ATOM      6  O   UNL     1      14.246   1.425  28.340  1.00  0.00    -0.332 OA
ENDROOT
BRANCH   1   7
ATOM      7  C   UNL     1      16.062   3.089  28.506  1.00  0.00     0.198 C 
BRANCH   7   8
ATOM      8  O   UNL     1      16.838   2.069  27.907  1.00  0.00    -0.347 OA
BRANCH   8   9
ATOM      9  C   UNL     1      18.070   1.888  28.591  1.00  0.00     0.281 C 
ATOM     10  C   UNL     1      18.345   1.732  25.514  1.00  0.00     0.041 C 
ATOM     11  C   UNL     1      19.376   1.472  26.627  1.00  0.00     0.150 C 
ATOM     12  C   UNL     1      19.568  -0.021  26.996  1.00  0.00     0.174 C 
ATOM     13  O   UNL     1      19.156   2.296  27.767  1.00  0.00    -0.344 OA
ATOM     14  C   UNL     1      18.425  -0.532  27.884  1.00  0.00     0.179 C 
ATOM     15  C   UNL     1      18.200   0.425  29.071  1.00  0.00     0.202 C 
BRANCH  12  16
ATOM     16  O   UNL     1      19.732  -0.819  25.848  1.00  0.00    -0.388 OA
ATOM     17  H   UNL     1      20.146  -0.265  25.138  1.00  0.00     0.211 HD
ENDBRANCH  12  16
BRANCH  14  18
ATOM     18  O   UNL     1      18.734  -1.819  28.348  1.00  0.00    -0.387 OA
ATOM     19  H   UNL     1      18.646  -1.801  29.336  1.00  0.00     0.211 HD
ENDBRANCH  14  18
BRANCH  15  20
ATOM     20  O   UNL     1      19.210   0.288  30.047  1.00  0.00    -0.385 OA
ATOM     21  H   UNL     1      19.470  -0.667  30.097  1.00  0.00     0.211 HD
ENDBRANCH  15  20
ENDBRANCH   8   9
ENDBRANCH   7   8
ENDBRANCH   1   7
BRANCH   2  22
ATOM     22  O   UNL     1      12.336   3.692  28.568  1.00  0.00    -0.387 OA
ATOM     23  H   UNL     1      12.377   4.249  27.749  1.00  0.00     0.211 HD
ENDBRANCH   2  22
BRANCH   3  24
ATOM     24  O   UNL     1      12.548   3.826  31.283  1.00  0.00    -0.387 OA
ATOM     25  H   UNL     1      11.691   3.598  30.835  1.00  0.00     0.211 HD
ENDBRANCH   3  24
BRANCH   5  26
ATOM     26  O   UNL     1      13.986  -0.469  29.655  1.00  0.00    -0.454 OA
BRANCH  26  27
ATOM     27  C   UNL     1      14.887  -1.550  29.679  1.00  0.00     0.214 A 
ATOM     28  C   UNL     1      15.111  -2.262  28.486  1.00  0.00     0.180 A 
ATOM     29  C   UNL     1      15.562  -1.962  30.847  1.00  0.00     0.239 A 
ATOM     30  O   UNL     1      15.897  -3.330  28.487  1.00  0.00    -0.452 OA
ATOM     31  C   UNL     1      16.371  -3.127  30.824  1.00  0.00     0.111 A 
ATOM     32  O   UNL     1      15.458  -1.265  31.887  1.00  0.00    -0.285 OA
ATOM     33  C   UNL     1      16.515  -3.781  29.569  1.00  0.00     0.146 A 
ATOM     34  C   UNL     1      17.052  -3.679  31.955  1.00  0.00     0.134 A 
ATOM     35  C   UNL     1      17.317  -4.916  29.444  1.00  0.00     0.094 A 
ATOM     36  C   UNL     1      17.870  -4.804  31.787  1.00  0.00     0.093 A 
ATOM     37  C   UNL     1      17.999  -5.425  30.547  1.00  0.00     0.123 A 
BRANCH  28  38
ATOM     38  C   UNL     1      14.450  -1.883  27.215  1.00  0.00     0.025 A 
ATOM     39  C   UNL     1      13.127  -2.263  26.930  1.00  0.00     0.062 A 
ATOM     40  C   UNL     1      15.152  -1.099  26.283  1.00  0.00     0.016 A 
ATOM     41  C   UNL     1      12.529  -1.904  25.716  1.00  0.00     0.158 A 
ATOM     42  C   UNL     1      14.557  -0.738  25.072  1.00  0.00     0.051 A 
ATOM     43  C   UNL     1      13.247  -1.143  24.778  1.00  0.00     0.157 A 
BRANCH  41  44
ATOM     44  O   UNL     1      11.218  -2.309  25.460  1.00  0.00    -0.504 OA
ATOM     45  H   UNL     1      10.980  -3.278  25.288  1.00  0.00     0.293 HD
ENDBRANCH  41  44
BRANCH  43  46
ATOM     46  O   UNL     1      12.660  -0.791  23.563  1.00  0.00    -0.504 OA
ATOM     47  H   UNL     1      11.678  -0.952  23.387  1.00  0.00     0.293 HD
ENDBRANCH  43  46
ENDBRANCH  28  38
BRANCH  34  48
ATOM     48  O   UNL     1      16.956  -3.185  33.262  1.00  0.00    -0.507 OA
ATOM     49  H   UNL     1      17.226  -3.674  34.104  1.00  0.00     0.293 HD
ENDBRANCH  34  48
BRANCH  37  50
ATOM     50  O   UNL     1      18.806  -6.554  30.424  1.00  0.00    -0.508 OA
ATOM     51  H   UNL     1      18.596  -7.411  30.923  1.00  0.00     0.293 HD
ENDBRANCH  37  50
ENDBRANCH  26  27
ENDBRANCH   5  26
BRANCH   4  52
ATOM     52  O   UNL     1      11.990   1.314  30.314  1.00  0.00    -0.384 OA
ATOM     53  H   UNL     1      11.411   2.077  30.578  1.00  0.00     0.211 HD
ENDBRANCH   4  52
TORSDOF 16
ENDMDL
MODEL 5
REMARK VINA RESULT:    -8.179      3.139      5.595
REMARK INTER + INTRA:         -16.352
REMARK INTER:                 -13.595
REMARK INTRA:                  -2.756
REMARK UNBOUND:                -2.913
REMARK SMILES C[C@H]1O[C@@H](OC[C@H]2O[C@H](Oc3c(-c4ccc(O)c(O)c4)oc4cc(O)cc(O)c4c3=O)[C@H](O)[C@H](O)[C@@H]2O)[C@H](O)[C@H](O)[C@H]1O
REMARK SMILES IDX 7 1 36 2 34 3 32 4 9 5 8 6 6 7 5 8 4 9 1 10 2 11 42 12 3 13
REMARK SMILES IDX 40 14 38 15 43 16 41 18 39 20 37 22 35 24 10 26 11 27 12 28
REMARK SMILES IDX 30 29 21 30 29 31 31 32 22 33 27 34 23 35 26 36 24 37 13 38
REMARK SMILES IDX 20 39 14 40 18 41 15 42 16 43 19 44 17 46 28 48 25 50 33 52
REMARK H PARENT 43 17 41 19 39 21 37 23 35 25 19 45 17 47 28 49 25 51 33 53
REMARK Flexibility Score: inf
ROOT
ATOM      1  C   UNL     1      15.605  -1.154  23.596  1.00  0.00     0.180 C 
ATOM      2  C   UNL     1      14.353  -0.682  22.811  1.00  0.00     0.177 C 
ATOM      3  C   UNL     1      14.565   0.721  22.222  1.00  0.00     0.180 C 
ATOM      4  C   UNL     1      15.136   1.690  23.272  1.00  0.00     0.214 C 
ATOM      5  C   UNL     1      16.356   1.061  23.981  1.00  0.00     0.339 C 
ATOM      6  O   UNL     1      16.032  -0.196  24.560  1.00  0.00    -0.332 OA
ENDROOT
BRANCH   1   7
ATOM      7  C   UNL     1      16.754  -1.632  22.686  1.00  0.00     0.198 C 
BRANCH   7   8
ATOM      8  O   UNL     1      17.256  -2.866  23.165  1.00  0.00    -0.347 OA
BRANCH   8   9
ATOM      9  C   UNL     1      18.676  -2.870  23.192  1.00  0.00     0.281 C 
ATOM     10  C   UNL     1      17.424  -5.473  24.299  1.00  0.00     0.041 C 
ATOM     11  C   UNL     1      18.890  -5.003  24.259  1.00  0.00     0.150 C 
ATOM     12  C   UNL     1      19.400  -4.363  25.575  1.00  0.00     0.174 C 
ATOM     13  O   UNL     1      19.167  -4.203  23.114  1.00  0.00    -0.344 OA
ATOM     14  C   UNL     1      18.903  -2.918  25.728  1.00  0.00     0.179 C 
ATOM     15  C   UNL     1      19.185  -2.117  24.442  1.00  0.00     0.202 C 
BRANCH  12  16
ATOM     16  O   UNL     1      19.068  -5.149  26.695  1.00  0.00    -0.388 OA
ATOM     17  H   UNL     1      18.897  -4.544  27.461  1.00  0.00     0.211 HD
ENDBRANCH  12  16
BRANCH  14  18
ATOM     18  O   UNL     1      19.538  -2.319  26.825  1.00  0.00    -0.387 OA
ATOM     19  H   UNL     1      18.869  -1.732  27.263  1.00  0.00     0.211 HD
ENDBRANCH  14  18
BRANCH  15  20
ATOM     20  O   UNL     1      20.551  -1.784  24.327  1.00  0.00    -0.385 OA
ATOM     21  H   UNL     1      20.728  -1.507  23.392  1.00  0.00     0.211 HD
ENDBRANCH  15  20
ENDBRANCH   8   9
ENDBRANCH   7   8
ENDBRANCH   1   7
BRANCH   2  22
ATOM     22  O   UNL     1      13.238  -0.677  23.669  1.00  0.00    -0.387 OA
ATOM     23  H   UNL     1      12.719   0.146  23.474  1.00  0.00     0.211 HD
ENDBRANCH   2  22
BRANCH   3  24
ATOM     24  O   UNL     1      13.353   1.209  21.704  1.00  0.00    -0.387 OA
ATOM     25  H   UNL     1      12.637   0.899  22.319  1.00  0.00     0.211 HD
ENDBRANCH   3  24
BRANCH   5  26
ATOM     26  O   UNL     1      16.769   1.958  25.011  1.00  0.00    -0.454 OA
BRANCH  26  27
ATOM     27  C   UNL     1      17.723   1.700  26.014  1.00  0.00     0.214 A 
ATOM     28  C   UNL     1      17.337   1.846  27.359  1.00  0.00     0.180 A 
ATOM     29  C   UNL     1      19.052   1.320  25.730  1.00  0.00     0.239 A 
ATOM     30  O   UNL     1      18.229   1.682  28.328  1.00  0.00    -0.452 OA
ATOM     31  C   UNL     1      19.990   1.183  26.786  1.00  0.00     0.111 A 
ATOM     32  O   UNL     1      19.374   1.076  24.541  1.00  0.00    -0.285 OA
ATOM     33  C   UNL     1      19.497   1.370  28.107  1.00  0.00     0.146 A 
ATOM     34  C   UNL     1      21.375   0.866  26.620  1.00  0.00     0.134 A 
ATOM     35  C   UNL     1      20.340   1.225  29.210  1.00  0.00     0.094 A 
ATOM     36  C   UNL     1      22.186   0.702  27.751  1.00  0.00     0.093 A 
ATOM     37  C   UNL     1      21.681   0.885  29.036  1.00  0.00     0.123 A 
BRANCH  28  38
ATOM     38  C   UNL     1      15.957   2.228  27.738  1.00  0.00     0.025 A 
ATOM     39  C   UNL     1      14.872   1.355  27.547  1.00  0.00     0.062 A 
ATOM     40  C   UNL     1      15.729   3.483  28.330  1.00  0.00     0.016 A 
ATOM     41  C   UNL     1      13.574   1.744  27.900  1.00  0.00     0.158 A 
ATOM     42  C   UNL     1      14.435   3.873  28.685  1.00  0.00     0.051 A 
ATOM     43  C   UNL     1      13.351   3.011  28.466  1.00  0.00     0.157 A 
BRANCH  41  44
ATOM     44  O   UNL     1      12.518   0.857  27.685  1.00  0.00    -0.504 OA
ATOM     45  H   UNL     1      11.635   0.947  28.172  1.00  0.00     0.293 HD
ENDBRANCH  41  44
BRANCH  43  46
ATOM     46  O   UNL     1      12.060   3.408  28.812  1.00  0.00    -0.504 OA
ATOM     47  H   UNL     1      11.520   4.021  28.216  1.00  0.00     0.293 HD
ENDBRANCH  43  46
ENDBRANCH  28  38
BRANCH  34  48
ATOM     48  O   UNL     1      22.016   0.717  25.384  1.00  0.00    -0.507 OA
ATOM     49  H   UNL     1      22.708   0.018  25.153  1.00  0.00     0.293 HD
ENDBRANCH  34  48
BRANCH  37  50
ATOM     50  O   UNL     1      22.523   0.732  30.135  1.00  0.00    -0.508 OA
ATOM     51  H   UNL     1      23.004   1.524  30.546  1.00  0.00     0.293 HD
ENDBRANCH  37  50
ENDBRANCH  26  27
ENDBRANCH   5  26
BRANCH   4  52
ATOM     52  O   UNL     1      14.145   2.105  24.180  1.00  0.00    -0.384 OA
ATOM     53  H   UNL     1      14.585   2.455  24.998  1.00  0.00     0.211 HD
ENDBRANCH   4  52
TORSDOF 16
ENDMDL
MODEL 6
REMARK VINA RESULT:    -8.139      3.030      7.136
REMARK INTER + INTRA:         -16.285
REMARK INTER:                 -13.892
REMARK INTRA:                  -2.393
REMARK UNBOUND:                -2.913
REMARK SMILES C[C@H]1O[C@@H](OC[C@H]2O[C@H](Oc3c(-c4ccc(O)c(O)c4)oc4cc(O)cc(O)c4c3=O)[C@H](O)[C@H](O)[C@@H]2O)[C@H](O)[C@H](O)[C@H]1O
REMARK SMILES IDX 7 1 36 2 34 3 32 4 9 5 8 6 6 7 5 8 4 9 1 10 2 11 42 12 3 13
REMARK SMILES IDX 40 14 38 15 43 16 41 18 39 20 37 22 35 24 10 26 11 27 12 28
REMARK SMILES IDX 30 29 21 30 29 31 31 32 22 33 27 34 23 35 26 36 24 37 13 38
REMARK SMILES IDX 20 39 14 40 18 41 15 42 16 43 19 44 17 46 28 48 25 50 33 52
REMARK H PARENT 43 17 41 19 39 21 37 23 35 25 19 45 17 47 28 49 25 51 33 53
REMARK Flexibility Score: inf
ROOT
ATOM      1  C   UNL     1      16.762  -1.904  23.943  1.00  0.00     0.180 C 
ATOM      2  C   UNL     1      18.216  -2.316  23.590  1.00  0.00     0.177 C 
ATOM      3  C   UNL     1      19.184  -1.954  24.726  1.00  0.00     0.180 C 
ATOM      4  C   UNL     1      18.966  -0.510  25.211  1.00  0.00     0.214 C 
ATOM      5  C   UNL     1      17.469  -0.253  25.490  1.00  0.00     0.339 C 
ATOM      6  O   UNL     1      16.669  -0.542  24.351  1.00  0.00    -0.332 OA
ENDROOT
BRANCH   1   7
ATOM      7  C   UNL     1      16.075  -2.867  24.931  1.00  0.00     0.198 C 
BRANCH   7   8
ATOM      8  O   UNL     1      14.939  -3.445  24.317  1.00  0.00    -0.347 OA
BRANCH   8   9
ATOM      9  C   UNL     1      13.743  -3.064  24.982  1.00  0.00     0.281 C 
ATOM     10  C   UNL     1      13.290  -3.912  22.042  1.00  0.00     0.041 C 
ATOM     11  C   UNL     1      12.317  -3.315  23.074  1.00  0.00     0.150 C 
ATOM     12  C   UNL     1      12.104  -1.785  22.954  1.00  0.00     0.174 C 
ATOM     13  O   UNL     1      12.624  -3.726  24.403  1.00  0.00    -0.344 OA
ATOM     14  C   UNL     1      13.280  -1.004  23.558  1.00  0.00     0.179 C 
ATOM     15  C   UNL     1      13.598  -1.525  24.973  1.00  0.00     0.202 C 
BRANCH  12  16
ATOM     16  O   UNL     1      11.853  -1.401  21.623  1.00  0.00    -0.388 OA
ATOM     17  H   UNL     1      11.686  -0.424  21.606  1.00  0.00     0.211 HD
ENDBRANCH  12  16
BRANCH  14  18
ATOM     18  O   UNL     1      12.962   0.360  23.601  1.00  0.00    -0.387 OA
ATOM     19  H   UNL     1      12.236   0.468  24.269  1.00  0.00     0.211 HD
ENDBRANCH  14  18
BRANCH  15  20
ATOM     20  O   UNL     1      12.642  -1.089  25.914  1.00  0.00    -0.385 OA
ATOM     21  H   UNL     1      11.869  -0.710  25.423  1.00  0.00     0.211 HD
ENDBRANCH  15  20
ENDBRANCH   8   9
ENDBRANCH   7   8
ENDBRANCH   1   7
BRANCH   2  22
ATOM     22  O   UNL     1      18.609  -1.670  22.402  1.00  0.00    -0.387 OA
ATOM     23  H   UNL     1      18.175  -2.148  21.650  1.00  0.00     0.211 HD
ENDBRANCH   2  22
BRANCH   3  24
ATOM     24  O   UNL     1      20.510  -2.139  24.299  1.00  0.00    -0.387 OA
ATOM     25  H   UNL     1      20.937  -2.750  24.956  1.00  0.00     0.211 HD
ENDBRANCH   3  24
BRANCH   5  26
ATOM     26  O   UNL     1      17.321   1.125  25.829  1.00  0.00    -0.454 OA
BRANCH  26  27
ATOM     27  C   UNL     1      16.589   1.647  26.912  1.00  0.00     0.214 A 
ATOM     28  C   UNL     1      17.297   2.118  28.034  1.00  0.00     0.180 A 
ATOM     29  C   UNL     1      15.179   1.704  26.931  1.00  0.00     0.239 A 
ATOM     30  O   UNL     1      16.638   2.549  29.102  1.00  0.00    -0.452 OA
ATOM     31  C   UNL     1      14.504   2.141  28.099  1.00  0.00     0.111 A 
ATOM     32  O   UNL     1      14.544   1.395  25.892  1.00  0.00    -0.285 OA
ATOM     33  C   UNL     1      15.316   2.578  29.182  1.00  0.00     0.146 A 
ATOM     34  C   UNL     1      13.083   2.182  28.261  1.00  0.00     0.134 A 
ATOM     35  C   UNL     1      14.739   3.054  30.360  1.00  0.00     0.094 A 
ATOM     36  C   UNL     1      12.538   2.690  29.448  1.00  0.00     0.093 A 
ATOM     37  C   UNL     1      13.353   3.117  30.493  1.00  0.00     0.123 A 
BRANCH  28  38
ATOM     38  C   UNL     1      18.777   2.105  28.084  1.00  0.00     0.025 A 
ATOM     39  C   UNL     1      19.494   0.929  28.373  1.00  0.00     0.062 A 
ATOM     40  C   UNL     1      19.485   3.287  27.809  1.00  0.00     0.016 A 
ATOM     41  C   UNL     1      20.893   0.945  28.429  1.00  0.00     0.158 A 
ATOM     42  C   UNL     1      20.881   3.304  27.863  1.00  0.00     0.051 A 
ATOM     43  C   UNL     1      21.592   2.138  28.179  1.00  0.00     0.157 A 
BRANCH  41  44
ATOM     44  O   UNL     1      21.572  -0.237  28.730  1.00  0.00    -0.504 OA
ATOM     45  H   UNL     1      22.118  -0.340  29.576  1.00  0.00     0.293 HD
ENDBRANCH  41  44
BRANCH  43  46
ATOM     46  O   UNL     1      22.985   2.162  28.242  1.00  0.00    -0.504 OA
ATOM     47  H   UNL     1      23.508   1.392  28.638  1.00  0.00     0.293 HD
ENDBRANCH  43  46
ENDBRANCH  28  38
BRANCH  34  48
ATOM     48  O   UNL     1      12.158   1.726  27.313  1.00  0.00    -0.507 OA
ATOM     49  H   UNL     1      11.323   1.192  27.505  1.00  0.00     0.293 HD
ENDBRANCH  34  48
BRANCH  37  50
ATOM     50  O   UNL     1      12.774   3.599  31.665  1.00  0.00    -0.508 OA
ATOM     51  H   UNL     1      13.333   3.811  32.483  1.00  0.00     0.293 HD
ENDBRANCH  37  50
ENDBRANCH  26  27
ENDBRANCH   5  26
BRANCH   4  52
ATOM     52  O   UNL     1      19.510   0.422  24.308  1.00  0.00    -0.384 OA
ATOM     53  H   UNL     1      19.222   1.334  24.574  1.00  0.00     0.211 HD
ENDBRANCH   4  52
TORSDOF 16
ENDMDL
MODEL 7
REMARK VINA RESULT:    -8.095      2.107      6.967
REMARK INTER + INTRA:         -16.212
REMARK INTER:                 -13.219
REMARK INTRA:                  -2.993
REMARK UNBOUND:                -2.913
REMARK SMILES C[C@H]1O[C@@H](OC[C@H]2O[C@H](Oc3c(-c4ccc(O)c(O)c4)oc4cc(O)cc(O)c4c3=O)[C@H](O)[C@H](O)[C@@H]2O)[C@H](O)[C@H](O)[C@H]1O
REMARK SMILES IDX 7 1 36 2 34 3 32 4 9 5 8 6 6 7 5 8 4 9 1 10 2 11 42 12 3 13
REMARK SMILES IDX 40 14 38 15 43 16 41 18 39 20 37 22 35 24 10 26 11 27 12 28
REMARK SMILES IDX 30 29 21 30 29 31 31 32 22 33 27 34 23 35 26 36 24 37 13 38
REMARK SMILES IDX 20 39 14 40 18 41 15 42 16 43 19 44 17 46 28 48 25 50 33 52
REMARK H PARENT 43 17 41 19 39 21 37 23 35 25 19 45 17 47 28 49 25 51 33 53
REMARK Flexibility Score: inf
ROOT
ATOM      1  C   UNL     1      14.230  -1.363  29.116  1.00  0.00     0.180 C 
ATOM      2  C   UNL     1      14.397  -2.890  29.332  1.00  0.00     0.177 C 
ATOM      3  C   UNL     1      15.881  -3.275  29.436  1.00  0.00     0.180 C 
ATOM      4  C   UNL     1      16.707  -2.636  28.306  1.00  0.00     0.214 C 
ATOM      5  C   UNL     1      16.405  -1.125  28.204  1.00  0.00     0.339 C 
ATOM      6  O   UNL     1      15.015  -0.880  28.029  1.00  0.00    -0.332 OA
ENDROOT
BRANCH   1   7
ATOM      7  C   UNL     1      14.428  -0.536  30.403  1.00  0.00     0.198 C 
BRANCH   7   8
ATOM      8  O   UNL     1      13.979   0.788  30.189  1.00  0.00    -0.347 OA
BRANCH   8   9
ATOM      9  C   UNL     1      12.754   1.034  30.865  1.00  0.00     0.281 C 
ATOM     10  C   UNL     1      12.647   1.723  27.852  1.00  0.00     0.041 C 
ATOM     11  C   UNL     1      11.612   1.948  28.969  1.00  0.00     0.150 C 
ATOM     12  C   UNL     1      11.614   3.373  29.576  1.00  0.00     0.174 C 
ATOM     13  O   UNL     1      11.661   0.927  29.960  1.00  0.00    -0.344 OA
ATOM     14  C   UNL     1      12.776   3.562  30.563  1.00  0.00     0.179 C 
ATOM     15  C   UNL     1      12.808   2.404  31.579  1.00  0.00     0.202 C 
BRANCH  12  16
ATOM     16  O   UNL     1      11.617   4.362  28.574  1.00  0.00    -0.388 OA
ATOM     17  H   UNL     1      11.264   3.961  27.739  1.00  0.00     0.211 HD
ENDBRANCH  12  16
BRANCH  14  18
ATOM     18  O   UNL     1      12.629   4.788  31.228  1.00  0.00    -0.387 OA
ATOM     19  H   UNL     1      13.047   5.482  30.654  1.00  0.00     0.211 HD
ENDBRANCH  14  18
BRANCH  15  20
ATOM     20  O   UNL     1      11.784   2.528  32.541  1.00  0.00    -0.385 OA
ATOM     21  H   UNL     1      11.658   3.490  32.742  1.00  0.00     0.211 HD
ENDBRANCH  15  20
ENDBRANCH   8   9
ENDBRANCH   7   8
ENDBRANCH   1   7
BRANCH   2  22
ATOM     22  O   UNL     1      13.797  -3.582  28.264  1.00  0.00    -0.387 OA
ATOM     23  H   UNL     1      12.940  -3.125  28.061  1.00  0.00     0.211 HD
ENDBRANCH   2  22
BRANCH   3  24
ATOM     24  O   UNL     1      16.012  -4.674  29.416  1.00  0.00    -0.387 OA
ATOM     25  H   UNL     1      15.544  -5.013  30.225  1.00  0.00     0.211 HD
ENDBRANCH   3  24
BRANCH   5  26
ATOM     26  O   UNL     1      17.114  -0.615  27.075  1.00  0.00    -0.454 OA
BRANCH  26  27
ATOM     27  C   UNL     1      16.573   0.137  26.015  1.00  0.00     0.214 A 
ATOM     28  C   UNL     1      16.603   1.541  26.108  1.00  0.00     0.180 A 
ATOM     29  C   UNL     1      15.987  -0.452  24.875  1.00  0.00     0.239 A 
ATOM     30  O   UNL     1      16.037   2.281  25.163  1.00  0.00    -0.452 OA
ATOM     31  C   UNL     1      15.363   0.366  23.898  1.00  0.00     0.111 A 
ATOM     32  O   UNL     1      16.058  -1.698  24.730  1.00  0.00    -0.285 OA
ATOM     33  C   UNL     1      15.437   1.771  24.098  1.00  0.00     0.146 A 
ATOM     34  C   UNL     1      14.682  -0.116  22.736  1.00  0.00     0.134 A 
ATOM     35  C   UNL     1      14.878   2.655  23.172  1.00  0.00     0.094 A 
ATOM     36  C   UNL     1      14.156   0.799  21.814  1.00  0.00     0.093 A 
ATOM     37  C   UNL     1      14.245   2.172  22.029  1.00  0.00     0.123 A 
BRANCH  28  38
ATOM     38  C   UNL     1      17.213   2.235  27.266  1.00  0.00     0.025 A 
ATOM     39  C   UNL     1      16.454   2.588  28.396  1.00  0.00     0.062 A 
ATOM     40  C   UNL     1      18.589   2.520  27.250  1.00  0.00     0.016 A 
ATOM     41  C   UNL     1      17.050   3.255  29.474  1.00  0.00     0.158 A 
ATOM     42  C   UNL     1      19.186   3.185  28.324  1.00  0.00     0.051 A 
ATOM     43  C   UNL     1      18.421   3.562  29.437  1.00  0.00     0.157 A 
BRANCH  41  44
ATOM     44  O   UNL     1      16.265   3.602  30.574  1.00  0.00    -0.504 OA
ATOM     45  H   UNL     1      16.658   3.707  31.501  1.00  0.00     0.293 HD
ENDBRANCH  41  44
BRANCH  43  46
ATOM     46  O   UNL     1      19.019   4.234  30.503  1.00  0.00    -0.504 OA
ATOM     47  H   UNL     1      18.482   4.835  31.114  1.00  0.00     0.293 HD
ENDBRANCH  43  46
ENDBRANCH  28  38
BRANCH  34  48
ATOM     48  O   UNL     1      14.473  -1.469  22.437  1.00  0.00    -0.507 OA
ATOM     49  H   UNL     1      14.196  -2.187  23.091  1.00  0.00     0.293 HD
ENDBRANCH  34  48
BRANCH  37  50
ATOM     50  O   UNL     1      13.692   3.051  21.099  1.00  0.00    -0.508 OA
ATOM     51  H   UNL     1      12.747   3.403  21.201  1.00  0.00     0.293 HD
ENDBRANCH  37  50
ENDBRANCH  26  27
ENDBRANCH   5  26
BRANCH   4  52
ATOM     52  O   UNL     1      16.509  -3.305  27.084  1.00  0.00    -0.384 OA
ATOM     53  H   UNL     1      15.537  -3.321  26.880  1.00  0.00     0.211 HD
ENDBRANCH   4  52
TORSDOF 16
ENDMDL
MODEL 8
REMARK VINA RESULT:    -8.041      2.537      3.770
REMARK INTER + INTRA:         -16.124
REMARK INTER:                 -13.590
REMARK INTRA:                  -2.535
REMARK UNBOUND:                -2.913
REMARK SMILES C[C@H]1O[C@@H](OC[C@H]2O[C@H](Oc3c(-c4ccc(O)c(O)c4)oc4cc(O)cc(O)c4c3=O)[C@H](O)[C@H](O)[C@@H]2O)[C@H](O)[C@H](O)[C@H]1O
REMARK SMILES IDX 7 1 36 2 34 3 32 4 9 5 8 6 6 7 5 8 4 9 1 10 2 11 42 12 3 13
REMARK SMILES IDX 40 14 38 15 43 16 41 18 39 20 37 22 35 24 10 26 11 27 12 28
REMARK SMILES IDX 30 29 21 30 29 31 31 32 22 33 27 34 23 35 26 36 24 37 13 38
REMARK SMILES IDX 20 39 14 40 18 41 15 42 16 43 19 44 17 46 28 48 25 50 33 52
REMARK H PARENT 43 17 41 19 39 21 37 23 35 25 19 45 17 47 28 49 25 51 33 53
REMARK Flexibility Score: inf
ROOT
ATOM      1  C   UNL     1      14.894  -1.711  23.159  1.00  0.00     0.180 C 
ATOM      2  C   UNL     1      14.233  -0.450  22.544  1.00  0.00     0.177 C 
ATOM      3  C   UNL     1      14.183   0.701  23.561  1.00  0.00     0.180 C 
ATOM      4  C   UNL     1      13.645   0.224  24.921  1.00  0.00     0.214 C 
ATOM      5  C   UNL     1      14.384  -1.053  25.378  1.00  0.00     0.339 C 
ATOM      6  O   UNL     1      14.301  -2.082  24.401  1.00  0.00    -0.332 OA
ENDROOT
BRANCH   1   7
ATOM      7  C   UNL     1      16.431  -1.621  23.239  1.00  0.00     0.198 C 
BRANCH   7   8
ATOM      8  O   UNL     1      16.965  -2.895  23.544  1.00  0.00    -0.347 OA
BRANCH   8   9
ATOM      9  C   UNL     1      18.373  -2.923  23.355  1.00  0.00     0.281 C 
ATOM     10  C   UNL     1      17.200  -5.653  24.214  1.00  0.00     0.041 C 
ATOM     11  C   UNL     1      18.661  -5.203  24.028  1.00  0.00     0.150 C 
ATOM     12  C   UNL     1      19.383  -4.791  25.336  1.00  0.00     0.174 C 
ATOM     13  O   UNL     1      18.797  -4.233  22.995  1.00  0.00    -0.344 OA
ATOM     14  C   UNL     1      18.967  -3.383  25.788  1.00  0.00     0.179 C 
ATOM     15  C   UNL     1      19.088  -2.389  24.617  1.00  0.00     0.202 C 
BRANCH  12  16
ATOM     16  O   UNL     1      19.189  -5.742  26.355  1.00  0.00    -0.388 OA
ATOM     17  H   UNL     1      18.679  -6.504  25.978  1.00  0.00     0.211 HD
ENDBRANCH  12  16
BRANCH  14  18
ATOM     18  O   UNL     1      19.779  -2.977  26.857  1.00  0.00    -0.387 OA
ATOM     19  H   UNL     1      19.699  -1.990  26.924  1.00  0.00     0.211 HD
ENDBRANCH  14  18
BRANCH  15  20
ATOM     20  O   UNL     1      20.434  -2.060  24.350  1.00  0.00    -0.385 OA
ATOM     21  H   UNL     1      20.641  -2.320  23.417  1.00  0.00     0.211 HD
ENDBRANCH  15  20
ENDBRANCH   8   9
ENDBRANCH   7   8
ENDBRANCH   1   7
BRANCH   2  22
ATOM     22  O   UNL     1      12.930  -0.766  22.115  1.00  0.00    -0.387 OA
ATOM     23  H   UNL     1      12.697  -1.646  22.507  1.00  0.00     0.211 HD
ENDBRANCH   2  22
BRANCH   3  24
ATOM     24  O   UNL     1      13.396   1.750  23.056  1.00  0.00    -0.387 OA
ATOM     25  H   UNL     1      12.606   1.329  22.624  1.00  0.00     0.211 HD
ENDBRANCH   3  24
BRANCH   5  26
ATOM     26  O   UNL     1      13.767  -1.504  26.584  1.00  0.00    -0.454 OA
BRANCH  26  27
ATOM     27  C   UNL     1      14.426  -1.920  27.756  1.00  0.00     0.214 A 
ATOM     28  C   UNL     1      14.328  -1.110  28.903  1.00  0.00     0.180 A 
ATOM     29  C   UNL     1      15.194  -3.101  27.829  1.00  0.00     0.239 A 
ATOM     30  O   UNL     1      14.994  -1.432  30.003  1.00  0.00    -0.452 OA
ATOM     31  C   UNL     1      15.921  -3.402  29.009  1.00  0.00     0.111 A 
ATOM     32  O   UNL     1      15.194  -3.887  26.848  1.00  0.00    -0.285 OA
ATOM     33  C   UNL     1      15.763  -2.507  30.103  1.00  0.00     0.146 A 
ATOM     34  C   UNL     1      16.781  -4.532  29.180  1.00  0.00     0.134 A 
ATOM     35  C   UNL     1      16.414  -2.740  31.316  1.00  0.00     0.094 A 
ATOM     36  C   UNL     1      17.398  -4.749  30.420  1.00  0.00     0.093 A 
ATOM     37  C   UNL     1      17.226  -3.861  31.478  1.00  0.00     0.123 A 
BRANCH  28  38
ATOM     38  C   UNL     1      13.529   0.138  28.911  1.00  0.00     0.025 A 
ATOM     39  C   UNL     1      14.076   1.366  28.496  1.00  0.00     0.062 A 
ATOM     40  C   UNL     1      12.184   0.091  29.315  1.00  0.00     0.016 A 
ATOM     41  C   UNL     1      13.306   2.534  28.525  1.00  0.00     0.158 A 
ATOM     42  C   UNL     1      11.413   1.256  29.344  1.00  0.00     0.051 A 
ATOM     43  C   UNL     1      11.969   2.483  28.957  1.00  0.00     0.157 A 
BRANCH  41  44
ATOM     44  O   UNL     1      13.884   3.738  28.118  1.00  0.00    -0.504 OA
ATOM     45  H   UNL     1      14.558   3.780  27.364  1.00  0.00     0.293 HD
ENDBRANCH  41  44
BRANCH  43  46
ATOM     46  O   UNL     1      11.200   3.645  28.997  1.00  0.00    -0.504 OA
ATOM     47  H   UNL     1      10.886   4.099  28.149  1.00  0.00     0.293 HD
ENDBRANCH  43  46
ENDBRANCH  28  38
BRANCH  34  48
ATOM     48  O   UNL     1      17.084  -5.462  28.178  1.00  0.00    -0.507 OA
ATOM     49  H   UNL     1      17.670  -6.279  28.281  1.00  0.00     0.293 HD
ENDBRANCH  34  48
BRANCH  37  50
ATOM     50  O   UNL     1      17.872  -4.100  32.689  1.00  0.00    -0.508 OA
ATOM     51  H   UNL     1      17.374  -4.476  33.488  1.00  0.00     0.293 HD
ENDBRANCH  37  50
ENDBRANCH  26  27
ENDBRANCH   5  26
BRANCH   4  52
ATOM     52  O   UNL     1      12.248   0.051  24.888  1.00  0.00    -0.384 OA
ATOM     53  H   UNL     1      11.975  -0.184  23.963  1.00  0.00     0.211 HD
ENDBRANCH   4  52
TORSDOF 16
ENDMDL
MODEL 9
REMARK VINA RESULT:    -8.019      1.918      2.941
REMARK INTER + INTRA:         -16.089
REMARK INTER:                 -13.646
REMARK INTRA:                  -2.443
REMARK UNBOUND:                -2.913
REMARK SMILES C[C@H]1O[C@@H](OC[C@H]2O[C@H](Oc3c(-c4ccc(O)c(O)c4)oc4cc(O)cc(O)c4c3=O)[C@H](O)[C@H](O)[C@@H]2O)[C@H](O)[C@H](O)[C@H]1O
REMARK SMILES IDX 7 1 36 2 34 3 32 4 9 5 8 6 6 7 5 8 4 9 1 10 2 11 42 12 3 13
REMARK SMILES IDX 40 14 38 15 43 16 41 18 39 20 37 22 35 24 10 26 11 27 12 28
REMARK SMILES IDX 30 29 21 30 29 31 31 32 22 33 27 34 23 35 26 36 24 37 13 38
REMARK SMILES IDX 20 39 14 40 18 41 15 42 16 43 19 44 17 46 28 48 25 50 33 52
REMARK H PARENT 43 17 41 19 39 21 37 23 35 25 19 45 17 47 28 49 25 51 33 53
REMARK Flexibility Score: inf
ROOT
ATOM      1  C   UNL     1      16.417   0.340  23.813  1.00  0.00     0.180 C 
ATOM      2  C   UNL     1      15.565   0.784  22.595  1.00  0.00     0.177 C 
ATOM      3  C   UNL     1      14.262   1.459  23.050  1.00  0.00     0.180 C 
ATOM      4  C   UNL     1      13.550   0.633  24.135  1.00  0.00     0.214 C 
ATOM      5  C   UNL     1      14.539   0.248  25.257  1.00  0.00     0.339 C 
ATOM      6  O   UNL     1      15.670  -0.442  24.741  1.00  0.00    -0.332 OA
ENDROOT
BRANCH   1   7
ATOM      7  C   UNL     1      17.172   1.502  24.490  1.00  0.00     0.198 C 
BRANCH   7   8
ATOM      8  O   UNL     1      17.784   1.040  25.679  1.00  0.00    -0.347 OA
BRANCH   8   9
ATOM      9  C   UNL     1      18.615  -0.084  25.429  1.00  0.00     0.281 C 
ATOM     10  C   UNL     1      17.885   0.256  28.416  1.00  0.00     0.041 C 
ATOM     11  C   UNL     1      18.847  -0.728  27.724  1.00  0.00     0.150 C 
ATOM     12  C   UNL     1      20.338  -0.307  27.756  1.00  0.00     0.174 C 
ATOM     13  O   UNL     1      18.403  -1.084  26.419  1.00  0.00    -0.344 OA
ATOM     14  C   UNL     1      20.639   0.778  26.712  1.00  0.00     0.179 C 
ATOM     15  C   UNL     1      20.093   0.359  25.334  1.00  0.00     0.202 C 
BRANCH  12  16
ATOM     16  O   UNL     1      20.735   0.089  29.047  1.00  0.00    -0.388 OA
ATOM     17  H   UNL     1      20.089   0.762  29.380  1.00  0.00     0.211 HD
ENDBRANCH  12  16
BRANCH  14  18
ATOM     18  O   UNL     1      22.023   0.989  26.644  1.00  0.00    -0.387 OA
ATOM     19  H   UNL     1      22.288   0.875  25.695  1.00  0.00     0.211 HD
ENDBRANCH  14  18
BRANCH  15  20
ATOM     20  O   UNL     1      20.895  -0.636  24.737  1.00  0.00    -0.385 OA
ATOM     21  H   UNL     1      21.106  -0.356  23.811  1.00  0.00     0.211 HD
ENDBRANCH  15  20
ENDBRANCH   8   9
ENDBRANCH   7   8
ENDBRANCH   1   7
BRANCH   2  22
ATOM     22  O   UNL     1      15.270  -0.337  21.798  1.00  0.00    -0.387 OA
ATOM     23  H   UNL     1      16.014  -0.442  21.150  1.00  0.00     0.211 HD
ENDBRANCH   2  22
BRANCH   3  24
ATOM     24  O   UNL     1      13.418   1.658  21.944  1.00  0.00    -0.387 OA
ATOM     25  H   UNL     1      13.914   2.240  21.309  1.00  0.00     0.211 HD
ENDBRANCH   3  24
BRANCH   5  26
ATOM     26  O   UNL     1      13.849  -0.604  26.171  1.00  0.00    -0.454 OA
BRANCH  26  27
ATOM     27  C   UNL     1      14.390  -1.214  27.318  1.00  0.00     0.214 A 
ATOM     28  C   UNL     1      14.251  -0.557  28.555  1.00  0.00     0.180 A 
ATOM     29  C   UNL     1      15.079  -2.445  27.281  1.00  0.00     0.239 A 
ATOM     30  O   UNL     1      14.811  -1.066  29.644  1.00  0.00    -0.452 OA
ATOM     31  C   UNL     1      15.693  -2.947  28.457  1.00  0.00     0.111 A 
ATOM     32  O   UNL     1      15.108  -3.093  26.206  1.00  0.00    -0.285 OA
ATOM     33  C   UNL     1      15.505  -2.195  29.649  1.00  0.00     0.146 A 
ATOM     34  C   UNL     1      16.470  -4.146  28.531  1.00  0.00     0.134 A 
ATOM     35  C   UNL     1      16.046  -2.629  30.860  1.00  0.00     0.094 A 
ATOM     36  C   UNL     1      16.976  -4.566  29.769  1.00  0.00     0.093 A 
ATOM     37  C   UNL     1      16.775  -3.815  30.924  1.00  0.00     0.123 A 
BRANCH  28  38
ATOM     38  C   UNL     1      13.529   0.731  28.678  1.00  0.00     0.025 A 
ATOM     39  C   UNL     1      12.140   0.779  28.895  1.00  0.00     0.062 A 
ATOM     40  C   UNL     1      14.252   1.934  28.604  1.00  0.00     0.016 A 
ATOM     41  C   UNL     1      11.478   2.009  28.994  1.00  0.00     0.158 A 
ATOM     42  C   UNL     1      13.593   3.162  28.704  1.00  0.00     0.051 A 
ATOM     43  C   UNL     1      12.204   3.207  28.892  1.00  0.00     0.157 A 
BRANCH  41  44
ATOM     44  O   UNL     1      10.097   2.020  29.198  1.00  0.00    -0.504 OA
ATOM     45  H   UNL     1       9.651   2.696  29.805  1.00  0.00     0.293 HD
ENDBRANCH  41  44
BRANCH  43  46
ATOM     46  O   UNL     1      11.549   4.435  28.981  1.00  0.00    -0.504 OA
ATOM     47  H   UNL     1      11.769   5.196  28.353  1.00  0.00     0.293 HD
ENDBRANCH  43  46
ENDBRANCH  28  38
BRANCH  34  48
ATOM     48  O   UNL     1      16.795  -4.956  27.435  1.00  0.00    -0.507 OA
ATOM     49  H   UNL     1      17.610  -5.546  27.351  1.00  0.00     0.293 HD
ENDBRANCH  34  48
BRANCH  37  50
ATOM     50  O   UNL     1      17.310  -4.255  32.133  1.00  0.00    -0.508 OA
ATOM     51  H   UNL     1      16.861  -4.983  32.676  1.00  0.00     0.293 HD
ENDBRANCH  37  50
ENDBRANCH  26  27
ENDBRANCH   5  26
BRANCH   4  52
ATOM     52  O   UNL     1      12.902  -0.488  23.584  1.00  0.00    -0.384 OA
ATOM     53  H   UNL     1      13.542  -1.246  23.554  1.00  0.00     0.211 HD
ENDBRANCH   4  52
TORSDOF 16
ENDMDL
