MODEL 1
REMARK VINA RESULT:    -4.684      0.000      0.000
REMARK INTER + INTRA:          -6.462
REMARK INTER:                  -6.327
REMARK INTRA:                  -0.135
REMARK UNBOUND:                -0.135
REMARK SMILES [NH3+]CCCC[C@H]([NH3+])C(=O)[O-]
REMARK SMILES IDX 4 1 3 2 2 3 1 4 5 8 6 9 7 10 8 14 9 15 10 16
REMARK H PARENT 1 5 1 6 1 7 7 11 7 12 7 13
REMARK Flexibility Score: inf
ROOT
ATOM      1  C   UNL     1       6.090   5.489  13.272  1.00  0.00     0.012 C 
ENDROOT
BRANCH   1   2
ATOM      2  C   UNL     1       5.063   4.421  12.864  1.00  0.00     0.061 C 
BRANCH   2   3
ATOM      3  C   UNL     1       5.637   3.401  11.866  1.00  0.00     0.258 C 
BRANCH   3   4
ATOM      4  N   UNL     1       6.723   2.607  12.447  1.00  0.00    -0.358 N 
ATOM      5  H   UNL     1       6.337   2.023  13.224  1.00  0.00     0.344 HD
ATOM      6  H   UNL     1       7.132   1.968  11.729  1.00  0.00     0.344 HD
ATOM      7  H   UNL     1       7.466   3.233  12.835  1.00  0.00     0.344 HD
ENDBRANCH   3   4
ENDBRANCH   2   3
ENDBRANCH   1   2
BRANCH   1   8
ATOM      8  C   UNL     1       6.434   5.452  14.773  1.00  0.00     0.072 C 
BRANCH   8   9
ATOM      9  C   UNL     1       6.872   6.808  15.379  1.00  0.00     0.227 C 
BRANCH   9  10
ATOM     10  N   UNL     1       6.732   7.910  14.417  1.00  0.00    -0.350 N 
ATOM     11  H   UNL     1       7.663   8.350  14.238  1.00  0.00     0.345 HD
ATOM     12  H   UNL     1       6.067   8.633  14.774  1.00  0.00     0.345 HD
ATOM     13  H   UNL     1       6.379   7.544  13.502  1.00  0.00     0.345 HD
ENDBRANCH   9  10
BRANCH   9  14
ATOM     14  C   UNL     1       8.297   6.705  15.853  1.00  0.00     0.099 C 
ATOM     15  O   UNL     1       9.244   6.645  15.023  1.00  0.00    -0.544 OA
ATOM     16  O   UNL     1       8.575   6.645  17.212  1.00  0.00    -0.544 OA
ENDBRANCH   9  14
ENDBRANCH   8   9
ENDBRANCH   1   8
TORSDOF 7
ENDMDL
MODEL 2
REMARK VINA RESULT:    -4.645      3.351      5.432
REMARK INTER + INTRA:          -6.410
REMARK INTER:                  -6.292
REMARK INTRA:                  -0.118
REMARK UNBOUND:                -0.135
REMARK SMILES [NH3+]CCCC[C@H]([NH3+])C(=O)[O-]
REMARK SMILES IDX 4 1 3 2 2 3 1 4 5 8 6 9 7 10 8 14 9 15 10 16
REMARK H PARENT 1 5 1 6 1 7 7 11 7 12 7 13
REMARK Flexibility Score: inf
ROOT
ATOM      1  C   UNL     1       6.020   4.589  14.644  1.00  0.00     0.012 C 
ENDROOT
BRANCH   1   2
ATOM      2  C   UNL     1       6.850   5.800  15.102  1.00  0.00     0.061 C 
BRANCH   2   3
ATOM      3  C   UNL     1       7.135   6.787  13.958  1.00  0.00     0.258 C 
BRANCH   3   4
ATOM      4  N   UNL     1       6.789   8.165  14.315  1.00  0.00    -0.358 N 
ATOM      5  H   UNL     1       5.872   8.409  13.875  1.00  0.00     0.344 HD
ATOM      6  H   UNL     1       6.691   8.260  15.351  1.00  0.00     0.344 HD
ATOM      7  H   UNL     1       7.517   8.828  13.962  1.00  0.00     0.344 HD
ENDBRANCH   3   4
ENDBRANCH   2   3
ENDBRANCH   1   2
BRANCH   1   8
ATOM      8  C   UNL     1       5.645   4.647  13.152  1.00  0.00     0.072 C 
BRANCH   8   9
ATOM      9  C   UNL     1       5.486   3.270  12.462  1.00  0.00     0.227 C 
BRANCH   9  10
ATOM     10  N   UNL     1       6.764   2.550  12.372  1.00  0.00    -0.350 N 
ATOM     11  H   UNL     1       7.493   3.165  11.946  1.00  0.00     0.345 HD
ATOM     12  H   UNL     1       6.661   1.682  11.797  1.00  0.00     0.345 HD
ATOM     13  H   UNL     1       7.096   2.288  13.329  1.00  0.00     0.345 HD
ENDBRANCH   9  10
BRANCH   9  14
ATOM     14  C   UNL     1       4.897   3.464  11.090  1.00  0.00     0.099 C 
ATOM     15  O   UNL     1       3.996   2.692  10.666  1.00  0.00    -0.544 OA
ATOM     16  O   UNL     1       5.368   4.481  10.270  1.00  0.00    -0.544 OA
ENDBRANCH   9  14
ENDBRANCH   8   9
ENDBRANCH   1   8
TORSDOF 7
ENDMDL
MODEL 3
REMARK VINA RESULT:    -4.443      3.704      5.599
REMARK INTER + INTRA:          -6.136
REMARK INTER:                  -6.021
REMARK INTRA:                  -0.115
REMARK UNBOUND:                -0.135
REMARK SMILES [NH3+]CCCC[C@H]([NH3+])C(=O)[O-]
REMARK SMILES IDX 4 1 3 2 2 3 1 4 5 8 6 9 7 10 8 14 9 15 10 16
REMARK H PARENT 1 5 1 6 1 7 7 11 7 12 7 13
REMARK Flexibility Score: inf
ROOT
ATOM      1  C   UNL     1       6.331   5.522  13.160  1.00  0.00     0.012 C 
ENDROOT
BRANCH   1   2
ATOM      2  C   UNL     1       6.347   5.564  14.697  1.00  0.00     0.061 C 
BRANCH   2   3
ATOM      3  C   UNL     1       7.055   6.814  15.245  1.00  0.00     0.258 C 
BRANCH   3   4
ATOM      4  N   UNL     1       6.816   7.997  14.415  1.00  0.00    -0.358 N 
ATOM      5  H   UNL     1       6.009   7.805  13.777  1.00  0.00     0.344 HD
ATOM      6  H   UNL     1       6.572   8.818  15.012  1.00  0.00     0.344 HD
ATOM      7  H   UNL     1       7.658   8.213  13.833  1.00  0.00     0.344 HD
ENDBRANCH   3   4
ENDBRANCH   2   3
ENDBRANCH   1   2
BRANCH   1   8
ATOM      8  C   UNL     1       5.140   4.729  12.591  1.00  0.00     0.072 C 
BRANCH   8   9
ATOM      9  C   UNL     1       5.354   3.198  12.501  1.00  0.00     0.227 C 
BRANCH   9  10
ATOM     10  N   UNL     1       6.769   2.853  12.307  1.00  0.00    -0.350 N 
ATOM     11  H   UNL     1       6.876   1.817  12.214  1.00  0.00     0.345 HD
ATOM     12  H   UNL     1       7.348   3.193  13.108  1.00  0.00     0.345 HD
ATOM     13  H   UNL     1       7.124   3.284  11.422  1.00  0.00     0.345 HD
ENDBRANCH   9  10
BRANCH   9  14
ATOM     14  C   UNL     1       4.521   2.644  11.376  1.00  0.00     0.099 C 
ATOM     15  O   UNL     1       4.726   3.012  10.188  1.00  0.00    -0.544 OA
ATOM     16  O   UNL     1       3.499   1.744  11.647  1.00  0.00    -0.544 OA
ENDBRANCH   9  14
ENDBRANCH   8   9
ENDBRANCH   1   8
TORSDOF 7
ENDMDL
MODEL 4
REMARK VINA RESULT:    -4.430      3.386      5.217
REMARK INTER + INTRA:          -6.118
REMARK INTER:                  -5.966
REMARK INTRA:                  -0.152
REMARK UNBOUND:                -0.135
REMARK SMILES [NH3+]CCCC[C@H]([NH3+])C(=O)[O-]
REMARK SMILES IDX 4 1 3 2 2 3 1 4 5 8 6 9 7 10 8 14 9 15 10 16
REMARK H PARENT 1 5 1 6 1 7 7 11 7 12 7 13
REMARK Flexibility Score: inf
ROOT
ATOM      1  C   UNL     1       5.936   4.566  14.215  1.00  0.00     0.012 C 
ENDROOT
BRANCH   1   2
ATOM      2  C   UNL     1       6.650   5.730  14.923  1.00  0.00     0.061 C 
BRANCH   2   3
ATOM      3  C   UNL     1       7.169   6.790  13.937  1.00  0.00     0.258 C 
BRANCH   3   4
ATOM      4  N   UNL     1       6.751   8.145  14.307  1.00  0.00    -0.358 N 
ATOM      5  H   UNL     1       7.604   8.733  14.453  1.00  0.00     0.344 HD
ATOM      6  H   UNL     1       6.185   8.574  13.542  1.00  0.00     0.344 HD
ATOM      7  H   UNL     1       6.200   8.128  15.196  1.00  0.00     0.344 HD
ENDBRANCH   3   4
ENDBRANCH   2   3
ENDBRANCH   1   2
BRANCH   1   8
ATOM      8  C   UNL     1       5.319   4.971  12.864  1.00  0.00     0.072 C 
BRANCH   8   9
ATOM      9  C   UNL     1       5.721   4.078  11.665  1.00  0.00     0.227 C 
BRANCH   9  10
ATOM     10  N   UNL     1       5.165   4.575  10.399  1.00  0.00    -0.350 N 
ATOM     11  H   UNL     1       5.771   4.279   9.601  1.00  0.00     0.345 HD
ATOM     12  H   UNL     1       5.088   5.618  10.411  1.00  0.00     0.345 HD
ATOM     13  H   UNL     1       4.216   4.165  10.240  1.00  0.00     0.345 HD
ENDBRANCH   9  10
BRANCH   9  14
ATOM     14  C   UNL     1       5.263   2.666  11.919  1.00  0.00     0.099 C 
ATOM     15  O   UNL     1       6.091   1.774  12.244  1.00  0.00    -0.544 OA
ATOM     16  O   UNL     1       3.924   2.333  11.765  1.00  0.00    -0.544 OA
ENDBRANCH   9  14
ENDBRANCH   8   9
ENDBRANCH   1   8
TORSDOF 7
ENDMDL
MODEL 5
REMARK VINA RESULT:    -4.310      3.160      4.394
REMARK INTER + INTRA:          -5.957
REMARK INTER:                  -5.877
REMARK INTRA:                  -0.080
REMARK UNBOUND:                -0.135
REMARK SMILES [NH3+]CCCC[C@H]([NH3+])C(=O)[O-]
REMARK SMILES IDX 4 1 3 2 2 3 1 4 5 8 6 9 7 10 8 14 9 15 10 16
REMARK H PARENT 1 5 1 6 1 7 7 11 7 12 7 13
REMARK Flexibility Score: inf
ROOT
ATOM      1  C   UNL     1       3.878   2.481  11.315  1.00  0.00     0.012 C 
ENDROOT
BRANCH   1   2
ATOM      2  C   UNL     1       2.619   1.732  11.782  1.00  0.00     0.061 C 
BRANCH   2   3
ATOM      3  C   UNL     1       2.891   0.249  12.080  1.00  0.00     0.258 C 
BRANCH   3   4
ATOM      4  N   UNL     1       1.658  -0.541  12.140  1.00  0.00    -0.358 N 
ATOM      5  H   UNL     1       1.025  -0.125  12.860  1.00  0.00     0.344 HD
ATOM      6  H   UNL     1       1.166  -0.519  11.219  1.00  0.00     0.344 HD
ATOM      7  H   UNL     1       1.869  -1.529  12.410  1.00  0.00     0.344 HD
ENDBRANCH   3   4
ENDBRANCH   2   3
ENDBRANCH   1   2
BRANCH   1   8
ATOM      8  C   UNL     1       4.263   3.649  12.243  1.00  0.00     0.072 C 
BRANCH   8   9
ATOM      9  C   UNL     1       5.783   3.909  12.374  1.00  0.00     0.227 C 
BRANCH   9  10
ATOM     10  N   UNL     1       6.544   2.659  12.509  1.00  0.00    -0.350 N 
ATOM     11  H   UNL     1       7.449   2.842  12.998  1.00  0.00     0.345 HD
ATOM     12  H   UNL     1       6.734   2.236  11.571  1.00  0.00     0.345 HD
ATOM     13  H   UNL     1       6.007   1.974  13.090  1.00  0.00     0.345 HD
ENDBRANCH   9  10
BRANCH   9  14
ATOM     14  C   UNL     1       6.035   4.805  13.557  1.00  0.00     0.099 C 
ATOM     15  O   UNL     1       6.257   6.035  13.392  1.00  0.00    -0.544 OA
ATOM     16  O   UNL     1       6.056   4.273  14.840  1.00  0.00    -0.544 OA
ENDBRANCH   9  14
ENDBRANCH   8   9
ENDBRANCH   1   8
TORSDOF 7
ENDMDL
MODEL 6
REMARK VINA RESULT:    -4.266      1.892      2.475
REMARK INTER + INTRA:          -5.898
REMARK INTER:                  -5.366
REMARK INTRA:                  -0.532
REMARK UNBOUND:                -0.135
REMARK SMILES [NH3+]CCCC[C@H]([NH3+])C(=O)[O-]
REMARK SMILES IDX 4 1 3 2 2 3 1 4 5 8 6 9 7 10 8 14 9 15 10 16
REMARK H PARENT 1 5 1 6 1 7 7 11 7 12 7 13
REMARK Flexibility Score: inf
ROOT
ATOM      1  C   UNL     1       6.474   5.860  15.478  1.00  0.00     0.012 C 
ENDROOT
BRANCH   1   2
ATOM      2  C   UNL     1       6.346   4.670  14.513  1.00  0.00     0.061 C 
BRANCH   2   3
ATOM      3  C   UNL     1       5.538   5.018  13.252  1.00  0.00     0.258 C 
BRANCH   3   4
ATOM      4  N   UNL     1       6.343   4.913  12.032  1.00  0.00    -0.358 N 
ATOM      5  H   UNL     1       6.970   5.748  11.968  1.00  0.00     0.344 HD
ATOM      6  H   UNL     1       6.940   4.057  12.061  1.00  0.00     0.344 HD
ATOM      7  H   UNL     1       5.727   4.892  11.187  1.00  0.00     0.344 HD
ENDBRANCH   3   4
ENDBRANCH   2   3
ENDBRANCH   1   2
BRANCH   1   8
ATOM      8  C   UNL     1       7.846   6.554  15.398  1.00  0.00     0.072 C 
BRANCH   8   9
ATOM      9  C   UNL     1       7.894   7.811  14.496  1.00  0.00     0.227 C 
BRANCH   9  10
ATOM     10  N   UNL     1       6.551   8.247  14.089  1.00  0.00    -0.350 N 
ATOM     11  H   UNL     1       5.838   7.888  14.764  1.00  0.00     0.345 HD
ATOM     12  H   UNL     1       6.325   7.904  13.127  1.00  0.00     0.345 HD
ATOM     13  H   UNL     1       6.495   9.292  14.102  1.00  0.00     0.345 HD
ENDBRANCH   9  10
BRANCH   9  14
ATOM     14  C   UNL     1       8.739   7.522  13.284  1.00  0.00     0.099 C 
ATOM     15  O   UNL     1       8.199   7.256  12.177  1.00  0.00    -0.544 OA
ATOM     16  O   UNL     1      10.124   7.518  13.387  1.00  0.00    -0.544 OA
ENDBRANCH   9  14
ENDBRANCH   8   9
ENDBRANCH   1   8
TORSDOF 7
ENDMDL
MODEL 7
REMARK VINA RESULT:    -4.242      1.670      1.865
REMARK INTER + INTRA:          -5.864
REMARK INTER:                  -5.723
REMARK INTRA:                  -0.142
REMARK UNBOUND:                -0.135
REMARK SMILES [NH3+]CCCC[C@H]([NH3+])C(=O)[O-]
REMARK SMILES IDX 4 1 3 2 2 3 1 4 5 8 6 9 7 10 8 14 9 15 10 16
REMARK H PARENT 1 5 1 6 1 7 7 11 7 12 7 13
REMARK Flexibility Score: inf
ROOT
ATOM      1  C   UNL     1       6.173   4.563  14.621  1.00  0.00     0.012 C 
ENDROOT
BRANCH   1   2
ATOM      2  C   UNL     1       5.628   4.828  13.208  1.00  0.00     0.061 C 
BRANCH   2   3
ATOM      3  C   UNL     1       5.508   3.543  12.372  1.00  0.00     0.258 C 
BRANCH   3   4
ATOM      4  N   UNL     1       6.704   2.702  12.472  1.00  0.00    -0.358 N 
ATOM      5  H   UNL     1       7.296   2.855  11.623  1.00  0.00     0.344 HD
ATOM      6  H   UNL     1       7.264   2.964  13.313  1.00  0.00     0.344 HD
ATOM      7  H   UNL     1       6.438   1.692  12.517  1.00  0.00     0.344 HD
ENDBRANCH   3   4
ENDBRANCH   2   3
ENDBRANCH   1   2
BRANCH   1   8
ATOM      8  C   UNL     1       6.444   5.856  15.413  1.00  0.00     0.072 C 
BRANCH   8   9
ATOM      9  C   UNL     1       7.917   6.334  15.404  1.00  0.00     0.227 C 
BRANCH   9  10
ATOM     10  N   UNL     1       8.293   6.976  16.671  1.00  0.00    -0.350 N 
ATOM     11  H   UNL     1       8.235   6.287  17.454  1.00  0.00     0.345 HD
ATOM     12  H   UNL     1       7.669   7.790  16.875  1.00  0.00     0.345 HD
ATOM     13  H   UNL     1       9.284   7.310  16.621  1.00  0.00     0.345 HD
ENDBRANCH   9  10
BRANCH   9  14
ATOM     14  C   UNL     1       8.125   7.283  14.254  1.00  0.00     0.099 C 
ATOM     15  O   UNL     1       9.240   7.345  13.670  1.00  0.00    -0.544 OA
ATOM     16  O   UNL     1       7.095   8.122  13.850  1.00  0.00    -0.544 OA
ENDBRANCH   9  14
ENDBRANCH   8   9
ENDBRANCH   1   8
TORSDOF 7
ENDMDL
MODEL 8
REMARK VINA RESULT:    -4.097      6.193      8.008
REMARK INTER + INTRA:          -5.669
REMARK INTER:                  -5.685
REMARK INTRA:                   0.016
REMARK UNBOUND:                -0.135
REMARK SMILES [NH3+]CCCC[C@H]([NH3+])C(=O)[O-]
REMARK SMILES IDX 4 1 3 2 2 3 1 4 5 8 6 9 7 10 8 14 9 15 10 16
REMARK H PARENT 1 5 1 6 1 7 7 11 7 12 7 13
REMARK Flexibility Score: inf
ROOT
ATOM      1  C   UNL     1       3.050   2.861  11.992  1.00  0.00     0.012 C 
ENDROOT
BRANCH   1   2
ATOM      2  C   UNL     1       4.447   3.487  12.133  1.00  0.00     0.061 C 
BRANCH   2   3
ATOM      3  C   UNL     1       5.563   2.559  11.624  1.00  0.00     0.258 C 
BRANCH   3   4
ATOM      4  N   UNL     1       6.754   2.604  12.477  1.00  0.00    -0.358 N 
ATOM      5  H   UNL     1       6.740   3.492  13.030  1.00  0.00     0.344 HD
ATOM      6  H   UNL     1       6.753   1.802  13.146  1.00  0.00     0.344 HD
ATOM      7  H   UNL     1       7.622   2.585  11.894  1.00  0.00     0.344 HD
ENDBRANCH   3   4
ENDBRANCH   2   3
ENDBRANCH   1   2
BRANCH   1   8
ATOM      8  C   UNL     1       3.093   1.339  11.761  1.00  0.00     0.072 C 
BRANCH   8   9
ATOM      9  C   UNL     1       1.754   0.600  12.006  1.00  0.00     0.227 C 
BRANCH   9  10
ATOM     10  N   UNL     1       1.963  -0.757  12.530  1.00  0.00    -0.350 N 
ATOM     11  H   UNL     1       2.009  -0.735  13.573  1.00  0.00     0.345 HD
ATOM     12  H   UNL     1       2.846  -1.169  12.150  1.00  0.00     0.345 HD
ATOM     13  H   UNL     1       1.158  -1.371  12.264  1.00  0.00     0.345 HD
ENDBRANCH   9  10
BRANCH   9  14
ATOM     14  C   UNL     1       0.971   0.550  10.721  1.00  0.00     0.099 C 
ATOM     15  O   UNL     1       1.069   1.479   9.875  1.00  0.00    -0.544 OA
ATOM     16  O   UNL     1       0.110  -0.511  10.474  1.00  0.00    -0.544 OA
ENDBRANCH   9  14
ENDBRANCH   8   9
ENDBRANCH   1   8
TORSDOF 7
ENDMDL
MODEL 9
REMARK VINA RESULT:    -4.088      4.252      5.867
REMARK INTER + INTRA:          -5.657
REMARK INTER:                  -5.547
REMARK INTRA:                  -0.110
REMARK UNBOUND:                -0.135
REMARK SMILES [NH3+]CCCC[C@H]([NH3+])C(=O)[O-]
REMARK SMILES IDX 4 1 3 2 2 3 1 4 5 8 6 9 7 10 8 14 9 15 10 16
REMARK H PARENT 1 5 1 6 1 7 7 11 7 12 7 13
REMARK Flexibility Score: inf
ROOT
ATOM      1  C   UNL     1       3.099   1.051  11.753  1.00  0.00     0.012 C 
ENDROOT
BRANCH   1   2
ATOM      2  C   UNL     1       1.580   0.813  11.715  1.00  0.00     0.061 C 
BRANCH   2   3
ATOM      3  C   UNL     1       0.777   2.124  11.744  1.00  0.00     0.258 C 
BRANCH   3   4
ATOM      4  N   UNL     1      -0.371   2.052  12.652  1.00  0.00    -0.358 N 
ATOM      5  H   UNL     1      -0.476   2.972  13.138  1.00  0.00     0.344 HD
ATOM      6  H   UNL     1      -1.248   1.863  12.116  1.00  0.00     0.344 HD
ATOM      7  H   UNL     1      -0.222   1.309  13.372  1.00  0.00     0.344 HD
ENDBRANCH   3   4
ENDBRANCH   2   3
ENDBRANCH   1   2
BRANCH   1   8
ATOM      8  C   UNL     1       3.475   2.543  11.713  1.00  0.00     0.072 C 
BRANCH   8   9
ATOM      9  C   UNL     1       4.944   2.838  11.322  1.00  0.00     0.227 C 
BRANCH   9  10
ATOM     10  N   UNL     1       5.866   1.817  11.840  1.00  0.00    -0.350 N 
ATOM     11  H   UNL     1       5.332   1.082  12.358  1.00  0.00     0.345 HD
ATOM     12  H   UNL     1       6.576   2.246  12.476  1.00  0.00     0.345 HD
ATOM     13  H   UNL     1       6.358   1.345  11.046  1.00  0.00     0.345 HD
ENDBRANCH   9  10
BRANCH   9  14
ATOM     14  C   UNL     1       5.332   4.200  11.835  1.00  0.00     0.099 C 
ATOM     15  O   UNL     1       4.642   4.769  12.722  1.00  0.00    -0.544 OA
ATOM     16  O   UNL     1       6.440   4.851  11.307  1.00  0.00    -0.544 OA
ENDBRANCH   9  14
ENDBRANCH   8   9
ENDBRANCH   1   8
TORSDOF 7
ENDMDL
