MODEL 1
REMARK VINA RESULT:    60.371      0.000      0.000
REMARK INTER + INTRA:          87.004
REMARK INTER:                  85.076
REMARK INTRA:                   1.928
REMARK UNBOUND:                 1.928
REMARK SMILES C[C@@H](CO)CCC(=O)[C@H](C)[C@H]1C(=O)C[C@@H]2[C@H]3CC=C4C[C@@H](O)CC[C@@]4(C)[C@H]3CC[C@]21C
REMARK SMILES IDX 6 1 5 2 2 3 1 4 3 5 4 6 7 8 8 9 9 10 10 11 11 12 12 13 30 14
REMARK SMILES IDX 13 15 14 16 15 17 29 18 31 19 16 20 28 21 27 22 17 23 25 24
REMARK SMILES IDX 18 25 19 26 24 27 26 28 20 29 23 30 21 31 22 32
REMARK H PARENT 4 7 22 33
REMARK Flexibility Score: inf
ROOT
ATOM      1  C   UNL     1     -26.344  30.510  -8.611  1.00  0.00     0.076 C 
ENDROOT
BRANCH   1   2
ATOM      2  C   UNL     1     -24.879  30.874  -8.323  1.00  0.00     0.013 C 
BRANCH   2   3
ATOM      3  C   UNL     1     -24.271  31.801  -9.401  1.00  0.00     0.012 C 
ATOM      4  C   UNL     1     -25.036  33.131  -9.510  1.00  0.00     0.010 C 
BRANCH   3   5
ATOM      5  C   UNL     1     -22.777  32.061  -9.124  1.00  0.00     0.159 C 
BRANCH   5   6
ATOM      6  O   UNL     1     -22.549  33.399  -8.767  1.00  0.00    -0.396 OA
ATOM      7  H   UNL     1     -23.187  33.949  -9.292  1.00  0.00     0.210 HD
ENDBRANCH   5   6
ENDBRANCH   3   5
ENDBRANCH   2   3
ENDBRANCH   1   2
BRANCH   1   8
ATOM      8  C   UNL     1     -27.130  30.420  -7.328  1.00  0.00     0.136 C 
ATOM      9  O   UNL     1     -27.868  31.346  -7.021  1.00  0.00    -0.299 OA
BRANCH   8  10
ATOM     10  C   UNL     1     -27.018  29.205  -6.420  1.00  0.00     0.064 C 
ATOM     11  C   UNL     1     -28.232  28.279  -6.632  1.00  0.00     0.017 C 
BRANCH  10  12
ATOM     12  C   UNL     1     -26.776  29.652  -4.939  1.00  0.00     0.072 C 
ATOM     13  C   UNL     1     -26.531  31.132  -4.815  1.00  0.00     0.137 C 
ATOM     14  C   UNL     1     -27.916  29.435  -3.878  1.00  0.00    -0.019 C 
ATOM     15  O   UNL     1     -25.517  31.682  -5.215  1.00  0.00    -0.299 OA
ATOM     16  C   UNL     1     -27.594  31.861  -4.066  1.00  0.00     0.080 C 
ATOM     17  C   UNL     1     -28.670  30.786  -3.891  1.00  0.00     0.007 C 
ATOM     18  C   UNL     1     -28.936  28.280  -4.110  1.00  0.00     0.008 C 
ATOM     19  C   UNL     1     -27.205  29.186  -2.505  1.00  0.00     0.012 C 
ATOM     20  C   UNL     1     -29.653  30.944  -2.701  1.00  0.00     0.001 C 
ATOM     21  C   UNL     1     -30.387  28.627  -3.681  1.00  0.00     0.005 C 
ATOM     22  C   UNL     1     -30.517  29.622  -2.479  1.00  0.00     0.003 C 
ATOM     23  C   UNL     1     -30.494  32.242  -2.875  1.00  0.00     0.031 C 
ATOM     24  C   UNL     1     -32.017  29.931  -2.076  1.00  0.00    -0.008 C 
ATOM     25  C   UNL     1     -31.846  31.988  -3.465  1.00  0.00    -0.027 C 
ATOM     26  C   UNL     1     -32.600  30.963  -3.040  1.00  0.00    -0.065 C 
ATOM     27  C   UNL     1     -32.924  28.658  -2.120  1.00  0.00     0.014 C 
ATOM     28  C   UNL     1     -32.048  30.481  -0.623  1.00  0.00     0.016 C 
ATOM     29  C   UNL     1     -33.990  30.765  -3.607  1.00  0.00     0.063 C 
ATOM     30  C   UNL     1     -34.406  28.958  -1.820  1.00  0.00     0.033 C 
ATOM     31  C   UNL     1     -34.939  30.236  -2.521  1.00  0.00     0.118 C 
BRANCH  31  32
ATOM     32  O   UNL     1     -36.195  29.987  -3.095  1.00  0.00    -0.393 OA
ATOM     33  H   UNL     1     -36.230  30.505  -3.942  1.00  0.00     0.210 HD
ENDBRANCH  31  32
ENDBRANCH  10  12
ENDBRANCH   8  10
ENDBRANCH   1   8
TORSDOF 8
ENDMDL
MODEL 2
REMARK VINA RESULT:    63.275      5.692      8.845
REMARK INTER + INTRA:          91.097
REMARK INTER:                  90.772
REMARK INTRA:                   0.325
REMARK UNBOUND:                 1.928
REMARK SMILES C[C@@H](CO)CCC(=O)[C@H](C)[C@H]1C(=O)C[C@@H]2[C@H]3CC=C4C[C@@H](O)CC[C@@]4(C)[C@H]3CC[C@]21C
REMARK SMILES IDX 6 1 5 2 2 3 1 4 3 5 4 6 7 8 8 9 9 10 10 11 11 12 12 13 30 14
REMARK SMILES IDX 13 15 14 16 15 17 29 18 31 19 16 20 28 21 27 22 17 23 25 24
REMARK SMILES IDX 18 25 19 26 24 27 26 28 20 29 23 30 21 31 22 32
REMARK H PARENT 4 7 22 33
REMARK Flexibility Score: inf
ROOT
ATOM      1  C   UNL     1     -18.875  25.567  -5.303  1.00  0.00     0.076 C 
ENDROOT
BRANCH   1   2
ATOM      2  C   UNL     1     -18.933  24.815  -6.642  1.00  0.00     0.013 C 
BRANCH   2   3
ATOM      3  C   UNL     1     -18.877  23.280  -6.467  1.00  0.00     0.012 C 
ATOM      4  C   UNL     1     -19.851  22.790  -5.383  1.00  0.00     0.010 C 
BRANCH   3   5
ATOM      5  C   UNL     1     -19.155  22.563  -7.804  1.00  0.00     0.159 C 
BRANCH   5   6
ATOM      6  O   UNL     1     -20.393  21.903  -7.781  1.00  0.00    -0.396 OA
ATOM      7  H   UNL     1     -20.203  20.941  -7.631  1.00  0.00     0.210 HD
ENDBRANCH   5   6
ENDBRANCH   3   5
ENDBRANCH   2   3
ENDBRANCH   1   2
BRANCH   1   8
ATOM      8  C   UNL     1     -20.264  25.914  -4.829  1.00  0.00     0.136 C 
ATOM      9  O   UNL     1     -20.745  25.284  -3.898  1.00  0.00    -0.299 OA
BRANCH   8  10
ATOM     10  C   UNL     1     -21.064  27.026  -5.488  1.00  0.00     0.064 C 
ATOM     11  C   UNL     1     -22.086  27.601  -4.486  1.00  0.00     0.017 C 
BRANCH  10  12
ATOM     12  C   UNL     1     -21.672  26.531  -6.843  1.00  0.00     0.072 C 
ATOM     13  C   UNL     1     -22.697  25.444  -6.654  1.00  0.00     0.137 C 
ATOM     14  C   UNL     1     -22.461  27.549  -7.745  1.00  0.00    -0.019 C 
ATOM     15  O   UNL     1     -22.417  24.312  -6.291  1.00  0.00    -0.299 OA
ATOM     16  C   UNL     1     -24.079  25.840  -7.047  1.00  0.00     0.080 C 
ATOM     17  C   UNL     1     -23.931  27.342  -7.307  1.00  0.00     0.007 C 
ATOM     18  C   UNL     1     -22.108  29.063  -7.641  1.00  0.00     0.008 C 
ATOM     19  C   UNL     1     -22.235  27.098  -9.228  1.00  0.00     0.012 C 
ATOM     20  C   UNL     1     -24.952  28.006  -8.268  1.00  0.00     0.001 C 
ATOM     21  C   UNL     1     -23.336  30.005  -7.758  1.00  0.00     0.005 C 
ATOM     22  C   UNL     1     -24.503  29.485  -8.662  1.00  0.00     0.003 C 
ATOM     23  C   UNL     1     -26.386  27.903  -7.674  1.00  0.00     0.031 C 
ATOM     24  C   UNL     1     -25.724  30.490  -8.755  1.00  0.00    -0.008 C 
ATOM     25  C   UNL     1     -26.817  29.150  -6.967  1.00  0.00    -0.027 C 
ATOM     26  C   UNL     1     -26.587  30.359  -7.503  1.00  0.00    -0.065 C 
ATOM     27  C   UNL     1     -25.265  31.980  -8.877  1.00  0.00     0.014 C 
ATOM     28  C   UNL     1     -26.563  30.152 -10.020  1.00  0.00     0.016 C 
ATOM     29  C   UNL     1     -27.088  31.602  -6.798  1.00  0.00     0.063 C 
ATOM     30  C   UNL     1     -26.440  32.978  -8.876  1.00  0.00     0.033 C 
ATOM     31  C   UNL     1     -27.535  32.653  -7.825  1.00  0.00     0.118 C 
BRANCH  31  32
ATOM     32  O   UNL     1     -27.918  33.820  -7.145  1.00  0.00    -0.393 OA
ATOM     33  H   UNL     1     -28.615  33.553  -6.490  1.00  0.00     0.210 HD
ENDBRANCH  31  32
ENDBRANCH  10  12
ENDBRANCH   8  10
ENDBRANCH   1   8
TORSDOF 8
ENDMDL
