MODEL 1
REMARK VINA RESULT:    -4.313      0.000      0.000
REMARK INTER + INTRA:          -8.010
REMARK INTER:                  -6.834
REMARK INTRA:                  -1.177
REMARK UNBOUND:                -1.177
REMARK SMILES CCCCCCCCCCCC(=O)[O-]
REMARK SMILES IDX 7 1 8 2 9 3 10 4 11 5 12 6 13 7 14 8 6 9 5 10 4 11 3 12 2 13
REMARK SMILES IDX 1 14
REMARK H PARENT
REMARK Flexibility Score: inf
ROOT
ATOM      1  C   UNL     1       4.774 -29.650 -18.323  1.00  0.00     0.000 C 
ENDROOT
BRANCH   1   2
ATOM      2  C   UNL     1       4.693 -31.042 -17.668  1.00  0.00     0.000 C 
BRANCH   2   3
ATOM      3  C   UNL     1       6.077 -31.647 -17.379  1.00  0.00     0.000 C 
BRANCH   3   4
ATOM      4  C   UNL     1       6.971 -31.697 -18.629  1.00  0.00     0.006 C 
BRANCH   4   5
ATOM      5  C   UNL     1       6.341 -32.502 -19.774  1.00  0.00     0.053 C 
BRANCH   5   6
ATOM      6  C   UNL     1       7.226 -33.648 -20.152  1.00  0.00     0.041 C 
ATOM      7  O   UNL     1       6.794 -34.561 -20.904  1.00  0.00    -0.550 OA
ATOM      8  O   UNL     1       8.543 -33.683 -19.714  1.00  0.00    -0.550 OA
ENDBRANCH   5   6
ENDBRANCH   4   5
ENDBRANCH   3   4
ENDBRANCH   2   3
ENDBRANCH   1   2
BRANCH   1   9
ATOM      9  C   UNL     1       4.484 -28.466 -17.380  1.00  0.00     0.000 C 
BRANCH   9  10
ATOM     10  C   UNL     1       5.077 -28.594 -15.963  1.00  0.00    -0.000 C 
BRANCH  10  11
ATOM     11  C   UNL     1       6.382 -27.811 -15.732  1.00  0.00    -0.000 C 
BRANCH  11  12
ATOM     12  C   UNL     1       7.633 -28.697 -15.822  1.00  0.00    -0.000 C 
BRANCH  12  13
ATOM     13  C   UNL     1       8.269 -28.607 -17.214  1.00  0.00    -0.003 C 
ATOM     14  C   UNL     1       7.915 -27.289 -17.896  1.00  0.00     0.004 C 
ENDBRANCH  12  13
ENDBRANCH  11  12
ENDBRANCH  10  11
ENDBRANCH   9  10
ENDBRANCH   1   9
TORSDOF 10
ENDMDL
MODEL 2
REMARK VINA RESULT:    -4.191      2.044      3.397
REMARK INTER + INTRA:          -7.817
REMARK INTER:                  -7.403
REMARK INTRA:                  -0.415
REMARK UNBOUND:                -1.177
REMARK SMILES CCCCCCCCCCCC(=O)[O-]
REMARK SMILES IDX 7 1 8 2 9 3 10 4 11 5 12 6 13 7 14 8 6 9 5 10 4 11 3 12 2 13
REMARK SMILES IDX 1 14
REMARK H PARENT
REMARK Flexibility Score: inf
ROOT
ATOM      1  C   UNL     1       7.293 -32.082 -18.592  1.00  0.00     0.000 C 
ENDROOT
BRANCH   1   2
ATOM      2  C   UNL     1       6.541 -32.766 -19.748  1.00  0.00     0.000 C 
BRANCH   2   3
ATOM      3  C   UNL     1       7.371 -33.865 -20.433  1.00  0.00     0.000 C 
BRANCH   3   4
ATOM      4  C   UNL     1       6.542 -35.122 -20.745  1.00  0.00     0.006 C 
BRANCH   4   5
ATOM      5  C   UNL     1       5.967 -35.114 -22.168  1.00  0.00     0.053 C 
BRANCH   5   6
ATOM      6  C   UNL     1       6.738 -36.049 -23.046  1.00  0.00     0.041 C 
ATOM      7  O   UNL     1       6.781 -35.859 -24.290  1.00  0.00    -0.550 OA
ATOM      8  O   UNL     1       7.449 -37.102 -22.485  1.00  0.00    -0.550 OA
ENDBRANCH   5   6
ENDBRANCH   4   5
ENDBRANCH   3   4
ENDBRANCH   2   3
ENDBRANCH   1   2
BRANCH   1   9
ATOM      9  C   UNL     1       6.864 -30.631 -18.299  1.00  0.00     0.000 C 
BRANCH   9  10
ATOM     10  C   UNL     1       6.811 -30.251 -16.806  1.00  0.00    -0.000 C 
BRANCH  10  11
ATOM     11  C   UNL     1       7.377 -28.860 -16.469  1.00  0.00    -0.000 C 
BRANCH  11  12
ATOM     12  C   UNL     1       6.900 -27.771 -17.441  1.00  0.00    -0.000 C 
BRANCH  12  13
ATOM     13  C   UNL     1       5.480 -27.310 -17.093  1.00  0.00    -0.003 C 
ATOM     14  C   UNL     1       4.540 -27.476 -18.284  1.00  0.00     0.004 C 
ENDBRANCH  12  13
ENDBRANCH  11  12
ENDBRANCH  10  11
ENDBRANCH   9  10
ENDBRANCH   1   9
TORSDOF 10
ENDMDL
MODEL 3
REMARK VINA RESULT:    -4.094      2.741      6.203
REMARK INTER + INTRA:          -7.665
REMARK INTER:                  -7.005
REMARK INTRA:                  -0.659
REMARK UNBOUND:                -1.177
REMARK SMILES CCCCCCCCCCCC(=O)[O-]
REMARK SMILES IDX 7 1 8 2 9 3 10 4 11 5 12 6 13 7 14 8 6 9 5 10 4 11 3 12 2 13
REMARK SMILES IDX 1 14
REMARK H PARENT
REMARK Flexibility Score: inf
ROOT
ATOM      1  C   UNL     1       5.694 -31.737 -17.532  1.00  0.00     0.000 C 
ENDROOT
BRANCH   1   2
ATOM      2  C   UNL     1       4.734 -30.564 -17.263  1.00  0.00     0.000 C 
BRANCH   2   3
ATOM      3  C   UNL     1       5.037 -29.334 -18.136  1.00  0.00     0.000 C 
BRANCH   3   4
ATOM      4  C   UNL     1       5.122 -28.036 -17.317  1.00  0.00     0.006 C 
BRANCH   4   5
ATOM      5  C   UNL     1       6.484 -27.340 -17.452  1.00  0.00     0.053 C 
BRANCH   5   6
ATOM      6  C   UNL     1       7.567 -28.199 -16.879  1.00  0.00     0.041 C 
ATOM      7  O   UNL     1       8.624 -28.405 -17.532  1.00  0.00    -0.550 OA
ATOM      8  O   UNL     1       7.429 -28.733 -15.605  1.00  0.00    -0.550 OA
ENDBRANCH   5   6
ENDBRANCH   4   5
ENDBRANCH   3   4
ENDBRANCH   2   3
ENDBRANCH   1   2
BRANCH   1   9
ATOM      9  C   UNL     1       6.752 -31.480 -18.623  1.00  0.00     0.000 C 
BRANCH   9  10
ATOM     10  C   UNL     1       7.316 -32.745 -19.301  1.00  0.00    -0.000 C 
BRANCH  10  11
ATOM     11  C   UNL     1       6.485 -33.272 -20.485  1.00  0.00    -0.000 C 
BRANCH  11  12
ATOM     12  C   UNL     1       6.833 -34.720 -20.860  1.00  0.00    -0.000 C 
BRANCH  12  13
ATOM     13  C   UNL     1       5.878 -35.253 -21.934  1.00  0.00    -0.003 C 
ATOM     14  C   UNL     1       6.645 -35.928 -23.068  1.00  0.00     0.004 C 
ENDBRANCH  12  13
ENDBRANCH  11  12
ENDBRANCH  10  11
ENDBRANCH   9  10
ENDBRANCH   1   9
TORSDOF 10
ENDMDL
MODEL 4
REMARK VINA RESULT:    -4.042     11.569     14.228
REMARK INTER + INTRA:          -7.582
REMARK INTER:                  -6.994
REMARK INTRA:                  -0.588
REMARK UNBOUND:                -1.177
REMARK SMILES CCCCCCCCCCCC(=O)[O-]
REMARK SMILES IDX 7 1 8 2 9 3 10 4 11 5 12 6 13 7 14 8 6 9 5 10 4 11 3 12 2 13
REMARK SMILES IDX 1 14
REMARK H PARENT
REMARK Flexibility Score: inf
ROOT
ATOM      1  C   UNL     1      -1.401 -41.850 -18.767  1.00  0.00     0.000 C 
ENDROOT
BRANCH   1   2
ATOM      2  C   UNL     1      -0.666 -41.117 -19.904  1.00  0.00     0.000 C 
BRANCH   2   3
ATOM      3  C   UNL     1      -1.535 -40.044 -20.582  1.00  0.00     0.000 C 
BRANCH   3   4
ATOM      4  C   UNL     1      -0.769 -39.258 -21.658  1.00  0.00     0.006 C 
BRANCH   4   5
ATOM      5  C   UNL     1      -1.283 -37.821 -21.819  1.00  0.00     0.053 C 
BRANCH   5   6
ATOM      6  C   UNL     1      -0.200 -36.841 -21.492  1.00  0.00     0.041 C 
ATOM      7  O   UNL     1       0.873 -36.839 -22.151  1.00  0.00    -0.550 OA
ATOM      8  O   UNL     1      -0.394 -35.899 -20.490  1.00  0.00    -0.550 OA
ENDBRANCH   5   6
ENDBRANCH   4   5
ENDBRANCH   3   4
ENDBRANCH   2   3
ENDBRANCH   1   2
BRANCH   1   9
ATOM      9  C   UNL     1      -0.496 -42.387 -17.641  1.00  0.00     0.000 C 
BRANCH   9  10
ATOM     10  C   UNL     1       0.634 -43.330 -18.101  1.00  0.00    -0.000 C 
BRANCH  10  11
ATOM     11  C   UNL     1       0.566 -44.755 -17.522  1.00  0.00    -0.000 C 
BRANCH  11  12
ATOM     12  C   UNL     1      -0.714 -45.008 -16.712  1.00  0.00    -0.000 C 
BRANCH  12  13
ATOM     13  C   UNL     1      -1.700 -45.876 -17.502  1.00  0.00    -0.003 C 
ATOM     14  C   UNL     1      -3.086 -45.238 -17.543  1.00  0.00     0.004 C 
ENDBRANCH  12  13
ENDBRANCH  11  12
ENDBRANCH  10  11
ENDBRANCH   9  10
ENDBRANCH   1   9
TORSDOF 10
ENDMDL
MODEL 5
REMARK VINA RESULT:    -4.036      2.779      5.317
REMARK INTER + INTRA:          -7.572
REMARK INTER:                  -6.677
REMARK INTRA:                  -0.896
REMARK UNBOUND:                -1.177
REMARK SMILES CCCCCCCCCCCC(=O)[O-]
REMARK SMILES IDX 7 1 8 2 9 3 10 4 11 5 12 6 13 7 14 8 6 9 5 10 4 11 3 12 2 13
REMARK SMILES IDX 1 14
REMARK H PARENT
REMARK Flexibility Score: inf
ROOT
ATOM      1  C   UNL     1       3.831 -31.158 -16.432  1.00  0.00     0.000 C 
ENDROOT
BRANCH   1   2
ATOM      2  C   UNL     1       4.269 -30.087 -15.416  1.00  0.00     0.000 C 
BRANCH   2   3
ATOM      3  C   UNL     1       4.196 -28.660 -15.986  1.00  0.00     0.000 C 
BRANCH   3   4
ATOM      4  C   UNL     1       5.507 -27.880 -15.793  1.00  0.00     0.006 C 
BRANCH   4   5
ATOM      5  C   UNL     1       6.210 -27.568 -17.121  1.00  0.00     0.053 C 
BRANCH   5   6
ATOM      6  C   UNL     1       7.639 -28.008 -17.069  1.00  0.00     0.041 C 
ATOM      7  O   UNL     1       8.442 -27.662 -17.976  1.00  0.00    -0.550 OA
ATOM      8  O   UNL     1       8.096 -28.761 -15.995  1.00  0.00    -0.550 OA
ENDBRANCH   5   6
ENDBRANCH   4   5
ENDBRANCH   3   4
ENDBRANCH   2   3
ENDBRANCH   1   2
BRANCH   1   9
ATOM      9  C   UNL     1       4.731 -31.286 -17.677  1.00  0.00     0.000 C 
BRANCH   9  10
ATOM     10  C   UNL     1       6.235 -31.460 -17.384  1.00  0.00    -0.000 C 
BRANCH  10  11
ATOM     11  C   UNL     1       7.126 -31.609 -18.631  1.00  0.00    -0.000 C 
BRANCH  11  12
ATOM     12  C   UNL     1       6.495 -32.500 -19.712  1.00  0.00    -0.000 C 
BRANCH  12  13
ATOM     13  C   UNL     1       7.447 -33.634 -20.111  1.00  0.00    -0.003 C 
ATOM     14  C   UNL     1       6.736 -34.670 -20.978  1.00  0.00     0.004 C 
ENDBRANCH  12  13
ENDBRANCH  11  12
ENDBRANCH  10  11
ENDBRANCH   9  10
ENDBRANCH   1   9
TORSDOF 10
ENDMDL
MODEL 6
REMARK VINA RESULT:    -3.994      1.816      2.878
REMARK INTER + INTRA:          -7.505
REMARK INTER:                  -6.910
REMARK INTRA:                  -0.595
REMARK UNBOUND:                -1.177
REMARK SMILES CCCCCCCCCCCC(=O)[O-]
REMARK SMILES IDX 7 1 8 2 9 3 10 4 11 5 12 6 13 7 14 8 6 9 5 10 4 11 3 12 2 13
REMARK SMILES IDX 1 14
REMARK H PARENT
REMARK Flexibility Score: inf
ROOT
ATOM      1  C   UNL     1       5.720 -31.562 -18.544  1.00  0.00     0.000 C 
ENDROOT
BRANCH   1   2
ATOM      2  C   UNL     1       6.943 -32.222 -19.208  1.00  0.00     0.000 C 
BRANCH   2   3
ATOM      3  C   UNL     1       6.573 -33.042 -20.456  1.00  0.00     0.000 C 
BRANCH   3   4
ATOM      4  C   UNL     1       7.175 -34.456 -20.431  1.00  0.00     0.006 C 
BRANCH   4   5
ATOM      5  C   UNL     1       6.631 -35.350 -21.554  1.00  0.00     0.053 C 
BRANCH   5   6
ATOM      6  C   UNL     1       6.127 -36.642 -20.993  1.00  0.00     0.041 C 
ATOM      7  O   UNL     1       4.991 -36.699 -20.455  1.00  0.00    -0.550 OA
ATOM      8  O   UNL     1       6.894 -37.795 -21.107  1.00  0.00    -0.550 OA
ENDBRANCH   5   6
ENDBRANCH   4   5
ENDBRANCH   3   4
ENDBRANCH   2   3
ENDBRANCH   1   2
BRANCH   1   9
ATOM      9  C   UNL     1       5.766 -31.498 -17.004  1.00  0.00     0.000 C 
BRANCH   9  10
ATOM     10  C   UNL     1       5.558 -30.096 -16.399  1.00  0.00    -0.000 C 
BRANCH  10  11
ATOM     11  C   UNL     1       5.015 -29.040 -17.379  1.00  0.00    -0.000 C 
BRANCH  11  12
ATOM     12  C   UNL     1       5.896 -27.784 -17.451  1.00  0.00    -0.000 C 
BRANCH  12  13
ATOM     13  C   UNL     1       7.285 -28.055 -16.861  1.00  0.00    -0.003 C 
ATOM     14  C   UNL     1       8.381 -27.791 -17.890  1.00  0.00     0.004 C 
ENDBRANCH  12  13
ENDBRANCH  11  12
ENDBRANCH  10  11
ENDBRANCH   9  10
ENDBRANCH   1   9
TORSDOF 10
ENDMDL
MODEL 7
REMARK VINA RESULT:    -3.945      2.557      3.985
REMARK INTER + INTRA:          -7.427
REMARK INTER:                  -6.945
REMARK INTRA:                  -0.482
REMARK UNBOUND:                -1.177
REMARK SMILES CCCCCCCCCCCC(=O)[O-]
REMARK SMILES IDX 7 1 8 2 9 3 10 4 11 5 12 6 13 7 14 8 6 9 5 10 4 11 3 12 2 13
REMARK SMILES IDX 1 14
REMARK H PARENT
REMARK Flexibility Score: inf
ROOT
ATOM      1  C   UNL     1       6.365 -32.370 -19.517  1.00  0.00     0.000 C 
ENDROOT
BRANCH   1   2
ATOM      2  C   UNL     1       7.238 -33.411 -20.242  1.00  0.00     0.000 C 
BRANCH   2   3
ATOM      3  C   UNL     1       6.443 -34.653 -20.682  1.00  0.00     0.000 C 
BRANCH   3   4
ATOM      4  C   UNL     1       6.285 -34.740 -22.208  1.00  0.00     0.006 C 
BRANCH   4   5
ATOM      5  C   UNL     1       6.008 -36.171 -22.693  1.00  0.00     0.053 C 
BRANCH   5   6
ATOM      6  C   UNL     1       4.616 -36.277 -23.232  1.00  0.00     0.041 C 
ATOM      7  O   UNL     1       4.426 -36.497 -24.457  1.00  0.00    -0.550 OA
ATOM      8  O   UNL     1       3.529 -36.181 -22.373  1.00  0.00    -0.550 OA
ENDBRANCH   5   6
ENDBRANCH   4   5
ENDBRANCH   3   4
ENDBRANCH   2   3
ENDBRANCH   1   2
BRANCH   1   9
ATOM      9  C   UNL     1       7.084 -31.563 -18.418  1.00  0.00     0.000 C 
BRANCH   9  10
ATOM     10  C   UNL     1       6.352 -31.503 -17.062  1.00  0.00    -0.000 C 
BRANCH  10  11
ATOM     11  C   UNL     1       5.880 -30.100 -16.641  1.00  0.00    -0.000 C 
BRANCH  11  12
ATOM     12  C   UNL     1       6.128 -29.038 -17.723  1.00  0.00    -0.000 C 
BRANCH  12  13
ATOM     13  C   UNL     1       7.013 -27.906 -17.188  1.00  0.00    -0.003 C 
ATOM     14  C   UNL     1       8.420 -27.983 -17.773  1.00  0.00     0.004 C 
ENDBRANCH  12  13
ENDBRANCH  11  12
ENDBRANCH  10  11
ENDBRANCH   9  10
ENDBRANCH   1   9
TORSDOF 10
ENDMDL
MODEL 8
REMARK VINA RESULT:    -3.799     10.484     13.089
REMARK INTER + INTRA:          -7.196
REMARK INTER:                  -6.638
REMARK INTRA:                  -0.558
REMARK UNBOUND:                -1.177
REMARK SMILES CCCCCCCCCCCC(=O)[O-]
REMARK SMILES IDX 7 1 8 2 9 3 10 4 11 5 12 6 13 7 14 8 6 9 5 10 4 11 3 12 2 13
REMARK SMILES IDX 1 14
REMARK H PARENT
REMARK Flexibility Score: inf
ROOT
ATOM      1  C   UNL     1      -1.506 -41.776 -18.646  1.00  0.00     0.000 C 
ENDROOT
BRANCH   1   2
ATOM      2  C   UNL     1      -0.722 -41.124 -19.800  1.00  0.00     0.000 C 
BRANCH   2   3
ATOM      3  C   UNL     1      -1.524 -40.024 -20.517  1.00  0.00     0.000 C 
BRANCH   3   4
ATOM      4  C   UNL     1      -0.704 -39.313 -21.607  1.00  0.00     0.006 C 
BRANCH   4   5
ATOM      5  C   UNL     1      -1.138 -37.855 -21.816  1.00  0.00     0.053 C 
BRANCH   5   6
ATOM      6  C   UNL     1       0.005 -36.928 -21.543  1.00  0.00     0.041 C 
ATOM      7  O   UNL     1       1.048 -36.984 -22.247  1.00  0.00    -0.550 OA
ATOM      8  O   UNL     1      -0.100 -35.970 -20.543  1.00  0.00    -0.550 OA
ENDBRANCH   5   6
ENDBRANCH   4   5
ENDBRANCH   3   4
ENDBRANCH   2   3
ENDBRANCH   1   2
BRANCH   1   9
ATOM      9  C   UNL     1      -0.637 -42.428 -17.552  1.00  0.00     0.000 C 
BRANCH   9  10
ATOM     10  C   UNL     1      -0.396 -43.941 -17.720  1.00  0.00    -0.000 C 
BRANCH  10  11
ATOM     11  C   UNL     1       1.003 -44.322 -18.238  1.00  0.00    -0.000 C 
BRANCH  11  12
ATOM     12  C   UNL     1       1.993 -43.148 -18.198  1.00  0.00    -0.000 C 
BRANCH  12  13
ATOM     13  C   UNL     1       3.150 -43.440 -17.235  1.00  0.00    -0.003 C 
ATOM     14  C   UNL     1       3.373 -42.276 -16.273  1.00  0.00     0.004 C 
ENDBRANCH  12  13
ENDBRANCH  11  12
ENDBRANCH  10  11
ENDBRANCH   9  10
ENDBRANCH   1   9
TORSDOF 10
ENDMDL
MODEL 9
REMARK VINA RESULT:    -3.785      3.423      7.139
REMARK INTER + INTRA:          -7.174
REMARK INTER:                  -6.792
REMARK INTRA:                  -0.383
REMARK UNBOUND:                -1.177
REMARK SMILES CCCCCCCCCCCC(=O)[O-]
REMARK SMILES IDX 7 1 8 2 9 3 10 4 11 5 12 6 13 7 14 8 6 9 5 10 4 11 3 12 2 13
REMARK SMILES IDX 1 14
REMARK H PARENT
REMARK Flexibility Score: inf
ROOT
ATOM      1  C   UNL     1       6.409 -32.380 -19.655  1.00  0.00     0.000 C 
ENDROOT
BRANCH   1   2
ATOM      2  C   UNL     1       6.987 -31.743 -18.378  1.00  0.00     0.000 C 
BRANCH   2   3
ATOM      3  C   UNL     1       5.976 -31.709 -17.218  1.00  0.00     0.000 C 
BRANCH   3   4
ATOM      4  C   UNL     1       6.078 -30.422 -16.384  1.00  0.00     0.006 C 
BRANCH   4   5
ATOM      5  C   UNL     1       6.402 -29.188 -17.238  1.00  0.00     0.053 C 
BRANCH   5   6
ATOM      6  C   UNL     1       7.658 -28.535 -16.753  1.00  0.00     0.041 C 
ATOM      7  O   UNL     1       7.867 -28.400 -15.519  1.00  0.00    -0.550 OA
ATOM      8  O   UNL     1       8.621 -28.119 -17.664  1.00  0.00    -0.550 OA
ENDBRANCH   5   6
ENDBRANCH   4   5
ENDBRANCH   3   4
ENDBRANCH   2   3
ENDBRANCH   1   2
BRANCH   1   9
ATOM      9  C   UNL     1       7.157 -33.630 -20.159  1.00  0.00     0.000 C 
BRANCH   9  10
ATOM     10  C   UNL     1       6.402 -34.466 -21.212  1.00  0.00    -0.000 C 
BRANCH  10  11
ATOM     11  C   UNL     1       6.371 -35.980 -20.937  1.00  0.00    -0.000 C 
BRANCH  11  12
ATOM     12  C   UNL     1       5.026 -36.626 -21.303  1.00  0.00    -0.000 C 
BRANCH  12  13
ATOM     13  C   UNL     1       4.553 -36.160 -22.685  1.00  0.00    -0.003 C 
ATOM     14  C   UNL     1       3.042 -36.316 -22.831  1.00  0.00     0.004 C 
ENDBRANCH  12  13
ENDBRANCH  11  12
ENDBRANCH  10  11
ENDBRANCH   9  10
ENDBRANCH   1   9
TORSDOF 10
ENDMDL
