MODEL 1
REMARK VINA RESULT:    -4.980      0.000      0.000
REMARK INTER + INTRA:          -7.929
REMARK INTER:                  -7.600
REMARK INTRA:                  -0.329
REMARK UNBOUND:                -0.329
REMARK SMILES O=C([O-])CCCCCCCCC(=O)[O-]
REMARK SMILES IDX 7 1 6 2 5 3 4 4 2 5 1 6 3 7 8 8 9 9 10 10 11 11 12 12 13 13
REMARK SMILES IDX 14 14
REMARK H PARENT
REMARK Flexibility Score: inf
ROOT
ATOM      1  C   UNL     1      21.852 -10.506  22.685  1.00  0.00     0.000 C 
ENDROOT
BRANCH   1   2
ATOM      2  C   UNL     1      21.049 -11.040  23.879  1.00  0.00     0.000 C 
BRANCH   2   3
ATOM      3  C   UNL     1      20.413  -9.924  24.727  1.00  0.00     0.006 C 
BRANCH   3   4
ATOM      4  C   UNL     1      21.298  -8.675  24.880  1.00  0.00     0.053 C 
BRANCH   4   5
ATOM      5  C   UNL     1      20.659  -7.619  25.731  1.00  0.00     0.041 C 
ATOM      6  O   UNL     1      19.464  -7.279  25.528  1.00  0.00    -0.550 OA
ATOM      7  O   UNL     1      21.370  -7.034  26.772  1.00  0.00    -0.550 OA
ENDBRANCH   4   5
ENDBRANCH   3   4
ENDBRANCH   2   3
ENDBRANCH   1   2
BRANCH   1   8
ATOM      8  C   UNL     1      22.258 -11.645  21.741  1.00  0.00     0.000 C 
BRANCH   8   9
ATOM      9  C   UNL     1      21.067 -12.564  21.444  1.00  0.00     0.000 C 
BRANCH   9  10
ATOM     10  C   UNL     1      21.419 -13.590  20.360  1.00  0.00     0.006 C 
BRANCH  10  11
ATOM     11  C   UNL     1      22.701 -14.348  20.716  1.00  0.00     0.053 C 
BRANCH  11  12
ATOM     12  C   UNL     1      22.909 -15.494  19.778  1.00  0.00     0.041 C 
ATOM     13  O   UNL     1      22.821 -15.319  18.534  1.00  0.00    -0.550 OA
ATOM     14  O   UNL     1      23.248 -16.746  20.275  1.00  0.00    -0.550 OA
ENDBRANCH  11  12
ENDBRANCH  10  11
ENDBRANCH   9  10
ENDBRANCH   8   9
ENDBRANCH   1   8
TORSDOF 9
ENDMDL
MODEL 2
REMARK VINA RESULT:    -4.913      2.710      4.016
REMARK INTER + INTRA:          -7.826
REMARK INTER:                  -7.575
REMARK INTRA:                  -0.252
REMARK UNBOUND:                -0.329
REMARK SMILES O=C([O-])CCCCCCCCC(=O)[O-]
REMARK SMILES IDX 7 1 6 2 5 3 4 4 2 5 1 6 3 7 8 8 9 9 10 10 11 11 12 12 13 13
REMARK SMILES IDX 14 14
REMARK H PARENT
REMARK Flexibility Score: inf
ROOT
ATOM      1  C   UNL     1      22.096 -13.676  20.878  1.00  0.00     0.000 C 
ENDROOT
BRANCH   1   2
ATOM      2  C   UNL     1      22.885 -12.623  21.668  1.00  0.00     0.000 C 
BRANCH   2   3
ATOM      3  C   UNL     1      22.180 -11.256  21.725  1.00  0.00     0.006 C 
BRANCH   3   4
ATOM      4  C   UNL     1      21.960 -10.727  23.154  1.00  0.00     0.053 C 
BRANCH   4   5
ATOM      5  C   UNL     1      20.615 -11.096  23.702  1.00  0.00     0.041 C 
ATOM      6  O   UNL     1      20.264 -10.696  24.843  1.00  0.00    -0.550 OA
ATOM      7  O   UNL     1      19.731 -11.851  22.940  1.00  0.00    -0.550 OA
ENDBRANCH   4   5
ENDBRANCH   3   4
ENDBRANCH   2   3
ENDBRANCH   1   2
BRANCH   1   8
ATOM      8  C   UNL     1      22.977 -14.886  20.540  1.00  0.00     0.000 C 
BRANCH   8   9
ATOM      9  C   UNL     1      22.831 -15.278  19.065  1.00  0.00     0.000 C 
BRANCH   9  10
ATOM     10  C   UNL     1      23.091 -16.777  18.866  1.00  0.00     0.006 C 
BRANCH  10  11
ATOM     11  C   UNL     1      23.084 -17.143  17.379  1.00  0.00     0.053 C 
BRANCH  11  12
ATOM     12  C   UNL     1      22.496 -18.503  17.178  1.00  0.00     0.041 C 
ATOM     13  O   UNL     1      22.427 -18.999  16.022  1.00  0.00    -0.550 OA
ATOM     14  O   UNL     1      22.068 -19.244  18.272  1.00  0.00    -0.550 OA
ENDBRANCH  11  12
ENDBRANCH  10  11
ENDBRANCH   9  10
ENDBRANCH   8   9
ENDBRANCH   1   8
TORSDOF 9
ENDMDL
MODEL 3
REMARK VINA RESULT:    -4.910      2.775      9.079
REMARK INTER + INTRA:          -7.823
REMARK INTER:                  -7.480
REMARK INTRA:                  -0.343
REMARK UNBOUND:                -0.329
REMARK SMILES O=C([O-])CCCCCCCCC(=O)[O-]
REMARK SMILES IDX 7 1 6 2 5 3 4 4 2 5 1 6 3 7 8 8 9 9 10 10 11 11 12 12 13 13
REMARK SMILES IDX 14 14
REMARK H PARENT
REMARK Flexibility Score: inf
ROOT
ATOM      1  C   UNL     1      22.987 -15.573  19.934  1.00  0.00     0.000 C 
ENDROOT
BRANCH   1   2
ATOM      2  C   UNL     1      22.605 -15.297  18.473  1.00  0.00     0.000 C 
BRANCH   2   3
ATOM      3  C   UNL     1      22.998 -16.439  17.519  1.00  0.00     0.006 C 
BRANCH   3   4
ATOM      4  C   UNL     1      23.097 -17.815  18.201  1.00  0.00     0.053 C 
BRANCH   4   5
ATOM      5  C   UNL     1      22.403 -18.893  17.423  1.00  0.00     0.041 C 
ATOM      6  O   UNL     1      21.884 -19.871  18.022  1.00  0.00    -0.550 OA
ATOM      7  O   UNL     1      22.296 -18.800  16.041  1.00  0.00    -0.550 OA
ENDBRANCH   4   5
ENDBRANCH   3   4
ENDBRANCH   2   3
ENDBRANCH   1   2
BRANCH   1   8
ATOM      8  C   UNL     1      22.735 -14.340  20.811  1.00  0.00     0.000 C 
BRANCH   8   9
ATOM      9  C   UNL     1      21.492 -13.575  20.341  1.00  0.00     0.000 C 
BRANCH   9  10
ATOM     10  C   UNL     1      20.968 -12.645  21.443  1.00  0.00     0.006 C 
BRANCH  10  11
ATOM     11  C   UNL     1      22.044 -11.644  21.875  1.00  0.00     0.053 C 
BRANCH  11  12
ATOM     12  C   UNL     1      21.482 -10.660  22.851  1.00  0.00     0.041 C 
ATOM     13  O   UNL     1      21.912  -9.477  22.876  1.00  0.00    -0.550 OA
ATOM     14  O   UNL     1      20.449 -11.036  23.700  1.00  0.00    -0.550 OA
ENDBRANCH  11  12
ENDBRANCH  10  11
ENDBRANCH   9  10
ENDBRANCH   8   9
ENDBRANCH   1   8
TORSDOF 9
ENDMDL
MODEL 4
REMARK VINA RESULT:    -4.850      0.819      8.190
REMARK INTER + INTRA:          -7.730
REMARK INTER:                  -7.424
REMARK INTRA:                  -0.306
REMARK UNBOUND:                -0.329
REMARK SMILES O=C([O-])CCCCCCCCC(=O)[O-]
REMARK SMILES IDX 7 1 6 2 5 3 4 4 2 5 1 6 3 7 8 8 9 9 10 10 11 11 12 12 13 13
REMARK SMILES IDX 14 14
REMARK H PARENT
REMARK Flexibility Score: inf
ROOT
ATOM      1  C   UNL     1      21.859 -11.907  21.645  1.00  0.00     0.000 C 
ENDROOT
BRANCH   1   2
ATOM      2  C   UNL     1      23.271 -12.501  21.744  1.00  0.00     0.000 C 
BRANCH   2   3
ATOM      3  C   UNL     1      23.341 -13.972  21.297  1.00  0.00     0.006 C 
BRANCH   3   4
ATOM      4  C   UNL     1      22.330 -14.339  20.197  1.00  0.00     0.053 C 
BRANCH   4   5
ATOM      5  C   UNL     1      22.806 -15.467  19.332  1.00  0.00     0.041 C 
ATOM      6  O   UNL     1      23.192 -16.545  19.853  1.00  0.00    -0.550 OA
ATOM      7  O   UNL     1      22.788 -15.342  17.948  1.00  0.00    -0.550 OA
ENDBRANCH   4   5
ENDBRANCH   3   4
ENDBRANCH   2   3
ENDBRANCH   1   2
BRANCH   1   8
ATOM      8  C   UNL     1      21.703 -10.699  22.577  1.00  0.00     0.000 C 
BRANCH   8   9
ATOM      9  C   UNL     1      20.743 -11.015  23.731  1.00  0.00     0.000 C 
BRANCH   9  10
ATOM     10  C   UNL     1      20.660  -9.841  24.714  1.00  0.00     0.006 C 
BRANCH  10  11
ATOM     11  C   UNL     1      21.109  -8.535  24.052  1.00  0.00     0.053 C 
BRANCH  11  12
ATOM     12  C   UNL     1      20.679  -7.359  24.869  1.00  0.00     0.041 C 
ATOM     13  O   UNL     1      19.544  -7.347  25.415  1.00  0.00    -0.550 OA
ATOM     14  O   UNL     1      21.550  -6.295  25.068  1.00  0.00    -0.550 OA
ENDBRANCH  11  12
ENDBRANCH  10  11
ENDBRANCH   9  10
ENDBRANCH   8   9
ENDBRANCH   1   8
TORSDOF 9
ENDMDL
MODEL 5
REMARK VINA RESULT:    -4.813      3.857      9.759
REMARK INTER + INTRA:          -7.673
REMARK INTER:                  -7.308
REMARK INTRA:                  -0.365
REMARK UNBOUND:                -0.329
REMARK SMILES O=C([O-])CCCCCCCCC(=O)[O-]
REMARK SMILES IDX 7 1 6 2 5 3 4 4 2 5 1 6 3 7 8 8 9 9 10 10 11 11 12 12 13 13
REMARK SMILES IDX 14 14
REMARK H PARENT
REMARK Flexibility Score: inf
ROOT
ATOM      1  C   UNL     1      23.568 -17.537  19.247  1.00  0.00     0.000 C 
ENDROOT
BRANCH   1   2
ATOM      2  C   UNL     1      23.023 -17.158  17.862  1.00  0.00     0.000 C 
BRANCH   2   3
ATOM      3  C   UNL     1      23.430 -18.152  16.759  1.00  0.00     0.006 C 
BRANCH   3   4
ATOM      4  C   UNL     1      22.283 -19.062  16.287  1.00  0.00     0.053 C 
BRANCH   4   5
ATOM      5  C   UNL     1      21.965 -20.146  17.273  1.00  0.00     0.041 C 
ATOM      6  O   UNL     1      20.858 -20.153  17.872  1.00  0.00    -0.550 OA
ATOM      7  O   UNL     1      22.876 -21.170  17.504  1.00  0.00    -0.550 OA
ENDBRANCH   4   5
ENDBRANCH   3   4
ENDBRANCH   2   3
ENDBRANCH   1   2
BRANCH   1   8
ATOM      8  C   UNL     1      23.065 -16.565  20.322  1.00  0.00     0.000 C 
BRANCH   8   9
ATOM      9  C   UNL     1      22.779 -15.183  19.722  1.00  0.00     0.000 C 
BRANCH   9  10
ATOM     10  C   UNL     1      22.744 -14.106  20.814  1.00  0.00     0.006 C 
BRANCH  10  11
ATOM     11  C   UNL     1      21.413 -13.348  20.796  1.00  0.00     0.053 C 
BRANCH  11  12
ATOM     12  C   UNL     1      21.476 -12.158  21.699  1.00  0.00     0.041 C 
ATOM     13  O   UNL     1      22.514 -11.445  21.735  1.00  0.00    -0.550 OA
ATOM     14  O   UNL     1      20.372 -11.806  22.464  1.00  0.00    -0.550 OA
ENDBRANCH  11  12
ENDBRANCH  10  11
ENDBRANCH   9  10
ENDBRANCH   8   9
ENDBRANCH   1   8
TORSDOF 9
ENDMDL
MODEL 6
REMARK VINA RESULT:    -4.791      1.187      2.233
REMARK INTER + INTRA:          -7.641
REMARK INTER:                  -7.335
REMARK INTRA:                  -0.306
REMARK UNBOUND:                -0.329
REMARK SMILES O=C([O-])CCCCCCCCC(=O)[O-]
REMARK SMILES IDX 7 1 6 2 5 3 4 4 2 5 1 6 3 7 8 8 9 9 10 10 11 11 12 12 13 13
REMARK SMILES IDX 14 14
REMARK H PARENT
REMARK Flexibility Score: inf
ROOT
ATOM      1  C   UNL     1      20.946 -12.214  21.750  1.00  0.00     0.000 C 
ENDROOT
BRANCH   1   2
ATOM      2  C   UNL     1      22.158 -11.445  22.295  1.00  0.00     0.000 C 
BRANCH   2   3
ATOM      3  C   UNL     1      21.814 -10.011  22.736  1.00  0.00     0.006 C 
BRANCH   3   4
ATOM      4  C   UNL     1      20.985  -9.938  24.030  1.00  0.00     0.053 C 
BRANCH   4   5
ATOM      5  C   UNL     1      21.066  -8.594  24.690  1.00  0.00     0.041 C 
ATOM      6  O   UNL     1      22.150  -7.953  24.691  1.00  0.00    -0.550 OA
ATOM      7  O   UNL     1      19.937  -8.031  25.272  1.00  0.00    -0.550 OA
ENDBRANCH   4   5
ENDBRANCH   3   4
ENDBRANCH   2   3
ENDBRANCH   1   2
BRANCH   1   8
ATOM      8  C   UNL     1      21.381 -13.272  20.727  1.00  0.00     0.000 C 
BRANCH   8   9
ATOM      9  C   UNL     1      22.783 -13.803  21.048  1.00  0.00     0.000 C 
BRANCH   9  10
ATOM     10  C   UNL     1      22.969 -15.227  20.508  1.00  0.00     0.006 C 
BRANCH  10  11
ATOM     11  C   UNL     1      22.752 -15.274  18.993  1.00  0.00     0.053 C 
BRANCH  11  12
ATOM     12  C   UNL     1      23.021 -16.648  18.468  1.00  0.00     0.041 C 
ATOM     13  O   UNL     1      23.123 -17.621  19.262  1.00  0.00    -0.550 OA
ATOM     14  O   UNL     1      23.111 -16.864  17.099  1.00  0.00    -0.550 OA
ENDBRANCH  11  12
ENDBRANCH  10  11
ENDBRANCH   9  10
ENDBRANCH   8   9
ENDBRANCH   1   8
TORSDOF 9
ENDMDL
MODEL 7
REMARK VINA RESULT:    -4.773      1.515      7.977
REMARK INTER + INTRA:          -7.613
REMARK INTER:                  -7.182
REMARK INTRA:                  -0.431
REMARK UNBOUND:                -0.329
REMARK SMILES O=C([O-])CCCCCCCCC(=O)[O-]
REMARK SMILES IDX 7 1 6 2 5 3 4 4 2 5 1 6 3 7 8 8 9 9 10 10 11 11 12 12 13 13
REMARK SMILES IDX 14 14
REMARK H PARENT
REMARK Flexibility Score: inf
ROOT
ATOM      1  C   UNL     1      20.887 -11.157  23.653  1.00  0.00     0.000 C 
ENDROOT
BRANCH   1   2
ATOM      2  C   UNL     1      22.033 -10.620  22.784  1.00  0.00     0.000 C 
BRANCH   2   3
ATOM      3  C   UNL     1      22.459 -11.597  21.674  1.00  0.00     0.006 C 
BRANCH   3   4
ATOM      4  C   UNL     1      21.387 -12.641  21.316  1.00  0.00     0.053 C 
BRANCH   4   5
ATOM      5  C   UNL     1      21.962 -13.842  20.627  1.00  0.00     0.041 C 
ATOM      6  O   UNL     1      21.516 -14.203  19.507  1.00  0.00    -0.550 OA
ATOM      7  O   UNL     1      23.016 -14.541  21.202  1.00  0.00    -0.550 OA
ENDBRANCH   4   5
ENDBRANCH   3   4
ENDBRANCH   2   3
ENDBRANCH   1   2
BRANCH   1   8
ATOM      8  C   UNL     1      20.413 -10.097  24.656  1.00  0.00     0.000 C 
BRANCH   8   9
ATOM      9  C   UNL     1      21.250  -8.818  24.541  1.00  0.00     0.000 C 
BRANCH   9  10
ATOM     10  C   UNL     1      20.953  -7.860  25.701  1.00  0.00     0.006 C 
BRANCH  10  11
ATOM     11  C   UNL     1      19.712  -7.012  25.411  1.00  0.00     0.053 C 
BRANCH  11  12
ATOM     12  C   UNL     1      20.045  -5.903  24.464  1.00  0.00     0.041 C 
ATOM     13  O   UNL     1      19.425  -5.794  23.373  1.00  0.00    -0.550 OA
ATOM     14  O   UNL     1      21.006  -4.961  24.808  1.00  0.00    -0.550 OA
ENDBRANCH  11  12
ENDBRANCH  10  11
ENDBRANCH   9  10
ENDBRANCH   8   9
ENDBRANCH   1   8
TORSDOF 9
ENDMDL
MODEL 8
REMARK VINA RESULT:    -4.733      2.198      3.282
REMARK INTER + INTRA:          -7.552
REMARK INTER:                  -7.151
REMARK INTRA:                  -0.402
REMARK UNBOUND:                -0.329
REMARK SMILES O=C([O-])CCCCCCCCC(=O)[O-]
REMARK SMILES IDX 7 1 6 2 5 3 4 4 2 5 1 6 3 7 8 8 9 9 10 10 11 11 12 12 13 13
REMARK SMILES IDX 14 14
REMARK H PARENT
REMARK Flexibility Score: inf
ROOT
ATOM      1  C   UNL     1      21.913  -8.181  24.366  1.00  0.00     0.000 C 
ENDROOT
BRANCH   1   2
ATOM      2  C   UNL     1      20.797  -8.244  25.418  1.00  0.00     0.000 C 
BRANCH   2   3
ATOM      3  C   UNL     1      19.913  -6.984  25.438  1.00  0.00     0.006 C 
BRANCH   3   4
ATOM      4  C   UNL     1      20.017  -6.129  24.163  1.00  0.00     0.053 C 
BRANCH   4   5
ATOM      5  C   UNL     1      18.789  -5.302  23.924  1.00  0.00     0.041 C 
ATOM      6  O   UNL     1      17.798  -5.404  24.693  1.00  0.00    -0.550 OA
ATOM      7  O   UNL     1      18.753  -4.392  22.875  1.00  0.00    -0.550 OA
ENDBRANCH   4   5
ENDBRANCH   3   4
ENDBRANCH   2   3
ENDBRANCH   1   2
BRANCH   1   8
ATOM      8  C   UNL     1      21.682  -9.216  23.257  1.00  0.00     0.000 C 
BRANCH   8   9
ATOM      9  C   UNL     1      21.002 -10.473  23.811  1.00  0.00     0.000 C 
BRANCH   9  10
ATOM     10  C   UNL     1      20.741 -11.494  22.696  1.00  0.00     0.006 C 
BRANCH  10  11
ATOM     11  C   UNL     1      22.009 -11.751  21.877  1.00  0.00     0.053 C 
BRANCH  11  12
ATOM     12  C   UNL     1      21.909 -13.055  21.152  1.00  0.00     0.041 C 
ATOM     13  O   UNL     1      20.916 -13.296  20.415  1.00  0.00    -0.550 OA
ATOM     14  O   UNL     1      22.935 -13.986  21.251  1.00  0.00    -0.550 OA
ENDBRANCH  11  12
ENDBRANCH  10  11
ENDBRANCH   9  10
ENDBRANCH   8   9
ENDBRANCH   1   8
TORSDOF 9
ENDMDL
MODEL 9
REMARK VINA RESULT:    -4.724      1.416      8.086
REMARK INTER + INTRA:          -7.538
REMARK INTER:                  -7.162
REMARK INTRA:                  -0.376
REMARK UNBOUND:                -0.329
REMARK SMILES O=C([O-])CCCCCCCCC(=O)[O-]
REMARK SMILES IDX 7 1 6 2 5 3 4 4 2 5 1 6 3 7 8 8 9 9 10 10 11 11 12 12 13 13
REMARK SMILES IDX 14 14
REMARK H PARENT
REMARK Flexibility Score: inf
ROOT
ATOM      1  C   UNL     1      20.691 -11.156  23.770  1.00  0.00     0.000 C 
ENDROOT
BRANCH   1   2
ATOM      2  C   UNL     1      21.590 -10.533  22.692  1.00  0.00     0.000 C 
BRANCH   2   3
ATOM      3  C   UNL     1      22.401 -11.577  21.904  1.00  0.00     0.006 C 
BRANCH   3   4
ATOM      4  C   UNL     1      21.539 -12.669  21.246  1.00  0.00     0.053 C 
BRANCH   4   5
ATOM      5  C   UNL     1      22.348 -13.852  20.807  1.00  0.00     0.041 C 
ATOM      6  O   UNL     1      23.337 -14.232  21.487  1.00  0.00    -0.550 OA
ATOM      7  O   UNL     1      21.989 -14.560  19.666  1.00  0.00    -0.550 OA
ENDBRANCH   4   5
ENDBRANCH   3   4
ENDBRANCH   2   3
ENDBRANCH   1   2
BRANCH   1   8
ATOM      8  C   UNL     1      20.445 -10.170  24.919  1.00  0.00     0.000 C 
BRANCH   8   9
ATOM      9  C   UNL     1      20.855  -8.747  24.520  1.00  0.00     0.000 C 
BRANCH   9  10
ATOM     10  C   UNL     1      20.119  -7.703  25.369  1.00  0.00     0.006 C 
BRANCH  10  11
ATOM     11  C   UNL     1      20.988  -6.462  25.591  1.00  0.00     0.053 C 
BRANCH  11  12
ATOM     12  C   UNL     1      21.958  -6.695  26.705  1.00  0.00     0.041 C 
ATOM     13  O   UNL     1      21.562  -6.690  27.901  1.00  0.00    -0.550 OA
ATOM     14  O   UNL     1      23.290  -6.965  26.422  1.00  0.00    -0.550 OA
ENDBRANCH  11  12
ENDBRANCH  10  11
ENDBRANCH   9  10
ENDBRANCH   8   9
ENDBRANCH   1   8
TORSDOF 9
ENDMDL
