MODEL 1
REMARK VINA RESULT:    -3.637      0.000      0.000
REMARK INTER + INTRA:          -3.725
REMARK INTER:                  -4.487
REMARK INTRA:                   0.762
REMARK UNBOUND:                 0.762
REMARK SMILES CC1=CC=CC(C)(C)CC1=O
REMARK SMILES IDX 1 1 2 2 3 3 10 4 11 5 9 6 4 8 5 9 6 10 7 11 8 12
REMARK H PARENT
REMARK Flexibility Score: 80.00
ROOT
ATOM      1  C   UNL     1       9.545 -23.087  23.894  1.00  0.00     0.048 C 
ATOM      2  C   UNL     1       8.289 -23.915  23.752  1.00  0.00    -0.008 C 
ATOM      3  C   UNL     1       8.258 -24.839  22.767  1.00  0.00     0.007 C 
ENDROOT
BRANCH   2   4
ATOM      4  C   UNL     1       7.162 -23.594  24.661  1.00  0.00     0.159 C 
ATOM      5  O   UNL     1       7.221 -22.544  25.358  1.00  0.00    -0.295 OA
BRANCH   4   6
ATOM      6  C   UNL     1       5.949 -24.461  24.811  1.00  0.00     0.091 CG0
ATOM      7  G   UNL     1       5.181 -24.669  23.487  1.00  0.00     0.000 G0
ENDBRANCH   4   6
ENDBRANCH   2   4
BRANCH   3   8
ATOM      8  C   UNL     1       7.175 -25.770  22.370  1.00  0.00    -0.003 C 
ATOM      9  C   UNL     1       5.867 -25.711  22.652  1.00  0.00    -0.020 C 
BRANCH   9  10
ATOM     10  C   UNL     1       5.175 -24.664  23.492  1.00  0.00    -0.010 CG0
ATOM     11  C   UNL     1       5.020 -23.356  22.682  1.00  0.00     0.016 C 
ATOM     12  C   UNL     1       3.761 -25.181  23.841  1.00  0.00     0.016 C 
ATOM     13  G   UNL     1       5.952 -24.460  24.812  1.00  0.00     0.000 G0
ENDBRANCH   9  10
ENDBRANCH   3   8
TORSDOF 0
ENDMDL
MODEL 2
REMARK VINA RESULT:    -3.593      6.727      7.849
REMARK INTER + INTRA:          -3.671
REMARK INTER:                  -4.419
REMARK INTRA:                   0.748
REMARK UNBOUND:                 0.762
REMARK SMILES CC1=CC=CC(C)(C)CC1=O
REMARK SMILES IDX 1 1 2 2 3 3 10 4 11 5 9 6 4 8 5 9 6 10 7 11 8 12
REMARK H PARENT
REMARK Flexibility Score: 80.00
ROOT
ATOM      1  C   UNL     1      13.066 -17.874  19.034  1.00  0.00     0.048 C 
ATOM      2  C   UNL     1      11.616 -18.226  19.270  1.00  0.00    -0.008 C 
ATOM      3  C   UNL     1      10.712 -17.791  18.365  1.00  0.00     0.007 C 
ENDROOT
BRANCH   2   4
ATOM      4  C   UNL     1      11.293 -18.958  20.519  1.00  0.00     0.159 C 
ATOM      5  O   UNL     1      12.178 -19.057  21.413  1.00  0.00    -0.295 OA
BRANCH   4   6
ATOM      6  C   UNL     1       9.967 -19.606  20.777  1.00  0.00     0.091 CG0
ATOM      7  G   UNL     1       8.788 -18.608  20.762  1.00  0.00     0.000 G0
ENDBRANCH   4   6
ENDBRANCH   2   4
BRANCH   3   8
ATOM      8  C   UNL     1       9.239 -17.952  18.339  1.00  0.00    -0.003 C 
ATOM      9  C   UNL     1       8.409 -18.280  19.337  1.00  0.00    -0.020 C 
BRANCH   9  10
ATOM     10  C   UNL     1       8.797 -18.599  20.761  1.00  0.00    -0.010 CG0
ATOM     11  C   UNL     1       9.108 -17.292  21.528  1.00  0.00     0.016 C 
ATOM     12  C   UNL     1       7.594 -19.281  21.450  1.00  0.00     0.016 C 
ATOM     13  G   UNL     1       9.982 -19.590  20.767  1.00  0.00     0.000 G0
ENDBRANCH   9  10
ENDBRANCH   3   8
TORSDOF 0
ENDMDL
MODEL 3
REMARK VINA RESULT:    -3.558      7.138      8.494
REMARK INTER + INTRA:          -3.628
REMARK INTER:                  -4.379
REMARK INTRA:                   0.751
REMARK UNBOUND:                 0.762
REMARK SMILES CC1=CC=CC(C)(C)CC1=O
REMARK SMILES IDX 1 1 2 2 3 3 10 4 11 5 9 6 4 8 5 9 6 10 7 11 8 12
REMARK H PARENT
REMARK Flexibility Score: 80.00
ROOT
ATOM      1  C   UNL     1       6.779 -18.125  18.829  1.00  0.00     0.048 C 
ATOM      2  C   UNL     1       8.206 -17.935  19.287  1.00  0.00    -0.008 C 
ATOM      3  C   UNL     1       9.170 -17.933  18.342  1.00  0.00     0.007 C 
ENDROOT
BRANCH   2   4
ATOM      4  C   UNL     1       8.439 -17.842  20.750  1.00  0.00     0.159 C 
ATOM      5  O   UNL     1       7.494 -18.126  21.537  1.00  0.00    -0.295 OA
BRANCH   4   6
ATOM      6  C   UNL     1       9.742 -17.413  21.352  1.00  0.00     0.091 CG0
ATOM      7  G   UNL     1      10.927 -18.319  20.950  1.00  0.00     0.000 G0
ENDBRANCH   4   6
ENDBRANCH   2   4
BRANCH   3   8
ATOM      8  C   UNL     1      10.640 -17.796  18.483  1.00  0.00    -0.003 C 
ATOM      9  C   UNL     1      11.402 -17.966  19.571  1.00  0.00    -0.020 C 
BRANCH   9  10
ATOM     10  C   UNL     1      10.922 -18.319  20.958  1.00  0.00    -0.010 CG0
ATOM     11  C   UNL     1      10.578 -19.825  21.030  1.00  0.00     0.016 C 
ATOM     12  C   UNL     1      12.072 -18.044  21.953  1.00  0.00     0.016 C 
ATOM     13  G   UNL     1       9.728 -17.416  21.341  1.00  0.00     0.000 G0
ENDBRANCH   9  10
ENDBRANCH   3   8
TORSDOF 0
ENDMDL
MODEL 4
REMARK VINA RESULT:    -3.537      7.612      8.633
REMARK INTER + INTRA:          -3.601
REMARK INTER:                  -4.356
REMARK INTRA:                   0.755
REMARK UNBOUND:                 0.762
REMARK SMILES CC1=CC=CC(C)(C)CC1=O
REMARK SMILES IDX 1 1 2 2 3 3 10 4 11 5 9 6 4 8 5 9 6 10 7 11 8 12
REMARK H PARENT
REMARK Flexibility Score: 80.00
ROOT
ATOM      1  C   UNL     1       9.858 -17.117  22.563  1.00  0.00     0.048 C 
ATOM      2  C   UNL     1       9.688 -17.479  21.106  1.00  0.00    -0.008 C 
ATOM      3  C   UNL     1       8.429 -17.542  20.621  1.00  0.00     0.007 C 
ENDROOT
BRANCH   2   4
ATOM      4  C   UNL     1      10.917 -17.811  20.344  1.00  0.00     0.159 C 
ATOM      5  O   UNL     1      11.997 -17.983  20.975  1.00  0.00    -0.295 OA
BRANCH   4   6
ATOM      6  C   UNL     1      10.954 -17.943  18.853  1.00  0.00     0.091 CG0
ATOM      7  G   UNL     1      10.006 -19.037  18.314  1.00  0.00     0.000 G0
ENDBRANCH   4   6
ENDBRANCH   2   4
BRANCH   3   8
ATOM      8  C   UNL     1       7.950 -17.891  19.262  1.00  0.00    -0.003 C 
ATOM      9  C   UNL     1       8.594 -18.534  18.279  1.00  0.00    -0.020 C 
BRANCH   9  10
ATOM     10  C   UNL     1      10.015 -19.043  18.320  1.00  0.00    -0.010 CG0
ATOM     11  C   UNL     1      10.086 -20.342  19.156  1.00  0.00     0.016 C 
ATOM     12  C   UNL     1      10.450 -19.381  16.876  1.00  0.00     0.016 C 
ATOM     13  G   UNL     1      10.949 -17.937  18.858  1.00  0.00     0.000 G0
ENDBRANCH   9  10
ENDBRANCH   3   8
TORSDOF 0
ENDMDL
MODEL 5
REMARK VINA RESULT:    -3.494      7.379      8.765
REMARK INTER + INTRA:          -3.549
REMARK INTER:                  -4.298
REMARK INTRA:                   0.749
REMARK UNBOUND:                 0.762
REMARK SMILES CC1=CC=CC(C)(C)CC1=O
REMARK SMILES IDX 1 1 2 2 3 3 10 4 11 5 9 6 4 8 5 9 6 10 7 11 8 12
REMARK H PARENT
REMARK Flexibility Score: 80.00
ROOT
ATOM      1  C   UNL     1       7.912 -17.922  21.629  1.00  0.00     0.048 C 
ATOM      2  C   UNL     1       9.297 -17.906  21.027  1.00  0.00    -0.008 C 
ATOM      3  C   UNL     1       9.393 -17.876  19.680  1.00  0.00     0.007 C 
ENDROOT
BRANCH   2   4
ATOM      4  C   UNL     1      10.443 -18.001  21.966  1.00  0.00     0.159 C 
ATOM      5  O   UNL     1      10.216 -18.271  23.177  1.00  0.00    -0.295 OA
BRANCH   4   6
ATOM      6  C   UNL     1      11.866 -17.779  21.556  1.00  0.00     0.091 CG0
ATOM      7  G   UNL     1      12.345 -18.757  20.461  1.00  0.00     0.000 G0
ENDBRANCH   4   6
ENDBRANCH   2   4
BRANCH   3   8
ATOM      8  C   UNL     1      10.595 -17.880  18.812  1.00  0.00    -0.003 C 
ATOM      9  C   UNL     1      11.847 -18.254  19.106  1.00  0.00    -0.020 C 
BRANCH   9  10
ATOM     10  C   UNL     1      12.346 -18.747  20.443  1.00  0.00    -0.010 CG0
ATOM     11  C   UNL     1      11.898 -20.210  20.667  1.00  0.00     0.016 C 
ATOM     12  C   UNL     1      13.891 -18.720  20.423  1.00  0.00     0.016 C 
ATOM     13  G   UNL     1      11.863 -17.797  21.562  1.00  0.00     0.000 G0
ENDBRANCH   9  10
ENDBRANCH   3   8
TORSDOF 0
ENDMDL
MODEL 6
REMARK VINA RESULT:    -3.465      7.005      8.553
REMARK INTER + INTRA:          -3.513
REMARK INTER:                  -4.268
REMARK INTRA:                   0.755
REMARK UNBOUND:                 0.762
REMARK SMILES CC1=CC=CC(C)(C)CC1=O
REMARK SMILES IDX 1 1 2 2 3 3 10 4 11 5 9 6 4 8 5 9 6 10 7 11 8 12
REMARK H PARENT
REMARK Flexibility Score: 80.00
ROOT
ATOM      1  C   UNL     1       9.820 -17.844  18.064  1.00  0.00     0.048 C 
ATOM      2  C   UNL     1      10.619 -17.902  19.345  1.00  0.00    -0.008 C 
ATOM      3  C   UNL     1      11.958 -18.041  19.240  1.00  0.00     0.007 C 
ENDROOT
BRANCH   2   4
ATOM      4  C   UNL     1       9.858 -17.878  20.618  1.00  0.00     0.159 C 
ATOM      5  O   UNL     1       8.604 -18.013  20.581  1.00  0.00    -0.295 OA
BRANCH   4   6
ATOM      6  C   UNL     1      10.497 -17.685  21.959  1.00  0.00     0.091 CG0
ATOM      7  G   UNL     1      11.540 -18.773  22.298  1.00  0.00     0.000 G0
ENDBRANCH   4   6
ENDBRANCH   2   4
BRANCH   3   8
ATOM      8  C   UNL     1      12.989 -18.153  20.299  1.00  0.00    -0.003 C 
ATOM      9  C   UNL     1      12.839 -18.468  21.593  1.00  0.00    -0.020 C 
BRANCH   9  10
ATOM     10  C   UNL     1      11.537 -18.763  22.300  1.00  0.00    -0.010 CG0
ATOM     11  C   UNL     1      11.058 -20.191  21.949  1.00  0.00     0.016 C 
ATOM     12  C   UNL     1      11.790 -18.706  23.823  1.00  0.00     0.016 C 
ATOM     13  G   UNL     1      10.495 -17.680  21.944  1.00  0.00     0.000 G0
ENDBRANCH   9  10
ENDBRANCH   3   8
TORSDOF 0
ENDMDL
MODEL 7
REMARK VINA RESULT:    -3.445      7.652      8.712
REMARK INTER + INTRA:          -3.489
REMARK INTER:                  -4.255
REMARK INTRA:                   0.766
REMARK UNBOUND:                 0.762
REMARK SMILES CC1=CC=CC(C)(C)CC1=O
REMARK SMILES IDX 1 1 2 2 3 3 10 4 11 5 9 6 4 8 5 9 6 10 7 11 8 12
REMARK H PARENT
REMARK Flexibility Score: 80.00
ROOT
ATOM      1  C   UNL     1      13.067 -18.225  22.790  1.00  0.00     0.048 C 
ATOM      2  C   UNL     1      11.991 -18.041  21.746  1.00  0.00    -0.008 C 
ATOM      3  C   UNL     1      10.746 -17.744  22.179  1.00  0.00     0.007 C 
ENDROOT
BRANCH   2   4
ATOM      4  C   UNL     1      12.373 -18.275  20.332  1.00  0.00     0.159 C 
ATOM      5  O   UNL     1      13.491 -18.806  20.083  1.00  0.00    -0.295 OA
BRANCH   4   6
ATOM      6  C   UNL     1      11.506 -17.902  19.169  1.00  0.00     0.091 CG0
ATOM      7  G   UNL     1      10.121 -18.587  19.197  1.00  0.00     0.000 G0
ENDBRANCH   4   6
ENDBRANCH   2   4
BRANCH   3   8
ATOM      8  C   UNL     1       9.497 -17.534  21.409  1.00  0.00    -0.003 C 
ATOM      9  C   UNL     1       9.207 -17.901  20.154  1.00  0.00    -0.020 C 
BRANCH   9  10
ATOM     10  C   UNL     1      10.128 -18.612  19.191  1.00  0.00    -0.010 CG0
ATOM     11  C   UNL     1      10.230 -20.108  19.566  1.00  0.00     0.016 C 
ATOM     12  C   UNL     1       9.516 -18.516  17.775  1.00  0.00     0.016 C 
ATOM     13  G   UNL     1      11.503 -17.907  19.170  1.00  0.00     0.000 G0
ENDBRANCH   9  10
ENDBRANCH   3   8
TORSDOF 0
ENDMDL
MODEL 8
REMARK VINA RESULT:    -3.426      7.795      8.815
REMARK INTER + INTRA:          -3.465
REMARK INTER:                  -4.219
REMARK INTRA:                   0.754
REMARK UNBOUND:                 0.762
REMARK SMILES CC1=CC=CC(C)(C)CC1=O
REMARK SMILES IDX 1 1 2 2 3 3 10 4 11 5 9 6 4 8 5 9 6 10 7 11 8 12
REMARK H PARENT
REMARK Flexibility Score: 80.00
ROOT
ATOM      1  C   UNL     1       7.401 -17.907  18.801  1.00  0.00     0.048 C 
ATOM      2  C   UNL     1       8.659 -18.223  19.576  1.00  0.00    -0.008 C 
ATOM      3  C   UNL     1       8.819 -17.624  20.776  1.00  0.00     0.007 C 
ENDROOT
BRANCH   2   4
ATOM      4  C   UNL     1       9.653 -19.108  18.921  1.00  0.00     0.159 C 
ATOM      5  O   UNL     1       9.512 -19.380  17.696  1.00  0.00    -0.295 OA
BRANCH   4   6
ATOM      6  C   UNL     1      10.818 -19.715  19.639  1.00  0.00     0.091 CG0
ATOM      7  G   UNL     1      11.766 -18.664  20.259  1.00  0.00     0.000 G0
ENDBRANCH   4   6
ENDBRANCH   2   4
BRANCH   3   8
ATOM      8  C   UNL     1       9.941 -17.713  21.741  1.00  0.00    -0.003 C 
ATOM      9  C   UNL     1      11.196 -18.135  21.539  1.00  0.00    -0.020 C 
BRANCH   9  10
ATOM     10  C   UNL     1      11.769 -18.663  20.245  1.00  0.00    -0.010 CG0
ATOM     11  C   UNL     1      12.057 -17.492  19.278  1.00  0.00     0.016 C 
ATOM     12  C   UNL     1      13.110 -19.364  20.559  1.00  0.00     0.016 C 
ATOM     13  G   UNL     1      10.808 -19.712  19.641  1.00  0.00     0.000 G0
ENDBRANCH   9  10
ENDBRANCH   3   8
TORSDOF 0
ENDMDL
MODEL 9
REMARK VINA RESULT:    -3.424      6.915      8.292
REMARK INTER + INTRA:          -3.463
REMARK INTER:                  -4.219
REMARK INTRA:                   0.756
REMARK UNBOUND:                 0.762
REMARK SMILES CC1=CC=CC(C)(C)CC1=O
REMARK SMILES IDX 1 1 2 2 3 3 10 4 11 5 9 6 4 8 5 9 6 10 7 11 8 12
REMARK H PARENT
REMARK Flexibility Score: 80.00
ROOT
ATOM      1  C   UNL     1      13.249 -17.915  18.945  1.00  0.00     0.048 C 
ATOM      2  C   UNL     1      11.929 -17.874  19.678  1.00  0.00    -0.008 C 
ATOM      3  C   UNL     1      11.956 -17.599  21.000  1.00  0.00     0.007 C 
ENDROOT
BRANCH   2   4
ATOM      4  C   UNL     1      10.713 -18.215  18.899  1.00  0.00     0.159 C 
ATOM      5  O   UNL     1      10.847 -18.710  17.746  1.00  0.00    -0.295 OA
BRANCH   4   6
ATOM      6  C   UNL     1       9.320 -17.991  19.402  1.00  0.00     0.091 CG0
ATOM      7  G   UNL     1       9.021 -18.739  20.720  1.00  0.00     0.000 G0
ENDBRANCH   4   6
ENDBRANCH   2   4
BRANCH   3   8
ATOM      8  C   UNL     1      10.845 -17.516  21.977  1.00  0.00    -0.003 C 
ATOM      9  C   UNL     1       9.602 -18.007  21.885  1.00  0.00    -0.020 C 
BRANCH   9  10
ATOM     10  C   UNL     1       9.018 -18.759  20.713  1.00  0.00    -0.010 CG0
ATOM     11  C   UNL     1       9.546 -20.212  20.702  1.00  0.00     0.016 C 
ATOM     12  C   UNL     1       7.483 -18.810  20.887  1.00  0.00     0.016 C 
ATOM     13  G   UNL     1       9.329 -18.002  19.402  1.00  0.00     0.000 G0
ENDBRANCH   9  10
ENDBRANCH   3   8
TORSDOF 0
ENDMDL
