MODEL 1
REMARK VINA RESULT:    -7.602      0.000      0.000
REMARK INTER + INTRA:          -9.568
REMARK INTER:                  -9.158
REMARK INTRA:                  -0.410
REMARK UNBOUND:                -0.410
REMARK SMILES O=c1c(O)c(-c2ccc(O)cc2O)oc2cc(O)cc(O)c12
REMARK SMILES IDX 5 1 3 2 2 3 1 4 22 5 20 6 19 7 17 8 16 9 15 10 14 11 6 12
REMARK SMILES IDX 8 13 7 14 9 15 11 16 12 17 10 18 13 20 4 22 21 24 18 26
REMARK H PARENT 10 19 13 21 4 23 21 25 18 27
REMARK Flexibility Score: inf
ROOT
ATOM      1  C   UNL     1     165.304 153.358 150.654  1.00  0.00     0.184 A 
ATOM      2  C   UNL     1     165.813 153.275 149.348  1.00  0.00     0.208 A 
ATOM      3  C   UNL     1     165.533 152.133 148.581  1.00  0.00     0.238 A 
ATOM      4  O   UNL     1     166.035 152.039 147.431  1.00  0.00    -0.285 OA
ATOM      5  C   UNL     1     164.734 151.098 149.126  1.00  0.00     0.111 A 
ATOM      6  C   UNL     1     164.354 149.914 148.425  1.00  0.00     0.134 A 
ATOM      7  C   UNL     1     163.671 148.898 149.105  1.00  0.00     0.093 A 
ATOM      8  C   UNL     1     163.298 149.052 150.442  1.00  0.00     0.123 A 
ATOM      9  C   UNL     1     163.612 150.227 151.118  1.00  0.00     0.094 A 
ATOM     10  C   UNL     1     164.325 151.244 150.477  1.00  0.00     0.146 A 
ATOM     11  O   UNL     1     164.615 152.345 151.162  1.00  0.00    -0.451 OA
ENDROOT
BRANCH   1  12
ATOM     12  C   UNL     1     165.548 154.539 151.508  1.00  0.00     0.063 A 
ATOM     13  C   UNL     1     165.154 156.897 151.954  1.00  0.00     0.047 A 
ATOM     14  C   UNL     1     164.941 155.760 151.171  1.00  0.00     0.020 A 
ATOM     15  C   UNL     1     165.988 156.833 153.076  1.00  0.00     0.119 A 
ATOM     16  C   UNL     1     166.614 155.627 153.407  1.00  0.00     0.093 A 
ATOM     17  C   UNL     1     166.410 154.482 152.623  1.00  0.00     0.130 A 
BRANCH  15  18
ATOM     18  O   UNL     1     166.205 157.958 153.866  1.00  0.00    -0.508 OA
ATOM     19  H   UNL     1     165.686 158.816 153.719  1.00  0.00     0.293 HD
ENDBRANCH  15  18
BRANCH  17  20
ATOM     20  O   UNL     1     167.080 153.299 152.935  1.00  0.00    -0.507 OA
ATOM     21  H   UNL     1     168.059 153.166 152.708  1.00  0.00     0.293 HD
ENDBRANCH  17  20
ENDBRANCH   1  12
BRANCH   2  22
ATOM     22  O   UNL     1     166.614 154.303 148.843  1.00  0.00    -0.502 OA
ATOM     23  H   UNL     1     166.422 155.280 149.027  1.00  0.00     0.293 HD
ENDBRANCH   2  22
BRANCH   6  24
ATOM     24  O   UNL     1     164.596 149.701 147.064  1.00  0.00    -0.507 OA
ATOM     25  H   UNL     1     165.511 149.690 146.639  1.00  0.00     0.293 HD
ENDBRANCH   6  24
BRANCH   8  26
ATOM     26  O   UNL     1     162.604 148.042 151.107  1.00  0.00    -0.508 OA
ATOM     27  H   UNL     1     161.968 147.424 150.616  1.00  0.00     0.293 HD
ENDBRANCH   8  26
TORSDOF 6
ENDMDL
MODEL 2
REMARK VINA RESULT:    -7.555      1.207      2.843
REMARK INTER + INTRA:          -9.511
REMARK INTER:                  -9.118
REMARK INTRA:                  -0.393
REMARK UNBOUND:                -0.410
REMARK SMILES O=c1c(O)c(-c2ccc(O)cc2O)oc2cc(O)cc(O)c12
REMARK SMILES IDX 5 1 3 2 2 3 1 4 22 5 20 6 19 7 17 8 16 9 15 10 14 11 6 12
REMARK SMILES IDX 8 13 7 14 9 15 11 16 12 17 10 18 13 20 4 22 21 24 18 26
REMARK H PARENT 10 19 13 21 4 23 21 25 18 27
REMARK Flexibility Score: inf
ROOT
ATOM      1  C   UNL     1     164.894 153.389 151.293  1.00  0.00     0.184 A 
ATOM      2  C   UNL     1     164.037 152.485 151.941  1.00  0.00     0.208 A 
ATOM      3  C   UNL     1     163.721 151.274 151.307  1.00  0.00     0.238 A 
ATOM      4  O   UNL     1     162.910 150.492 151.868  1.00  0.00    -0.285 OA
ATOM      5  C   UNL     1     164.280 150.976 150.041  1.00  0.00     0.111 A 
ATOM      6  C   UNL     1     164.061 149.760 149.325  1.00  0.00     0.134 A 
ATOM      7  C   UNL     1     164.560 149.627 148.022  1.00  0.00     0.093 A 
ATOM      8  C   UNL     1     165.325 150.639 147.437  1.00  0.00     0.123 A 
ATOM      9  C   UNL     1     165.594 151.804 148.150  1.00  0.00     0.094 A 
ATOM     10  C   UNL     1     165.079 151.982 149.437  1.00  0.00     0.146 A 
ATOM     11  O   UNL     1     165.350 153.112 150.078  1.00  0.00    -0.451 OA
ENDROOT
BRANCH   1  12
ATOM     12  C   UNL     1     165.280 154.674 151.913  1.00  0.00     0.063 A 
ATOM     13  C   UNL     1     164.962 157.079 152.078  1.00  0.00     0.047 A 
ATOM     14  C   UNL     1     164.618 155.847 151.517  1.00  0.00     0.020 A 
ATOM     15  C   UNL     1     165.982 157.156 153.034  1.00  0.00     0.119 A 
ATOM     16  C   UNL     1     166.662 155.996 153.418  1.00  0.00     0.093 A 
ATOM     17  C   UNL     1     166.327 154.756 152.855  1.00  0.00     0.130 A 
BRANCH  15  18
ATOM     18  O   UNL     1     166.331 158.378 153.603  1.00  0.00    -0.508 OA
ATOM     19  H   UNL     1     166.021 158.636 154.533  1.00  0.00     0.293 HD
ENDBRANCH  15  18
BRANCH  17  20
ATOM     20  O   UNL     1     167.046 153.616 153.211  1.00  0.00    -0.507 OA
ATOM     21  H   UNL     1     167.719 153.193 152.582  1.00  0.00     0.293 HD
ENDBRANCH  17  20
ENDBRANCH   1  12
BRANCH   2  22
ATOM     22  O   UNL     1     163.484 152.814 153.182  1.00  0.00    -0.502 OA
ATOM     23  H   UNL     1     162.909 152.167 153.709  1.00  0.00     0.293 HD
ENDBRANCH   2  22
BRANCH   6  24
ATOM     24  O   UNL     1     163.389 148.653 149.852  1.00  0.00    -0.507 OA
ATOM     25  H   UNL     1     162.920 147.950 149.301  1.00  0.00     0.293 HD
ENDBRANCH   6  24
BRANCH   8  26
ATOM     26  O   UNL     1     165.831 150.491 146.147  1.00  0.00    -0.508 OA
ATOM     27  H   UNL     1     165.656 151.183 145.427  1.00  0.00     0.293 HD
ENDBRANCH   8  26
TORSDOF 6
ENDMDL
MODEL 3
REMARK VINA RESULT:    -7.284      1.368      1.672
REMARK INTER + INTRA:          -9.185
REMARK INTER:                  -8.761
REMARK INTRA:                  -0.424
REMARK UNBOUND:                -0.410
REMARK SMILES O=c1c(O)c(-c2ccc(O)cc2O)oc2cc(O)cc(O)c12
REMARK SMILES IDX 5 1 3 2 2 3 1 4 22 5 20 6 19 7 17 8 16 9 15 10 14 11 6 12
REMARK SMILES IDX 8 13 7 14 9 15 11 16 12 17 10 18 13 20 4 22 21 24 18 26
REMARK H PARENT 10 19 13 21 4 23 21 25 18 27
REMARK Flexibility Score: inf
ROOT
ATOM      1  C   UNL     1     166.295 153.562 150.015  1.00  0.00     0.184 A 
ATOM      2  C   UNL     1     167.350 153.489 149.091  1.00  0.00     0.208 A 
ATOM      3  C   UNL     1     167.370 152.435 148.165  1.00  0.00     0.238 A 
ATOM      4  O   UNL     1     168.345 152.343 147.375  1.00  0.00    -0.285 OA
ATOM      5  C   UNL     1     166.326 151.478 148.166  1.00  0.00     0.111 A 
ATOM      6  C   UNL     1     166.224 150.390 147.246  1.00  0.00     0.134 A 
ATOM      7  C   UNL     1     165.220 149.430 147.422  1.00  0.00     0.093 A 
ATOM      8  C   UNL     1     164.275 149.554 148.443  1.00  0.00     0.123 A 
ATOM      9  C   UNL     1     164.331 150.643 149.309  1.00  0.00     0.094 A 
ATOM     10  C   UNL     1     165.343 151.598 149.182  1.00  0.00     0.146 A 
ATOM     11  O   UNL     1     165.367 152.615 150.036  1.00  0.00    -0.451 OA
ENDROOT
BRANCH   1  12
ATOM     12  C   UNL     1     166.204 154.655 151.006  1.00  0.00     0.063 A 
ATOM     13  C   UNL     1     165.767 157.000 151.477  1.00  0.00     0.047 A 
ATOM     14  C   UNL     1     165.857 155.944 150.568  1.00  0.00     0.020 A 
ATOM     15  C   UNL     1     166.038 156.787 152.834  1.00  0.00     0.119 A 
ATOM     16  C   UNL     1     166.406 155.512 153.275  1.00  0.00     0.093 A 
ATOM     17  C   UNL     1     166.504 154.446 152.369  1.00  0.00     0.130 A 
BRANCH  15  18
ATOM     18  O   UNL     1     165.949 157.832 153.749  1.00  0.00    -0.508 OA
ATOM     19  H   UNL     1     165.923 158.799 153.448  1.00  0.00     0.293 HD
ENDBRANCH  15  18
BRANCH  17  20
ATOM     20  O   UNL     1     166.921 153.192 152.814  1.00  0.00    -0.507 OA
ATOM     21  H   UNL     1     166.698 152.345 152.303  1.00  0.00     0.293 HD
ENDBRANCH  17  20
ENDBRANCH   1  12
BRANCH   2  22
ATOM     22  O   UNL     1     168.376 154.437 149.126  1.00  0.00    -0.502 OA
ATOM     23  H   UNL     1     168.222 155.412 148.896  1.00  0.00     0.293 HD
ENDBRANCH   2  22
BRANCH   6  24
ATOM     24  O   UNL     1     167.060 150.224 146.138  1.00  0.00    -0.507 OA
ATOM     25  H   UNL     1     167.642 149.417 145.973  1.00  0.00     0.293 HD
ENDBRANCH   6  24
BRANCH   8  26
ATOM     26  O   UNL     1     163.269 148.602 148.600  1.00  0.00    -0.508 OA
ATOM     27  H   UNL     1     163.424 147.751 149.128  1.00  0.00     0.293 HD
ENDBRANCH   8  26
TORSDOF 6
ENDMDL
MODEL 4
REMARK VINA RESULT:    -7.109      8.735     11.651
REMARK INTER + INTRA:          -8.973
REMARK INTER:                  -8.562
REMARK INTRA:                  -0.411
REMARK UNBOUND:                -0.410
REMARK SMILES O=c1c(O)c(-c2ccc(O)cc2O)oc2cc(O)cc(O)c12
REMARK SMILES IDX 5 1 3 2 2 3 1 4 22 5 20 6 19 7 17 8 16 9 15 10 14 11 6 12
REMARK SMILES IDX 8 13 7 14 9 15 11 16 12 17 10 18 13 20 4 22 21 24 18 26
REMARK H PARENT 10 19 13 21 4 23 21 25 18 27
REMARK Flexibility Score: inf
ROOT
ATOM      1  C   UNL     1     168.836 145.027 154.516  1.00  0.00     0.184 A 
ATOM      2  C   UNL     1     167.885 145.922 155.031  1.00  0.00     0.208 A 
ATOM      3  C   UNL     1     168.268 146.808 156.051  1.00  0.00     0.238 A 
ATOM      4  O   UNL     1     167.399 147.570 156.547  1.00  0.00    -0.285 OA
ATOM      5  C   UNL     1     169.601 146.797 156.528  1.00  0.00     0.111 A 
ATOM      6  C   UNL     1     170.110 147.677 157.529  1.00  0.00     0.134 A 
ATOM      7  C   UNL     1     171.410 147.490 158.018  1.00  0.00     0.093 A 
ATOM      8  C   UNL     1     172.240 146.497 157.493  1.00  0.00     0.123 A 
ATOM      9  C   UNL     1     171.773 145.671 156.474  1.00  0.00     0.094 A 
ATOM     10  C   UNL     1     170.469 145.809 155.992  1.00  0.00     0.146 A 
ATOM     11  O   UNL     1     170.059 144.993 155.028  1.00  0.00    -0.451 OA
ENDROOT
BRANCH   1  12
ATOM     12  C   UNL     1     168.503 144.080 153.431  1.00  0.00     0.063 A 
ATOM     13  C   UNL     1     167.707 141.881 152.764  1.00  0.00     0.047 A 
ATOM     14  C   UNL     1     168.026 142.802 153.765  1.00  0.00     0.020 A 
ATOM     15  C   UNL     1     167.873 142.221 151.416  1.00  0.00     0.119 A 
ATOM     16  C   UNL     1     168.367 143.483 151.075  1.00  0.00     0.093 A 
ATOM     17  C   UNL     1     168.696 144.412 152.073  1.00  0.00     0.130 A 
BRANCH  15  18
ATOM     18  O   UNL     1     167.554 141.313 150.410  1.00  0.00    -0.508 OA
ATOM     19  H   UNL     1     167.387 141.615 149.457  1.00  0.00     0.293 HD
ENDBRANCH  15  18
BRANCH  17  20
ATOM     20  O   UNL     1     169.235 145.649 151.720  1.00  0.00    -0.507 OA
ATOM     21  H   UNL     1     169.420 145.892 150.754  1.00  0.00     0.293 HD
ENDBRANCH  17  20
ENDBRANCH   1  12
BRANCH   2  22
ATOM     22  O   UNL     1     166.572 145.898 154.555  1.00  0.00    -0.502 OA
ATOM     23  H   UNL     1     165.916 145.168 154.807  1.00  0.00     0.293 HD
ENDBRANCH   2  22
BRANCH   6  24
ATOM     24  O   UNL     1     169.396 148.758 158.055  1.00  0.00    -0.507 OA
ATOM     25  H   UNL     1     168.601 149.192 157.610  1.00  0.00     0.293 HD
ENDBRANCH   6  24
BRANCH   8  26
ATOM     26  O   UNL     1     173.538 146.329 157.973  1.00  0.00    -0.508 OA
ATOM     27  H   UNL     1     174.331 146.271 157.346  1.00  0.00     0.293 HD
ENDBRANCH   8  26
TORSDOF 6
ENDMDL
MODEL 5
REMARK VINA RESULT:    -7.030      5.214      8.319
REMARK INTER + INTRA:          -8.879
REMARK INTER:                  -8.717
REMARK INTRA:                  -0.162
REMARK UNBOUND:                -0.410
REMARK SMILES O=c1c(O)c(-c2ccc(O)cc2O)oc2cc(O)cc(O)c12
REMARK SMILES IDX 5 1 3 2 2 3 1 4 22 5 20 6 19 7 17 8 16 9 15 10 14 11 6 12
REMARK SMILES IDX 8 13 7 14 9 15 11 16 12 17 10 18 13 20 4 22 21 24 18 26
REMARK H PARENT 10 19 13 21 4 23 21 25 18 27
REMARK Flexibility Score: inf
ROOT
ATOM      1  C   UNL     1     169.443 149.644 147.381  1.00  0.00     0.184 A 
ATOM      2  C   UNL     1     170.062 150.768 147.951  1.00  0.00     0.208 A 
ATOM      3  C   UNL     1     169.336 151.966 148.051  1.00  0.00     0.238 A 
ATOM      4  O   UNL     1     169.913 152.985 148.513  1.00  0.00    -0.285 OA
ATOM      5  C   UNL     1     167.996 152.016 147.597  1.00  0.00     0.111 A 
ATOM      6  C   UNL     1     167.154 153.165 147.686  1.00  0.00     0.134 A 
ATOM      7  C   UNL     1     165.888 153.142 147.086  1.00  0.00     0.093 A 
ATOM      8  C   UNL     1     165.411 151.989 146.457  1.00  0.00     0.123 A 
ATOM      9  C   UNL     1     166.202 150.845 146.416  1.00  0.00     0.094 A 
ATOM     10  C   UNL     1     167.483 150.848 146.974  1.00  0.00     0.146 A 
ATOM     11  O   UNL     1     168.210 149.739 146.903  1.00  0.00    -0.451 OA
ENDROOT
BRANCH   1  12
ATOM     12  C   UNL     1     170.145 148.349 147.261  1.00  0.00     0.063 A 
ATOM     13  C   UNL     1     170.281 145.996 147.859  1.00  0.00     0.047 A 
ATOM     14  C   UNL     1     169.639 147.233 147.947  1.00  0.00     0.020 A 
ATOM     15  C   UNL     1     171.446 145.861 147.095  1.00  0.00     0.119 A 
ATOM     16  C   UNL     1     171.970 146.971 146.426  1.00  0.00     0.093 A 
ATOM     17  C   UNL     1     171.335 148.219 146.513  1.00  0.00     0.130 A 
BRANCH  15  18
ATOM     18  O   UNL     1     172.092 144.631 146.997  1.00  0.00    -0.508 OA
ATOM     19  H   UNL     1     171.777 143.824 147.522  1.00  0.00     0.293 HD
ENDBRANCH  15  18
BRANCH  17  20
ATOM     20  O   UNL     1     171.895 149.328 145.882  1.00  0.00    -0.507 OA
ATOM     21  H   UNL     1     172.179 149.300 144.909  1.00  0.00     0.293 HD
ENDBRANCH  17  20
ENDBRANCH   1  12
BRANCH   2  22
ATOM     22  O   UNL     1     171.392 150.695 148.374  1.00  0.00    -0.502 OA
ATOM     23  H   UNL     1     172.037 151.469 148.273  1.00  0.00     0.293 HD
ENDBRANCH   2  22
BRANCH   6  24
ATOM     24  O   UNL     1     167.498 154.335 148.370  1.00  0.00    -0.507 OA
ATOM     25  H   UNL     1     168.067 155.076 147.991  1.00  0.00     0.293 HD
ENDBRANCH   6  24
BRANCH   8  26
ATOM     26  O   UNL     1     164.144 151.970 145.877  1.00  0.00    -0.508 OA
ATOM     27  H   UNL     1     163.792 151.147 145.402  1.00  0.00     0.293 HD
ENDBRANCH   8  26
TORSDOF 6
ENDMDL
MODEL 6
REMARK VINA RESULT:    -6.997      8.155      9.599
REMARK INTER + INTRA:          -8.839
REMARK INTER:                  -8.428
REMARK INTRA:                  -0.411
REMARK UNBOUND:                -0.410
REMARK SMILES O=c1c(O)c(-c2ccc(O)cc2O)oc2cc(O)cc(O)c12
REMARK SMILES IDX 5 1 3 2 2 3 1 4 22 5 20 6 19 7 17 8 16 9 15 10 14 11 6 12
REMARK SMILES IDX 8 13 7 14 9 15 11 16 12 17 10 18 13 20 4 22 21 24 18 26
REMARK H PARENT 10 19 13 21 4 23 21 25 18 27
REMARK Flexibility Score: inf
ROOT
ATOM      1  C   UNL     1     168.535 145.076 154.081  1.00  0.00     0.184 A 
ATOM      2  C   UNL     1     168.339 143.721 154.390  1.00  0.00     0.208 A 
ATOM      3  C   UNL     1     168.236 142.793 153.341  1.00  0.00     0.238 A 
ATOM      4  O   UNL     1     168.007 141.588 153.621  1.00  0.00    -0.285 OA
ATOM      5  C   UNL     1     168.347 143.232 152.000  1.00  0.00     0.111 A 
ATOM      6  C   UNL     1     168.298 142.374 150.860  1.00  0.00     0.134 A 
ATOM      7  C   UNL     1     168.288 142.933 149.575  1.00  0.00     0.093 A 
ATOM      8  C   UNL     1     168.391 144.313 149.390  1.00  0.00     0.123 A 
ATOM      9  C   UNL     1     168.499 145.154 150.493  1.00  0.00     0.094 A 
ATOM     10  C   UNL     1     168.475 144.630 151.789  1.00  0.00     0.146 A 
ATOM     11  O   UNL     1     168.569 145.468 152.814  1.00  0.00    -0.451 OA
ENDROOT
BRANCH   1  12
ATOM     12  C   UNL     1     168.669 146.101 155.137  1.00  0.00     0.063 A 
ATOM     13  C   UNL     1     167.608 147.735 156.593  1.00  0.00     0.047 A 
ATOM     14  C   UNL     1     167.517 146.757 155.600  1.00  0.00     0.020 A 
ATOM     15  C   UNL     1     168.855 148.080 157.128  1.00  0.00     0.119 A 
ATOM     16  C   UNL     1     170.010 147.448 156.658  1.00  0.00     0.093 A 
ATOM     17  C   UNL     1     169.929 146.469 155.657  1.00  0.00     0.130 A 
BRANCH  15  18
ATOM     18  O   UNL     1     168.958 149.051 158.121  1.00  0.00    -0.508 OA
ATOM     19  H   UNL     1     168.206 149.705 158.302  1.00  0.00     0.293 HD
ENDBRANCH  15  18
BRANCH  17  20
ATOM     20  O   UNL     1     171.093 145.883 155.163  1.00  0.00    -0.507 OA
ATOM     21  H   UNL     1     171.268 144.889 155.254  1.00  0.00     0.293 HD
ENDBRANCH  17  20
ENDBRANCH   1  12
BRANCH   2  22
ATOM     22  O   UNL     1     168.215 143.318 155.722  1.00  0.00    -0.502 OA
ATOM     23  H   UNL     1     167.480 142.694 156.034  1.00  0.00     0.293 HD
ENDBRANCH   2  22
BRANCH   6  24
ATOM     24  O   UNL     1     168.286 140.978 150.934  1.00  0.00    -0.507 OA
ATOM     25  H   UNL     1     168.717 140.363 150.260  1.00  0.00     0.293 HD
ENDBRANCH   6  24
BRANCH   8  26
ATOM     26  O   UNL     1     168.396 144.859 148.107  1.00  0.00    -0.508 OA
ATOM     27  H   UNL     1     167.900 145.716 147.895  1.00  0.00     0.293 HD
ENDBRANCH   8  26
TORSDOF 6
ENDMDL
MODEL 7
REMARK VINA RESULT:    -6.991      1.740      3.298
REMARK INTER + INTRA:          -8.832
REMARK INTER:                  -8.415
REMARK INTRA:                  -0.416
REMARK UNBOUND:                -0.410
REMARK SMILES O=c1c(O)c(-c2ccc(O)cc2O)oc2cc(O)cc(O)c12
REMARK SMILES IDX 5 1 3 2 2 3 1 4 22 5 20 6 19 7 17 8 16 9 15 10 14 11 6 12
REMARK SMILES IDX 8 13 7 14 9 15 11 16 12 17 10 18 13 20 4 22 21 24 18 26
REMARK H PARENT 10 19 13 21 4 23 21 25 18 27
REMARK Flexibility Score: inf
ROOT
ATOM      1  C   UNL     1     165.907 153.669 150.173  1.00  0.00     0.184 A 
ATOM      2  C   UNL     1     164.735 152.908 150.040  1.00  0.00     0.208 A 
ATOM      3  C   UNL     1     164.701 151.873 149.091  1.00  0.00     0.238 A 
ATOM      4  O   UNL     1     163.631 151.229 148.938  1.00  0.00    -0.285 OA
ATOM      5  C   UNL     1     165.846 151.605 148.302  1.00  0.00     0.111 A 
ATOM      6  C   UNL     1     165.937 150.555 147.339  1.00  0.00     0.134 A 
ATOM      7  C   UNL     1     167.072 150.464 146.522  1.00  0.00     0.093 A 
ATOM      8  C   UNL     1     168.145 151.344 146.681  1.00  0.00     0.123 A 
ATOM      9  C   UNL     1     168.090 152.334 147.657  1.00  0.00     0.094 A 
ATOM     10  C   UNL     1     166.957 152.474 148.462  1.00  0.00     0.146 A 
ATOM     11  O   UNL     1     166.941 153.438 149.374  1.00  0.00    -0.451 OA
ENDROOT
BRANCH   1  12
ATOM     12  C   UNL     1     166.015 154.761 151.164  1.00  0.00     0.063 A 
ATOM     13  C   UNL     1     165.839 157.133 151.667  1.00  0.00     0.047 A 
ATOM     14  C   UNL     1     165.742 156.077 150.758  1.00  0.00     0.020 A 
ATOM     15  C   UNL     1     166.225 156.889 152.991  1.00  0.00     0.119 A 
ATOM     16  C   UNL     1     166.520 155.584 153.398  1.00  0.00     0.093 A 
ATOM     17  C   UNL     1     166.430 154.518 152.490  1.00  0.00     0.130 A 
BRANCH  15  18
ATOM     18  O   UNL     1     166.322 157.933 153.907  1.00  0.00    -0.508 OA
ATOM     19  H   UNL     1     166.490 157.760 154.891  1.00  0.00     0.293 HD
ENDBRANCH  15  18
BRANCH  17  20
ATOM     20  O   UNL     1     166.775 153.230 152.896  1.00  0.00    -0.507 OA
ATOM     21  H   UNL     1     167.618 153.047 153.428  1.00  0.00     0.293 HD
ENDBRANCH  17  20
ENDBRANCH   1  12
BRANCH   2  22
ATOM     22  O   UNL     1     163.615 153.207 150.819  1.00  0.00    -0.502 OA
ATOM     23  H   UNL     1     162.670 153.144 150.458  1.00  0.00     0.293 HD
ENDBRANCH   2  22
BRANCH   6  24
ATOM     24  O   UNL     1     164.961 149.569 147.163  1.00  0.00    -0.507 OA
ATOM     25  H   UNL     1     164.192 149.631 146.514  1.00  0.00     0.293 HD
ENDBRANCH   6  24
BRANCH   8  26
ATOM     26  O   UNL     1     169.277 151.235 145.875  1.00  0.00    -0.508 OA
ATOM     27  H   UNL     1     170.207 151.397 146.244  1.00  0.00     0.293 HD
ENDBRANCH   8  26
TORSDOF 6
ENDMDL
MODEL 8
REMARK VINA RESULT:    -6.922      8.642     11.369
REMARK INTER + INTRA:          -8.748
REMARK INTER:                  -8.407
REMARK INTRA:                  -0.341
REMARK UNBOUND:                -0.410
REMARK SMILES O=c1c(O)c(-c2ccc(O)cc2O)oc2cc(O)cc(O)c12
REMARK SMILES IDX 5 1 3 2 2 3 1 4 22 5 20 6 19 7 17 8 16 9 15 10 14 11 6 12
REMARK SMILES IDX 8 13 7 14 9 15 11 16 12 17 10 18 13 20 4 22 21 24 18 26
REMARK H PARENT 10 19 13 21 4 23 21 25 18 27
REMARK Flexibility Score: inf
ROOT
ATOM      1  C   UNL     1     169.243 144.691 153.680  1.00  0.00     0.184 A 
ATOM      2  C   UNL     1     170.622 144.853 153.886  1.00  0.00     0.208 A 
ATOM      3  C   UNL     1     171.060 145.717 154.902  1.00  0.00     0.238 A 
ATOM      4  O   UNL     1     172.297 145.900 155.047  1.00  0.00    -0.285 OA
ATOM      5  C   UNL     1     170.113 146.392 155.708  1.00  0.00     0.111 A 
ATOM      6  C   UNL     1     170.444 147.260 156.792  1.00  0.00     0.134 A 
ATOM      7  C   UNL     1     169.429 147.977 157.438  1.00  0.00     0.093 A 
ATOM      8  C   UNL     1     168.089 147.807 157.082  1.00  0.00     0.123 A 
ATOM      9  C   UNL     1     167.751 146.919 156.065  1.00  0.00     0.094 A 
ATOM     10  C   UNL     1     168.744 146.217 155.377  1.00  0.00     0.146 A 
ATOM     11  O   UNL     1     168.379 145.388 154.407  1.00  0.00    -0.451 OA
ENDROOT
BRANCH   1  12
ATOM     12  C   UNL     1     168.714 143.785 152.639  1.00  0.00     0.063 A 
ATOM     13  C   UNL     1     167.655 141.672 152.067  1.00  0.00     0.047 A 
ATOM     14  C   UNL     1     168.159 142.554 153.025  1.00  0.00     0.020 A 
ATOM     15  C   UNL     1     167.713 142.002 150.707  1.00  0.00     0.119 A 
ATOM     16  C   UNL     1     168.283 143.216 150.312  1.00  0.00     0.093 A 
ATOM     17  C   UNL     1     168.797 144.105 151.267  1.00  0.00     0.130 A 
BRANCH  15  18
ATOM     18  O   UNL     1     167.210 141.132 149.743  1.00  0.00    -0.508 OA
ATOM     19  H   UNL     1     167.687 140.270 149.508  1.00  0.00     0.293 HD
ENDBRANCH  15  18
BRANCH  17  20
ATOM     20  O   UNL     1     169.408 145.289 150.856  1.00  0.00    -0.507 OA
ATOM     21  H   UNL     1     168.866 146.088 150.548  1.00  0.00     0.293 HD
ENDBRANCH  17  20
ENDBRANCH   1  12
BRANCH   2  22
ATOM     22  O   UNL     1     171.534 144.188 153.062  1.00  0.00    -0.502 OA
ATOM     23  H   UNL     1     172.378 144.631 152.718  1.00  0.00     0.293 HD
ENDBRANCH   2  22
BRANCH   6  24
ATOM     24  O   UNL     1     171.741 147.431 157.287  1.00  0.00    -0.507 OA
ATOM     25  H   UNL     1     172.569 147.501 156.716  1.00  0.00     0.293 HD
ENDBRANCH   6  24
BRANCH   8  26
ATOM     26  O   UNL     1     167.084 148.513 157.741  1.00  0.00    -0.508 OA
ATOM     27  H   UNL     1     166.656 149.334 157.329  1.00  0.00     0.293 HD
ENDBRANCH   8  26
TORSDOF 6
ENDMDL
MODEL 9
REMARK VINA RESULT:    -6.875      2.644      6.536
REMARK INTER + INTRA:          -8.691
REMARK INTER:                  -8.272
REMARK INTRA:                  -0.419
REMARK UNBOUND:                -0.410
REMARK SMILES O=c1c(O)c(-c2ccc(O)cc2O)oc2cc(O)cc(O)c12
REMARK SMILES IDX 5 1 3 2 2 3 1 4 22 5 20 6 19 7 17 8 16 9 15 10 14 11 6 12
REMARK SMILES IDX 8 13 7 14 9 15 11 16 12 17 10 18 13 20 4 22 21 24 18 26
REMARK H PARENT 10 19 13 21 4 23 21 25 18 27
REMARK Flexibility Score: inf
ROOT
ATOM      1  C   UNL     1     166.338 153.550 150.011  1.00  0.00     0.184 A 
ATOM      2  C   UNL     1     165.509 152.763 150.826  1.00  0.00     0.208 A 
ATOM      3  C   UNL     1     164.729 153.390 151.810  1.00  0.00     0.238 A 
ATOM      4  O   UNL     1     164.029 152.676 152.573  1.00  0.00    -0.285 OA
ATOM      5  C   UNL     1     164.777 154.798 151.953  1.00  0.00     0.111 A 
ATOM      6  C   UNL     1     164.000 155.544 152.890  1.00  0.00     0.134 A 
ATOM      7  C   UNL     1     164.224 156.919 153.034  1.00  0.00     0.093 A 
ATOM      8  C   UNL     1     165.151 157.585 152.229  1.00  0.00     0.123 A 
ATOM      9  C   UNL     1     165.872 156.877 151.272  1.00  0.00     0.094 A 
ATOM     10  C   UNL     1     165.697 155.498 151.130  1.00  0.00     0.146 A 
ATOM     11  O   UNL     1     166.413 154.859 150.212  1.00  0.00    -0.451 OA
ENDROOT
BRANCH   1  12
ATOM     12  C   UNL     1     167.172 152.954 148.946  1.00  0.00     0.063 A 
ATOM     13  C   UNL     1     167.305 151.884 146.766  1.00  0.00     0.047 A 
ATOM     14  C   UNL     1     166.548 152.458 147.790  1.00  0.00     0.020 A 
ATOM     15  C   UNL     1     168.696 151.786 146.891  1.00  0.00     0.119 A 
ATOM     16  C   UNL     1     169.324 152.258 148.047  1.00  0.00     0.093 A 
ATOM     17  C   UNL     1     168.571 152.831 149.083  1.00  0.00     0.130 A 
BRANCH  15  18
ATOM     18  O   UNL     1     169.462 151.220 145.875  1.00  0.00    -0.508 OA
ATOM     19  H   UNL     1     170.003 150.377 146.028  1.00  0.00     0.293 HD
ENDBRANCH  15  18
BRANCH  17  20
ATOM     20  O   UNL     1     169.204 153.252 150.251  1.00  0.00    -0.507 OA
ATOM     21  H   UNL     1     169.646 154.161 150.319  1.00  0.00     0.293 HD
ENDBRANCH  17  20
ENDBRANCH   1  12
BRANCH   2  22
ATOM     22  O   UNL     1     165.496 151.374 150.674  1.00  0.00    -0.502 OA
ATOM     23  H   UNL     1     164.687 150.810 150.905  1.00  0.00     0.293 HD
ENDBRANCH   2  22
BRANCH   6  24
ATOM     24  O   UNL     1     162.984 154.991 153.677  1.00  0.00    -0.507 OA
ATOM     25  H   UNL     1     163.116 154.249 154.346  1.00  0.00     0.293 HD
ENDBRANCH   6  24
BRANCH   8  26
ATOM     26  O   UNL     1     165.356 158.957 152.368  1.00  0.00    -0.508 OA
ATOM     27  H   UNL     1     165.284 159.586 151.578  1.00  0.00     0.293 HD
ENDBRANCH   8  26
TORSDOF 6
ENDMDL
