MODEL 1
REMARK VINA RESULT:    -3.871      0.000      0.000
REMARK INTER + INTRA:          -8.704
REMARK INTER:                  -6.813
REMARK INTRA:                  -1.891
REMARK UNBOUND:                -1.891
REMARK SMILES CCCCCCCCCCCCCCC(=O)[O-]
REMARK SMILES IDX 9 1 10 2 11 3 12 4 13 5 14 6 15 7 16 8 17 9 8 10 7 11 6 12
REMARK SMILES IDX 5 13 4 14 3 15 2 16 1 17
REMARK H PARENT
REMARK Flexibility Score: inf
ROOT
ATOM      1  C   UNL     1     154.755 171.332 164.068  1.00  0.00     0.000 C 
ENDROOT
BRANCH   1   2
ATOM      2  C   UNL     1     154.693 172.530 163.106  1.00  0.00     0.000 C 
BRANCH   2   3
ATOM      3  C   UNL     1     153.851 173.692 163.660  1.00  0.00     0.000 C 
BRANCH   3   4
ATOM      4  C   UNL     1     154.042 174.992 162.847  1.00  0.00     0.000 C 
BRANCH   4   5
ATOM      5  C   UNL     1     155.327 175.002 161.997  1.00  0.00     0.006 C 
BRANCH   5   6
ATOM      6  C   UNL     1     155.177 175.714 160.644  1.00  0.00     0.053 C 
BRANCH   6   7
ATOM      7  C   UNL     1     155.645 174.856 159.508  1.00  0.00     0.041 C 
ATOM      8  O   UNL     1     154.932 174.727 158.478  1.00  0.00    -0.550 OA
ATOM      9  O   UNL     1     156.855 174.182 159.594  1.00  0.00    -0.550 OA
ENDBRANCH   6   7
ENDBRANCH   5   6
ENDBRANCH   4   5
ENDBRANCH   3   4
ENDBRANCH   2   3
ENDBRANCH   1   2
BRANCH   1  10
ATOM     10  C   UNL     1     154.135 171.646 165.441  1.00  0.00     0.000 C 
BRANCH  10  11
ATOM     11  C   UNL     1     154.855 170.928 166.594  1.00  0.00    -0.000 C 
BRANCH  11  12
ATOM     12  C   UNL     1     155.731 171.880 167.427  1.00  0.00    -0.000 C 
BRANCH  12  13
ATOM     13  C   UNL     1     155.848 173.279 166.798  1.00  0.00    -0.000 C 
BRANCH  13  14
ATOM     14  C   UNL     1     157.253 173.560 166.238  1.00  0.00    -0.000 C 
BRANCH  14  15
ATOM     15  C   UNL     1     157.230 174.545 165.057  1.00  0.00    -0.000 C 
BRANCH  15  16
ATOM     16  C   UNL     1     158.437 174.380 164.123  1.00  0.00    -0.003 C 
ATOM     17  C   UNL     1     158.272 173.159 163.223  1.00  0.00     0.004 C 
ENDBRANCH  15  16
ENDBRANCH  14  15
ENDBRANCH  13  14
ENDBRANCH  12  13
ENDBRANCH  11  12
ENDBRANCH  10  11
ENDBRANCH   1  10
TORSDOF 13
ENDMDL
MODEL 2
REMARK VINA RESULT:    -3.595      1.641      3.642
REMARK INTER + INTRA:          -8.219
REMARK INTER:                  -6.714
REMARK INTRA:                  -1.505
REMARK UNBOUND:                -1.891
REMARK SMILES CCCCCCCCCCCCCCC(=O)[O-]
REMARK SMILES IDX 9 1 10 2 11 3 12 4 13 5 14 6 15 7 16 8 17 9 8 10 7 11 6 12
REMARK SMILES IDX 5 13 4 14 3 15 2 16 1 17
REMARK H PARENT
REMARK Flexibility Score: inf
ROOT
ATOM      1  C   UNL     1     157.788 174.728 162.285  1.00  0.00     0.000 C 
ENDROOT
BRANCH   1   2
ATOM      2  C   UNL     1     157.150 174.562 160.896  1.00  0.00     0.000 C 
BRANCH   2   3
ATOM      3  C   UNL     1     155.657 174.200 160.967  1.00  0.00     0.000 C 
BRANCH   3   4
ATOM      4  C   UNL     1     154.789 175.117 160.078  1.00  0.00     0.000 C 
BRANCH   4   5
ATOM      5  C   UNL     1     155.517 175.616 158.815  1.00  0.00     0.006 C 
BRANCH   5   6
ATOM      6  C   UNL     1     155.225 174.786 157.556  1.00  0.00     0.053 C 
BRANCH   6   7
ATOM      7  C   UNL     1     156.445 174.065 157.068  1.00  0.00     0.041 C 
ATOM      8  O   UNL     1     156.333 172.950 156.496  1.00  0.00    -0.550 OA
ATOM      9  O   UNL     1     157.706 174.612 157.265  1.00  0.00    -0.550 OA
ENDBRANCH   6   7
ENDBRANCH   5   6
ENDBRANCH   4   5
ENDBRANCH   3   4
ENDBRANCH   2   3
ENDBRANCH   1   2
BRANCH   1  10
ATOM     10  C   UNL     1     158.611 173.498 162.705  1.00  0.00     0.000 C 
BRANCH  10  11
ATOM     11  C   UNL     1     159.253 173.662 164.093  1.00  0.00    -0.000 C 
BRANCH  11  12
ATOM     12  C   UNL     1     158.442 174.592 165.012  1.00  0.00    -0.000 C 
BRANCH  12  13
ATOM     13  C   UNL     1     157.791 173.843 166.187  1.00  0.00    -0.000 C 
BRANCH  13  14
ATOM     14  C   UNL     1     156.258 173.975 166.198  1.00  0.00    -0.000 C 
BRANCH  14  15
ATOM     15  C   UNL     1     155.552 172.683 165.756  1.00  0.00    -0.000 C 
BRANCH  15  16
ATOM     16  C   UNL     1     154.945 172.788 164.350  1.00  0.00    -0.003 C 
ATOM     17  C   UNL     1     155.196 171.516 163.546  1.00  0.00     0.004 C 
ENDBRANCH  15  16
ENDBRANCH  14  15
ENDBRANCH  13  14
ENDBRANCH  12  13
ENDBRANCH  11  12
ENDBRANCH  10  11
ENDBRANCH   1  10
TORSDOF 13
ENDMDL
MODEL 3
REMARK VINA RESULT:    -3.569      1.737      3.836
REMARK INTER + INTRA:          -8.172
REMARK INTER:                  -6.434
REMARK INTRA:                  -1.738
REMARK UNBOUND:                -1.891
REMARK SMILES CCCCCCCCCCCCCCC(=O)[O-]
REMARK SMILES IDX 9 1 10 2 11 3 12 4 13 5 14 6 15 7 16 8 17 9 8 10 7 11 6 12
REMARK SMILES IDX 5 13 4 14 3 15 2 16 1 17
REMARK H PARENT
REMARK Flexibility Score: inf
ROOT
ATOM      1  C   UNL     1     158.144 174.280 163.616  1.00  0.00     0.000 C 
ENDROOT
BRANCH   1   2
ATOM      2  C   UNL     1     157.899 175.598 162.863  1.00  0.00     0.000 C 
BRANCH   2   3
ATOM      3  C   UNL     1     157.759 175.396 161.344  1.00  0.00     0.000 C 
BRANCH   3   4
ATOM      4  C   UNL     1     156.438 175.981 160.795  1.00  0.00     0.000 C 
BRANCH   4   5
ATOM      5  C   UNL     1     155.807 175.129 159.677  1.00  0.00     0.006 C 
BRANCH   5   6
ATOM      6  C   UNL     1     156.109 175.636 158.259  1.00  0.00     0.053 C 
BRANCH   6   7
ATOM      7  C   UNL     1     157.055 174.728 157.533  1.00  0.00     0.041 C 
ATOM      8  O   UNL     1     158.002 175.211 156.858  1.00  0.00    -0.550 OA
ATOM      9  O   UNL     1     156.880 173.352 157.582  1.00  0.00    -0.550 OA
ENDBRANCH   6   7
ENDBRANCH   5   6
ENDBRANCH   4   5
ENDBRANCH   3   4
ENDBRANCH   2   3
ENDBRANCH   1   2
BRANCH   1  10
ATOM     10  C   UNL     1     157.494 173.073 162.917  1.00  0.00     0.000 C 
BRANCH  10  11
ATOM     11  C   UNL     1     156.167 172.654 163.571  1.00  0.00    -0.000 C 
BRANCH  11  12
ATOM     12  C   UNL     1     154.944 173.277 162.876  1.00  0.00    -0.000 C 
BRANCH  12  13
ATOM     13  C   UNL     1     154.389 174.495 163.634  1.00  0.00    -0.000 C 
BRANCH  13  14
ATOM     14  C   UNL     1     154.833 174.529 165.107  1.00  0.00    -0.000 C 
BRANCH  14  15
ATOM     15  C   UNL     1     153.767 173.960 166.057  1.00  0.00    -0.000 C 
BRANCH  15  16
ATOM     16  C   UNL     1     154.375 173.284 167.295  1.00  0.00    -0.003 C 
ATOM     17  C   UNL     1     155.857 172.989 167.087  1.00  0.00     0.004 C 
ENDBRANCH  15  16
ENDBRANCH  14  15
ENDBRANCH  13  14
ENDBRANCH  12  13
ENDBRANCH  11  12
ENDBRANCH  10  11
ENDBRANCH   1  10
TORSDOF 13
ENDMDL
MODEL 4
REMARK VINA RESULT:    -3.507      3.077      4.710
REMARK INTER + INTRA:          -8.064
REMARK INTER:                  -6.305
REMARK INTRA:                  -1.759
REMARK UNBOUND:                -1.891
REMARK SMILES CCCCCCCCCCCCCCC(=O)[O-]
REMARK SMILES IDX 9 1 10 2 11 3 12 4 13 5 14 6 15 7 16 8 17 9 8 10 7 11 6 12
REMARK SMILES IDX 5 13 4 14 3 15 2 16 1 17
REMARK H PARENT
REMARK Flexibility Score: inf
ROOT
ATOM      1  C   UNL     1     157.801 174.895 161.765  1.00  0.00     0.000 C 
ENDROOT
BRANCH   1   2
ATOM      2  C   UNL     1     156.539 174.688 160.912  1.00  0.00     0.000 C 
BRANCH   2   3
ATOM      3  C   UNL     1     155.405 173.996 161.688  1.00  0.00     0.000 C 
BRANCH   3   4
ATOM      4  C   UNL     1     155.094 174.705 163.025  1.00  0.00     0.000 C 
BRANCH   4   5
ATOM      5  C   UNL     1     154.913 173.734 164.207  1.00  0.00     0.006 C 
BRANCH   5   6
ATOM      6  C   UNL     1     155.447 172.318 163.942  1.00  0.00     0.053 C 
BRANCH   6   7
ATOM      7  C   UNL     1     154.363 171.288 164.033  1.00  0.00     0.041 C 
ATOM      8  O   UNL     1     153.299 171.543 164.655  1.00  0.00    -0.550 OA
ATOM      9  O   UNL     1     154.535 170.039 163.452  1.00  0.00    -0.550 OA
ENDBRANCH   6   7
ENDBRANCH   5   6
ENDBRANCH   4   5
ENDBRANCH   3   4
ENDBRANCH   2   3
ENDBRANCH   1   2
BRANCH   1  10
ATOM     10  C   UNL     1     158.501 173.569 162.112  1.00  0.00     0.000 C 
BRANCH  10  11
ATOM     11  C   UNL     1     158.994 173.525 163.568  1.00  0.00    -0.000 C 
BRANCH  11  12
ATOM     12  C   UNL     1     158.510 174.731 164.392  1.00  0.00    -0.000 C 
BRANCH  12  13
ATOM     13  C   UNL     1     159.084 174.742 165.818  1.00  0.00    -0.000 C 
BRANCH  13  14
ATOM     14  C   UNL     1     160.326 173.846 165.964  1.00  0.00    -0.000 C 
BRANCH  14  15
ATOM     15  C   UNL     1     161.584 174.640 166.354  1.00  0.00    -0.000 C 
BRANCH  15  16
ATOM     16  C   UNL     1     162.192 175.406 165.171  1.00  0.00    -0.003 C 
ATOM     17  C   UNL     1     162.978 174.471 164.257  1.00  0.00     0.004 C 
ENDBRANCH  15  16
ENDBRANCH  14  15
ENDBRANCH  13  14
ENDBRANCH  12  13
ENDBRANCH  11  12
ENDBRANCH  10  11
ENDBRANCH   1  10
TORSDOF 13
ENDMDL
MODEL 5
REMARK VINA RESULT:    -3.433     15.139     17.731
REMARK INTER + INTRA:          -7.933
REMARK INTER:                  -5.469
REMARK INTRA:                  -2.464
REMARK UNBOUND:                -1.891
REMARK SMILES CCCCCCCCCCCCCCC(=O)[O-]
REMARK SMILES IDX 9 1 10 2 11 3 12 4 13 5 14 6 15 7 16 8 17 9 8 10 7 11 6 12
REMARK SMILES IDX 5 13 4 14 3 15 2 16 1 17
REMARK H PARENT
REMARK Flexibility Score: inf
ROOT
ATOM      1  C   UNL     1     171.018 171.588 150.839  1.00  0.00     0.000 C 
ENDROOT
BRANCH   1   2
ATOM      2  C   UNL     1     171.118 170.114 151.267  1.00  0.00     0.000 C 
BRANCH   2   3
ATOM      3  C   UNL     1     169.742 169.438 151.394  1.00  0.00     0.000 C 
BRANCH   3   4
ATOM      4  C   UNL     1     168.589 170.373 150.963  1.00  0.00     0.000 C 
BRANCH   4   5
ATOM      5  C   UNL     1     167.202 169.895 151.435  1.00  0.00     0.006 C 
BRANCH   5   6
ATOM      6  C   UNL     1     166.564 170.788 152.509  1.00  0.00     0.053 C 
BRANCH   6   7
ATOM      7  C   UNL     1     165.259 170.232 152.993  1.00  0.00     0.041 C 
ATOM      8  O   UNL     1     164.175 170.656 152.514  1.00  0.00    -0.550 OA
ATOM      9  O   UNL     1     165.238 169.263 153.986  1.00  0.00    -0.550 OA
ENDBRANCH   6   7
ENDBRANCH   5   6
ENDBRANCH   4   5
ENDBRANCH   3   4
ENDBRANCH   2   3
ENDBRANCH   1   2
BRANCH   1  10
ATOM     10  C   UNL     1     172.081 172.470 151.516  1.00  0.00     0.000 C 
BRANCH  10  11
ATOM     11  C   UNL     1     171.589 173.080 152.839  1.00  0.00    -0.000 C 
BRANCH  11  12
ATOM     12  C   UNL     1     170.053 173.110 152.939  1.00  0.00    -0.000 C 
BRANCH  12  13
ATOM     13  C   UNL     1     169.521 172.280 154.119  1.00  0.00    -0.000 C 
BRANCH  13  14
ATOM     14  C   UNL     1     170.637 171.526 154.864  1.00  0.00    -0.000 C 
BRANCH  14  15
ATOM     15  C   UNL     1     170.342 170.024 155.004  1.00  0.00    -0.000 C 
BRANCH  15  16
ATOM     16  C   UNL     1     168.839 169.718 155.076  1.00  0.00    -0.003 C 
ATOM     17  C   UNL     1     168.560 168.254 154.750  1.00  0.00     0.004 C 
ENDBRANCH  15  16
ENDBRANCH  14  15
ENDBRANCH  13  14
ENDBRANCH  12  13
ENDBRANCH  11  12
ENDBRANCH  10  11
ENDBRANCH   1  10
TORSDOF 13
ENDMDL
MODEL 6
REMARK VINA RESULT:    -3.368     15.354     17.891
REMARK INTER + INTRA:          -7.820
REMARK INTER:                  -5.834
REMARK INTRA:                  -1.985
REMARK UNBOUND:                -1.891
REMARK SMILES CCCCCCCCCCCCCCC(=O)[O-]
REMARK SMILES IDX 9 1 10 2 11 3 12 4 13 5 14 6 15 7 16 8 17 9 8 10 7 11 6 12
REMARK SMILES IDX 5 13 4 14 3 15 2 16 1 17
REMARK H PARENT
REMARK Flexibility Score: inf
ROOT
ATOM      1  C   UNL     1     169.556 169.938 150.454  1.00  0.00     0.000 C 
ENDROOT
BRANCH   1   2
ATOM      2  C   UNL     1     168.465 170.496 151.382  1.00  0.00     0.000 C 
BRANCH   2   3
ATOM      3  C   UNL     1     168.291 169.661 152.662  1.00  0.00     0.000 C 
BRANCH   3   4
ATOM      4  C   UNL     1     167.444 170.393 153.728  1.00  0.00     0.000 C 
BRANCH   4   5
ATOM      5  C   UNL     1     166.219 171.122 153.144  1.00  0.00     0.006 C 
BRANCH   5   6
ATOM      6  C   UNL     1     165.011 170.209 152.886  1.00  0.00     0.053 C 
BRANCH   6   7
ATOM      7  C   UNL     1     164.339 170.528 151.586  1.00  0.00     0.041 C 
ATOM      8  O   UNL     1     165.028 170.740 150.553  1.00  0.00    -0.550 OA
ATOM      9  O   UNL     1     162.955 170.615 151.517  1.00  0.00    -0.550 OA
ENDBRANCH   6   7
ENDBRANCH   5   6
ENDBRANCH   4   5
ENDBRANCH   3   4
ENDBRANCH   2   3
ENDBRANCH   1   2
BRANCH   1  10
ATOM     10  C   UNL     1     170.133 171.011 149.513  1.00  0.00     0.000 C 
BRANCH  10  11
ATOM     11  C   UNL     1     171.378 171.700 150.094  1.00  0.00    -0.000 C 
BRANCH  11  12
ATOM     12  C   UNL     1     172.116 170.819 151.118  1.00  0.00    -0.000 C 
BRANCH  12  13
ATOM     13  C   UNL     1     172.422 171.564 152.428  1.00  0.00    -0.000 C 
BRANCH  13  14
ATOM     14  C   UNL     1     171.413 171.240 153.543  1.00  0.00    -0.000 C 
BRANCH  14  15
ATOM     15  C   UNL     1     170.899 172.501 154.258  1.00  0.00    -0.000 C 
BRANCH  15  16
ATOM     16  C   UNL     1     170.424 173.585 153.280  1.00  0.00    -0.003 C 
ATOM     17  C   UNL     1     168.927 173.841 153.430  1.00  0.00     0.004 C 
ENDBRANCH  15  16
ENDBRANCH  14  15
ENDBRANCH  13  14
ENDBRANCH  12  13
ENDBRANCH  11  12
ENDBRANCH  10  11
ENDBRANCH   1  10
TORSDOF 13
ENDMDL
MODEL 7
REMARK VINA RESULT:    -3.343     15.136     17.705
REMARK INTER + INTRA:          -7.774
REMARK INTER:                  -5.433
REMARK INTRA:                  -2.341
REMARK UNBOUND:                -1.891
REMARK SMILES CCCCCCCCCCCCCCC(=O)[O-]
REMARK SMILES IDX 9 1 10 2 11 3 12 4 13 5 14 6 15 7 16 8 17 9 8 10 7 11 6 12
REMARK SMILES IDX 5 13 4 14 3 15 2 16 1 17
REMARK H PARENT
REMARK Flexibility Score: inf
ROOT
ATOM      1  C   UNL     1     170.624 171.236 150.375  1.00  0.00     0.000 C 
ENDROOT
BRANCH   1   2
ATOM      2  C   UNL     1     169.184 170.721 150.531  1.00  0.00     0.000 C 
BRANCH   2   3
ATOM      3  C   UNL     1     169.104 169.418 151.345  1.00  0.00     0.000 C 
BRANCH   3   4
ATOM      4  C   UNL     1     167.679 169.147 151.877  1.00  0.00     0.000 C 
BRANCH   4   5
ATOM      5  C   UNL     1     166.751 170.373 151.800  1.00  0.00     0.006 C 
BRANCH   5   6
ATOM      6  C   UNL     1     165.911 170.604 153.065  1.00  0.00     0.053 C 
BRANCH   6   7
ATOM      7  C   UNL     1     164.465 170.280 152.842  1.00  0.00     0.041 C 
ATOM      8  O   UNL     1     163.878 169.460 153.594  1.00  0.00    -0.550 OA
ATOM      9  O   UNL     1     163.772 170.866 151.791  1.00  0.00    -0.550 OA
ENDBRANCH   6   7
ENDBRANCH   5   6
ENDBRANCH   4   5
ENDBRANCH   3   4
ENDBRANCH   2   3
ENDBRANCH   1   2
BRANCH   1  10
ATOM     10  C   UNL     1     171.586 170.613 151.402  1.00  0.00     0.000 C 
BRANCH  10  11
ATOM     11  C   UNL     1     172.385 171.670 152.182  1.00  0.00    -0.000 C 
BRANCH  11  12
ATOM     12  C   UNL     1     171.559 172.935 152.476  1.00  0.00    -0.000 C 
BRANCH  12  13
ATOM     13  C   UNL     1     170.893 172.898 153.862  1.00  0.00    -0.000 C 
BRANCH  13  14
ATOM     14  C   UNL     1     169.416 172.475 153.799  1.00  0.00    -0.000 C 
BRANCH  14  15
ATOM     15  C   UNL     1     169.135 171.191 154.596  1.00  0.00    -0.000 C 
BRANCH  15  16
ATOM     16  C   UNL     1     170.415 170.533 155.132  1.00  0.00    -0.003 C 
ATOM     17  C   UNL     1     170.394 169.024 154.902  1.00  0.00     0.004 C 
ENDBRANCH  15  16
ENDBRANCH  14  15
ENDBRANCH  13  14
ENDBRANCH  12  13
ENDBRANCH  11  12
ENDBRANCH  10  11
ENDBRANCH   1  10
TORSDOF 13
ENDMDL
MODEL 8
REMARK VINA RESULT:    -3.321     14.884     17.292
REMARK INTER + INTRA:          -7.735
REMARK INTER:                  -5.259
REMARK INTRA:                  -2.477
REMARK UNBOUND:                -1.891
REMARK SMILES CCCCCCCCCCCCCCC(=O)[O-]
REMARK SMILES IDX 9 1 10 2 11 3 12 4 13 5 14 6 15 7 16 8 17 9 8 10 7 11 6 12
REMARK SMILES IDX 5 13 4 14 3 15 2 16 1 17
REMARK H PARENT
REMARK Flexibility Score: inf
ROOT
ATOM      1  C   UNL     1     170.518 169.552 151.344  1.00  0.00     0.000 C 
ENDROOT
BRANCH   1   2
ATOM      2  C   UNL     1     169.364 170.512 151.013  1.00  0.00     0.000 C 
BRANCH   2   3
ATOM      3  C   UNL     1     168.021 170.052 151.605  1.00  0.00     0.000 C 
BRANCH   3   4
ATOM      4  C   UNL     1     167.220 171.222 152.218  1.00  0.00     0.000 C 
BRANCH   4   5
ATOM      5  C   UNL     1     166.398 170.822 153.458  1.00  0.00     0.006 C 
BRANCH   5   6
ATOM      6  C   UNL     1     166.359 169.309 153.721  1.00  0.00     0.053 C 
BRANCH   6   7
ATOM      7  C   UNL     1     164.981 168.747 153.539  1.00  0.00     0.041 C 
ATOM      8  O   UNL     1     164.129 168.854 154.459  1.00  0.00    -0.550 OA
ATOM      9  O   UNL     1     164.644 168.088 152.365  1.00  0.00    -0.550 OA
ENDBRANCH   6   7
ENDBRANCH   5   6
ENDBRANCH   4   5
ENDBRANCH   3   4
ENDBRANCH   2   3
ENDBRANCH   1   2
BRANCH   1  10
ATOM     10  C   UNL     1     170.036 168.277 152.059  1.00  0.00     0.000 C 
BRANCH  10  11
ATOM     11  C   UNL     1     170.773 168.029 153.386  1.00  0.00    -0.000 C 
BRANCH  11  12
ATOM     12  C   UNL     1     171.230 169.335 154.060  1.00  0.00    -0.000 C 
BRANCH  12  13
ATOM     13  C   UNL     1     170.145 169.947 154.961  1.00  0.00    -0.000 C 
BRANCH  13  14
ATOM     14  C   UNL     1     169.924 171.445 154.690  1.00  0.00    -0.000 C 
BRANCH  14  15
ATOM     15  C   UNL     1     171.124 172.099 153.986  1.00  0.00    -0.000 C 
BRANCH  15  16
ATOM     16  C   UNL     1     170.718 173.287 153.101  1.00  0.00    -0.003 C 
ATOM     17  C   UNL     1     169.357 173.839 153.514  1.00  0.00     0.004 C 
ENDBRANCH  15  16
ENDBRANCH  14  15
ENDBRANCH  13  14
ENDBRANCH  12  13
ENDBRANCH  11  12
ENDBRANCH  10  11
ENDBRANCH   1  10
TORSDOF 13
ENDMDL
MODEL 9
REMARK VINA RESULT:    -3.294     14.429     16.879
REMARK INTER + INTRA:          -7.688
REMARK INTER:                  -5.391
REMARK INTRA:                  -2.297
REMARK UNBOUND:                -1.891
REMARK SMILES CCCCCCCCCCCCCCC(=O)[O-]
REMARK SMILES IDX 9 1 10 2 11 3 12 4 13 5 14 6 15 7 16 8 17 9 8 10 7 11 6 12
REMARK SMILES IDX 5 13 4 14 3 15 2 16 1 17
REMARK H PARENT
REMARK Flexibility Score: inf
ROOT
ATOM      1  C   UNL     1     168.593 169.620 154.499  1.00  0.00     0.000 C 
ENDROOT
BRANCH   1   2
ATOM      2  C   UNL     1     167.194 170.124 154.108  1.00  0.00     0.000 C 
BRANCH   2   3
ATOM      3  C   UNL     1     167.242 171.282 153.096  1.00  0.00     0.000 C 
BRANCH   3   4
ATOM      4  C   UNL     1     166.830 170.836 151.676  1.00  0.00     0.000 C 
BRANCH   4   5
ATOM      5  C   UNL     1     165.865 169.635 151.665  1.00  0.00     0.006 C 
BRANCH   5   6
ATOM      6  C   UNL     1     164.441 169.980 151.205  1.00  0.00     0.053 C 
BRANCH   6   7
ATOM      7  C   UNL     1     163.552 170.329 152.360  1.00  0.00     0.041 C 
ATOM      8  O   UNL     1     162.818 171.351 152.307  1.00  0.00    -0.550 OA
ATOM      9  O   UNL     1     163.548 169.540 153.503  1.00  0.00    -0.550 OA
ENDBRANCH   6   7
ENDBRANCH   5   6
ENDBRANCH   4   5
ENDBRANCH   3   4
ENDBRANCH   2   3
ENDBRANCH   1   2
BRANCH   1  10
ATOM     10  C   UNL     1     168.936 168.270 153.845  1.00  0.00     0.000 C 
BRANCH  10  11
ATOM     11  C   UNL     1     169.629 168.432 152.482  1.00  0.00    -0.000 C 
BRANCH  11  12
ATOM     12  C   UNL     1     170.719 169.517 152.500  1.00  0.00    -0.000 C 
BRANCH  12  13
ATOM     13  C   UNL     1     170.520 170.575 151.402  1.00  0.00    -0.000 C 
BRANCH  13  14
ATOM     14  C   UNL     1     170.785 172.006 151.902  1.00  0.00    -0.000 C 
BRANCH  14  15
ATOM     15  C   UNL     1     171.415 172.033 153.304  1.00  0.00    -0.000 C 
BRANCH  15  16
ATOM     16  C   UNL     1     170.573 172.820 154.318  1.00  0.00    -0.003 C 
ATOM     17  C   UNL     1     169.753 173.905 153.627  1.00  0.00     0.004 C 
ENDBRANCH  15  16
ENDBRANCH  14  15
ENDBRANCH  13  14
ENDBRANCH  12  13
ENDBRANCH  11  12
ENDBRANCH  10  11
ENDBRANCH   1  10
TORSDOF 13
ENDMDL
