MODEL 1
REMARK VINA RESULT:    -5.317      0.000      0.000
REMARK INTER + INTRA:          -5.783
REMARK INTER:                  -5.783
REMARK INTRA:                   0.000
REMARK UNBOUND:                 0.000
REMARK SMILES Cc1cc(O)c2c(c1)C(=O)c1cc(O)cc(O)c1C2=O
REMARK SMILES IDX 1 1 2 2 8 3 7 4 6 5 4 6 3 7 19 8 20 9 18 10 11 11 9 12 10 13
REMARK SMILES IDX 12 14 13 15 15 16 16 17 5 18 17 20 14 22
REMARK H PARENT 5 19 17 21 14 23
REMARK Flexibility Score: inf
ROOT
ATOM      1  C   UNL     1     112.878 123.830  96.527  1.00  0.00     0.044 C 
ATOM      2  C   UNL     1     114.123 123.780  95.690  1.00  0.00    -0.047 A 
ATOM      3  C   UNL     1     114.032 123.677  94.298  1.00  0.00     0.016 A 
ATOM      4  C   UNL     1     115.191 123.585  93.510  1.00  0.00     0.038 A 
ATOM      5  C   UNL     1     116.462 123.570  94.126  1.00  0.00     0.076 A 
ATOM      6  C   UNL     1     116.550 123.721  95.534  1.00  0.00     0.127 A 
ATOM      7  C   UNL     1     115.382 123.790  96.299  1.00  0.00     0.050 A 
ATOM      8  C   UNL     1     117.653 123.323  93.272  1.00  0.00     0.201 C 
ATOM      9  O   UNL     1     118.663 122.747  93.756  1.00  0.00    -0.288 OA
ATOM     10  C   UNL     1     117.580 123.584  91.812  1.00  0.00     0.076 A 
ATOM     11  C   UNL     1     116.307 123.598  91.198  1.00  0.00     0.041 A 
ATOM     12  C   UNL     1     115.086 123.508  92.033  1.00  0.00     0.194 C 
ATOM     13  O   UNL     1     113.954 123.391  91.485  1.00  0.00    -0.289 OA
ATOM     14  C   UNL     1     116.205 123.703  89.801  1.00  0.00     0.059 A 
ATOM     15  C   UNL     1     117.354 123.809  89.013  1.00  0.00     0.120 A 
ATOM     16  C   UNL     1     118.610 123.836  89.617  1.00  0.00     0.093 A 
ATOM     17  C   UNL     1     118.737 123.754  91.007  1.00  0.00     0.131 A 
ENDROOT
BRANCH   6  18
ATOM     18  O   UNL     1     117.769 123.839  96.207  1.00  0.00    -0.507 OA
ATOM     19  H   UNL     1     117.844 123.974  97.206  1.00  0.00     0.293 HD
ENDBRANCH   6  18
BRANCH  17  20
ATOM     20  O   UNL     1     120.021 123.879  91.545  1.00  0.00    -0.507 OA
ATOM     21  H   UNL     1     120.861 123.608  91.052  1.00  0.00     0.293 HD
ENDBRANCH  17  20
BRANCH  15  22
ATOM     22  O   UNL     1     117.257 123.901  87.626  1.00  0.00    -0.508 OA
ATOM     23  H   UNL     1     117.266 123.077  87.037  1.00  0.00     0.293 HD
ENDBRANCH  15  22
TORSDOF 3
ENDMDL
MODEL 2
REMARK VINA RESULT:    -5.080     17.814     20.325
REMARK INTER + INTRA:          -5.525
REMARK INTER:                  -5.525
REMARK INTRA:                   0.000
REMARK UNBOUND:                 0.000
REMARK SMILES Cc1cc(O)c2c(c1)C(=O)c1cc(O)cc(O)c1C2=O
REMARK SMILES IDX 1 1 2 2 8 3 7 4 6 5 4 6 3 7 19 8 20 9 18 10 11 11 9 12 10 13
REMARK SMILES IDX 12 14 13 15 15 16 16 17 5 18 17 20 14 22
REMARK H PARENT 5 19 17 21 14 23
REMARK Flexibility Score: inf
ROOT
ATOM      1  C   UNL     1     110.932 103.967 102.337  1.00  0.00     0.044 C 
ATOM      2  C   UNL     1     110.215 105.174 102.869  1.00  0.00    -0.047 A 
ATOM      3  C   UNL     1     110.515 106.446 102.372  1.00  0.00     0.016 A 
ATOM      4  C   UNL     1     109.882 107.586 102.894  1.00  0.00     0.038 A 
ATOM      5  C   UNL     1     108.952 107.454 103.949  1.00  0.00     0.076 A 
ATOM      6  C   UNL     1     108.618 106.158 104.418  1.00  0.00     0.127 A 
ATOM      7  C   UNL     1     109.276 105.040 103.897  1.00  0.00     0.050 A 
ATOM      8  C   UNL     1     108.416 108.693 104.572  1.00  0.00     0.201 C 
ATOM      9  O   UNL     1     108.085 108.691 105.787  1.00  0.00    -0.288 OA
ATOM     10  C   UNL     1     108.450 109.972 103.817  1.00  0.00     0.076 A 
ATOM     11  C   UNL     1     109.381 110.100 102.762  1.00  0.00     0.041 A 
ATOM     12  C   UNL     1     110.182 108.927 102.339  1.00  0.00     0.194 C 
ATOM     13  O   UNL     1     111.104 109.067 101.487  1.00  0.00    -0.289 OA
ATOM     14  C   UNL     1     109.539 111.338 102.116  1.00  0.00     0.059 A 
ATOM     15  C   UNL     1     108.771 112.440 102.498  1.00  0.00     0.120 A 
ATOM     16  C   UNL     1     107.822 112.307 103.511  1.00  0.00     0.093 A 
ATOM     17  C   UNL     1     107.631 111.081 104.156  1.00  0.00     0.131 A 
ENDROOT
BRANCH   6  18
ATOM     18  O   UNL     1     107.621 105.932 105.371  1.00  0.00    -0.507 OA
ATOM     19  H   UNL     1     107.813 105.696 106.335  1.00  0.00     0.293 HD
ENDBRANCH   6  18
BRANCH  17  20
ATOM     20  O   UNL     1     106.601 111.001 105.097  1.00  0.00    -0.507 OA
ATOM     21  H   UNL     1     106.482 110.222 105.729  1.00  0.00     0.293 HD
ENDBRANCH  17  20
BRANCH  15  22
ATOM     22  O   UNL     1     108.933 113.672 101.868  1.00  0.00    -0.508 OA
ATOM     23  H   UNL     1     109.658 114.321 102.150  1.00  0.00     0.293 HD
ENDBRANCH  15  22
TORSDOF 3
ENDMDL
MODEL 3
REMARK VINA RESULT:    -5.069     17.836     18.769
REMARK INTER + INTRA:          -5.513
REMARK INTER:                  -5.513
REMARK INTRA:                   0.000
REMARK UNBOUND:                 0.000
REMARK SMILES Cc1cc(O)c2c(c1)C(=O)c1cc(O)cc(O)c1C2=O
REMARK SMILES IDX 1 1 2 2 8 3 7 4 6 5 4 6 3 7 19 8 20 9 18 10 11 11 9 12 10 13
REMARK SMILES IDX 12 14 13 15 15 16 16 17 5 18 17 20 14 22
REMARK H PARENT 5 19 17 21 14 23
REMARK Flexibility Score: inf
ROOT
ATOM      1  C   UNL     1     110.387 103.875 101.002  1.00  0.00     0.044 C 
ATOM      2  C   UNL     1     110.321 104.860  99.871  1.00  0.00    -0.047 A 
ATOM      3  C   UNL     1     110.764 104.495  98.595  1.00  0.00     0.016 A 
ATOM      4  C   UNL     1     110.747 105.422  97.540  1.00  0.00     0.038 A 
ATOM      5  C   UNL     1     110.306 106.744  97.772  1.00  0.00     0.076 A 
ATOM      6  C   UNL     1     109.816 107.095  99.056  1.00  0.00     0.127 A 
ATOM      7  C   UNL     1     109.861 106.161 100.095  1.00  0.00     0.050 A 
ATOM      8  C   UNL     1     110.443 107.733  96.671  1.00  0.00     0.201 C 
ATOM      9  O   UNL     1     110.625 108.951  96.940  1.00  0.00    -0.288 OA
ATOM     10  C   UNL     1     110.554 107.262  95.266  1.00  0.00     0.076 A 
ATOM     11  C   UNL     1     110.997 105.939  95.038  1.00  0.00     0.041 A 
ATOM     12  C   UNL     1     111.188 105.019  96.184  1.00  0.00     0.194 C 
ATOM     13  O   UNL     1     111.703 103.881  95.999  1.00  0.00    -0.289 OA
ATOM     14  C   UNL     1     111.247 105.502  93.727  1.00  0.00     0.059 A 
ATOM     15  C   UNL     1     111.047 106.361  92.643  1.00  0.00     0.120 A 
ATOM     16  C   UNL     1     110.572 107.653  92.860  1.00  0.00     0.093 A 
ATOM     17  C   UNL     1     110.296 108.106  94.154  1.00  0.00     0.131 A 
ENDROOT
BRANCH   6  18
ATOM     18  O   UNL     1     109.249 108.341  99.335  1.00  0.00    -0.507 OA
ATOM     19  H   UNL     1     109.654 109.218  99.038  1.00  0.00     0.293 HD
ENDBRANCH   6  18
BRANCH  17  20
ATOM     20  O   UNL     1     109.738 109.381  94.286  1.00  0.00    -0.507 OA
ATOM     21  H   UNL     1     108.745 109.563  94.235  1.00  0.00     0.293 HD
ENDBRANCH  17  20
BRANCH  15  22
ATOM     22  O   UNL     1     111.305 105.935  91.342  1.00  0.00    -0.508 OA
ATOM     23  H   UNL     1     112.248 105.903  90.971  1.00  0.00     0.293 HD
ENDBRANCH  15  22
TORSDOF 3
ENDMDL
MODEL 4
REMARK VINA RESULT:    -5.066     18.589     19.386
REMARK INTER + INTRA:          -5.511
REMARK INTER:                  -5.511
REMARK INTRA:                   0.000
REMARK UNBOUND:                 0.000
REMARK SMILES Cc1cc(O)c2c(c1)C(=O)c1cc(O)cc(O)c1C2=O
REMARK SMILES IDX 1 1 2 2 8 3 7 4 6 5 4 6 3 7 19 8 20 9 18 10 11 11 9 12 10 13
REMARK SMILES IDX 12 14 13 15 15 16 16 17 5 18 17 20 14 22
REMARK H PARENT 5 19 17 21 14 23
REMARK Flexibility Score: inf
ROOT
ATOM      1  C   UNL     1     117.096 105.930  96.412  1.00  0.00     0.044 C 
ATOM      2  C   UNL     1     116.118 105.828  95.278  1.00  0.00    -0.047 A 
ATOM      3  C   UNL     1     114.840 105.301  95.496  1.00  0.00     0.016 A 
ATOM      4  C   UNL     1     113.934 105.161  94.432  1.00  0.00     0.038 A 
ATOM      5  C   UNL     1     114.321 105.528  93.124  1.00  0.00     0.076 A 
ATOM      6  C   UNL     1     115.600 106.103  92.917  1.00  0.00     0.127 A 
ATOM      7  C   UNL     1     116.493 106.215  93.988  1.00  0.00     0.050 A 
ATOM      8  C   UNL     1     113.389 105.227  92.006  1.00  0.00     0.201 C 
ATOM      9  O   UNL     1     113.845 104.985  90.857  1.00  0.00    -0.288 OA
ATOM     10  C   UNL     1     111.943 105.026  92.284  1.00  0.00     0.076 A 
ATOM     11  C   UNL     1     111.560 104.658  93.594  1.00  0.00     0.041 A 
ATOM     12  C   UNL     1     112.571 104.632  94.678  1.00  0.00     0.194 C 
ATOM     13  O   UNL     1     112.263 104.182  95.817  1.00  0.00    -0.289 OA
ATOM     14  C   UNL     1     110.222 104.325  93.863  1.00  0.00     0.059 A 
ATOM     15  C   UNL     1     109.263 104.369  92.849  1.00  0.00     0.120 A 
ATOM     16  C   UNL     1     109.628 104.770  91.565  1.00  0.00     0.093 A 
ATOM     17  C   UNL     1     110.950 105.127  91.275  1.00  0.00     0.131 A 
ENDROOT
BRANCH   6  18
ATOM     18  O   UNL     1     116.013 106.605  91.680  1.00  0.00    -0.507 OA
ATOM     19  H   UNL     1     115.374 106.899  90.955  1.00  0.00     0.293 HD
ENDBRANCH   6  18
BRANCH  17  20
ATOM     20  O   UNL     1     111.222 105.604  89.991  1.00  0.00    -0.507 OA
ATOM     21  H   UNL     1     112.141 105.892  89.686  1.00  0.00     0.293 HD
ENDBRANCH  17  20
BRANCH  15  22
ATOM     22  O   UNL     1     107.937 104.028  93.109  1.00  0.00    -0.508 OA
ATOM     23  H   UNL     1     107.179 104.681  92.947  1.00  0.00     0.293 HD
ENDBRANCH  15  22
TORSDOF 3
ENDMDL
MODEL 5
REMARK VINA RESULT:    -5.065      3.645      6.229
REMARK INTER + INTRA:          -5.509
REMARK INTER:                  -5.509
REMARK INTRA:                   0.000
REMARK UNBOUND:                 0.000
REMARK SMILES Cc1cc(O)c2c(c1)C(=O)c1cc(O)cc(O)c1C2=O
REMARK SMILES IDX 1 1 2 2 8 3 7 4 6 5 4 6 3 7 19 8 20 9 18 10 11 11 9 12 10 13
REMARK SMILES IDX 12 14 13 15 15 16 16 17 5 18 17 20 14 22
REMARK H PARENT 5 19 17 21 14 23
REMARK Flexibility Score: inf
ROOT
ATOM      1  C   UNL     1     116.781 116.378  89.202  1.00  0.00     0.044 C 
ATOM      2  C   UNL     1     117.305 117.740  89.550  1.00  0.00    -0.047 A 
ATOM      3  C   UNL     1     116.999 118.316  90.788  1.00  0.00     0.016 A 
ATOM      4  C   UNL     1     117.447 119.608  91.106  1.00  0.00     0.038 A 
ATOM      5  C   UNL     1     118.193 120.348  90.161  1.00  0.00     0.076 A 
ATOM      6  C   UNL     1     118.539 119.741  88.926  1.00  0.00     0.127 A 
ATOM      7  C   UNL     1     118.064 118.462  88.623  1.00  0.00     0.050 A 
ATOM      8  C   UNL     1     118.522 121.762  90.477  1.00  0.00     0.201 C 
ATOM      9  O   UNL     1     118.642 122.602  89.545  1.00  0.00    -0.288 OA
ATOM     10  C   UNL     1     118.521 122.222  91.890  1.00  0.00     0.076 A 
ATOM     11  C   UNL     1     117.774 121.480  92.833  1.00  0.00     0.041 A 
ATOM     12  C   UNL     1     117.146 120.199  92.432  1.00  0.00     0.194 C 
ATOM     13  O   UNL     1     116.373 119.598  93.230  1.00  0.00    -0.289 OA
ATOM     14  C   UNL     1     117.635 121.958  94.147  1.00  0.00     0.059 A 
ATOM     15  C   UNL     1     118.244 123.154  94.533  1.00  0.00     0.120 A 
ATOM     16  C   UNL     1     119.015 123.868  93.618  1.00  0.00     0.093 A 
ATOM     17  C   UNL     1     119.185 123.404  92.310  1.00  0.00     0.131 A 
ENDROOT
BRANCH   6  18
ATOM     18  O   UNL     1     119.375 120.356  87.989  1.00  0.00    -0.507 OA
ATOM     19  H   UNL     1     119.430 120.073  87.021  1.00  0.00     0.293 HD
ENDBRANCH   6  18
BRANCH  17  20
ATOM     20  O   UNL     1     120.045 124.125  91.476  1.00  0.00    -0.507 OA
ATOM     21  H   UNL     1     120.904 124.551  91.796  1.00  0.00     0.293 HD
ENDBRANCH  17  20
BRANCH  15  22
ATOM     22  O   UNL     1     118.099 123.638  95.832  1.00  0.00    -0.508 OA
ATOM     23  H   UNL     1     117.581 124.486  96.028  1.00  0.00     0.293 HD
ENDBRANCH  15  22
TORSDOF 3
ENDMDL
MODEL 6
REMARK VINA RESULT:    -4.863     17.452     18.202
REMARK INTER + INTRA:          -5.290
REMARK INTER:                  -5.290
REMARK INTRA:                   0.000
REMARK UNBOUND:                 0.000
REMARK SMILES Cc1cc(O)c2c(c1)C(=O)c1cc(O)cc(O)c1C2=O
REMARK SMILES IDX 1 1 2 2 8 3 7 4 6 5 4 6 3 7 19 8 20 9 18 10 11 11 9 12 10 13
REMARK SMILES IDX 12 14 13 15 15 16 16 17 5 18 17 20 14 22
REMARK H PARENT 5 19 17 21 14 23
REMARK Flexibility Score: inf
ROOT
ATOM      1  C   UNL     1     109.876 106.064  99.160  1.00  0.00     0.044 C 
ATOM      2  C   UNL     1     110.073 106.552  97.754  1.00  0.00    -0.047 A 
ATOM      3  C   UNL     1     110.327 105.641  96.723  1.00  0.00     0.016 A 
ATOM      4  C   UNL     1     110.556 106.090  95.412  1.00  0.00     0.038 A 
ATOM      5  C   UNL     1     110.558 107.475  95.133  1.00  0.00     0.076 A 
ATOM      6  C   UNL     1     110.255 108.391  96.172  1.00  0.00     0.127 A 
ATOM      7  C   UNL     1     110.050 107.921  97.473  1.00  0.00     0.050 A 
ATOM      8  C   UNL     1     110.950 107.915  93.768  1.00  0.00     0.201 C 
ATOM      9  O   UNL     1     111.512 109.031  93.606  1.00  0.00    -0.288 OA
ATOM     10  C   UNL     1     110.851 106.966  92.630  1.00  0.00     0.076 A 
ATOM     11  C   UNL     1     110.850 105.581  92.913  1.00  0.00     0.041 A 
ATOM     12  C   UNL     1     110.793 105.117  94.319  1.00  0.00     0.194 C 
ATOM     13  O   UNL     1     110.921 103.889  94.583  1.00  0.00    -0.289 OA
ATOM     14  C   UNL     1     110.897 104.653  91.860  1.00  0.00     0.059 A 
ATOM     15  C   UNL     1     110.929 105.087  90.532  1.00  0.00     0.120 A 
ATOM     16  C   UNL     1     110.889 106.451  90.248  1.00  0.00     0.093 A 
ATOM     17  C   UNL     1     110.822 107.395  91.277  1.00  0.00     0.131 A 
ENDROOT
BRANCH   6  18
ATOM     18  O   UNL     1     110.116 109.764  95.955  1.00  0.00    -0.507 OA
ATOM     19  H   UNL     1     110.848 110.346  95.572  1.00  0.00     0.293 HD
ENDBRANCH   6  18
BRANCH  17  20
ATOM     20  O   UNL     1     110.694 108.738  90.912  1.00  0.00    -0.507 OA
ATOM     21  H   UNL     1     111.366 109.451  91.161  1.00  0.00     0.293 HD
ENDBRANCH  17  20
BRANCH  15  22
ATOM     22  O   UNL     1     110.988 104.169  89.486  1.00  0.00    -0.508 OA
ATOM     23  H   UNL     1     110.216 103.544  89.284  1.00  0.00     0.293 HD
ENDBRANCH  15  22
TORSDOF 3
ENDMDL
MODEL 7
REMARK VINA RESULT:    -4.846     17.230     18.005
REMARK INTER + INTRA:          -5.271
REMARK INTER:                  -5.271
REMARK INTRA:                   0.000
REMARK UNBOUND:                 0.000
REMARK SMILES Cc1cc(O)c2c(c1)C(=O)c1cc(O)cc(O)c1C2=O
REMARK SMILES IDX 1 1 2 2 8 3 7 4 6 5 4 6 3 7 19 8 20 9 18 10 11 11 9 12 10 13
REMARK SMILES IDX 12 14 13 15 15 16 16 17 5 18 17 20 14 22
REMARK H PARENT 5 19 17 21 14 23
REMARK Flexibility Score: inf
ROOT
ATOM      1  C   UNL     1     116.658 105.375  95.554  1.00  0.00     0.044 C 
ATOM      2  C   UNL     1     115.233 105.522  95.106  1.00  0.00    -0.047 A 
ATOM      3  C   UNL     1     114.879 106.534  94.207  1.00  0.00     0.016 A 
ATOM      4  C   UNL     1     113.542 106.708  93.816  1.00  0.00     0.038 A 
ATOM      5  C   UNL     1     112.537 105.872  94.353  1.00  0.00     0.076 A 
ATOM      6  C   UNL     1     112.908 104.819  95.228  1.00  0.00     0.127 A 
ATOM      7  C   UNL     1     114.243 104.679  95.619  1.00  0.00     0.050 A 
ATOM      8  C   UNL     1     111.120 106.181  94.029  1.00  0.00     0.201 C 
ATOM      9  O   UNL     1     110.211 105.901  94.856  1.00  0.00    -0.288 OA
ATOM     10  C   UNL     1     110.797 106.988  92.823  1.00  0.00     0.076 A 
ATOM     11  C   UNL     1     111.805 107.823  92.289  1.00  0.00     0.041 A 
ATOM     12  C   UNL     1     113.180 107.762  92.838  1.00  0.00     0.194 C 
ATOM     13  O   UNL     1     114.050 108.593  92.454  1.00  0.00    -0.289 OA
ATOM     14  C   UNL     1     111.499 108.702  91.237  1.00  0.00     0.059 A 
ATOM     15  C   UNL     1     110.209 108.746  90.703  1.00  0.00     0.120 A 
ATOM     16  C   UNL     1     109.223 107.895  91.199  1.00  0.00     0.093 A 
ATOM     17  C   UNL     1     109.506 106.997  92.233  1.00  0.00     0.131 A 
ENDROOT
BRANCH   6  18
ATOM     18  O   UNL     1     111.994 103.875  95.705  1.00  0.00    -0.507 OA
ATOM     19  H   UNL     1     112.230 102.907  95.874  1.00  0.00     0.293 HD
ENDBRANCH   6  18
BRANCH  17  20
ATOM     20  O   UNL     1     108.493 106.114  92.616  1.00  0.00    -0.507 OA
ATOM     21  H   UNL     1     108.165 105.355  92.035  1.00  0.00     0.293 HD
ENDBRANCH  17  20
BRANCH  15  22
ATOM     22  O   UNL     1     109.899 109.625  89.667  1.00  0.00    -0.508 OA
ATOM     23  H   UNL     1     109.721 110.608  89.840  1.00  0.00     0.293 HD
ENDBRANCH  15  22
TORSDOF 3
ENDMDL
MODEL 8
REMARK VINA RESULT:    -4.841     17.430     18.402
REMARK INTER + INTRA:          -5.265
REMARK INTER:                  -5.265
REMARK INTRA:                   0.000
REMARK UNBOUND:                 0.000
REMARK SMILES Cc1cc(O)c2c(c1)C(=O)c1cc(O)cc(O)c1C2=O
REMARK SMILES IDX 1 1 2 2 8 3 7 4 6 5 4 6 3 7 19 8 20 9 18 10 11 11 9 12 10 13
REMARK SMILES IDX 12 14 13 15 15 16 16 17 5 18 17 20 14 22
REMARK H PARENT 5 19 17 21 14 23
REMARK Flexibility Score: inf
ROOT
ATOM      1  C   UNL     1     109.813 109.895  89.746  1.00  0.00     0.044 C 
ATOM      2  C   UNL     1     110.147 108.812  90.731  1.00  0.00    -0.047 A 
ATOM      3  C   UNL     1     111.471 108.615  91.138  1.00  0.00     0.016 A 
ATOM      4  C   UNL     1     111.800 107.577  92.025  1.00  0.00     0.038 A 
ATOM      5  C   UNL     1     110.791 106.704  92.492  1.00  0.00     0.076 A 
ATOM      6  C   UNL     1     109.445 106.936  92.112  1.00  0.00     0.127 A 
ATOM      7  C   UNL     1     109.145 107.964  91.212  1.00  0.00     0.050 A 
ATOM      8  C   UNL     1     111.201 105.532  93.309  1.00  0.00     0.201 C 
ATOM      9  O   UNL     1     110.522 104.471  93.268  1.00  0.00    -0.288 OA
ATOM     10  C   UNL     1     112.506 105.547  94.019  1.00  0.00     0.076 A 
ATOM     11  C   UNL     1     113.512 106.422  93.549  1.00  0.00     0.041 A 
ATOM     12  C   UNL     1     113.200 107.395  92.476  1.00  0.00     0.194 C 
ATOM     13  O   UNL     1     114.123 108.088  91.965  1.00  0.00    -0.289 OA
ATOM     14  C   UNL     1     114.801 106.367  94.105  1.00  0.00     0.059 A 
ATOM     15  C   UNL     1     115.093 105.465  95.131  1.00  0.00     0.120 A 
ATOM     16  C   UNL     1     114.092 104.629  95.625  1.00  0.00     0.093 A 
ATOM     17  C   UNL     1     112.796 104.678  95.103  1.00  0.00     0.131 A 
ENDROOT
BRANCH   6  18
ATOM     18  O   UNL     1     108.375 106.197  92.625  1.00  0.00    -0.507 OA
ATOM     19  H   UNL     1     107.654 106.593  93.212  1.00  0.00     0.293 HD
ENDBRANCH   6  18
BRANCH  17  20
ATOM     20  O   UNL     1     111.826 103.875  95.710  1.00  0.00    -0.507 OA
ATOM     21  H   UNL     1     111.846 103.619  96.687  1.00  0.00     0.293 HD
ENDBRANCH  17  20
BRANCH  15  22
ATOM     22  O   UNL     1     116.373 105.399  95.677  1.00  0.00    -0.508 OA
ATOM     23  H   UNL     1     116.953 104.576  95.571  1.00  0.00     0.293 HD
ENDBRANCH  15  22
TORSDOF 3
ENDMDL
MODEL 9
REMARK VINA RESULT:    -4.696     17.063     18.446
REMARK INTER + INTRA:          -5.107
REMARK INTER:                  -5.107
REMARK INTRA:                   0.000
REMARK UNBOUND:                 0.000
REMARK SMILES Cc1cc(O)c2c(c1)C(=O)c1cc(O)cc(O)c1C2=O
REMARK SMILES IDX 1 1 2 2 8 3 7 4 6 5 4 6 3 7 19 8 20 9 18 10 11 11 9 12 10 13
REMARK SMILES IDX 12 14 13 15 15 16 16 17 5 18 17 20 14 22
REMARK H PARENT 5 19 17 21 14 23
REMARK Flexibility Score: inf
ROOT
ATOM      1  C   UNL     1     111.337 105.903  89.471  1.00  0.00     0.044 C 
ATOM      2  C   UNL     1     111.013 105.974  90.935  1.00  0.00    -0.047 A 
ATOM      3  C   UNL     1     111.475 107.046  91.707  1.00  0.00     0.016 A 
ATOM      4  C   UNL     1     111.214 107.100  93.086  1.00  0.00     0.038 A 
ATOM      5  C   UNL     1     110.502 106.051  93.709  1.00  0.00     0.076 A 
ATOM      6  C   UNL     1     109.997 104.990  92.914  1.00  0.00     0.127 A 
ATOM      7  C   UNL     1     110.286 104.948  91.547  1.00  0.00     0.050 A 
ATOM      8  C   UNL     1     110.374 106.072  95.189  1.00  0.00     0.201 C 
ATOM      9  O   UNL     1     110.294 104.988  95.828  1.00  0.00    -0.288 OA
ATOM     10  C   UNL     1     110.532 107.352  95.926  1.00  0.00     0.076 A 
ATOM     11  C   UNL     1     111.246 108.399  95.299  1.00  0.00     0.041 A 
ATOM     12  C   UNL     1     111.680 108.255  93.889  1.00  0.00     0.194 C 
ATOM     13  O   UNL     1     112.426 109.129  93.366  1.00  0.00    -0.289 OA
ATOM     14  C   UNL     1     111.535 109.573  96.014  1.00  0.00     0.059 A 
ATOM     15  C   UNL     1     111.109 109.721  97.337  1.00  0.00     0.120 A 
ATOM     16  C   UNL     1     110.370 108.708  97.945  1.00  0.00     0.093 A 
ATOM     17  C   UNL     1     110.052 107.538  97.249  1.00  0.00     0.131 A 
ENDROOT
BRANCH   6  18
ATOM     18  O   UNL     1     109.180 103.981  93.430  1.00  0.00    -0.507 OA
ATOM     19  H   UNL     1     108.262 103.764  93.067  1.00  0.00     0.293 HD
ENDBRANCH   6  18
BRANCH  17  20
ATOM     20  O   UNL     1     109.232 106.607  97.893  1.00  0.00    -0.507 OA
ATOM     21  H   UNL     1     109.406 106.263  98.828  1.00  0.00     0.293 HD
ENDBRANCH  17  20
BRANCH  15  22
ATOM     22  O   UNL     1     111.405 110.880  98.053  1.00  0.00    -0.508 OA
ATOM     23  H   UNL     1     110.769 111.669  98.071  1.00  0.00     0.293 HD
ENDBRANCH  15  22
TORSDOF 3
ENDMDL
