MODEL 1
REMARK VINA RESULT:    -6.913      0.000      0.000
REMARK INTER + INTRA:          -6.913
REMARK INTER:                  -6.913
REMARK INTRA:                   0.000
REMARK UNBOUND:                 0.000
REMARK SMILES C=C1CCC[C@]2(C)CC(=O)C(=C(C)C)C[C@@H]12
REMARK SMILES IDX 13 1 12 2 11 3 15 4 16 5 2 6 1 7 3 8 4 9 5 10 6 11 8 12 9 13
REMARK SMILES IDX 10 14 7 15 14 16
REMARK H PARENT
REMARK Flexibility Score: inf
ROOT
ATOM      1  C   UNL     1      10.875 -30.627  21.373  1.00  0.00     0.039 C 
ATOM      2  C   UNL     1      11.927 -30.091  22.317  1.00  0.00    -0.070 C 
ATOM      3  C   UNL     1      13.194 -30.603  22.333  1.00  0.00    -0.006 C 
ATOM      4  C   UNL     1      13.590 -31.752  21.415  1.00  0.00     0.047 C 
ATOM      5  C   UNL     1      14.689 -32.656  22.027  1.00  0.00     0.025 C 
ATOM      6  C   UNL     1      15.157 -33.805  21.133  1.00  0.00    -0.073 C 
ATOM      7  C   UNL     1      14.680 -34.040  19.896  1.00  0.00     0.008 C 
ATOM      8  C   UNL     1      16.185 -34.738  21.728  1.00  0.00     0.031 C 
ATOM      9  C   UNL     1      17.385 -33.944  22.251  1.00  0.00     0.005 C 
ATOM     10  C   UNL     1      16.948 -32.807  23.190  1.00  0.00     0.008 C 
ATOM     11  C   UNL     1      15.916 -31.838  22.537  1.00  0.00    -0.018 C 
ATOM     12  C   UNL     1      15.432 -30.846  23.623  1.00  0.00     0.088 C 
ATOM     13  C   UNL     1      14.288 -29.998  23.147  1.00  0.00     0.159 C 
ATOM     14  O   UNL     1      14.284 -28.772  23.438  1.00  0.00    -0.295 OA
ATOM     15  C   UNL     1      16.601 -31.046  21.388  1.00  0.00     0.012 C 
ATOM     16  C   UNL     1      11.501 -28.990  23.263  1.00  0.00     0.039 C 
ENDROOT
TORSDOF 0
ENDMDL
MODEL 2
REMARK VINA RESULT:    -6.807      2.758      5.961
REMARK INTER + INTRA:          -6.807
REMARK INTER:                  -6.807
REMARK INTRA:                   0.000
REMARK UNBOUND:                 0.000
REMARK SMILES C=C1CCC[C@]2(C)CC(=O)C(=C(C)C)C[C@@H]12
REMARK SMILES IDX 13 1 12 2 11 3 15 4 16 5 2 6 1 7 3 8 4 9 5 10 6 11 8 12 9 13
REMARK SMILES IDX 10 14 7 15 14 16
REMARK H PARENT
REMARK Flexibility Score: inf
ROOT
ATOM      1  C   UNL     1      18.363 -37.382  21.718  1.00  0.00     0.039 C 
ATOM      2  C   UNL     1      17.638 -36.594  20.651  1.00  0.00    -0.070 C 
ATOM      3  C   UNL     1      16.956 -35.450  20.954  1.00  0.00    -0.006 C 
ATOM      4  C   UNL     1      16.879 -34.935  22.385  1.00  0.00     0.047 C 
ATOM      5  C   UNL     1      15.567 -34.164  22.675  1.00  0.00     0.025 C 
ATOM      6  C   UNL     1      15.451 -33.589  24.087  1.00  0.00    -0.073 C 
ATOM      7  C   UNL     1      16.401 -33.712  25.033  1.00  0.00     0.008 C 
ATOM      8  C   UNL     1      14.156 -32.884  24.416  1.00  0.00     0.031 C 
ATOM      9  C   UNL     1      13.856 -31.806  23.372  1.00  0.00     0.005 C 
ATOM     10  C   UNL     1      13.922 -32.366  21.941  1.00  0.00     0.008 C 
ATOM     11  C   UNL     1      15.283 -33.054  21.617  1.00  0.00    -0.018 C 
ATOM     12  C   UNL     1      15.168 -33.718  20.223  1.00  0.00     0.088 C 
ATOM     13  C   UNL     1      16.357 -34.576  19.903  1.00  0.00     0.159 C 
ATOM     14  O   UNL     1      16.840 -34.529  18.740  1.00  0.00    -0.295 OA
ATOM     15  C   UNL     1      16.411 -31.985  21.584  1.00  0.00     0.012 C 
ATOM     16  C   UNL     1      17.675 -37.150  19.245  1.00  0.00     0.039 C 
ENDROOT
TORSDOF 0
ENDMDL
MODEL 3
REMARK VINA RESULT:    -6.723      2.568      5.392
REMARK INTER + INTRA:          -6.723
REMARK INTER:                  -6.723
REMARK INTRA:                   0.000
REMARK UNBOUND:                 0.000
REMARK SMILES C=C1CCC[C@]2(C)CC(=O)C(=C(C)C)C[C@@H]12
REMARK SMILES IDX 13 1 12 2 11 3 15 4 16 5 2 6 1 7 3 8 4 9 5 10 6 11 8 12 9 13
REMARK SMILES IDX 10 14 7 15 14 16
REMARK H PARENT
REMARK Flexibility Score: inf
ROOT
ATOM      1  C   UNL     1      16.621 -36.405  19.570  1.00  0.00     0.039 C 
ATOM      2  C   UNL     1      17.205 -36.075  20.924  1.00  0.00    -0.070 C 
ATOM      3  C   UNL     1      16.727 -35.033  21.668  1.00  0.00    -0.006 C 
ATOM      4  C   UNL     1      15.601 -34.148  21.151  1.00  0.00     0.047 C 
ATOM      5  C   UNL     1      15.690 -32.695  21.680  1.00  0.00     0.025 C 
ATOM      6  C   UNL     1      14.561 -31.769  21.226  1.00  0.00    -0.073 C 
ATOM      7  C   UNL     1      13.543 -32.152  20.434  1.00  0.00     0.008 C 
ATOM      8  C   UNL     1      14.655 -30.330  21.678  1.00  0.00     0.031 C 
ATOM      9  C   UNL     1      14.826 -30.261  23.198  1.00  0.00     0.005 C 
ATOM     10  C   UNL     1      15.985 -31.150  23.681  1.00  0.00     0.008 C 
ATOM     11  C   UNL     1      15.842 -32.635  23.232  1.00  0.00    -0.018 C 
ATOM     12  C   UNL     1      17.137 -33.386  23.630  1.00  0.00     0.088 C 
ATOM     13  C   UNL     1      17.184 -34.776  23.065  1.00  0.00     0.159 C 
ATOM     14  O   UNL     1      17.601 -35.711  23.799  1.00  0.00    -0.295 OA
ATOM     15  C   UNL     1      14.630 -33.284  23.957  1.00  0.00     0.012 C 
ATOM     16  C   UNL     1      18.362 -36.926  21.397  1.00  0.00     0.039 C 
ENDROOT
TORSDOF 0
ENDMDL
MODEL 4
REMARK VINA RESULT:    -6.424      1.948      3.228
REMARK INTER + INTRA:          -6.424
REMARK INTER:                  -6.424
REMARK INTRA:                   0.000
REMARK UNBOUND:                 0.000
REMARK SMILES C=C1CCC[C@]2(C)CC(=O)C(=C(C)C)C[C@@H]12
REMARK SMILES IDX 13 1 12 2 11 3 15 4 16 5 2 6 1 7 3 8 4 9 5 10 6 11 8 12 9 13
REMARK SMILES IDX 10 14 7 15 14 16
REMARK H PARENT
REMARK Flexibility Score: inf
ROOT
ATOM      1  C   UNL     1      15.006 -28.930  22.700  1.00  0.00     0.039 C 
ATOM      2  C   UNL     1      14.449 -30.277  23.101  1.00  0.00    -0.070 C 
ATOM      3  C   UNL     1      15.146 -31.429  22.873  1.00  0.00    -0.006 C 
ATOM      4  C   UNL     1      16.503 -31.405  22.182  1.00  0.00     0.047 C 
ATOM      5  C   UNL     1      16.784 -32.692  21.367  1.00  0.00     0.025 C 
ATOM      6  C   UNL     1      18.151 -32.741  20.683  1.00  0.00    -0.073 C 
ATOM      7  C   UNL     1      19.073 -31.764  20.768  1.00  0.00     0.008 C 
ATOM      8  C   UNL     1      18.427 -33.958  19.831  1.00  0.00     0.031 C 
ATOM      9  C   UNL     1      18.184 -35.237  20.637  1.00  0.00     0.005 C 
ATOM     10  C   UNL     1      16.797 -35.236  21.301  1.00  0.00     0.008 C 
ATOM     11  C   UNL     1      16.554 -33.988  22.204  1.00  0.00    -0.018 C 
ATOM     12  C   UNL     1      15.080 -34.015  22.677  1.00  0.00     0.088 C 
ATOM     13  C   UNL     1      14.689 -32.752  23.388  1.00  0.00     0.159 C 
ATOM     14  O   UNL     1      13.984 -32.840  24.429  1.00  0.00    -0.295 OA
ATOM     15  C   UNL     1      17.491 -34.051  23.442  1.00  0.00     0.012 C 
ATOM     16  C   UNL     1      13.075 -30.289  23.732  1.00  0.00     0.039 C 
ENDROOT
TORSDOF 0
ENDMDL
MODEL 5
REMARK VINA RESULT:    -6.336      2.340      5.132
REMARK INTER + INTRA:          -6.336
REMARK INTER:                  -6.336
REMARK INTRA:                   0.000
REMARK UNBOUND:                 0.000
REMARK SMILES C=C1CCC[C@]2(C)CC(=O)C(=C(C)C)C[C@@H]12
REMARK SMILES IDX 13 1 12 2 11 3 15 4 16 5 2 6 1 7 3 8 4 9 5 10 6 11 8 12 9 13
REMARK SMILES IDX 10 14 7 15 14 16
REMARK H PARENT
REMARK Flexibility Score: inf
ROOT
ATOM      1  C   UNL     1      16.247 -35.528  20.273  1.00  0.00     0.039 C 
ATOM      2  C   UNL     1      17.171 -34.341  20.122  1.00  0.00    -0.070 C 
ATOM      3  C   UNL     1      16.967 -33.190  20.830  1.00  0.00    -0.006 C 
ATOM      4  C   UNL     1      15.787 -33.049  21.781  1.00  0.00     0.047 C 
ATOM      5  C   UNL     1      15.282 -31.589  21.897  1.00  0.00     0.025 C 
ATOM      6  C   UNL     1      14.121 -31.379  22.871  1.00  0.00    -0.073 C 
ATOM      7  C   UNL     1      13.560 -32.362  23.599  1.00  0.00     0.008 C 
ATOM      8  C   UNL     1      13.569 -29.975  22.958  1.00  0.00     0.031 C 
ATOM      9  C   UNL     1      14.695 -28.978  23.243  1.00  0.00     0.005 C 
ATOM     10  C   UNL     1      15.859 -29.136  22.250  1.00  0.00     0.008 C 
ATOM     11  C   UNL     1      16.434 -30.584  22.209  1.00  0.00    -0.018 C 
ATOM     12  C   UNL     1      17.476 -30.657  21.066  1.00  0.00     0.088 C 
ATOM     13  C   UNL     1      17.942 -32.061  20.812  1.00  0.00     0.159 C 
ATOM     14  O   UNL     1      19.169 -32.260  20.600  1.00  0.00    -0.295 OA
ATOM     15  C   UNL     1      17.132 -30.906  23.560  1.00  0.00     0.012 C 
ATOM     16  C   UNL     1      18.303 -34.476  19.130  1.00  0.00     0.039 C 
ENDROOT
TORSDOF 0
ENDMDL
MODEL 6
REMARK VINA RESULT:    -6.295      1.596      3.125
REMARK INTER + INTRA:          -6.295
REMARK INTER:                  -6.295
REMARK INTRA:                   0.000
REMARK UNBOUND:                 0.000
REMARK SMILES C=C1CCC[C@]2(C)CC(=O)C(=C(C)C)C[C@@H]12
REMARK SMILES IDX 13 1 12 2 11 3 15 4 16 5 2 6 1 7 3 8 4 9 5 10 6 11 8 12 9 13
REMARK SMILES IDX 10 14 7 15 14 16
REMARK H PARENT
REMARK Flexibility Score: inf
ROOT
ATOM      1  C   UNL     1      13.092 -27.629  24.494  1.00  0.00     0.039 C 
ATOM      2  C   UNL     1      12.455 -28.609  23.535  1.00  0.00    -0.070 C 
ATOM      3  C   UNL     1      13.137 -29.702  23.081  1.00  0.00    -0.006 C 
ATOM      4  C   UNL     1      14.575 -29.966  23.505  1.00  0.00     0.047 C 
ATOM      5  C   UNL     1      15.393 -30.711  22.421  1.00  0.00     0.025 C 
ATOM      6  C   UNL     1      16.836 -31.039  22.807  1.00  0.00    -0.073 C 
ATOM      7  C   UNL     1      17.388 -30.728  23.995  1.00  0.00     0.008 C 
ATOM      8  C   UNL     1      17.674 -31.712  21.746  1.00  0.00     0.031 C 
ATOM      9  C   UNL     1      16.963 -32.962  21.220  1.00  0.00     0.005 C 
ATOM     10  C   UNL     1      15.521 -32.654  20.782  1.00  0.00     0.008 C 
ATOM     11  C   UNL     1      14.669 -31.995  21.908  1.00  0.00    -0.018 C 
ATOM     12  C   UNL     1      13.305 -31.583  21.302  1.00  0.00     0.088 C 
ATOM     13  C   UNL     1      12.486 -30.760  22.253  1.00  0.00     0.159 C 
ATOM     14  O   UNL     1      11.251 -30.993  22.344  1.00  0.00    -0.295 OA
ATOM     15  C   UNL     1      14.434 -33.021  23.051  1.00  0.00     0.012 C 
ATOM     16  C   UNL     1      11.047 -28.302  23.078  1.00  0.00     0.039 C 
ENDROOT
TORSDOF 0
ENDMDL
MODEL 7
REMARK VINA RESULT:    -6.280      1.921      3.195
REMARK INTER + INTRA:          -6.280
REMARK INTER:                  -6.280
REMARK INTRA:                   0.000
REMARK UNBOUND:                 0.000
REMARK SMILES C=C1CCC[C@]2(C)CC(=O)C(=C(C)C)C[C@@H]12
REMARK SMILES IDX 13 1 12 2 11 3 15 4 16 5 2 6 1 7 3 8 4 9 5 10 6 11 8 12 9 13
REMARK SMILES IDX 10 14 7 15 14 16
REMARK H PARENT
REMARK Flexibility Score: inf
ROOT
ATOM      1  C   UNL     1      13.469 -32.148  20.315  1.00  0.00     0.039 C 
ATOM      2  C   UNL     1      14.047 -32.174  21.712  1.00  0.00    -0.070 C 
ATOM      3  C   UNL     1      15.155 -32.916  22.007  1.00  0.00    -0.006 C 
ATOM      4  C   UNL     1      15.841 -33.765  20.944  1.00  0.00     0.047 C 
ATOM      5  C   UNL     1      16.523 -35.026  21.533  1.00  0.00     0.025 C 
ATOM      6  C   UNL     1      17.262 -35.897  20.517  1.00  0.00    -0.073 C 
ATOM      7  C   UNL     1      17.346 -35.618  19.202  1.00  0.00     0.008 C 
ATOM      8  C   UNL     1      17.886 -37.164  21.053  1.00  0.00     0.031 C 
ATOM      9  C   UNL     1      18.790 -36.848  22.247  1.00  0.00     0.005 C 
ATOM     10  C   UNL     1      18.059 -36.009  23.308  1.00  0.00     0.008 C 
ATOM     11  C   UNL     1      17.459 -34.689  22.734  1.00  0.00    -0.018 C 
ATOM     12  C   UNL     1      16.614 -34.021  23.847  1.00  0.00     0.088 C 
ATOM     13  C   UNL     1      15.830 -32.847  23.336  1.00  0.00     0.159 C 
ATOM     14  O   UNL     1      15.771 -31.806  24.045  1.00  0.00    -0.295 OA
ATOM     15  C   UNL     1      18.610 -33.731  22.320  1.00  0.00     0.012 C 
ATOM     16  C   UNL     1      13.320 -31.373  22.768  1.00  0.00     0.039 C 
ENDROOT
TORSDOF 0
ENDMDL
MODEL 8
REMARK VINA RESULT:    -6.255      2.375      5.619
REMARK INTER + INTRA:          -6.255
REMARK INTER:                  -6.255
REMARK INTRA:                   0.000
REMARK UNBOUND:                 0.000
REMARK SMILES C=C1CCC[C@]2(C)CC(=O)C(=C(C)C)C[C@@H]12
REMARK SMILES IDX 13 1 12 2 11 3 15 4 16 5 2 6 1 7 3 8 4 9 5 10 6 11 8 12 9 13
REMARK SMILES IDX 10 14 7 15 14 16
REMARK H PARENT
REMARK Flexibility Score: inf
ROOT
ATOM      1  C   UNL     1      19.983 -32.294  21.386  1.00  0.00     0.039 C 
ATOM      2  C   UNL     1      19.036 -33.368  21.871  1.00  0.00    -0.070 C 
ATOM      3  C   UNL     1      17.713 -33.104  22.086  1.00  0.00    -0.006 C 
ATOM      4  C   UNL     1      17.144 -31.708  21.868  1.00  0.00     0.047 C 
ATOM      5  C   UNL     1      15.949 -31.396  22.803  1.00  0.00     0.025 C 
ATOM      6  C   UNL     1      15.309 -30.022  22.602  1.00  0.00    -0.073 C 
ATOM      7  C   UNL     1      15.719 -29.126  21.685  1.00  0.00     0.008 C 
ATOM      8  C   UNL     1      14.180 -29.667  23.541  1.00  0.00     0.031 C 
ATOM      9  C   UNL     1      13.111 -30.763  23.525  1.00  0.00     0.005 C 
ATOM     10  C   UNL     1      13.720 -32.155  23.769  1.00  0.00     0.008 C 
ATOM     11  C   UNL     1      14.856 -32.509  22.763  1.00  0.00    -0.018 C 
ATOM     12  C   UNL     1      15.496 -33.846  23.209  1.00  0.00     0.088 C 
ATOM     13  C   UNL     1      16.731 -34.175  22.422  1.00  0.00     0.159 C 
ATOM     14  O   UNL     1      16.906 -35.365  22.044  1.00  0.00    -0.295 OA
ATOM     15  C   UNL     1      14.255 -32.678  21.339  1.00  0.00     0.012 C 
ATOM     16  C   UNL     1      19.630 -34.733  22.139  1.00  0.00     0.039 C 
ENDROOT
TORSDOF 0
ENDMDL
MODEL 9
REMARK VINA RESULT:    -6.125      2.569      5.227
REMARK INTER + INTRA:          -6.125
REMARK INTER:                  -6.125
REMARK INTRA:                   0.000
REMARK UNBOUND:                 0.000
REMARK SMILES C=C1CCC[C@]2(C)CC(=O)C(=C(C)C)C[C@@H]12
REMARK SMILES IDX 13 1 12 2 11 3 15 4 16 5 2 6 1 7 3 8 4 9 5 10 6 11 8 12 9 13
REMARK SMILES IDX 10 14 7 15 14 16
REMARK H PARENT
REMARK Flexibility Score: inf
ROOT
ATOM      1  C   UNL     1      19.097 -28.727  20.971  1.00  0.00     0.039 C 
ATOM      2  C   UNL     1      19.245 -30.215  21.189  1.00  0.00    -0.070 C 
ATOM      3  C   UNL     1      18.181 -30.986  21.564  1.00  0.00    -0.006 C 
ATOM      4  C   UNL     1      16.808 -30.372  21.800  1.00  0.00     0.047 C 
ATOM      5  C   UNL     1      15.985 -31.137  22.866  1.00  0.00     0.025 C 
ATOM      6  C   UNL     1      14.579 -30.589  23.117  1.00  0.00    -0.073 C 
ATOM      7  C   UNL     1      14.056 -29.530  22.471  1.00  0.00     0.008 C 
ATOM      8  C   UNL     1      13.776 -31.279  24.195  1.00  0.00     0.031 C 
ATOM      9  C   UNL     1      13.726 -32.787  23.937  1.00  0.00     0.005 C 
ATOM     10  C   UNL     1      15.131 -33.375  23.725  1.00  0.00     0.008 C 
ATOM     11  C   UNL     1      15.922 -32.670  22.582  1.00  0.00    -0.018 C 
ATOM     12  C   UNL     1      17.365 -33.231  22.577  1.00  0.00     0.088 C 
ATOM     13  C   UNL     1      18.265 -32.474  21.644  1.00  0.00     0.159 C 
ATOM     14  O   UNL     1      19.073 -33.123  20.926  1.00  0.00    -0.295 OA
ATOM     15  C   UNL     1      15.247 -32.977  21.216  1.00  0.00     0.012 C 
ATOM     16  C   UNL     1      20.628 -30.799  21.009  1.00  0.00     0.039 C 
ENDROOT
TORSDOF 0
ENDMDL
