MODEL 1
REMARK VINA RESULT:    -2.687      0.000      0.000
REMARK INTER + INTRA:          -2.687
REMARK INTER:                  -2.687
REMARK INTRA:                   0.000
REMARK UNBOUND:                 0.000
REMARK SMILES CC(=O)[O-]
REMARK SMILES IDX 1 1 2 2 3 3 4 4
REMARK H PARENT
REMARK Flexibility Score: inf
ROOT
ATOM      1  C   UNL     1       7.275 -26.132  -9.091  1.00  0.00     0.063 C 
ATOM      2  C   UNL     1       8.437 -26.873  -9.662  1.00  0.00     0.038 C 
ATOM      3  O   UNL     1       8.493 -28.127  -9.571  1.00  0.00    -0.550 OA
ATOM      4  O   UNL     1       9.486 -26.176 -10.246  1.00  0.00    -0.550 OA
ENDROOT
TORSDOF 0
ENDMDL
MODEL 2
REMARK VINA RESULT:    -2.671      0.113      1.618
REMARK INTER + INTRA:          -2.671
REMARK INTER:                  -2.671
REMARK INTRA:                   0.000
REMARK UNBOUND:                 0.000
REMARK SMILES CC(=O)[O-]
REMARK SMILES IDX 1 1 2 2 3 3 4 4
REMARK H PARENT
REMARK Flexibility Score: inf
ROOT
ATOM      1  C   UNL     1       7.282 -26.104  -9.111  1.00  0.00     0.063 C 
ATOM      2  C   UNL     1       8.486 -26.800  -9.650  1.00  0.00     0.038 C 
ATOM      3  O   UNL     1       9.448 -26.132 -10.111  1.00  0.00    -0.550 OA
ATOM      4  O   UNL     1       8.524 -28.187  -9.697  1.00  0.00    -0.550 OA
ENDROOT
TORSDOF 0
ENDMDL
MODEL 3
REMARK VINA RESULT:    -2.670      1.473      1.780
REMARK INTER + INTRA:          -2.670
REMARK INTER:                  -2.670
REMARK INTRA:                   0.000
REMARK UNBOUND:                 0.000
REMARK SMILES CC(=O)[O-]
REMARK SMILES IDX 1 1 2 2 3 3 4 4
REMARK H PARENT
REMARK Flexibility Score: inf
ROOT
ATOM      1  C   UNL     1       9.506 -25.984 -10.096  1.00  0.00     0.063 C 
ATOM      2  C   UNL     1       8.349 -26.702  -9.488  1.00  0.00     0.038 C 
ATOM      3  O   UNL     1       8.334 -27.960  -9.454  1.00  0.00    -0.550 OA
ATOM      4  O   UNL     1       7.260 -25.986  -9.009  1.00  0.00    -0.550 OA
ENDROOT
TORSDOF 0
ENDMDL
MODEL 4
REMARK VINA RESULT:    -2.634      1.426      2.100
REMARK INTER + INTRA:          -2.634
REMARK INTER:                  -2.634
REMARK INTRA:                   0.000
REMARK UNBOUND:                 0.000
REMARK SMILES CC(=O)[O-]
REMARK SMILES IDX 1 1 2 2 3 3 4 4
REMARK H PARENT
REMARK Flexibility Score: inf
ROOT
ATOM      1  C   UNL     1       9.524 -25.989 -10.098  1.00  0.00     0.063 C 
ATOM      2  C   UNL     1       8.357 -26.697  -9.498  1.00  0.00     0.038 C 
ATOM      3  O   UNL     1       7.392 -26.039  -9.029  1.00  0.00    -0.550 OA
ATOM      4  O   UNL     1       8.356 -28.083  -9.406  1.00  0.00    -0.550 OA
ENDROOT
TORSDOF 0
ENDMDL
MODEL 5
REMARK VINA RESULT:    -2.523      1.583      1.814
REMARK INTER + INTRA:          -2.523
REMARK INTER:                  -2.523
REMARK INTRA:                   0.000
REMARK UNBOUND:                 0.000
REMARK SMILES CC(=O)[O-]
REMARK SMILES IDX 1 1 2 2 3 3 4 4
REMARK H PARENT
REMARK Flexibility Score: inf
ROOT
ATOM      1  C   UNL     1       8.338 -27.859  -9.386  1.00  0.00     0.063 C 
ATOM      2  C   UNL     1       8.063 -26.398  -9.280  1.00  0.00     0.038 C 
ATOM      3  O   UNL     1       6.947 -25.994  -8.861  1.00  0.00    -0.550 OA
ATOM      4  O   UNL     1       9.017 -25.478  -9.695  1.00  0.00    -0.550 OA
ENDROOT
TORSDOF 0
ENDMDL
MODEL 6
REMARK VINA RESULT:    -2.339      1.427      2.177
REMARK INTER + INTRA:          -2.339
REMARK INTER:                  -2.339
REMARK INTRA:                   0.000
REMARK UNBOUND:                 0.000
REMARK SMILES CC(=O)[O-]
REMARK SMILES IDX 1 1 2 2 3 3 4 4
REMARK H PARENT
REMARK Flexibility Score: inf
ROOT
ATOM      1  C   UNL     1       7.898 -26.001  -9.254  1.00  0.00     0.063 C 
ATOM      2  C   UNL     1       9.170 -25.521  -9.867  1.00  0.00     0.038 C 
ATOM      3  O   UNL     1       9.430 -24.290  -9.900  1.00  0.00    -0.550 OA
ATOM      4  O   UNL     1      10.045 -26.427 -10.452  1.00  0.00    -0.550 OA
ENDROOT
TORSDOF 0
ENDMDL
MODEL 7
REMARK VINA RESULT:    -1.950      9.805     10.157
REMARK INTER + INTRA:          -1.950
REMARK INTER:                  -1.950
REMARK INTRA:                   0.000
REMARK UNBOUND:                 0.000
REMARK SMILES CC(=O)[O-]
REMARK SMILES IDX 1 1 2 2 3 3 4 4
REMARK H PARENT
REMARK Flexibility Score: inf
ROOT
ATOM      1  C   UNL     1      14.605 -20.381  -7.251  1.00  0.00     0.063 C 
ATOM      2  C   UNL     1      15.837 -20.718  -6.481  1.00  0.00     0.038 C 
ATOM      3  O   UNL     1      15.747 -21.153  -5.303  1.00  0.00    -0.550 OA
ATOM      4  O   UNL     1      17.089 -20.501  -7.042  1.00  0.00    -0.550 OA
ENDROOT
TORSDOF 0
ENDMDL
MODEL 8
REMARK VINA RESULT:    -1.948      9.075      9.454
REMARK INTER + INTRA:          -1.948
REMARK INTER:                  -1.948
REMARK INTRA:                   0.000
REMARK UNBOUND:                 0.000
REMARK SMILES CC(=O)[O-]
REMARK SMILES IDX 1 1 2 2 3 3 4 4
REMARK H PARENT
REMARK Flexibility Score: inf
ROOT
ATOM      1  C   UNL     1      13.315 -19.703  -7.594  1.00  0.00     0.063 C 
ATOM      2  C   UNL     1      14.721 -20.193  -7.667  1.00  0.00     0.038 C 
ATOM      3  O   UNL     1      15.496 -19.758  -8.559  1.00  0.00    -0.550 OA
ATOM      4  O   UNL     1      15.164 -21.172  -6.787  1.00  0.00    -0.550 OA
ENDROOT
TORSDOF 0
ENDMDL
MODEL 9
REMARK VINA RESULT:    -1.903      8.111      8.203
REMARK INTER + INTRA:          -1.903
REMARK INTER:                  -1.903
REMARK INTRA:                   0.000
REMARK UNBOUND:                 0.000
REMARK SMILES CC(=O)[O-]
REMARK SMILES IDX 1 1 2 2 3 3 4 4
REMARK H PARENT
REMARK Flexibility Score: inf
ROOT
ATOM      1  C   UNL     1       1.210 -23.632  -9.769  1.00  0.00     0.063 C 
ATOM      2  C   UNL     1       1.804 -22.299 -10.079  1.00  0.00     0.038 C 
ATOM      3  O   UNL     1       2.018 -21.472  -9.154  1.00  0.00    -0.550 OA
ATOM      4  O   UNL     1       2.072 -21.946 -11.395  1.00  0.00    -0.550 OA
ENDROOT
TORSDOF 0
ENDMDL
