MODEL 1
REMARK VINA RESULT:    -1.723      0.000      0.000
REMARK INTER + INTRA:          -1.723
REMARK INTER:                  -1.723
REMARK INTRA:                   0.000
REMARK UNBOUND:                 0.000
REMARK SMILES CC1=CC(=O)[C@H]2C[C@@H]1C2(C)C
REMARK SMILES IDX 1 1 2 2 3 3 4 4 5 5 6 6 7 7 8 8 9 9 10 10 11 11
REMARK H PARENT
REMARK Flexibility Score: inf
ROOT
ATOM      1  C   UNL     1      13.067  13.037   2.125  1.00  0.00     0.040 C 
ATOM      2  C   UNL     1      11.893  13.569   1.367  1.00  0.00    -0.066 C 
ATOM      3  C   UNL     1      11.749  13.385   0.024  1.00  0.00     0.047 C 
ATOM      4  C   UNL     1      10.520  13.977  -0.599  1.00  0.00     0.159 C 
ATOM      5  O   UNL     1      10.295  13.911  -1.835  1.00  0.00    -0.295 OA
ATOM      6  C   UNL     1       9.562  14.665   0.373  1.00  0.00     0.067 C 
ATOM      7  C   UNL     1       9.449  13.678   1.555  1.00  0.00     0.021 C 
ATOM      8  C   UNL     1      10.752  14.311   2.094  1.00  0.00     0.022 C 
ATOM      9  C   UNL     1      10.386  15.601   1.303  1.00  0.00    -0.019 C 
ATOM     10  C   UNL     1       9.487  16.559   2.123  1.00  0.00     0.012 C 
ATOM     11  C   UNL     1      11.542  16.432   0.678  1.00  0.00     0.012 C 
ENDROOT
TORSDOF 0
ENDMDL
MODEL 2
REMARK VINA RESULT:    -1.369      1.753      3.478
REMARK INTER + INTRA:          -1.369
REMARK INTER:                  -1.369
REMARK INTRA:                   0.000
REMARK UNBOUND:                 0.000
REMARK SMILES CC1=CC(=O)[C@H]2C[C@@H]1C2(C)C
REMARK SMILES IDX 1 1 2 2 3 3 4 4 5 5 6 6 7 7 8 8 9 9 10 10 11 11
REMARK H PARENT
REMARK Flexibility Score: inf
ROOT
ATOM      1  C   UNL     1       7.840  14.078   2.121  1.00  0.00     0.040 C 
ATOM      2  C   UNL     1       9.221  14.510   1.741  1.00  0.00    -0.066 C 
ATOM      3  C   UNL     1       9.618  15.813   1.799  1.00  0.00     0.047 C 
ATOM      4  C   UNL     1      11.031  16.095   1.387  1.00  0.00     0.159 C 
ATOM      5  O   UNL     1      11.503  17.261   1.358  1.00  0.00    -0.295 OA
ATOM      6  C   UNL     1      11.858  14.867   1.005  1.00  0.00     0.067 C 
ATOM      7  C   UNL     1      11.551  13.843   2.121  1.00  0.00     0.021 C 
ATOM      8  C   UNL     1      10.285  13.477   1.315  1.00  0.00     0.022 C 
ATOM      9  C   UNL     1      11.017  13.984   0.039  1.00  0.00    -0.019 C 
ATOM     10  C   UNL     1      11.864  12.875  -0.634  1.00  0.00     0.012 C 
ATOM     11  C   UNL     1      10.175  14.690  -1.061  1.00  0.00     0.012 C 
ENDROOT
TORSDOF 0
ENDMDL
MODEL 3
REMARK VINA RESULT:    -1.357      1.646      3.328
REMARK INTER + INTRA:          -1.357
REMARK INTER:                  -1.357
REMARK INTRA:                   0.000
REMARK UNBOUND:                 0.000
REMARK SMILES CC1=CC(=O)[C@H]2C[C@@H]1C2(C)C
REMARK SMILES IDX 1 1 2 2 3 3 4 4 5 5 6 6 7 7 8 8 9 9 10 10 11 11
REMARK H PARENT
REMARK Flexibility Score: inf
ROOT
ATOM      1  C   UNL     1      11.750  17.226   2.125  1.00  0.00     0.040 C 
ATOM      2  C   UNL     1      10.980  16.058   1.595  1.00  0.00    -0.066 C 
ATOM      3  C   UNL     1       9.781  15.677   2.121  1.00  0.00     0.047 C 
ATOM      4  C   UNL     1       9.127  14.487   1.486  1.00  0.00     0.159 C 
ATOM      5  O   UNL     1       8.039  14.013   1.908  1.00  0.00    -0.295 OA
ATOM      6  C   UNL     1       9.873  13.890   0.293  1.00  0.00     0.067 C 
ATOM      7  C   UNL     1      10.270  15.118  -0.557  1.00  0.00     0.021 C 
ATOM      8  C   UNL     1      11.492  15.259   0.378  1.00  0.00     0.022 C 
ATOM      9  C   UNL     1      11.373  13.735   0.673  1.00  0.00    -0.019 C 
ATOM     10  C   UNL     1      12.155  12.875  -0.351  1.00  0.00     0.012 C 
ATOM     11  C   UNL     1      11.725  13.232   2.101  1.00  0.00     0.012 C 
ENDROOT
TORSDOF 0
ENDMDL
MODEL 4
REMARK VINA RESULT:    -0.554      1.624      2.970
REMARK INTER + INTRA:          -0.554
REMARK INTER:                  -0.554
REMARK INTRA:                   0.000
REMARK UNBOUND:                 0.000
REMARK SMILES CC1=CC(=O)[C@H]2C[C@@H]1C2(C)C
REMARK SMILES IDX 1 1 2 2 3 3 4 4 5 5 6 6 7 7 8 8 9 9 10 10 11 11
REMARK H PARENT
REMARK Flexibility Score: inf
ROOT
ATOM      1  C   UNL     1       9.790  13.465  -1.770  1.00  0.00     0.040 C 
ATOM      2  C   UNL     1      10.437  13.979  -0.523  1.00  0.00    -0.066 C 
ATOM      3  C   UNL     1      11.379  13.265   0.156  1.00  0.00     0.047 C 
ATOM      4  C   UNL     1      11.937  13.909   1.389  1.00  0.00     0.159 C 
ATOM      5  O   UNL     1      12.781  13.334   2.125  1.00  0.00    -0.295 OA
ATOM      6  C   UNL     1      11.408  15.311   1.691  1.00  0.00     0.067 C 
ATOM      7  C   UNL     1      11.465  16.037   0.329  1.00  0.00     0.021 C 
ATOM      8  C   UNL     1      10.099  15.382   0.023  1.00  0.00     0.022 C 
ATOM      9  C   UNL     1       9.858  15.296   1.558  1.00  0.00    -0.019 C 
ATOM     10  C   UNL     1       9.205  16.581   2.125  1.00  0.00     0.012 C 
ATOM     11  C   UNL     1       9.081  14.069   2.113  1.00  0.00     0.012 C 
ENDROOT
TORSDOF 0
ENDMDL
MODEL 5
REMARK VINA RESULT:    -0.436      1.717      2.683
REMARK INTER + INTRA:          -0.436
REMARK INTER:                  -0.436
REMARK INTRA:                   0.000
REMARK UNBOUND:                 0.000
REMARK SMILES CC1=CC(=O)[C@H]2C[C@@H]1C2(C)C
REMARK SMILES IDX 1 1 2 2 3 3 4 4 5 5 6 6 7 7 8 8 9 9 10 10 11 11
REMARK H PARENT
REMARK Flexibility Score: inf
ROOT
ATOM      1  C   UNL     1      10.941  13.681  -1.932  1.00  0.00     0.040 C 
ATOM      2  C   UNL     1      10.542  14.034  -0.535  1.00  0.00    -0.066 C 
ATOM      3  C   UNL     1       9.247  13.980  -0.111  1.00  0.00     0.047 C 
ATOM      4  C   UNL     1       8.999  14.363   1.317  1.00  0.00     0.159 C 
ATOM      5  O   UNL     1       7.844  14.394   1.814  1.00  0.00    -0.295 OA
ATOM      6  C   UNL     1      10.249  14.714   2.125  1.00  0.00     0.067 C 
ATOM      7  C   UNL     1      11.253  13.596   1.772  1.00  0.00     0.021 C 
ATOM      8  C   UNL     1      11.602  14.426   0.516  1.00  0.00     0.022 C 
ATOM      9  C   UNL     1      11.123  15.690   1.287  1.00  0.00    -0.019 C 
ATOM     10  C   UNL     1      12.257  16.333   2.125  1.00  0.00     0.012 C 
ATOM     11  C   UNL     1      10.412  16.816   0.485  1.00  0.00     0.012 C 
ENDROOT
TORSDOF 0
ENDMDL
MODEL 6
REMARK VINA RESULT:     0.519      1.170      2.756
REMARK INTER + INTRA:           0.519
REMARK INTER:                   0.519
REMARK INTRA:                   0.000
REMARK UNBOUND:                 0.000
REMARK SMILES CC1=CC(=O)[C@H]2C[C@@H]1C2(C)C
REMARK SMILES IDX 1 1 2 2 3 3 4 4 5 5 6 6 7 7 8 8 9 9 10 10 11 11
REMARK H PARENT
REMARK Flexibility Score: inf
ROOT
ATOM      1  C   UNL     1       7.717  14.372   2.118  1.00  0.00     0.040 C 
ATOM      2  C   UNL     1       8.927  14.579   1.264  1.00  0.00    -0.066 C 
ATOM      3  C   UNL     1       9.152  13.854   0.132  1.00  0.00     0.047 C 
ATOM      4  C   UNL     1      10.409  14.173  -0.621  1.00  0.00     0.159 C 
ATOM      5  O   UNL     1      10.750  13.546  -1.658  1.00  0.00    -0.295 OA
ATOM      6  C   UNL     1      11.247  15.313  -0.041  1.00  0.00     0.067 C 
ATOM      7  C   UNL     1      10.215  16.418   0.273  1.00  0.00     0.021 C 
ATOM      8  C   UNL     1       9.958  15.676   1.605  1.00  0.00     0.022 C 
ATOM      9  C   UNL     1      11.395  15.090   1.491  1.00  0.00    -0.019 C 
ATOM     10  C   UNL     1      12.462  16.019   2.122  1.00  0.00     0.012 C 
ATOM     11  C   UNL     1      11.642  13.644   2.006  1.00  0.00     0.012 C 
ENDROOT
TORSDOF 0
ENDMDL
