MODEL 1
REMARK VINA RESULT:    -3.216      0.000      0.000
REMARK INTER + INTRA:          -4.076
REMARK INTER:                  -3.968
REMARK INTRA:                  -0.108
REMARK UNBOUND:                -0.108
REMARK SMILES CCCCCC(=O)[O-]
REMARK SMILES IDX 4 1 5 2 6 3 7 4 8 5 3 6 2 7 1 8
REMARK H PARENT
REMARK Flexibility Score: inf
ROOT
ATOM      1  C   UNL     1     -18.907  20.682  41.574  1.00  0.00     0.006 C 
ENDROOT
BRANCH   1   2
ATOM      2  C   UNL     1     -17.947  19.642  42.163  1.00  0.00     0.053 C 
BRANCH   2   3
ATOM      3  C   UNL     1     -17.588  20.001  43.571  1.00  0.00     0.041 C 
ATOM      4  O   UNL     1     -17.346  19.098  44.413  1.00  0.00    -0.550 OA
ATOM      5  O   UNL     1     -17.471  21.335  43.940  1.00  0.00    -0.550 OA
ENDBRANCH   2   3
ENDBRANCH   1   2
BRANCH   1   6
ATOM      6  C   UNL     1     -20.368  20.468  42.013  1.00  0.00     0.000 C 
BRANCH   6   7
ATOM      7  C   UNL     1     -21.352  21.551  41.535  1.00  0.00    -0.003 C 
ATOM      8  C   UNL     1     -21.289  21.793  40.028  1.00  0.00     0.004 C 
ENDBRANCH   6   7
ENDBRANCH   1   6
TORSDOF 4
ENDMDL
MODEL 2
REMARK VINA RESULT:    -3.203      2.250      2.894
REMARK INTER + INTRA:          -4.060
REMARK INTER:                  -3.938
REMARK INTRA:                  -0.122
REMARK UNBOUND:                -0.108
REMARK SMILES CCCCCC(=O)[O-]
REMARK SMILES IDX 4 1 5 2 6 3 7 4 8 5 3 6 2 7 1 8
REMARK H PARENT
REMARK Flexibility Score: inf
ROOT
ATOM      1  C   UNL     1     -17.683  19.577  42.819  1.00  0.00     0.006 C 
ENDROOT
BRANCH   1   2
ATOM      2  C   UNL     1     -17.760  18.923  41.434  1.00  0.00     0.053 C 
BRANCH   2   3
ATOM      3  C   UNL     1     -16.974  17.649  41.414  1.00  0.00     0.041 C 
ATOM      4  O   UNL     1     -16.747  17.028  42.485  1.00  0.00    -0.550 OA
ATOM      5  O   UNL     1     -16.536  17.122  40.206  1.00  0.00    -0.550 OA
ENDBRANCH   2   3
ENDBRANCH   1   2
BRANCH   1   6
ATOM      6  C   UNL     1     -18.821  20.584  43.070  1.00  0.00     0.000 C 
BRANCH   6   7
ATOM      7  C   UNL     1     -20.153  20.238  42.381  1.00  0.00    -0.003 C 
ATOM      8  C   UNL     1     -20.698  21.380  41.525  1.00  0.00     0.004 C 
ENDBRANCH   6   7
ENDBRANCH   1   6
TORSDOF 4
ENDMDL
MODEL 3
REMARK VINA RESULT:    -3.144      1.365      1.885
REMARK INTER + INTRA:          -3.987
REMARK INTER:                  -3.889
REMARK INTRA:                  -0.099
REMARK UNBOUND:                -0.108
REMARK SMILES CCCCCC(=O)[O-]
REMARK SMILES IDX 4 1 5 2 6 3 7 4 8 5 3 6 2 7 1 8
REMARK H PARENT
REMARK Flexibility Score: inf
ROOT
ATOM      1  C   UNL     1     -20.134  20.342  42.235  1.00  0.00     0.006 C 
ENDROOT
BRANCH   1   2
ATOM      2  C   UNL     1     -18.758  20.437  41.566  1.00  0.00     0.053 C 
BRANCH   2   3
ATOM      3  C   UNL     1     -17.911  19.262  41.946  1.00  0.00     0.041 C 
ATOM      4  O   UNL     1     -17.630  18.382  41.092  1.00  0.00    -0.550 OA
ATOM      5  O   UNL     1     -17.390  19.167  43.230  1.00  0.00    -0.550 OA
ENDBRANCH   2   3
ENDBRANCH   1   2
BRANCH   1   6
ATOM      6  C   UNL     1     -21.178  21.276  41.594  1.00  0.00     0.000 C 
BRANCH   6   7
ATOM      7  C   UNL     1     -20.734  21.929  40.273  1.00  0.00    -0.003 C 
ATOM      8  C   UNL     1     -21.840  21.958  39.219  1.00  0.00     0.004 C 
ENDBRANCH   6   7
ENDBRANCH   1   6
TORSDOF 4
ENDMDL
MODEL 4
REMARK VINA RESULT:    -3.141      2.213      3.276
REMARK INTER + INTRA:          -3.983
REMARK INTER:                  -3.853
REMARK INTRA:                  -0.131
REMARK UNBOUND:                -0.108
REMARK SMILES CCCCCC(=O)[O-]
REMARK SMILES IDX 4 1 5 2 6 3 7 4 8 5 3 6 2 7 1 8
REMARK H PARENT
REMARK Flexibility Score: inf
ROOT
ATOM      1  C   UNL     1     -21.736  22.051  41.112  1.00  0.00     0.006 C 
ENDROOT
BRANCH   1   2
ATOM      2  C   UNL     1     -20.290  21.586  40.902  1.00  0.00     0.053 C 
BRANCH   2   3
ATOM      3  C   UNL     1     -19.976  20.433  41.803  1.00  0.00     0.041 C 
ATOM      4  O   UNL     1     -20.766  20.122  42.733  1.00  0.00    -0.550 OA
ATOM      5  O   UNL     1     -18.835  19.671  41.586  1.00  0.00    -0.550 OA
ENDBRANCH   2   3
ENDBRANCH   1   2
BRANCH   1   6
ATOM      6  C   UNL     1     -22.571  22.013  39.818  1.00  0.00     0.000 C 
BRANCH   6   7
ATOM      7  C   UNL     1     -21.748  21.939  38.520  1.00  0.00    -0.003 C 
ATOM      8  C   UNL     1     -22.471  21.202  37.394  1.00  0.00     0.004 C 
ENDBRANCH   6   7
ENDBRANCH   1   6
TORSDOF 4
ENDMDL
MODEL 5
REMARK VINA RESULT:    -3.114      2.462      4.135
REMARK INTER + INTRA:          -3.950
REMARK INTER:                  -3.707
REMARK INTRA:                  -0.243
REMARK UNBOUND:                -0.108
REMARK SMILES CCCCCC(=O)[O-]
REMARK SMILES IDX 4 1 5 2 6 3 7 4 8 5 3 6 2 7 1 8
REMARK H PARENT
REMARK Flexibility Score: inf
ROOT
ATOM      1  C   UNL     1     -20.432  20.443  42.242  1.00  0.00     0.006 C 
ENDROOT
BRANCH   1   2
ATOM      2  C   UNL     1     -21.120  21.426  41.288  1.00  0.00     0.053 C 
BRANCH   2   3
ATOM      3  C   UNL     1     -20.265  22.637  41.079  1.00  0.00     0.041 C 
ATOM      4  O   UNL     1     -19.970  23.380  42.051  1.00  0.00    -0.550 OA
ATOM      5  O   UNL     1     -19.753  22.917  39.818  1.00  0.00    -0.550 OA
ENDBRANCH   2   3
ENDBRANCH   1   2
BRANCH   1   6
ATOM      6  C   UNL     1     -19.062  19.965  41.725  1.00  0.00     0.000 C 
BRANCH   6   7
ATOM      7  C   UNL     1     -17.987  19.790  42.813  1.00  0.00    -0.003 C 
ATOM      8  C   UNL     1     -17.735  21.065  43.616  1.00  0.00     0.004 C 
ENDBRANCH   6   7
ENDBRANCH   1   6
TORSDOF 4
ENDMDL
MODEL 6
REMARK VINA RESULT:    -3.113      2.516      4.220
REMARK INTER + INTRA:          -3.949
REMARK INTER:                  -3.764
REMARK INTRA:                  -0.186
REMARK UNBOUND:                -0.108
REMARK SMILES CCCCCC(=O)[O-]
REMARK SMILES IDX 4 1 5 2 6 3 7 4 8 5 3 6 2 7 1 8
REMARK H PARENT
REMARK Flexibility Score: inf
ROOT
ATOM      1  C   UNL     1     -18.924  20.421  43.013  1.00  0.00     0.006 C 
ENDROOT
BRANCH   1   2
ATOM      2  C   UNL     1     -19.841  20.238  41.798  1.00  0.00     0.053 C 
BRANCH   2   3
ATOM      3  C   UNL     1     -20.062  21.547  41.108  1.00  0.00     0.041 C 
ATOM      4  O   UNL     1     -19.082  22.267  40.785  1.00  0.00    -0.550 OA
ATOM      5  O   UNL     1     -21.350  21.950  40.778  1.00  0.00    -0.550 OA
ENDBRANCH   2   3
ENDBRANCH   1   2
BRANCH   1   6
ATOM      6  C   UNL     1     -17.657  19.549  42.945  1.00  0.00     0.000 C 
BRANCH   6   7
ATOM      7  C   UNL     1     -17.282  19.064  41.533  1.00  0.00    -0.003 C 
ATOM      8  C   UNL     1     -17.016  17.561  41.468  1.00  0.00     0.004 C 
ENDBRANCH   6   7
ENDBRANCH   1   6
TORSDOF 4
ENDMDL
MODEL 7
REMARK VINA RESULT:    -3.087      3.766      5.076
REMARK INTER + INTRA:          -3.916
REMARK INTER:                  -3.805
REMARK INTRA:                  -0.111
REMARK UNBOUND:                -0.108
REMARK SMILES CCCCCC(=O)[O-]
REMARK SMILES IDX 4 1 5 2 6 3 7 4 8 5 3 6 2 7 1 8
REMARK H PARENT
REMARK Flexibility Score: inf
ROOT
ATOM      1  C   UNL     1     -20.959  21.377  41.556  1.00  0.00     0.006 C 
ENDROOT
BRANCH   1   2
ATOM      2  C   UNL     1     -20.446  22.038  40.272  1.00  0.00     0.053 C 
BRANCH   2   3
ATOM      3  C   UNL     1     -21.533  22.101  39.245  1.00  0.00     0.041 C 
ATOM      4  O   UNL     1     -21.274  22.467  38.069  1.00  0.00    -0.550 OA
ATOM      5  O   UNL     1     -22.824  21.707  39.575  1.00  0.00    -0.550 OA
ENDBRANCH   2   3
ENDBRANCH   1   2
BRANCH   1   6
ATOM      6  C   UNL     1     -20.025  20.268  42.075  1.00  0.00     0.000 C 
BRANCH   6   7
ATOM      7  C   UNL     1     -18.555  20.408  41.641  1.00  0.00    -0.003 C 
ATOM      8  C   UNL     1     -17.743  19.132  41.858  1.00  0.00     0.004 C 
ENDBRANCH   6   7
ENDBRANCH   1   6
TORSDOF 4
ENDMDL
MODEL 8
REMARK VINA RESULT:    -3.030      2.926      4.649
REMARK INTER + INTRA:          -3.847
REMARK INTER:                  -3.770
REMARK INTRA:                  -0.077
REMARK UNBOUND:                -0.108
REMARK SMILES CCCCCC(=O)[O-]
REMARK SMILES IDX 4 1 5 2 6 3 7 4 8 5 3 6 2 7 1 8
REMARK H PARENT
REMARK Flexibility Score: inf
ROOT
ATOM      1  C   UNL     1     -17.422  18.241  41.244  1.00  0.00     0.006 C 
ENDROOT
BRANCH   1   2
ATOM      2  C   UNL     1     -17.445  19.107  42.509  1.00  0.00     0.053 C 
BRANCH   2   3
ATOM      3  C   UNL     1     -18.489  20.172  42.395  1.00  0.00     0.041 C 
ATOM      4  O   UNL     1     -18.359  21.258  43.019  1.00  0.00    -0.550 OA
ATOM      5  O   UNL     1     -19.583  19.987  41.559  1.00  0.00    -0.550 OA
ENDBRANCH   2   3
ENDBRANCH   1   2
BRANCH   1   6
ATOM      6  C   UNL     1     -16.728  16.883  41.459  1.00  0.00     0.000 C 
BRANCH   6   7
ATOM      7  C   UNL     1     -16.313  16.159  40.165  1.00  0.00    -0.003 C 
ATOM      8  C   UNL     1     -15.324  16.960  39.322  1.00  0.00     0.004 C 
ENDBRANCH   6   7
ENDBRANCH   1   6
TORSDOF 4
ENDMDL
MODEL 9
REMARK VINA RESULT:    -2.963     16.838     18.188
REMARK INTER + INTRA:          -3.764
REMARK INTER:                  -3.703
REMARK INTRA:                  -0.061
REMARK UNBOUND:                -0.108
REMARK SMILES CCCCCC(=O)[O-]
REMARK SMILES IDX 4 1 5 2 6 3 7 4 8 5 3 6 2 7 1 8
REMARK H PARENT
REMARK Flexibility Score: inf
ROOT
ATOM      1  C   UNL     1      -5.590  31.676  47.281  1.00  0.00     0.006 C 
ENDROOT
BRANCH   1   2
ATOM      2  C   UNL     1      -6.354  30.348  47.355  1.00  0.00     0.053 C 
BRANCH   2   3
ATOM      3  C   UNL     1      -5.488  29.221  46.886  1.00  0.00     0.041 C 
ATOM      4  O   UNL     1      -6.005  28.124  46.547  1.00  0.00    -0.550 OA
ATOM      5  O   UNL     1      -4.115  29.398  46.776  1.00  0.00    -0.550 OA
ENDBRANCH   2   3
ENDBRANCH   1   2
BRANCH   1   6
ATOM      6  C   UNL     1      -6.264  32.801  48.087  1.00  0.00     0.000 C 
BRANCH   6   7
ATOM      7  C   UNL     1      -5.338  33.531  49.077  1.00  0.00    -0.003 C 
ATOM      8  C   UNL     1      -6.018  33.852  50.406  1.00  0.00     0.004 C 
ENDBRANCH   6   7
ENDBRANCH   1   6
TORSDOF 4
ENDMDL
