MODEL 1
REMARK VINA RESULT:    -5.654      0.000      0.000
REMARK INTER + INTRA:          -5.819
REMARK INTER:                  -5.819
REMARK INTRA:                   0.000
REMARK UNBOUND:                 0.000
REMARK SMILES Cc1cccc(O)c1C
REMARK SMILES IDX 1 1 2 2 8 3 6 4 5 5 4 6 3 7 9 8 7 9
REMARK H PARENT 7 10
REMARK Flexibility Score: inf
ROOT
ATOM      1  C   UNL     1      28.676  35.779  27.366  1.00  0.00     0.045 C 
ATOM      2  C   UNL     1      29.015  36.848  26.359  1.00  0.00    -0.045 A 
ATOM      3  C   UNL     1      28.022  37.699  25.799  1.00  0.00    -0.006 A 
ATOM      4  C   UNL     1      28.413  38.685  24.856  1.00  0.00     0.118 A 
ATOM      5  C   UNL     1      29.756  38.809  24.489  1.00  0.00     0.046 A 
ATOM      6  C   UNL     1      30.721  37.973  25.041  1.00  0.00     0.004 A 
ATOM      7  C   UNL     1      30.357  37.000  25.969  1.00  0.00     0.004 A 
ATOM      8  C   UNL     1      26.564  37.582  26.180  1.00  0.00     0.048 C 
ENDROOT
BRANCH   4   9
ATOM      9  O   UNL     1      27.494  39.556  24.265  1.00  0.00    -0.508 OA
ATOM     10  H   UNL     1      26.727  39.246  23.682  1.00  0.00     0.293 HD
ENDBRANCH   4   9
TORSDOF 1
ENDMDL
MODEL 2
REMARK VINA RESULT:    -5.548      2.816      3.303
REMARK INTER + INTRA:          -5.710
REMARK INTER:                  -5.710
REMARK INTRA:                   0.000
REMARK UNBOUND:                 0.000
REMARK SMILES Cc1cccc(O)c1C
REMARK SMILES IDX 1 1 2 2 8 3 6 4 5 5 4 6 3 7 9 8 7 9
REMARK H PARENT 7 10
REMARK Flexibility Score: inf
ROOT
ATOM      1  C   UNL     1      28.819  39.128  28.180  1.00  0.00     0.045 C 
ATOM      2  C   UNL     1      29.117  37.710  27.763  1.00  0.00    -0.045 A 
ATOM      3  C   UNL     1      28.089  36.798  27.398  1.00  0.00    -0.006 A 
ATOM      4  C   UNL     1      28.442  35.479  27.015  1.00  0.00     0.118 A 
ATOM      5  C   UNL     1      29.785  35.089  27.001  1.00  0.00     0.046 A 
ATOM      6  C   UNL     1      30.786  35.988  27.359  1.00  0.00     0.004 A 
ATOM      7  C   UNL     1      30.458  37.288  27.737  1.00  0.00     0.004 A 
ATOM      8  C   UNL     1      26.630  37.196  27.407  1.00  0.00     0.048 C 
ENDROOT
BRANCH   4   9
ATOM      9  O   UNL     1      27.486  34.529  26.644  1.00  0.00    -0.508 OA
ATOM     10  H   UNL     1      26.749  34.210  27.258  1.00  0.00     0.293 HD
ENDBRANCH   4   9
TORSDOF 1
ENDMDL
MODEL 3
REMARK VINA RESULT:    -5.528      2.736      3.717
REMARK INTER + INTRA:          -5.690
REMARK INTER:                  -5.690
REMARK INTRA:                   0.000
REMARK UNBOUND:                 0.000
REMARK SMILES Cc1cccc(O)c1C
REMARK SMILES IDX 1 1 2 2 8 3 6 4 5 5 4 6 3 7 9 8 7 9
REMARK H PARENT 7 10
REMARK Flexibility Score: inf
ROOT
ATOM      1  C   UNL     1      31.731  37.358  27.157  1.00  0.00     0.045 C 
ATOM      2  C   UNL     1      30.258  37.279  27.471  1.00  0.00    -0.045 A 
ATOM      3  C   UNL     1      29.593  38.283  28.228  1.00  0.00    -0.006 A 
ATOM      4  C   UNL     1      28.204  38.144  28.485  1.00  0.00     0.118 A 
ATOM      5  C   UNL     1      27.509  37.034  27.997  1.00  0.00     0.046 A 
ATOM      6  C   UNL     1      28.167  36.057  27.256  1.00  0.00     0.004 A 
ATOM      7  C   UNL     1      29.530  36.176  26.993  1.00  0.00     0.004 A 
ATOM      8  C   UNL     1      30.325  39.491  28.767  1.00  0.00     0.048 C 
ENDROOT
BRANCH   4   9
ATOM      9  O   UNL     1      27.485  39.090  29.221  1.00  0.00    -0.508 OA
ATOM     10  H   UNL     1      27.694  40.079  29.213  1.00  0.00     0.293 HD
ENDBRANCH   4   9
TORSDOF 1
ENDMDL
MODEL 4
REMARK VINA RESULT:    -5.527      2.455      3.138
REMARK INTER + INTRA:          -5.688
REMARK INTER:                  -5.688
REMARK INTRA:                   0.000
REMARK UNBOUND:                 0.000
REMARK SMILES Cc1cccc(O)c1C
REMARK SMILES IDX 1 1 2 2 8 3 6 4 5 5 4 6 3 7 9 8 7 9
REMARK H PARENT 7 10
REMARK Flexibility Score: inf
ROOT
ATOM      1  C   UNL     1      31.185  37.685  25.789  1.00  0.00     0.045 C 
ATOM      2  C   UNL     1      30.248  38.167  26.867  1.00  0.00    -0.045 A 
ATOM      3  C   UNL     1      28.844  38.264  26.660  1.00  0.00    -0.006 A 
ATOM      4  C   UNL     1      28.022  38.725  27.719  1.00  0.00     0.118 A 
ATOM      5  C   UNL     1      28.592  39.078  28.946  1.00  0.00     0.046 A 
ATOM      6  C   UNL     1      29.966  38.980  29.141  1.00  0.00     0.004 A 
ATOM      7  C   UNL     1      30.790  38.529  28.113  1.00  0.00     0.004 A 
ATOM      8  C   UNL     1      28.206  37.889  25.341  1.00  0.00     0.048 C 
ENDROOT
BRANCH   4   9
ATOM      9  O   UNL     1      26.635  38.846  27.588  1.00  0.00    -0.508 OA
ATOM     10  H   UNL     1      26.119  38.502  26.789  1.00  0.00     0.293 HD
ENDBRANCH   4   9
TORSDOF 1
ENDMDL
MODEL 5
REMARK VINA RESULT:    -5.504      2.161      2.919
REMARK INTER + INTRA:          -5.665
REMARK INTER:                  -5.665
REMARK INTRA:                   0.000
REMARK UNBOUND:                 0.000
REMARK SMILES Cc1cccc(O)c1C
REMARK SMILES IDX 1 1 2 2 8 3 6 4 5 5 4 6 3 7 9 8 7 9
REMARK H PARENT 7 10
REMARK Flexibility Score: inf
ROOT
ATOM      1  C   UNL     1      31.985  38.199  27.006  1.00  0.00     0.045 C 
ATOM      2  C   UNL     1      30.550  38.379  26.582  1.00  0.00    -0.045 A 
ATOM      3  C   UNL     1      29.519  38.682  27.515  1.00  0.00    -0.006 A 
ATOM      4  C   UNL     1      28.189  38.839  27.045  1.00  0.00     0.118 A 
ATOM      5  C   UNL     1      27.906  38.695  25.684  1.00  0.00     0.046 A 
ATOM      6  C   UNL     1      28.920  38.398  24.777  1.00  0.00     0.004 A 
ATOM      7  C   UNL     1      30.231  38.242  25.220  1.00  0.00     0.004 A 
ATOM      8  C   UNL     1      29.802  38.842  28.992  1.00  0.00     0.048 C 
ENDROOT
BRANCH   4   9
ATOM      9  O   UNL     1      27.127  39.137  27.903  1.00  0.00    -0.508 OA
ATOM     10  H   UNL     1      26.326  38.533  28.030  1.00  0.00     0.293 HD
ENDBRANCH   4   9
TORSDOF 1
ENDMDL
MODEL 6
REMARK VINA RESULT:    -5.491      2.784      3.697
REMARK INTER + INTRA:          -5.652
REMARK INTER:                  -5.652
REMARK INTRA:                   0.000
REMARK UNBOUND:                 0.000
REMARK SMILES Cc1cccc(O)c1C
REMARK SMILES IDX 1 1 2 2 8 3 6 4 5 5 4 6 3 7 9 8 7 9
REMARK H PARENT 7 10
REMARK Flexibility Score: inf
ROOT
ATOM      1  C   UNL     1      31.940  37.501  27.244  1.00  0.00     0.045 C 
ATOM      2  C   UNL     1      30.515  37.714  27.688  1.00  0.00    -0.045 A 
ATOM      3  C   UNL     1      29.491  36.763  27.425  1.00  0.00    -0.006 A 
ATOM      4  C   UNL     1      28.171  37.030  27.873  1.00  0.00     0.118 A 
ATOM      5  C   UNL     1      27.891  38.213  28.561  1.00  0.00     0.046 A 
ATOM      6  C   UNL     1      28.899  39.139  28.815  1.00  0.00     0.004 A 
ATOM      7  C   UNL     1      30.200  38.895  28.384  1.00  0.00     0.004 A 
ATOM      8  C   UNL     1      29.771  35.476  26.681  1.00  0.00     0.048 C 
ENDROOT
BRANCH   4   9
ATOM      9  O   UNL     1      27.116  36.141  27.650  1.00  0.00    -0.508 OA
ATOM     10  H   UNL     1      27.153  35.159  27.888  1.00  0.00     0.293 HD
ENDBRANCH   4   9
TORSDOF 1
ENDMDL
MODEL 7
REMARK VINA RESULT:    -5.483      1.209      2.826
REMARK INTER + INTRA:          -5.644
REMARK INTER:                  -5.644
REMARK INTRA:                   0.000
REMARK UNBOUND:                 0.000
REMARK SMILES Cc1cccc(O)c1C
REMARK SMILES IDX 1 1 2 2 8 3 6 4 5 5 4 6 3 7 9 8 7 9
REMARK H PARENT 7 10
REMARK Flexibility Score: inf
ROOT
ATOM      1  C   UNL     1      31.781  37.624  25.943  1.00  0.00     0.045 C 
ATOM      2  C   UNL     1      30.399  37.066  26.165  1.00  0.00    -0.045 A 
ATOM      3  C   UNL     1      29.235  37.701  25.649  1.00  0.00    -0.006 A 
ATOM      4  C   UNL     1      27.966  37.119  25.897  1.00  0.00     0.118 A 
ATOM      5  C   UNL     1      27.869  35.938  26.639  1.00  0.00     0.046 A 
ATOM      6  C   UNL     1      29.012  35.322  27.140  1.00  0.00     0.004 A 
ATOM      7  C   UNL     1      30.268  35.879  26.907  1.00  0.00     0.004 A 
ATOM      8  C   UNL     1      29.316  38.980  24.845  1.00  0.00     0.048 C 
ENDROOT
BRANCH   4   9
ATOM      9  O   UNL     1      26.781  37.687  25.421  1.00  0.00    -0.508 OA
ATOM     10  H   UNL     1      25.866  37.284  25.579  1.00  0.00     0.293 HD
ENDBRANCH   4   9
TORSDOF 1
ENDMDL
MODEL 8
REMARK VINA RESULT:    -5.438      1.988      3.267
REMARK INTER + INTRA:          -5.597
REMARK INTER:                  -5.597
REMARK INTRA:                   0.000
REMARK UNBOUND:                 0.000
REMARK SMILES Cc1cccc(O)c1C
REMARK SMILES IDX 1 1 2 2 8 3 6 4 5 5 4 6 3 7 9 8 7 9
REMARK H PARENT 7 10
REMARK Flexibility Score: inf
ROOT
ATOM      1  C   UNL     1      31.807  37.633  26.236  1.00  0.00     0.045 C 
ATOM      2  C   UNL     1      30.319  37.453  26.071  1.00  0.00    -0.045 A 
ATOM      3  C   UNL     1      29.625  36.349  26.640  1.00  0.00    -0.006 A 
ATOM      4  C   UNL     1      28.224  36.243  26.446  1.00  0.00     0.118 A 
ATOM      5  C   UNL     1      27.544  37.213  25.703  1.00  0.00     0.046 A 
ATOM      6  C   UNL     1      28.231  38.290  25.149  1.00  0.00     0.004 A 
ATOM      7  C   UNL     1      29.606  38.411  25.330  1.00  0.00     0.004 A 
ATOM      8  C   UNL     1      30.339  35.288  27.447  1.00  0.00     0.048 C 
ENDROOT
BRANCH   4   9
ATOM      9  O   UNL     1      27.476  35.188  26.975  1.00  0.00    -0.508 OA
ATOM     10  H   UNL     1      26.646  34.815  26.533  1.00  0.00     0.293 HD
ENDBRANCH   4   9
TORSDOF 1
ENDMDL
MODEL 9
REMARK VINA RESULT:    -5.373      1.867      2.925
REMARK INTER + INTRA:          -5.530
REMARK INTER:                  -5.530
REMARK INTRA:                   0.000
REMARK UNBOUND:                 0.000
REMARK SMILES Cc1cccc(O)c1C
REMARK SMILES IDX 1 1 2 2 8 3 6 4 5 5 4 6 3 7 9 8 7 9
REMARK H PARENT 7 10
REMARK Flexibility Score: inf
ROOT
ATOM      1  C   UNL     1      28.256  39.455  24.364  1.00  0.00     0.045 C 
ATOM      2  C   UNL     1      28.959  38.421  25.207  1.00  0.00    -0.045 A 
ATOM      3  C   UNL     1      28.254  37.575  26.109  1.00  0.00    -0.006 A 
ATOM      4  C   UNL     1      28.980  36.624  26.870  1.00  0.00     0.118 A 
ATOM      5  C   UNL     1      30.368  36.526  26.731  1.00  0.00     0.046 A 
ATOM      6  C   UNL     1      31.050  37.357  25.846  1.00  0.00     0.004 A 
ATOM      7  C   UNL     1      30.354  38.297  25.089  1.00  0.00     0.004 A 
ATOM      8  C   UNL     1      26.754  37.664  26.277  1.00  0.00     0.048 C 
ENDROOT
BRANCH   4   9
ATOM      9  O   UNL     1      28.356  35.761  27.775  1.00  0.00    -0.508 OA
ATOM     10  H   UNL     1      27.436  35.367  27.626  1.00  0.00     0.293 HD
ENDBRANCH   4   9
TORSDOF 1
ENDMDL
