MODEL 1
REMARK VINA RESULT:    -5.520      0.000      0.000
REMARK INTER + INTRA:          -6.004
REMARK INTER:                  -6.004
REMARK INTRA:                   0.000
REMARK UNBOUND:                 0.000
REMARK SMILES Cc1cc(O)c2c(c1)C(=O)c1cc(O)cc(O)c1C2=O
REMARK SMILES IDX 1 1 2 2 8 3 7 4 6 5 4 6 3 7 19 8 20 9 18 10 11 11 9 12 10 13
REMARK SMILES IDX 12 14 13 15 15 16 16 17 5 18 17 20 14 22
REMARK H PARENT 5 19 17 21 14 23
REMARK Flexibility Score: inf
ROOT
ATOM      1  C   UNL     1      41.254  14.990 212.011  1.00  0.00     0.044 C 
ATOM      2  C   UNL     1      40.895  15.977 213.082  1.00  0.00    -0.047 A 
ATOM      3  C   UNL     1      39.611  15.980 213.637  1.00  0.00     0.016 A 
ATOM      4  C   UNL     1      39.273  16.883 214.659  1.00  0.00     0.038 A 
ATOM      5  C   UNL     1      40.238  17.798 215.136  1.00  0.00     0.076 A 
ATOM      6  C   UNL     1      41.561  17.733 214.629  1.00  0.00     0.127 A 
ATOM      7  C   UNL     1      41.868  16.840 213.598  1.00  0.00     0.050 A 
ATOM      8  C   UNL     1      39.805  18.833 216.109  1.00  0.00     0.201 C 
ATOM      9  O   UNL     1      40.381  19.953 216.133  1.00  0.00    -0.288 OA
ATOM     10  C   UNL     1      38.579  18.615 216.920  1.00  0.00     0.076 A 
ATOM     11  C   UNL     1      37.616  17.697 216.442  1.00  0.00     0.041 A 
ATOM     12  C   UNL     1      37.913  16.873 215.246  1.00  0.00     0.194 C 
ATOM     13  O   UNL     1      37.012  16.146 214.742  1.00  0.00    -0.289 OA
ATOM     14  C   UNL     1      36.385  17.565 217.106  1.00  0.00     0.059 A 
ATOM     15  C   UNL     1      36.109  18.322 218.244  1.00  0.00     0.120 A 
ATOM     16  C   UNL     1      37.072  19.202 218.744  1.00  0.00     0.093 A 
ATOM     17  C   UNL     1      38.313  19.337 218.113  1.00  0.00     0.131 A 
ENDROOT
BRANCH   6  18
ATOM     18  O   UNL     1      42.606  18.507 215.144  1.00  0.00    -0.507 OA
ATOM     19  H   UNL     1      42.857  19.416 214.782  1.00  0.00     0.293 HD
ENDBRANCH   6  18
BRANCH  17  20
ATOM     20  O   UNL     1      39.259  20.165 218.722  1.00  0.00    -0.507 OA
ATOM     21  H   UNL     1      39.968  19.830 219.359  1.00  0.00     0.293 HD
ENDBRANCH  17  20
BRANCH  15  22
ATOM     22  O   UNL     1      34.876  18.184 218.878  1.00  0.00    -0.508 OA
ATOM     23  H   UNL     1      34.121  18.841 218.718  1.00  0.00     0.293 HD
ENDBRANCH  15  22
TORSDOF 3
ENDMDL
MODEL 2
REMARK VINA RESULT:    -5.287      3.932      7.479
REMARK INTER + INTRA:          -5.750
REMARK INTER:                  -5.750
REMARK INTRA:                   0.000
REMARK UNBOUND:                 0.000
REMARK SMILES Cc1cc(O)c2c(c1)C(=O)c1cc(O)cc(O)c1C2=O
REMARK SMILES IDX 1 1 2 2 8 3 7 4 6 5 4 6 3 7 19 8 20 9 18 10 11 11 9 12 10 13
REMARK SMILES IDX 12 14 13 15 15 16 16 17 5 18 17 20 14 22
REMARK H PARENT 5 19 17 21 14 23
REMARK Flexibility Score: inf
ROOT
ATOM      1  C   UNL     1      36.663  16.307 215.154  1.00  0.00     0.044 C 
ATOM      2  C   UNL     1      37.508  16.849 214.039  1.00  0.00    -0.047 A 
ATOM      3  C   UNL     1      38.611  16.125 213.575  1.00  0.00     0.016 A 
ATOM      4  C   UNL     1      39.393  16.611 212.513  1.00  0.00     0.038 A 
ATOM      5  C   UNL     1      39.063  17.842 211.904  1.00  0.00     0.076 A 
ATOM      6  C   UNL     1      37.894  18.529 212.321  1.00  0.00     0.127 A 
ATOM      7  C   UNL     1      37.145  18.036 213.394  1.00  0.00     0.050 A 
ATOM      8  C   UNL     1      39.994  18.395 210.887  1.00  0.00     0.201 C 
ATOM      9  O   UNL     1      40.093  19.642 210.739  1.00  0.00    -0.288 OA
ATOM     10  C   UNL     1      40.937  17.489 210.181  1.00  0.00     0.076 A 
ATOM     11  C   UNL     1      41.263  16.257 210.792  1.00  0.00     0.041 A 
ATOM     12  C   UNL     1      40.556  15.834 212.024  1.00  0.00     0.194 C 
ATOM     13  O   UNL     1      40.929  14.799 212.642  1.00  0.00    -0.289 OA
ATOM     14  C   UNL     1      42.253  15.436 210.226  1.00  0.00     0.059 A 
ATOM     15  C   UNL     1      42.908  15.819 209.056  1.00  0.00     0.120 A 
ATOM     16  C   UNL     1      42.561  17.017 208.426  1.00  0.00     0.093 A 
ATOM     17  C   UNL     1      41.566  17.842 208.958  1.00  0.00     0.131 A 
ENDROOT
BRANCH   6  18
ATOM     18  O   UNL     1      37.423  19.677 211.679  1.00  0.00    -0.507 OA
ATOM     19  H   UNL     1      37.766  20.607 211.877  1.00  0.00     0.293 HD
ENDBRANCH   6  18
BRANCH  17  20
ATOM     20  O   UNL     1      41.209  18.976 208.225  1.00  0.00    -0.507 OA
ATOM     21  H   UNL     1      41.674  19.261 207.374  1.00  0.00     0.293 HD
ENDBRANCH  17  20
BRANCH  15  22
ATOM     22  O   UNL     1      43.896  14.995 208.520  1.00  0.00    -0.508 OA
ATOM     23  H   UNL     1      44.842  14.997 208.883  1.00  0.00     0.293 HD
ENDBRANCH  15  22
TORSDOF 3
ENDMDL
MODEL 3
REMARK VINA RESULT:    -5.153     11.616     13.993
REMARK INTER + INTRA:          -5.605
REMARK INTER:                  -5.605
REMARK INTRA:                   0.000
REMARK UNBOUND:                 0.000
REMARK SMILES Cc1cc(O)c2c(c1)C(=O)c1cc(O)cc(O)c1C2=O
REMARK SMILES IDX 1 1 2 2 8 3 7 4 6 5 4 6 3 7 19 8 20 9 18 10 11 11 9 12 10 13
REMARK SMILES IDX 12 14 13 15 15 16 16 17 5 18 17 20 14 22
REMARK H PARENT 5 19 17 21 14 23
REMARK Flexibility Score: inf
ROOT
ATOM      1  C   UNL     1      46.676  15.917 227.278  1.00  0.00     0.044 C 
ATOM      2  C   UNL     1      47.251  16.561 226.051  1.00  0.00    -0.047 A 
ATOM      3  C   UNL     1      48.513  16.181 225.582  1.00  0.00     0.016 A 
ATOM      4  C   UNL     1      49.049  16.759 224.418  1.00  0.00     0.038 A 
ATOM      5  C   UNL     1      48.308  17.731 223.711  1.00  0.00     0.076 A 
ATOM      6  C   UNL     1      46.995  18.049 224.143  1.00  0.00     0.127 A 
ATOM      7  C   UNL     1      46.492  17.477 225.315  1.00  0.00     0.050 A 
ATOM      8  C   UNL     1      48.965  18.425 222.574  1.00  0.00     0.201 C 
ATOM      9  O   UNL     1      48.641  19.609 222.289  1.00  0.00    -0.288 OA
ATOM     10  C   UNL     1      50.126  17.793 221.896  1.00  0.00     0.076 A 
ATOM     11  C   UNL     1      50.864  16.818 222.605  1.00  0.00     0.041 A 
ATOM     12  C   UNL     1      50.383  16.345 223.925  1.00  0.00     0.194 C 
ATOM     13  O   UNL     1      51.101  15.571 224.617  1.00  0.00    -0.289 OA
ATOM     14  C   UNL     1      52.047  16.298 222.054  1.00  0.00     0.059 A 
ATOM     15  C   UNL     1      52.494  16.725 220.803  1.00  0.00     0.120 A 
ATOM     16  C   UNL     1      51.747  17.658 220.080  1.00  0.00     0.093 A 
ATOM     17  C   UNL     1      50.556  18.176 220.598  1.00  0.00     0.131 A 
ENDROOT
BRANCH   6  18
ATOM     18  O   UNL     1      46.147  18.895 223.423  1.00  0.00    -0.507 OA
ATOM     19  H   UNL     1      46.359  19.863 223.227  1.00  0.00     0.293 HD
ENDBRANCH   6  18
BRANCH  17  20
ATOM     20  O   UNL     1      49.817  19.034 219.780  1.00  0.00    -0.507 OA
ATOM     21  H   UNL     1      50.231  19.761 219.213  1.00  0.00     0.293 HD
ENDBRANCH  17  20
BRANCH  15  22
ATOM     22  O   UNL     1      53.677  16.205 220.282  1.00  0.00    -0.508 OA
ATOM     23  H   UNL     1      54.086  16.570 219.430  1.00  0.00     0.293 HD
ENDBRANCH  15  22
TORSDOF 3
ENDMDL
MODEL 4
REMARK VINA RESULT:    -5.075     11.579     12.933
REMARK INTER + INTRA:          -5.520
REMARK INTER:                  -5.520
REMARK INTRA:                   0.000
REMARK UNBOUND:                 0.000
REMARK SMILES Cc1cc(O)c2c(c1)C(=O)c1cc(O)cc(O)c1C2=O
REMARK SMILES IDX 1 1 2 2 8 3 7 4 6 5 4 6 3 7 19 8 20 9 18 10 11 11 9 12 10 13
REMARK SMILES IDX 12 14 13 15 15 16 16 17 5 18 17 20 14 22
REMARK H PARENT 5 19 17 21 14 23
REMARK Flexibility Score: inf
ROOT
ATOM      1  C   UNL     1      53.884  16.947 220.620  1.00  0.00     0.044 C 
ATOM      2  C   UNL     1      52.463  17.148 221.056  1.00  0.00    -0.047 A 
ATOM      3  C   UNL     1      52.033  16.671 222.298  1.00  0.00     0.016 A 
ATOM      4  C   UNL     1      50.710  16.879 222.727  1.00  0.00     0.038 A 
ATOM      5  C   UNL     1      49.804  17.576 221.898  1.00  0.00     0.076 A 
ATOM      6  C   UNL     1      50.269  18.130 220.678  1.00  0.00     0.127 A 
ATOM      7  C   UNL     1      51.583  17.893 220.263  1.00  0.00     0.050 A 
ATOM      8  C   UNL     1      48.380  17.647 222.316  1.00  0.00     0.201 C 
ATOM      9  O   UNL     1      47.473  17.715 221.445  1.00  0.00    -0.288 OA
ATOM     10  C   UNL     1      48.021  17.450 223.745  1.00  0.00     0.076 A 
ATOM     11  C   UNL     1      48.932  16.754 224.573  1.00  0.00     0.041 A 
ATOM     12  C   UNL     1      50.266  16.377 224.048  1.00  0.00     0.194 C 
ATOM     13  O   UNL     1      51.031  15.647 224.737  1.00  0.00    -0.289 OA
ATOM     14  C   UNL     1      48.570  16.427 225.890  1.00  0.00     0.059 A 
ATOM     15  C   UNL     1      47.324  16.797 226.396  1.00  0.00     0.120 A 
ATOM     16  C   UNL     1      46.436  17.521 225.595  1.00  0.00     0.093 A 
ATOM     17  C   UNL     1      46.780  17.875 224.287  1.00  0.00     0.131 A 
ENDROOT
BRANCH   6  18
ATOM     18  O   UNL     1      49.475  18.948 219.869  1.00  0.00    -0.507 OA
ATOM     19  H   UNL     1      48.712  19.509 220.221  1.00  0.00     0.293 HD
ENDBRANCH   6  18
BRANCH  17  20
ATOM     20  O   UNL     1      45.881  18.676 223.579  1.00  0.00    -0.507 OA
ATOM     21  H   UNL     1      45.722  19.653 223.783  1.00  0.00     0.293 HD
ENDBRANCH  17  20
BRANCH  15  22
ATOM     22  O   UNL     1      46.982  16.451 227.702  1.00  0.00    -0.508 OA
ATOM     23  H   UNL     1      46.465  17.085 228.299  1.00  0.00     0.293 HD
ENDBRANCH  15  22
TORSDOF 3
ENDMDL
MODEL 5
REMARK VINA RESULT:    -5.058      8.396     10.842
REMARK INTER + INTRA:          -5.501
REMARK INTER:                  -5.501
REMARK INTRA:                   0.000
REMARK UNBOUND:                 0.000
REMARK SMILES Cc1cc(O)c2c(c1)C(=O)c1cc(O)cc(O)c1C2=O
REMARK SMILES IDX 1 1 2 2 8 3 7 4 6 5 4 6 3 7 19 8 20 9 18 10 11 11 9 12 10 13
REMARK SMILES IDX 12 14 13 15 15 16 16 17 5 18 17 20 14 22
REMARK H PARENT 5 19 17 21 14 23
REMARK Flexibility Score: inf
ROOT
ATOM      1  C   UNL     1      46.650  17.349 227.478  1.00  0.00     0.044 C 
ATOM      2  C   UNL     1      46.032  17.849 226.206  1.00  0.00    -0.047 A 
ATOM      3  C   UNL     1      46.740  17.773 225.002  1.00  0.00     0.016 A 
ATOM      4  C   UNL     1      46.160  18.214 223.800  1.00  0.00     0.038 A 
ATOM      5  C   UNL     1      44.849  18.738 223.804  1.00  0.00     0.076 A 
ATOM      6  C   UNL     1      44.106  18.735 225.012  1.00  0.00     0.127 A 
ATOM      7  C   UNL     1      44.712  18.310 226.199  1.00  0.00     0.050 A 
ATOM      8  C   UNL     1      44.325  19.330 222.546  1.00  0.00     0.201 C 
ATOM      9  O   UNL     1      43.487  20.269 222.595  1.00  0.00    -0.288 OA
ATOM     10  C   UNL     1      44.925  18.943 221.243  1.00  0.00     0.076 A 
ATOM     11  C   UNL     1      46.237  18.415 221.243  1.00  0.00     0.041 A 
ATOM     12  C   UNL     1      46.914  18.121 222.528  1.00  0.00     0.194 C 
ATOM     13  O   UNL     1      48.127  17.771 222.537  1.00  0.00    -0.289 OA
ATOM     14  C   UNL     1      46.890  18.166 220.024  1.00  0.00     0.059 A 
ATOM     15  C   UNL     1      46.251  18.421 218.812  1.00  0.00     0.120 A 
ATOM     16  C   UNL     1      44.939  18.904 218.806  1.00  0.00     0.093 A 
ATOM     17  C   UNL     1      44.260  19.141 220.005  1.00  0.00     0.131 A 
ENDROOT
BRANCH   6  18
ATOM     18  O   UNL     1      42.760  19.107 225.073  1.00  0.00    -0.507 OA
ATOM     19  H   UNL     1      42.220  19.382 224.264  1.00  0.00     0.293 HD
ENDBRANCH   6  18
BRANCH  17  20
ATOM     20  O   UNL     1      42.923  19.537 219.921  1.00  0.00    -0.507 OA
ATOM     21  H   UNL     1      42.618  20.498 219.996  1.00  0.00     0.293 HD
ENDBRANCH  17  20
BRANCH  15  22
ATOM     22  O   UNL     1      46.923  18.178 217.616  1.00  0.00    -0.508 OA
ATOM     23  H   UNL     1      46.422  17.983 216.757  1.00  0.00     0.293 HD
ENDBRANCH  15  22
TORSDOF 3
ENDMDL
MODEL 6
REMARK VINA RESULT:    -5.015      9.304     11.020
REMARK INTER + INTRA:          -5.454
REMARK INTER:                  -5.454
REMARK INTRA:                   0.000
REMARK UNBOUND:                 0.000
REMARK SMILES Cc1cc(O)c2c(c1)C(=O)c1cc(O)cc(O)c1C2=O
REMARK SMILES IDX 1 1 2 2 8 3 7 4 6 5 4 6 3 7 19 8 20 9 18 10 11 11 9 12 10 13
REMARK SMILES IDX 12 14 13 15 15 16 16 17 5 18 17 20 14 22
REMARK H PARENT 5 19 17 21 14 23
REMARK Flexibility Score: inf
ROOT
ATOM      1  C   UNL     1      42.678  20.222 219.824  1.00  0.00     0.044 C 
ATOM      2  C   UNL     1      44.010  19.652 220.212  1.00  0.00    -0.047 A 
ATOM      3  C   UNL     1      44.309  19.413 221.557  1.00  0.00     0.016 A 
ATOM      4  C   UNL     1      45.544  18.854 221.929  1.00  0.00     0.038 A 
ATOM      5  C   UNL     1      46.494  18.528 220.937  1.00  0.00     0.076 A 
ATOM      6  C   UNL     1      46.152  18.694 219.570  1.00  0.00     0.127 A 
ATOM      7  C   UNL     1      44.926  19.271 219.226  1.00  0.00     0.050 A 
ATOM      8  C   UNL     1      47.841  18.079 221.374  1.00  0.00     0.201 C 
ATOM      9  O   UNL     1      48.847  18.318 220.655  1.00  0.00    -0.288 OA
ATOM     10  C   UNL     1      48.024  17.517 222.738  1.00  0.00     0.076 A 
ATOM     11  C   UNL     1      47.069  17.843 223.728  1.00  0.00     0.041 A 
ATOM     12  C   UNL     1      45.849  18.597 223.356  1.00  0.00     0.194 C 
ATOM     13  O   UNL     1      45.058  19.000 224.253  1.00  0.00    -0.289 OA
ATOM     14  C   UNL     1      47.279  17.447 225.059  1.00  0.00     0.059 A 
ATOM     15  C   UNL     1      48.416  16.720 225.412  1.00  0.00     0.120 A 
ATOM     16  C   UNL     1      49.343  16.360 224.430  1.00  0.00     0.093 A 
ATOM     17  C   UNL     1      49.147  16.725 223.094  1.00  0.00     0.131 A 
ENDROOT
BRANCH   6  18
ATOM     18  O   UNL     1      46.979  18.268 218.527  1.00  0.00    -0.507 OA
ATOM     19  H   UNL     1      47.977  18.425 218.506  1.00  0.00     0.293 HD
ENDBRANCH   6  18
BRANCH  17  20
ATOM     20  O   UNL     1      50.067  16.252 222.155  1.00  0.00    -0.507 OA
ATOM     21  H   UNL     1      50.340  16.770 221.331  1.00  0.00     0.293 HD
ENDBRANCH  17  20
BRANCH  15  22
ATOM     22  O   UNL     1      48.610  16.349 226.741  1.00  0.00    -0.508 OA
ATOM     23  H   UNL     1      47.979  16.653 227.473  1.00  0.00     0.293 HD
ENDBRANCH  15  22
TORSDOF 3
ENDMDL
MODEL 7
REMARK VINA RESULT:    -4.998      1.589      6.140
REMARK INTER + INTRA:          -5.436
REMARK INTER:                  -5.436
REMARK INTRA:                   0.000
REMARK UNBOUND:                 0.000
REMARK SMILES Cc1cc(O)c2c(c1)C(=O)c1cc(O)cc(O)c1C2=O
REMARK SMILES IDX 1 1 2 2 8 3 7 4 6 5 4 6 3 7 19 8 20 9 18 10 11 11 9 12 10 13
REMARK SMILES IDX 12 14 13 15 15 16 16 17 5 18 17 20 14 22
REMARK H PARENT 5 19 17 21 14 23
REMARK Flexibility Score: inf
ROOT
ATOM      1  C   UNL     1      35.447  19.361 218.990  1.00  0.00     0.044 C 
ATOM      2  C   UNL     1      36.361  18.729 217.981  1.00  0.00    -0.047 A 
ATOM      3  C   UNL     1      37.523  19.391 217.572  1.00  0.00     0.016 A 
ATOM      4  C   UNL     1      38.399  18.795 216.647  1.00  0.00     0.038 A 
ATOM      5  C   UNL     1      38.106  17.516 216.126  1.00  0.00     0.076 A 
ATOM      6  C   UNL     1      36.971  16.816 216.608  1.00  0.00     0.127 A 
ATOM      7  C   UNL     1      36.104  17.437 217.512  1.00  0.00     0.050 A 
ATOM      8  C   UNL     1      38.973  16.983 215.043  1.00  0.00     0.201 C 
ATOM      9  O   UNL     1      38.492  16.201 214.182  1.00  0.00    -0.288 OA
ATOM     10  C   UNL     1      40.349  17.517 214.871  1.00  0.00     0.076 A 
ATOM     11  C   UNL     1      40.640  18.797 215.397  1.00  0.00     0.041 A 
ATOM     12  C   UNL     1      39.632  19.500 216.226  1.00  0.00     0.194 C 
ATOM     13  O   UNL     1      39.836  20.691 216.591  1.00  0.00    -0.289 OA
ATOM     14  C   UNL     1      41.884  19.394 215.137  1.00  0.00     0.059 A 
ATOM     15  C   UNL     1      42.844  18.729 214.374  1.00  0.00     0.120 A 
ATOM     16  C   UNL     1      42.578  17.446 213.886  1.00  0.00     0.093 A 
ATOM     17  C   UNL     1      41.354  16.822 214.148  1.00  0.00     0.131 A 
ENDROOT
BRANCH   6  18
ATOM     18  O   UNL     1      36.688  15.495 216.247  1.00  0.00    -0.507 OA
ATOM     19  H   UNL     1      37.140  14.694 216.665  1.00  0.00     0.293 HD
ENDBRANCH   6  18
BRANCH  17  20
ATOM     20  O   UNL     1      41.194  15.507 213.706  1.00  0.00    -0.507 OA
ATOM     21  H   UNL     1      40.824  15.264 212.797  1.00  0.00     0.293 HD
ENDBRANCH  17  20
BRANCH  15  22
ATOM     22  O   UNL     1      44.067  19.346 214.118  1.00  0.00    -0.508 OA
ATOM     23  H   UNL     1      44.193  19.962 213.323  1.00  0.00     0.293 HD
ENDBRANCH  15  22
TORSDOF 3
ENDMDL
MODEL 8
REMARK VINA RESULT:    -4.994      1.827      2.757
REMARK INTER + INTRA:          -5.432
REMARK INTER:                  -5.432
REMARK INTRA:                   0.000
REMARK UNBOUND:                 0.000
REMARK SMILES Cc1cc(O)c2c(c1)C(=O)c1cc(O)cc(O)c1C2=O
REMARK SMILES IDX 1 1 2 2 8 3 7 4 6 5 4 6 3 7 19 8 20 9 18 10 11 11 9 12 10 13
REMARK SMILES IDX 12 14 13 15 15 16 16 17 5 18 17 20 14 22
REMARK H PARENT 5 19 17 21 14 23
REMARK Flexibility Score: inf
ROOT
ATOM      1  C   UNL     1      42.763  15.645 209.308  1.00  0.00     0.044 C 
ATOM      2  C   UNL     1      42.246  16.430 210.477  1.00  0.00    -0.047 A 
ATOM      3  C   UNL     1      41.084  16.023 211.141  1.00  0.00     0.016 A 
ATOM      4  C   UNL     1      40.607  16.736 212.254  1.00  0.00     0.038 A 
ATOM      5  C   UNL     1      41.305  17.875 212.710  1.00  0.00     0.076 A 
ATOM      6  C   UNL     1      42.527  18.234 212.086  1.00  0.00     0.127 A 
ATOM      7  C   UNL     1      42.971  17.521 210.968  1.00  0.00     0.050 A 
ATOM      8  C   UNL     1      40.693  18.688 213.793  1.00  0.00     0.201 C 
ATOM      9  O   UNL     1      40.914  19.927 213.849  1.00  0.00    -0.288 OA
ATOM     10  C   UNL     1      39.679  18.077 214.690  1.00  0.00     0.076 A 
ATOM     11  C   UNL     1      38.984  16.934 214.232  1.00  0.00     0.041 A 
ATOM     12  C   UNL     1      39.380  16.292 212.956  1.00  0.00     0.194 C 
ATOM     13  O   UNL     1      38.685  15.352 212.480  1.00  0.00    -0.289 OA
ATOM     14  C   UNL     1      37.924  16.409 214.990  1.00  0.00     0.059 A 
ATOM     15  C   UNL     1      37.559  16.997 216.201  1.00  0.00     0.120 A 
ATOM     16  C   UNL     1      38.270  18.102 216.679  1.00  0.00     0.093 A 
ATOM     17  C   UNL     1      39.341  18.631 215.953  1.00  0.00     0.131 A 
ENDROOT
BRANCH   6  18
ATOM     18  O   UNL     1      43.347  19.261 212.562  1.00  0.00    -0.507 OA
ATOM     19  H   UNL     1      44.042  19.131 213.284  1.00  0.00     0.293 HD
ENDBRANCH   6  18
BRANCH  17  20
ATOM     20  O   UNL     1      40.060  19.677 216.535  1.00  0.00    -0.507 OA
ATOM     21  H   UNL     1      40.587  20.357 216.004  1.00  0.00     0.293 HD
ENDBRANCH  17  20
BRANCH  15  22
ATOM     22  O   UNL     1      36.497  16.467 216.930  1.00  0.00    -0.508 OA
ATOM     23  H   UNL     1      35.938  17.044 217.548  1.00  0.00     0.293 HD
ENDBRANCH  15  22
TORSDOF 3
ENDMDL
MODEL 9
REMARK VINA RESULT:    -4.976      3.261      4.454
REMARK INTER + INTRA:          -5.412
REMARK INTER:                  -5.412
REMARK INTRA:                   0.000
REMARK UNBOUND:                 0.000
REMARK SMILES Cc1cc(O)c2c(c1)C(=O)c1cc(O)cc(O)c1C2=O
REMARK SMILES IDX 1 1 2 2 8 3 7 4 6 5 4 6 3 7 19 8 20 9 18 10 11 11 9 12 10 13
REMARK SMILES IDX 12 14 13 15 15 16 16 17 5 18 17 20 14 22
REMARK H PARENT 5 19 17 21 14 23
REMARK Flexibility Score: inf
ROOT
ATOM      1  C   UNL     1      42.713  16.796 208.323  1.00  0.00     0.044 C 
ATOM      2  C   UNL     1      41.908  16.671 209.583  1.00  0.00    -0.047 A 
ATOM      3  C   UNL     1      40.862  17.562 209.843  1.00  0.00     0.016 A 
ATOM      4  C   UNL     1      40.085  17.435 211.007  1.00  0.00     0.038 A 
ATOM      5  C   UNL     1      40.359  16.399 211.926  1.00  0.00     0.076 A 
ATOM      6  C   UNL     1      41.365  15.448 211.616  1.00  0.00     0.127 A 
ATOM      7  C   UNL     1      42.139  15.607 210.462  1.00  0.00     0.050 A 
ATOM      8  C   UNL     1      39.617  16.386 213.212  1.00  0.00     0.201 C 
ATOM      9  O   UNL     1      40.159  15.909 214.245  1.00  0.00    -0.288 OA
ATOM     10  C   UNL     1      38.318  17.100 213.322  1.00  0.00     0.076 A 
ATOM     11  C   UNL     1      38.045  18.135 212.398  1.00  0.00     0.041 A 
ATOM     12  C   UNL     1      38.973  18.380 211.269  1.00  0.00     0.194 C 
ATOM     13  O   UNL     1      38.803  19.379 210.518  1.00  0.00    -0.289 OA
ATOM     14  C   UNL     1      36.893  18.923 212.552  1.00  0.00     0.059 A 
ATOM     15  C   UNL     1      36.005  18.685 213.601  1.00  0.00     0.120 A 
ATOM     16  C   UNL     1      36.249  17.636 214.493  1.00  0.00     0.093 A 
ATOM     17  C   UNL     1      37.378  16.825 214.350  1.00  0.00     0.131 A 
ENDROOT
BRANCH   6  18
ATOM     18  O   UNL     1      41.604  14.318 212.402  1.00  0.00    -0.507 OA
ATOM     19  H   UNL     1      40.984  14.008 213.137  1.00  0.00     0.293 HD
ENDBRANCH   6  18
BRANCH  17  20
ATOM     20  O   UNL     1      37.508  15.741 215.222  1.00  0.00    -0.507 OA
ATOM     21  H   UNL     1      36.740  15.358 215.756  1.00  0.00     0.293 HD
ENDBRANCH  17  20
BRANCH  15  22
ATOM     22  O   UNL     1      34.875  19.488 213.741  1.00  0.00    -0.508 OA
ATOM     23  H   UNL     1      34.010  19.123 214.123  1.00  0.00     0.293 HD
ENDBRANCH  15  22
TORSDOF 3
ENDMDL
