MODEL 1
REMARK VINA RESULT:    -3.533      0.000      0.000
REMARK INTER + INTRA:          -4.508
REMARK INTER:                  -4.360
REMARK INTRA:                  -0.148
REMARK UNBOUND:                -0.148
REMARK SMILES CCCCCC(=O)[O-]
REMARK SMILES IDX 4 1 5 2 6 3 7 4 8 5 3 6 2 7 1 8
REMARK H PARENT
REMARK Flexibility Score: inf
ROOT
ATOM      1  C   UNL     1      12.497  14.393  14.893  1.00  0.00     0.006 C 
ENDROOT
BRANCH   1   2
ATOM      2  C   UNL     1      13.255  15.546  14.216  1.00  0.00     0.053 C 
BRANCH   2   3
ATOM      3  C   UNL     1      13.273  15.406  12.725  1.00  0.00     0.041 C 
ATOM      4  O   UNL     1      13.625  16.375  12.002  1.00  0.00    -0.550 OA
ATOM      5  O   UNL     1      12.872  14.215  12.133  1.00  0.00    -0.550 OA
ENDBRANCH   2   3
ENDBRANCH   1   2
BRANCH   1   6
ATOM      6  C   UNL     1      13.407  13.318  15.515  1.00  0.00     0.000 C 
BRANCH   6   7
ATOM      7  C   UNL     1      12.875  11.893  15.303  1.00  0.00    -0.003 C 
ATOM      8  C   UNL     1      11.750  11.875  14.271  1.00  0.00     0.004 C 
ENDBRANCH   6   7
ENDBRANCH   1   6
TORSDOF 4
ENDMDL
MODEL 2
REMARK VINA RESULT:    -3.244      1.250      1.972
REMARK INTER + INTRA:          -4.151
REMARK INTER:                  -4.080
REMARK INTRA:                  -0.072
REMARK UNBOUND:                -0.148
REMARK SMILES CCCCCC(=O)[O-]
REMARK SMILES IDX 4 1 5 2 6 3 7 4 8 5 3 6 2 7 1 8
REMARK H PARENT
REMARK Flexibility Score: inf
ROOT
ATOM      1  C   UNL     1      13.089  13.109  12.916  1.00  0.00     0.006 C 
ENDROOT
BRANCH   1   2
ATOM      2  C   UNL     1      12.551  14.323  12.141  1.00  0.00     0.053 C 
BRANCH   2   3
ATOM      3  C   UNL     1      13.154  15.607  12.623  1.00  0.00     0.041 C 
ATOM      4  O   UNL     1      13.595  16.449  11.797  1.00  0.00    -0.550 OA
ATOM      5  O   UNL     1      13.256  15.860  13.985  1.00  0.00    -0.550 OA
ENDBRANCH   2   3
ENDBRANCH   1   2
BRANCH   1   6
ATOM      6  C   UNL     1      12.021  12.355  13.729  1.00  0.00     0.000 C 
BRANCH   6   7
ATOM      7  C   UNL     1      12.485  12.024  15.156  1.00  0.00    -0.003 C 
ATOM      8  C   UNL     1      13.323  13.158  15.738  1.00  0.00     0.004 C 
ENDBRANCH   6   7
ENDBRANCH   1   6
TORSDOF 4
ENDMDL
MODEL 3
REMARK VINA RESULT:    -3.161      2.206      3.888
REMARK INTER + INTRA:          -4.048
REMARK INTER:                  -3.930
REMARK INTRA:                  -0.118
REMARK UNBOUND:                -0.148
REMARK SMILES CCCCCC(=O)[O-]
REMARK SMILES IDX 4 1 5 2 6 3 7 4 8 5 3 6 2 7 1 8
REMARK H PARENT
REMARK Flexibility Score: inf
ROOT
ATOM      1  C   UNL     1      13.398  13.932  15.170  1.00  0.00     0.006 C 
ENDROOT
BRANCH   1   2
ATOM      2  C   UNL     1      12.130  13.092  15.392  1.00  0.00     0.053 C 
BRANCH   2   3
ATOM      3  C   UNL     1      12.121  11.857  14.545  1.00  0.00     0.041 C 
ATOM      4  O   UNL     1      11.554  11.864  13.421  1.00  0.00    -0.550 OA
ATOM      5  O   UNL     1      12.713  10.690  15.011  1.00  0.00    -0.550 OA
ENDBRANCH   2   3
ENDBRANCH   1   2
BRANCH   1   6
ATOM      6  C   UNL     1      13.179  15.192  14.312  1.00  0.00     0.000 C 
BRANCH   6   7
ATOM      7  C   UNL     1      13.224  14.899  12.805  1.00  0.00    -0.003 C 
ATOM      8  C   UNL     1      13.278  16.192  11.995  1.00  0.00     0.004 C 
ENDBRANCH   6   7
ENDBRANCH   1   6
TORSDOF 4
ENDMDL
MODEL 4
REMARK VINA RESULT:    -3.023      1.441      2.899
REMARK INTER + INTRA:          -3.879
REMARK INTER:                  -3.797
REMARK INTRA:                  -0.081
REMARK UNBOUND:                -0.148
REMARK SMILES CCCCCC(=O)[O-]
REMARK SMILES IDX 4 1 5 2 6 3 7 4 8 5 3 6 2 7 1 8
REMARK H PARENT
REMARK Flexibility Score: inf
ROOT
ATOM      1  C   UNL     1      11.724  12.486  14.471  1.00  0.00     0.006 C 
ENDROOT
BRANCH   1   2
ATOM      2  C   UNL     1      12.057  11.760  13.158  1.00  0.00     0.053 C 
BRANCH   2   3
ATOM      3  C   UNL     1      12.160  12.707  12.003  1.00  0.00     0.041 C 
ATOM      4  O   UNL     1      11.704  12.384  10.875  1.00  0.00    -0.550 OA
ATOM      5  O   UNL     1      12.788  13.937  12.166  1.00  0.00    -0.550 OA
ENDBRANCH   2   3
ENDBRANCH   1   2
BRANCH   1   6
ATOM      6  C   UNL     1      12.767  12.287  15.586  1.00  0.00     0.000 C 
BRANCH   6   7
ATOM      7  C   UNL     1      13.661  13.519  15.790  1.00  0.00    -0.003 C 
ATOM      8  C   UNL     1      12.997  14.777  15.238  1.00  0.00     0.004 C 
ENDBRANCH   6   7
ENDBRANCH   1   6
TORSDOF 4
ENDMDL
MODEL 5
REMARK VINA RESULT:    -2.727      2.377      4.292
REMARK INTER + INTRA:          -3.513
REMARK INTER:                  -3.353
REMARK INTRA:                  -0.160
REMARK UNBOUND:                -0.148
REMARK SMILES CCCCCC(=O)[O-]
REMARK SMILES IDX 4 1 5 2 6 3 7 4 8 5 3 6 2 7 1 8
REMARK H PARENT
REMARK Flexibility Score: inf
ROOT
ATOM      1  C   UNL     1      12.808  13.028  12.454  1.00  0.00     0.006 C 
ENDROOT
BRANCH   1   2
ATOM      2  C   UNL     1      11.892  12.303  13.453  1.00  0.00     0.053 C 
BRANCH   2   3
ATOM      3  C   UNL     1      12.539  12.143  14.794  1.00  0.00     0.041 C 
ATOM      4  O   UNL     1      12.760  10.994  15.259  1.00  0.00    -0.550 OA
ATOM      5  O   UNL     1      12.870  13.265  15.544  1.00  0.00    -0.550 OA
ENDBRANCH   2   3
ENDBRANCH   1   2
BRANCH   1   6
ATOM      6  C   UNL     1      12.278  14.397  11.989  1.00  0.00     0.000 C 
BRANCH   6   7
ATOM      7  C   UNL     1      13.300  15.527  12.183  1.00  0.00    -0.003 C 
ATOM      8  C   UNL     1      13.272  16.053  13.615  1.00  0.00     0.004 C 
ENDBRANCH   6   7
ENDBRANCH   1   6
TORSDOF 4
ENDMDL
MODEL 6
REMARK VINA RESULT:    -2.533      8.901     10.529
REMARK INTER + INTRA:          -3.273
REMARK INTER:                  -3.204
REMARK INTRA:                  -0.069
REMARK UNBOUND:                -0.148
REMARK SMILES CCCCCC(=O)[O-]
REMARK SMILES IDX 4 1 5 2 6 3 7 4 8 5 3 6 2 7 1 8
REMARK H PARENT
REMARK Flexibility Score: inf
ROOT
ATOM      1  C   UNL     1      12.642   4.790  19.121  1.00  0.00     0.006 C 
ENDROOT
BRANCH   1   2
ATOM      2  C   UNL     1      12.600   6.095  18.310  1.00  0.00     0.053 C 
BRANCH   2   3
ATOM      3  C   UNL     1      13.016   5.884  16.887  1.00  0.00     0.041 C 
ATOM      4  O   UNL     1      13.015   6.848  16.077  1.00  0.00    -0.550 OA
ATOM      5  O   UNL     1      13.376   4.616  16.448  1.00  0.00    -0.550 OA
ENDBRANCH   2   3
ENDBRANCH   1   2
BRANCH   1   6
ATOM      6  C   UNL     1      11.348   4.488  19.899  1.00  0.00     0.000 C 
BRANCH   6   7
ATOM      7  C   UNL     1      11.364   3.102  20.562  1.00  0.00    -0.003 C 
ATOM      8  C   UNL     1      12.042   3.155  21.928  1.00  0.00     0.004 C 
ENDBRANCH   6   7
ENDBRANCH   1   6
TORSDOF 4
ENDMDL
MODEL 7
REMARK VINA RESULT:    -2.210      7.599      9.186
REMARK INTER + INTRA:          -2.875
REMARK INTER:                  -2.828
REMARK INTRA:                  -0.046
REMARK UNBOUND:                -0.148
REMARK SMILES CCCCCC(=O)[O-]
REMARK SMILES IDX 4 1 5 2 6 3 7 4 8 5 3 6 2 7 1 8
REMARK H PARENT
REMARK Flexibility Score: inf
ROOT
ATOM      1  C   UNL     1      12.903   5.342  17.424  1.00  0.00     0.006 C 
ENDROOT
BRANCH   1   2
ATOM      2  C   UNL     1      12.521   6.679  16.770  1.00  0.00     0.053 C 
BRANCH   2   3
ATOM      3  C   UNL     1      13.423   7.021  15.626  1.00  0.00     0.041 C 
ATOM      4  O   UNL     1      13.504   8.209  15.215  1.00  0.00    -0.550 OA
ATOM      5  O   UNL     1      14.153   6.023  14.992  1.00  0.00    -0.550 OA
ENDBRANCH   2   3
ENDBRANCH   1   2
BRANCH   1   6
ATOM      6  C   UNL     1      12.465   5.210  18.895  1.00  0.00     0.000 C 
BRANCH   6   7
ATOM      7  C   UNL     1      12.169   3.758  19.299  1.00  0.00    -0.003 C 
ATOM      8  C   UNL     1      11.442   3.698  20.639  1.00  0.00     0.004 C 
ENDBRANCH   6   7
ENDBRANCH   1   6
TORSDOF 4
ENDMDL
MODEL 8
REMARK VINA RESULT:    -2.000     17.347     18.542
REMARK INTER + INTRA:          -2.616
REMARK INTER:                  -2.483
REMARK INTRA:                  -0.133
REMARK UNBOUND:                -0.148
REMARK SMILES CCCCCC(=O)[O-]
REMARK SMILES IDX 4 1 5 2 6 3 7 4 8 5 3 6 2 7 1 8
REMARK H PARENT
REMARK Flexibility Score: inf
ROOT
ATOM      1  C   UNL     1      23.138   0.248  14.376  1.00  0.00     0.006 C 
ENDROOT
BRANCH   1   2
ATOM      2  C   UNL     1      24.125  -0.654  15.134  1.00  0.00     0.053 C 
BRANCH   2   3
ATOM      3  C   UNL     1      23.991  -2.091  14.735  1.00  0.00     0.041 C 
ATOM      4  O   UNL     1      24.041  -2.419  13.521  1.00  0.00    -0.550 OA
ATOM      5  O   UNL     1      23.780  -3.065  15.704  1.00  0.00    -0.550 OA
ENDBRANCH   2   3
ENDBRANCH   1   2
BRANCH   1   6
ATOM      6  C   UNL     1      23.738   0.942  13.139  1.00  0.00     0.000 C 
BRANCH   6   7
ATOM      7  C   UNL     1      23.022   0.557  11.836  1.00  0.00    -0.003 C 
ATOM      8  C   UNL     1      21.507   0.626  12.000  1.00  0.00     0.004 C 
ENDBRANCH   6   7
ENDBRANCH   1   6
TORSDOF 4
ENDMDL
