MODEL 1
REMARK VINA RESULT:    -5.513      0.000      0.000
REMARK INTER + INTRA:          -6.961
REMARK INTER:                  -6.641
REMARK INTRA:                  -0.320
REMARK UNBOUND:                -0.320
REMARK SMILES O=c1c(O)c(-c2ccc(O)c(O)c2)oc2cc(O)cc(O)c12
REMARK SMILES IDX 5 1 3 2 2 3 1 4 22 5 20 6 19 7 17 8 16 9 15 10 14 11 6 12
REMARK SMILES IDX 7 13 8 14 9 15 13 16 11 17 10 18 12 20 4 22 21 24 18 26
REMARK H PARENT 10 19 12 21 4 23 21 25 18 27
REMARK Flexibility Score: inf
ROOT
ATOM      1  C   UNL     1     -17.301  17.147 -15.968  1.00  0.00     0.180 A 
ATOM      2  C   UNL     1     -17.589  17.001 -17.335  1.00  0.00     0.208 A 
ATOM      3  C   UNL     1     -16.709  17.551 -18.279  1.00  0.00     0.238 A 
ATOM      4  O   UNL     1     -16.932  17.351 -19.501  1.00  0.00    -0.285 OA
ATOM      5  C   UNL     1     -15.582  18.291 -17.846  1.00  0.00     0.111 A 
ATOM      6  C   UNL     1     -14.646  18.932 -18.714  1.00  0.00     0.134 A 
ATOM      7  C   UNL     1     -13.511  19.547 -18.173  1.00  0.00     0.093 A 
ATOM      8  C   UNL     1     -13.307  19.600 -16.795  1.00  0.00     0.123 A 
ATOM      9  C   UNL     1     -14.242  19.025 -15.933  1.00  0.00     0.094 A 
ATOM     10  C   UNL     1     -15.366  18.371 -16.444  1.00  0.00     0.146 A 
ATOM     11  O   UNL     1     -16.219  17.818 -15.591  1.00  0.00    -0.452 OA
ENDROOT
BRANCH   1  12
ATOM     12  C   UNL     1     -18.174  16.582 -14.913  1.00  0.00     0.025 A 
ATOM     13  C   UNL     1     -19.221  17.332 -14.349  1.00  0.00     0.016 A 
ATOM     14  C   UNL     1     -20.046  16.769 -13.371  1.00  0.00     0.051 A 
ATOM     15  C   UNL     1     -19.846  15.446 -12.954  1.00  0.00     0.157 A 
ATOM     16  C   UNL     1     -17.992  15.250 -14.506  1.00  0.00     0.062 A 
ATOM     17  C   UNL     1     -18.819  14.685 -13.525  1.00  0.00     0.158 A 
BRANCH  15  18
ATOM     18  O   UNL     1     -20.667  14.882 -11.979  1.00  0.00    -0.504 OA
ATOM     19  H   UNL     1     -21.663  14.773 -12.124  1.00  0.00     0.293 HD
ENDBRANCH  15  18
BRANCH  17  20
ATOM     20  O   UNL     1     -18.627  13.366 -13.114  1.00  0.00    -0.504 OA
ATOM     21  H   UNL     1     -18.157  13.145 -12.244  1.00  0.00     0.293 HD
ENDBRANCH  17  20
ENDBRANCH   1  12
BRANCH   2  22
ATOM     22  O   UNL     1     -18.747  16.332 -17.742  1.00  0.00    -0.502 OA
ATOM     23  H   UNL     1     -19.368  16.702 -18.451  1.00  0.00     0.293 HD
ENDBRANCH   2  22
BRANCH   6  24
ATOM     24  O   UNL     1     -14.798  19.017 -20.101  1.00  0.00    -0.507 OA
ATOM     25  H   UNL     1     -15.221  18.310 -20.681  1.00  0.00     0.293 HD
ENDBRANCH   6  24
BRANCH   8  26
ATOM     26  O   UNL     1     -12.174  20.234 -16.291  1.00  0.00    -0.508 OA
ATOM     27  H   UNL     1     -11.243  19.876 -16.471  1.00  0.00     0.293 HD
ENDBRANCH   8  26
TORSDOF 6
ENDMDL
MODEL 2
REMARK VINA RESULT:    -5.337     12.260     15.636
REMARK INTER + INTRA:          -6.749
REMARK INTER:                  -6.427
REMARK INTRA:                  -0.323
REMARK UNBOUND:                -0.320
REMARK SMILES O=c1c(O)c(-c2ccc(O)c(O)c2)oc2cc(O)cc(O)c12
REMARK SMILES IDX 5 1 3 2 2 3 1 4 22 5 20 6 19 7 17 8 16 9 15 10 14 11 6 12
REMARK SMILES IDX 7 13 8 14 9 15 13 16 11 17 10 18 12 20 4 22 21 24 18 26
REMARK H PARENT 10 19 12 21 4 23 21 25 18 27
REMARK Flexibility Score: inf
ROOT
ATOM      1  C   UNL     1     -10.262  14.714 -29.063  1.00  0.00     0.180 A 
ATOM      2  C   UNL     1      -9.998  14.836 -27.689  1.00  0.00     0.208 A 
ATOM      3  C   UNL     1     -10.586  15.891 -26.974  1.00  0.00     0.238 A 
ATOM      4  O   UNL     1     -10.407  15.950 -25.730  1.00  0.00    -0.285 OA
ATOM      5  C   UNL     1     -11.383  16.845 -27.651  1.00  0.00     0.111 A 
ATOM      6  C   UNL     1     -11.992  17.980 -27.036  1.00  0.00     0.134 A 
ATOM      7  C   UNL     1     -12.847  18.797 -27.786  1.00  0.00     0.093 A 
ATOM      8  C   UNL     1     -13.066  18.558 -29.142  1.00  0.00     0.123 A 
ATOM      9  C   UNL     1     -12.434  17.484 -29.767  1.00  0.00     0.094 A 
ATOM     10  C   UNL     1     -11.605  16.628 -29.038  1.00  0.00     0.146 A 
ATOM     11  O   UNL     1     -11.040  15.604 -29.666  1.00  0.00    -0.452 OA
ENDROOT
BRANCH   1  12
ATOM     12  C   UNL     1      -9.691  13.620 -29.883  1.00  0.00     0.025 A 
ATOM     13  C   UNL     1      -8.451  13.761 -30.531  1.00  0.00     0.016 A 
ATOM     14  C   UNL     1      -7.921  12.706 -31.279  1.00  0.00     0.051 A 
ATOM     15  C   UNL     1      -8.614  11.492 -31.378  1.00  0.00     0.157 A 
ATOM     16  C   UNL     1     -10.370  12.394 -29.967  1.00  0.00     0.062 A 
ATOM     17  C   UNL     1      -9.839  11.335 -30.718  1.00  0.00     0.158 A 
BRANCH  15  18
ATOM     18  O   UNL     1      -8.089  10.438 -32.124  1.00  0.00    -0.504 OA
ATOM     19  H   UNL     1      -8.520  10.137 -32.989  1.00  0.00     0.293 HD
ENDBRANCH  15  18
BRANCH  17  20
ATOM     20  O   UNL     1     -10.523  10.123 -30.811  1.00  0.00    -0.504 OA
ATOM     21  H   UNL     1     -11.447  10.066 -31.223  1.00  0.00     0.293 HD
ENDBRANCH  17  20
ENDBRANCH   1  12
BRANCH   2  22
ATOM     22  O   UNL     1      -9.147  13.928 -27.053  1.00  0.00    -0.502 OA
ATOM     23  H   UNL     1      -8.148  13.910 -27.218  1.00  0.00     0.293 HD
ENDBRANCH   2  22
BRANCH   6  24
ATOM     24  O   UNL     1     -11.772  18.364 -25.710  1.00  0.00    -0.507 OA
ATOM     25  H   UNL     1     -11.278  19.194 -25.423  1.00  0.00     0.293 HD
ENDBRANCH   6  24
BRANCH   8  26
ATOM     26  O   UNL     1     -13.911  19.402 -29.861  1.00  0.00    -0.508 OA
ATOM     27  H   UNL     1     -14.381  20.183 -29.418  1.00  0.00     0.293 HD
ENDBRANCH   8  26
TORSDOF 6
ENDMDL
MODEL 3
REMARK VINA RESULT:    -5.326      9.266     11.564
REMARK INTER + INTRA:          -6.736
REMARK INTER:                  -6.442
REMARK INTRA:                  -0.295
REMARK UNBOUND:                -0.320
REMARK SMILES O=c1c(O)c(-c2ccc(O)c(O)c2)oc2cc(O)cc(O)c12
REMARK SMILES IDX 5 1 3 2 2 3 1 4 22 5 20 6 19 7 17 8 16 9 15 10 14 11 6 12
REMARK SMILES IDX 7 13 8 14 9 15 13 16 11 17 10 18 12 20 4 22 21 24 18 26
REMARK H PARENT 10 19 12 21 4 23 21 25 18 27
REMARK Flexibility Score: inf
ROOT
ATOM      1  C   UNL     1     -12.138   8.631 -15.168  1.00  0.00     0.180 A 
ATOM      2  C   UNL     1     -11.872   8.457 -16.537  1.00  0.00     0.208 A 
ATOM      3  C   UNL     1     -12.760   7.696 -17.312  1.00  0.00     0.238 A 
ATOM      4  O   UNL     1     -12.556   7.607 -18.551  1.00  0.00    -0.285 OA
ATOM      5  C   UNL     1     -13.873   7.070 -16.700  1.00  0.00     0.111 A 
ATOM      6  C   UNL     1     -14.814   6.239 -17.380  1.00  0.00     0.134 A 
ATOM      7  C   UNL     1     -15.935   5.759 -16.692  1.00  0.00     0.093 A 
ATOM      8  C   UNL     1     -16.119   6.027 -15.337  1.00  0.00     0.123 A 
ATOM      9  C   UNL     1     -15.178   6.793 -14.648  1.00  0.00     0.094 A 
ATOM     10  C   UNL     1     -14.068   7.317 -15.315  1.00  0.00     0.146 A 
ATOM     11  O   UNL     1     -13.208   8.059 -14.628  1.00  0.00    -0.452 OA
ENDROOT
BRANCH   1  12
ATOM     12  C   UNL     1     -11.257   9.432 -14.288  1.00  0.00     0.025 A 
ATOM     13  C   UNL     1     -10.277   8.823 -13.484  1.00  0.00     0.016 A 
ATOM     14  C   UNL     1      -9.440   9.602 -12.679  1.00  0.00     0.051 A 
ATOM     15  C   UNL     1      -9.561  10.998 -12.677  1.00  0.00     0.157 A 
ATOM     16  C   UNL     1     -11.359  10.833 -14.298  1.00  0.00     0.062 A 
ATOM     17  C   UNL     1     -10.520  11.614 -13.491  1.00  0.00     0.158 A 
BRANCH  15  18
ATOM     18  O   UNL     1      -8.730  11.778 -11.875  1.00  0.00    -0.504 OA
ATOM     19  H   UNL     1      -7.875  11.405 -11.480  1.00  0.00     0.293 HD
ENDBRANCH  15  18
BRANCH  17  20
ATOM     20  O   UNL     1     -10.635  13.004 -13.492  1.00  0.00    -0.504 OA
ATOM     21  H   UNL     1     -10.533  13.544 -14.343  1.00  0.00     0.293 HD
ENDBRANCH  17  20
ENDBRANCH   1  12
BRANCH   2  22
ATOM     22  O   UNL     1     -10.727   9.020 -17.107  1.00  0.00    -0.502 OA
ATOM     23  H   UNL     1      -9.795   8.673 -16.914  1.00  0.00     0.293 HD
ENDBRANCH   2  22
BRANCH   6  24
ATOM     24  O   UNL     1     -14.682   5.834 -18.711  1.00  0.00    -0.507 OA
ATOM     25  H   UNL     1     -13.853   5.953 -19.273  1.00  0.00     0.293 HD
ENDBRANCH   6  24
BRANCH   8  26
ATOM     26  O   UNL     1     -17.238   5.520 -14.681  1.00  0.00    -0.508 OA
ATOM     27  H   UNL     1     -18.131   5.998 -14.711  1.00  0.00     0.293 HD
ENDBRANCH   8  26
TORSDOF 6
ENDMDL
MODEL 4
REMARK VINA RESULT:    -5.326     11.807     15.148
REMARK INTER + INTRA:          -6.736
REMARK INTER:                  -6.551
REMARK INTRA:                  -0.185
REMARK UNBOUND:                -0.320
REMARK SMILES O=c1c(O)c(-c2ccc(O)c(O)c2)oc2cc(O)cc(O)c12
REMARK SMILES IDX 5 1 3 2 2 3 1 4 22 5 20 6 19 7 17 8 16 9 15 10 14 11 6 12
REMARK SMILES IDX 7 13 8 14 9 15 13 16 11 17 10 18 12 20 4 22 21 24 18 26
REMARK H PARENT 10 19 12 21 4 23 21 25 18 27
REMARK Flexibility Score: inf
ROOT
ATOM      1  C   UNL     1     -10.323  14.904 -28.242  1.00  0.00     0.180 A 
ATOM      2  C   UNL     1     -10.220  15.123 -26.858  1.00  0.00     0.208 A 
ATOM      3  C   UNL     1     -10.894  16.215 -26.290  1.00  0.00     0.238 A 
ATOM      4  O   UNL     1     -10.860  16.362 -25.040  1.00  0.00    -0.285 OA
ATOM      5  C   UNL     1     -11.617  17.108 -27.118  1.00  0.00     0.111 A 
ATOM      6  C   UNL     1     -12.302  18.272 -26.656  1.00  0.00     0.134 A 
ATOM      7  C   UNL     1     -13.072  19.023 -27.554  1.00  0.00     0.093 A 
ATOM      8  C   UNL     1     -13.132  18.689 -28.906  1.00  0.00     0.123 A 
ATOM      9  C   UNL     1     -12.424  17.584 -29.379  1.00  0.00     0.094 A 
ATOM     10  C   UNL     1     -11.677  16.794 -28.502  1.00  0.00     0.146 A 
ATOM     11  O   UNL     1     -11.035  15.739 -28.990  1.00  0.00    -0.452 OA
ENDROOT
BRANCH   1  12
ATOM     12  C   UNL     1      -9.653  13.766 -28.913  1.00  0.00     0.025 A 
ATOM     13  C   UNL     1     -10.010  12.436 -28.629  1.00  0.00     0.016 A 
ATOM     14  C   UNL     1      -9.380  11.379 -29.293  1.00  0.00     0.051 A 
ATOM     15  C   UNL     1      -8.397  11.636 -30.257  1.00  0.00     0.157 A 
ATOM     16  C   UNL     1      -8.683  14.018 -29.896  1.00  0.00     0.062 A 
ATOM     17  C   UNL     1      -8.050  12.958 -30.561  1.00  0.00     0.158 A 
BRANCH  15  18
ATOM     18  O   UNL     1      -7.766  10.585 -30.920  1.00  0.00    -0.504 OA
ATOM     19  H   UNL     1      -7.142   9.952 -30.434  1.00  0.00     0.293 HD
ENDBRANCH  15  18
BRANCH  17  20
ATOM     20  O   UNL     1      -7.077  13.212 -31.527  1.00  0.00    -0.504 OA
ATOM     21  H   UNL     1      -6.117  13.416 -31.272  1.00  0.00     0.293 HD
ENDBRANCH  17  20
ENDBRANCH   1  12
BRANCH   2  22
ATOM     22  O   UNL     1      -9.440  14.275 -26.068  1.00  0.00    -0.502 OA
ATOM     23  H   UNL     1      -9.376  14.375 -25.062  1.00  0.00     0.293 HD
ENDBRANCH   2  22
BRANCH   6  24
ATOM     24  O   UNL     1     -12.238  18.749 -25.344  1.00  0.00    -0.507 OA
ATOM     25  H   UNL     1     -13.028  18.853 -24.727  1.00  0.00     0.293 HD
ENDBRANCH   6  24
BRANCH   8  26
ATOM     26  O   UNL     1     -13.896  19.467 -29.773  1.00  0.00    -0.508 OA
ATOM     27  H   UNL     1     -13.603  19.638 -30.728  1.00  0.00     0.293 HD
ENDBRANCH   8  26
TORSDOF 6
ENDMDL
MODEL 5
REMARK VINA RESULT:    -5.315      5.936      8.977
REMARK INTER + INTRA:          -6.723
REMARK INTER:                  -6.571
REMARK INTRA:                  -0.152
REMARK UNBOUND:                -0.320
REMARK SMILES O=c1c(O)c(-c2ccc(O)c(O)c2)oc2cc(O)cc(O)c12
REMARK SMILES IDX 5 1 3 2 2 3 1 4 22 5 20 6 19 7 17 8 16 9 15 10 14 11 6 12
REMARK SMILES IDX 7 13 8 14 9 15 13 16 11 17 10 18 12 20 4 22 21 24 18 26
REMARK H PARENT 10 19 12 21 4 23 21 25 18 27
REMARK Flexibility Score: inf
ROOT
ATOM      1  C   UNL     1     -11.657  18.933 -21.451  1.00  0.00     0.180 A 
ATOM      2  C   UNL     1     -10.667  17.996 -21.788  1.00  0.00     0.208 A 
ATOM      3  C   UNL     1     -10.435  17.705 -23.141  1.00  0.00     0.238 A 
ATOM      4  O   UNL     1      -9.496  16.922 -23.439  1.00  0.00    -0.285 OA
ATOM      5  C   UNL     1     -11.235  18.313 -24.140  1.00  0.00     0.111 A 
ATOM      6  C   UNL     1     -11.119  18.060 -25.540  1.00  0.00     0.134 A 
ATOM      7  C   UNL     1     -11.895  18.798 -26.442  1.00  0.00     0.093 A 
ATOM      8  C   UNL     1     -12.825  19.735 -25.995  1.00  0.00     0.123 A 
ATOM      9  C   UNL     1     -12.985  19.953 -24.626  1.00  0.00     0.094 A 
ATOM     10  C   UNL     1     -12.200  19.259 -23.702  1.00  0.00     0.146 A 
ATOM     11  O   UNL     1     -12.370  19.512 -22.410  1.00  0.00    -0.452 OA
ENDROOT
BRANCH   1  12
ATOM     12  C   UNL     1     -11.950  19.302 -20.046  1.00  0.00     0.025 A 
ATOM     13  C   UNL     1     -13.180  18.981 -19.446  1.00  0.00     0.016 A 
ATOM     14  C   UNL     1     -13.424  19.318 -18.111  1.00  0.00     0.051 A 
ATOM     15  C   UNL     1     -12.439  19.968 -17.356  1.00  0.00     0.157 A 
ATOM     16  C   UNL     1     -10.958  19.933 -19.278  1.00  0.00     0.062 A 
ATOM     17  C   UNL     1     -11.203  20.272 -17.939  1.00  0.00     0.158 A 
BRANCH  15  18
ATOM     18  O   UNL     1     -12.679  20.307 -16.025  1.00  0.00    -0.504 OA
ATOM     19  H   UNL     1     -13.512  19.994 -15.542  1.00  0.00     0.293 HD
ENDBRANCH  15  18
BRANCH  17  20
ATOM     20  O   UNL     1     -10.222  20.912 -17.183  1.00  0.00    -0.504 OA
ATOM     21  H   UNL     1      -9.402  20.419 -16.850  1.00  0.00     0.293 HD
ENDBRANCH  17  20
ENDBRANCH   1  12
BRANCH   2  22
ATOM     22  O   UNL     1      -9.939  17.349 -20.784  1.00  0.00    -0.502 OA
ATOM     23  H   UNL     1     -10.364  16.697 -20.138  1.00  0.00     0.293 HD
ENDBRANCH   2  22
BRANCH   6  24
ATOM     24  O   UNL     1     -10.286  17.083 -26.092  1.00  0.00    -0.507 OA
ATOM     25  H   UNL     1      -9.312  16.957 -25.865  1.00  0.00     0.293 HD
ENDBRANCH   6  24
BRANCH   8  26
ATOM     26  O   UNL     1     -13.590  20.441 -26.921  1.00  0.00    -0.508 OA
ATOM     27  H   UNL     1     -14.576  20.247 -27.051  1.00  0.00     0.293 HD
ENDBRANCH   8  26
TORSDOF 6
ENDMDL
MODEL 6
REMARK VINA RESULT:    -5.258     15.671     17.057
REMARK INTER + INTRA:          -6.654
REMARK INTER:                  -6.359
REMARK INTRA:                  -0.295
REMARK UNBOUND:                -0.320
REMARK SMILES O=c1c(O)c(-c2ccc(O)c(O)c2)oc2cc(O)cc(O)c12
REMARK SMILES IDX 5 1 3 2 2 3 1 4 22 5 20 6 19 7 17 8 16 9 15 10 14 11 6 12
REMARK SMILES IDX 7 13 8 14 9 15 13 16 11 17 10 18 12 20 4 22 21 24 18 26
REMARK H PARENT 10 19 12 21 4 23 21 25 18 27
REMARK Flexibility Score: inf
ROOT
ATOM      1  C   UNL     1      -9.736   4.549 -22.920  1.00  0.00     0.180 A 
ATOM      2  C   UNL     1     -10.208   5.827 -22.576  1.00  0.00     0.208 A 
ATOM      3  C   UNL     1     -11.372   6.312 -23.192  1.00  0.00     0.238 A 
ATOM      4  O   UNL     1     -11.831   7.425 -22.824  1.00  0.00    -0.285 OA
ATOM      5  C   UNL     1     -12.019   5.538 -24.185  1.00  0.00     0.111 A 
ATOM      6  C   UNL     1     -13.181   5.949 -24.908  1.00  0.00     0.134 A 
ATOM      7  C   UNL     1     -13.796   5.055 -25.793  1.00  0.00     0.093 A 
ATOM      8  C   UNL     1     -13.259   3.791 -26.030  1.00  0.00     0.123 A 
ATOM      9  C   UNL     1     -12.093   3.399 -25.371  1.00  0.00     0.094 A 
ATOM     10  C   UNL     1     -11.477   4.253 -24.453  1.00  0.00     0.146 A 
ATOM     11  O   UNL     1     -10.383   3.832 -23.831  1.00  0.00    -0.452 OA
ENDROOT
BRANCH   1  12
ATOM     12  C   UNL     1      -8.524   3.963 -22.303  1.00  0.00     0.025 A 
ATOM     13  C   UNL     1      -7.275   4.021 -22.946  1.00  0.00     0.016 A 
ATOM     14  C   UNL     1      -6.140   3.482 -22.333  1.00  0.00     0.051 A 
ATOM     15  C   UNL     1      -6.234   2.891 -21.067  1.00  0.00     0.157 A 
ATOM     16  C   UNL     1      -8.608   3.388 -21.025  1.00  0.00     0.062 A 
ATOM     17  C   UNL     1      -7.470   2.847 -20.410  1.00  0.00     0.158 A 
BRANCH  15  18
ATOM     18  O   UNL     1      -5.105   2.351 -20.454  1.00  0.00    -0.504 OA
ATOM     19  H   UNL     1      -4.953   1.351 -20.411  1.00  0.00     0.293 HD
ENDBRANCH  15  18
BRANCH  17  20
ATOM     20  O   UNL     1      -7.560   2.264 -19.147  1.00  0.00    -0.504 OA
ATOM     21  H   UNL     1      -7.394   2.800 -18.302  1.00  0.00     0.293 HD
ENDBRANCH  17  20
ENDBRANCH   1  12
BRANCH   2  22
ATOM     22  O   UNL     1      -9.512   6.607 -21.648  1.00  0.00    -0.502 OA
ATOM     23  H   UNL     1      -9.623   7.612 -21.591  1.00  0.00     0.293 HD
ENDBRANCH   2  22
BRANCH   6  24
ATOM     24  O   UNL     1     -13.750   7.222 -24.815  1.00  0.00    -0.507 OA
ATOM     25  H   UNL     1     -13.944   7.708 -23.953  1.00  0.00     0.293 HD
ENDBRANCH   6  24
BRANCH   8  26
ATOM     26  O   UNL     1     -13.888   2.934 -26.930  1.00  0.00    -0.508 OA
ATOM     27  H   UNL     1     -14.805   3.144 -27.308  1.00  0.00     0.293 HD
ENDBRANCH   8  26
TORSDOF 6
ENDMDL
MODEL 7
REMARK VINA RESULT:    -5.246     16.229     17.448
REMARK INTER + INTRA:          -6.639
REMARK INTER:                  -6.310
REMARK INTRA:                  -0.330
REMARK UNBOUND:                -0.320
REMARK SMILES O=c1c(O)c(-c2ccc(O)c(O)c2)oc2cc(O)cc(O)c12
REMARK SMILES IDX 5 1 3 2 2 3 1 4 22 5 20 6 19 7 17 8 16 9 15 10 14 11 6 12
REMARK SMILES IDX 7 13 8 14 9 15 13 16 11 17 10 18 12 20 4 22 21 24 18 26
REMARK H PARENT 10 19 12 21 4 23 21 25 18 27
REMARK Flexibility Score: inf
ROOT
ATOM      1  C   UNL     1     -10.426   4.683 -24.594  1.00  0.00     0.180 A 
ATOM      2  C   UNL     1     -10.302   4.415 -23.221  1.00  0.00     0.208 A 
ATOM      3  C   UNL     1      -9.022   4.220 -22.678  1.00  0.00     0.238 A 
ATOM      4  O   UNL     1      -8.912   4.055 -21.435  1.00  0.00    -0.285 OA
ATOM      5  C   UNL     1      -7.886   4.239 -23.524  1.00  0.00     0.111 A 
ATOM      6  C   UNL     1      -6.545   4.010 -23.090  1.00  0.00     0.134 A 
ATOM      7  C   UNL     1      -5.491   4.158 -24.000  1.00  0.00     0.093 A 
ATOM      8  C   UNL     1      -5.730   4.466 -25.338  1.00  0.00     0.123 A 
ATOM      9  C   UNL     1      -7.040   4.639 -25.785  1.00  0.00     0.094 A 
ATOM     10  C   UNL     1      -8.112   4.534 -24.895  1.00  0.00     0.146 A 
ATOM     11  O   UNL     1      -9.341   4.728 -25.357  1.00  0.00    -0.452 OA
ENDROOT
BRANCH   1  12
ATOM     12  C   UNL     1     -11.740   4.915 -25.237  1.00  0.00     0.025 A 
ATOM     13  C   UNL     1     -12.273   6.209 -25.368  1.00  0.00     0.016 A 
ATOM     14  C   UNL     1     -13.505   6.405 -26.001  1.00  0.00     0.051 A 
ATOM     15  C   UNL     1     -14.213   5.314 -26.522  1.00  0.00     0.157 A 
ATOM     16  C   UNL     1     -12.444   3.827 -25.780  1.00  0.00     0.062 A 
ATOM     17  C   UNL     1     -13.679   4.023 -26.414  1.00  0.00     0.158 A 
BRANCH  15  18
ATOM     18  O   UNL     1     -15.441   5.505 -27.152  1.00  0.00    -0.504 OA
ATOM     19  H   UNL     1     -16.300   5.136 -26.760  1.00  0.00     0.293 HD
ENDBRANCH  15  18
BRANCH  17  20
ATOM     20  O   UNL     1     -14.382   2.940 -26.940  1.00  0.00    -0.504 OA
ATOM     21  H   UNL     1     -15.395   2.909 -26.929  1.00  0.00     0.293 HD
ENDBRANCH  17  20
ENDBRANCH   1  12
BRANCH   2  22
ATOM     22  O   UNL     1     -11.440   4.324 -22.415  1.00  0.00    -0.502 OA
ATOM     23  H   UNL     1     -11.429   4.552 -21.429  1.00  0.00     0.293 HD
ENDBRANCH   2  22
BRANCH   6  24
ATOM     24  O   UNL     1      -6.199   3.611 -21.797  1.00  0.00    -0.507 OA
ATOM     25  H   UNL     1      -6.082   2.655 -21.498  1.00  0.00     0.293 HD
ENDBRANCH   6  24
BRANCH   8  26
ATOM     26  O   UNL     1      -4.657   4.590 -26.218  1.00  0.00    -0.508 OA
ATOM     27  H   UNL     1      -4.565   3.990 -27.029  1.00  0.00     0.293 HD
ENDBRANCH   8  26
TORSDOF 6
ENDMDL
MODEL 8
REMARK VINA RESULT:    -5.145      2.729      6.774
REMARK INTER + INTRA:          -6.518
REMARK INTER:                  -6.258
REMARK INTRA:                  -0.260
REMARK UNBOUND:                -0.320
REMARK SMILES O=c1c(O)c(-c2ccc(O)c(O)c2)oc2cc(O)cc(O)c12
REMARK SMILES IDX 5 1 3 2 2 3 1 4 22 5 20 6 19 7 17 8 16 9 15 10 14 11 6 12
REMARK SMILES IDX 7 13 8 14 9 15 13 16 11 17 10 18 12 20 4 22 21 24 18 26
REMARK H PARENT 10 19 12 21 4 23 21 25 18 27
REMARK Flexibility Score: inf
ROOT
ATOM      1  C   UNL     1     -18.327  15.817 -17.572  1.00  0.00     0.180 A 
ATOM      2  C   UNL     1     -17.372  16.790 -17.236  1.00  0.00     0.208 A 
ATOM      3  C   UNL     1     -17.260  17.202 -15.899  1.00  0.00     0.238 A 
ATOM      4  O   UNL     1     -16.352  18.018 -15.592  1.00  0.00    -0.285 OA
ATOM      5  C   UNL     1     -18.142  16.678 -14.923  1.00  0.00     0.111 A 
ATOM      6  C   UNL     1     -18.149  17.056 -13.546  1.00  0.00     0.134 A 
ATOM      7  C   UNL     1     -18.999  16.393 -12.652  1.00  0.00     0.093 A 
ATOM      8  C   UNL     1     -19.884  15.410 -13.092  1.00  0.00     0.123 A 
ATOM      9  C   UNL     1     -19.925  15.070 -14.445  1.00  0.00     0.094 A 
ATOM     10  C   UNL     1     -19.064  15.687 -15.356  1.00  0.00     0.146 A 
ATOM     11  O   UNL     1     -19.119  15.319 -16.630  1.00  0.00    -0.452 OA
ENDROOT
BRANCH   1  12
ATOM     12  C   UNL     1     -18.495  15.321 -18.957  1.00  0.00     0.025 A 
ATOM     13  C   UNL     1     -18.059  14.038 -19.334  1.00  0.00     0.016 A 
ATOM     14  C   UNL     1     -18.250  13.583 -20.642  1.00  0.00     0.051 A 
ATOM     15  C   UNL     1     -18.891  14.396 -21.586  1.00  0.00     0.157 A 
ATOM     16  C   UNL     1     -19.156  16.123 -19.902  1.00  0.00     0.062 A 
ATOM     17  C   UNL     1     -19.347  15.666 -21.214  1.00  0.00     0.158 A 
BRANCH  15  18
ATOM     18  O   UNL     1     -19.082  13.946 -22.891  1.00  0.00    -0.504 OA
ATOM     19  H   UNL     1     -19.991  13.642 -23.218  1.00  0.00     0.293 HD
ENDBRANCH  15  18
BRANCH  17  20
ATOM     20  O   UNL     1     -19.991  16.471 -22.154  1.00  0.00    -0.504 OA
ATOM     21  H   UNL     1     -20.914  16.852 -21.983  1.00  0.00     0.293 HD
ENDBRANCH  17  20
ENDBRANCH   1  12
BRANCH   2  22
ATOM     22  O   UNL     1     -16.561  17.351 -18.226  1.00  0.00    -0.502 OA
ATOM     23  H   UNL     1     -16.722  18.278 -18.602  1.00  0.00     0.293 HD
ENDBRANCH   2  22
BRANCH   6  24
ATOM     24  O   UNL     1     -17.370  18.087 -13.014  1.00  0.00    -0.507 OA
ATOM     25  H   UNL     1     -16.377  18.193 -13.153  1.00  0.00     0.293 HD
ENDBRANCH   6  24
BRANCH   8  26
ATOM     26  O   UNL     1     -20.726  14.783 -12.177  1.00  0.00    -0.508 OA
ATOM     27  H   UNL     1     -21.600  15.205 -11.885  1.00  0.00     0.293 HD
ENDBRANCH   8  26
TORSDOF 6
ENDMDL
MODEL 9
REMARK VINA RESULT:    -5.145     16.560     18.471
REMARK INTER + INTRA:          -6.518
REMARK INTER:                  -6.251
REMARK INTRA:                  -0.267
REMARK UNBOUND:                -0.320
REMARK SMILES O=c1c(O)c(-c2ccc(O)c(O)c2)oc2cc(O)cc(O)c12
REMARK SMILES IDX 5 1 3 2 2 3 1 4 22 5 20 6 19 7 17 8 16 9 15 10 14 11 6 12
REMARK SMILES IDX 7 13 8 14 9 15 13 16 11 17 10 18 12 20 4 22 21 24 18 26
REMARK H PARENT 10 19 12 21 4 23 21 25 18 27
REMARK Flexibility Score: inf
ROOT
ATOM      1  C   UNL     1     -10.271   3.562 -24.332  1.00  0.00     0.180 A 
ATOM      2  C   UNL     1     -10.723   3.613 -23.003  1.00  0.00     0.208 A 
ATOM      3  C   UNL     1     -12.103   3.676 -22.755  1.00  0.00     0.238 A 
ATOM      4  O   UNL     1     -12.504   3.646 -21.562  1.00  0.00    -0.285 OA
ATOM      5  C   UNL     1     -13.012   3.744 -23.838  1.00  0.00     0.111 A 
ATOM      6  C   UNL     1     -14.429   3.856 -23.704  1.00  0.00     0.134 A 
ATOM      7  C   UNL     1     -15.237   3.809 -24.848  1.00  0.00     0.093 A 
ATOM      8  C   UNL     1     -14.678   3.718 -26.122  1.00  0.00     0.123 A 
ATOM      9  C   UNL     1     -13.292   3.663 -26.268  1.00  0.00     0.094 A 
ATOM     10  C   UNL     1     -12.461   3.670 -25.145  1.00  0.00     0.146 A 
ATOM     11  O   UNL     1     -11.148   3.594 -25.328  1.00  0.00    -0.452 OA
ENDROOT
BRANCH   1  12
ATOM     12  C   UNL     1      -8.832   3.480 -24.673  1.00  0.00     0.025 A 
ATOM     13  C   UNL     1      -8.104   2.290 -24.495  1.00  0.00     0.016 A 
ATOM     14  C   UNL     1      -6.752   2.229 -24.847  1.00  0.00     0.051 A 
ATOM     15  C   UNL     1      -6.114   3.350 -25.395  1.00  0.00     0.157 A 
ATOM     16  C   UNL     1      -8.192   4.593 -25.242  1.00  0.00     0.062 A 
ATOM     17  C   UNL     1      -6.837   4.533 -25.595  1.00  0.00     0.158 A 
BRANCH  15  18
ATOM     18  O   UNL     1      -4.766   3.294 -25.746  1.00  0.00    -0.504 OA
ATOM     19  H   UNL     1      -4.475   3.191 -26.710  1.00  0.00     0.293 HD
ENDBRANCH  15  18
BRANCH  17  20
ATOM     20  O   UNL     1      -6.201   5.645 -26.147  1.00  0.00    -0.504 OA
ATOM     21  H   UNL     1      -5.571   5.559 -26.936  1.00  0.00     0.293 HD
ENDBRANCH  17  20
ENDBRANCH   1  12
BRANCH   2  22
ATOM     22  O   UNL     1      -9.806   3.622 -21.948  1.00  0.00    -0.502 OA
ATOM     23  H   UNL     1      -9.094   4.335 -21.850  1.00  0.00     0.293 HD
ENDBRANCH   2  22
BRANCH   6  24
ATOM     24  O   UNL     1     -15.088   4.040 -22.486  1.00  0.00    -0.507 OA
ATOM     25  H   UNL     1     -16.034   4.375 -22.384  1.00  0.00     0.293 HD
ENDBRANCH   6  24
BRANCH   8  26
ATOM     26  O   UNL     1     -15.512   3.689 -27.237  1.00  0.00    -0.508 OA
ATOM     27  H   UNL     1     -15.765   2.817 -27.687  1.00  0.00     0.293 HD
ENDBRANCH   8  26
TORSDOF 6
ENDMDL
