MODEL 1
REMARK VINA RESULT:    -5.952      0.000      0.000
REMARK INTER + INTRA:          -7.717
REMARK INTER:                  -7.344
REMARK INTRA:                  -0.373
REMARK UNBOUND:                -0.373
REMARK SMILES Oc1cc(O)c2cc(O)c(-c3cc(O)c(O)c(O)c3)[o+]c2c1.[Cl-]
REMARK SMILES IDX 10 1 20 2 21 3 22 4 2 5 3 6 4 7 6 8 7 9 8 10 11 11 12 12
REMARK SMILES IDX 13 13 19 14 15 15 17 16 14 17 16 19 18 21 9 23 1 25 5 27
REMARK H PARENT 14 18 16 20 18 22 9 24 1 26 5 28
REMARK Flexibility Score: inf
ROOT
ATOM      1  C   UNL     1     253.130 -24.540  46.842  1.00  0.00     0.402 A 
ATOM      2  O   UNL     1     254.243 -24.565  46.114  1.00  0.00    -0.202 OA
ATOM      3  C   UNL     1     254.246 -24.696  44.792  1.00  0.00     0.368 A 
ATOM      4  C   UNL     1     255.468 -24.715  44.114  1.00  0.00     0.162 A 
ATOM      5  C   UNL     1     255.501 -24.856  42.723  1.00  0.00     0.128 A 
ATOM      6  C   UNL     1     254.308 -24.979  42.008  1.00  0.00     0.093 A 
ATOM      7  C   UNL     1     253.070 -24.962  42.664  1.00  0.00     0.136 A 
ATOM      8  C   UNL     1     253.031 -24.819  44.075  1.00  0.00     0.125 A 
ATOM      9  C   UNL     1     251.838 -24.779  44.814  1.00  0.00     0.078 A 
ATOM     10  C   UNL     1     251.879 -24.629  46.204  1.00  0.00     0.223 A 
ENDROOT
BRANCH   1  11
ATOM     11  C   UNL     1     253.257 -24.399  48.311  1.00  0.00     0.091 A 
ATOM     12  C   UNL     1     253.175 -25.512  49.163  1.00  0.00     0.068 A 
ATOM     13  C   UNL     1     253.320 -25.364  50.546  1.00  0.00     0.162 A 
ATOM     14  C   UNL     1     253.522 -23.136  48.862  1.00  0.00     0.068 A 
ATOM     15  C   UNL     1     253.562 -24.093  51.095  1.00  0.00     0.200 A 
ATOM     16  C   UNL     1     253.668 -22.977  50.247  1.00  0.00     0.162 A 
BRANCH  13  17
ATOM     17  O   UNL     1     253.224 -26.493  51.360  1.00  0.00    -0.504 OA
ATOM     18  H   UNL     1     253.949 -26.743  52.022  1.00  0.00     0.293 HD
ENDBRANCH  13  17
BRANCH  15  19
ATOM     19  O   UNL     1     253.701 -23.953  52.477  1.00  0.00    -0.502 OA
ATOM     20  H   UNL     1     254.541 -24.236  52.966  1.00  0.00     0.293 HD
ENDBRANCH  15  19
BRANCH  16  21
ATOM     21  O   UNL     1     253.917 -21.714  50.784  1.00  0.00    -0.504 OA
ATOM     22  H   UNL     1     253.969 -21.564  51.785  1.00  0.00     0.293 HD
ENDBRANCH  16  21
ENDBRANCH   1  11
BRANCH  10  23
ATOM     23  O   UNL     1     250.694 -24.540  46.933  1.00  0.00    -0.500 OA
ATOM     24  H   UNL     1     250.267 -25.354  47.359  1.00  0.00     0.294 HD
ENDBRANCH  10  23
BRANCH   5  25
ATOM     25  O   UNL     1     256.714 -24.875  42.040  1.00  0.00    -0.507 OA
ATOM     26  H   UNL     1     257.547 -24.443  42.425  1.00  0.00     0.293 HD
ENDBRANCH   5  25
BRANCH   7  27
ATOM     27  O   UNL     1     251.923 -25.094  41.877  1.00  0.00    -0.507 OA
ATOM     28  H   UNL     1     251.392 -25.949  41.780  1.00  0.00     0.293 HD
ENDBRANCH   7  27
TORSDOF 7
ENDMDL
MODEL 2
REMARK VINA RESULT:    -5.861     13.290     14.968
REMARK INTER + INTRA:          -7.605
REMARK INTER:                  -7.286
REMARK INTRA:                  -0.318
REMARK UNBOUND:                -0.373
REMARK SMILES Oc1cc(O)c2cc(O)c(-c3cc(O)c(O)c(O)c3)[o+]c2c1.[Cl-]
REMARK SMILES IDX 10 1 20 2 21 3 22 4 2 5 3 6 4 7 6 8 7 9 8 10 11 11 12 12
REMARK SMILES IDX 13 13 19 14 15 15 17 16 14 17 16 19 18 21 9 23 1 25 5 27
REMARK H PARENT 14 18 16 20 18 22 9 24 1 26 5 28
REMARK Flexibility Score: inf
ROOT
ATOM      1  C   UNL     1     262.178 -27.904  57.588  1.00  0.00     0.402 A 
ATOM      2  O   UNL     1     263.242 -28.674  57.804  1.00  0.00    -0.202 OA
ATOM      3  C   UNL     1     264.205 -28.853  56.906  1.00  0.00     0.368 A 
ATOM      4  C   UNL     1     265.283 -29.684  57.224  1.00  0.00     0.162 A 
ATOM      5  C   UNL     1     266.309 -29.893  56.298  1.00  0.00     0.128 A 
ATOM      6  C   UNL     1     266.256 -29.270  55.049  1.00  0.00     0.093 A 
ATOM      7  C   UNL     1     265.188 -28.433  54.707  1.00  0.00     0.136 A 
ATOM      8  C   UNL     1     264.144 -28.216  55.644  1.00  0.00     0.125 A 
ATOM      9  C   UNL     1     263.041 -27.384  55.393  1.00  0.00     0.078 A 
ATOM     10  C   UNL     1     262.054 -27.214  56.369  1.00  0.00     0.223 A 
ENDROOT
BRANCH   1  11
ATOM     11  C   UNL     1     261.165 -27.791  58.664  1.00  0.00     0.091 A 
ATOM     12  C   UNL     1     259.901 -28.392  58.544  1.00  0.00     0.068 A 
ATOM     13  C   UNL     1     258.966 -28.295  59.579  1.00  0.00     0.162 A 
ATOM     14  C   UNL     1     261.493 -27.120  59.851  1.00  0.00     0.068 A 
ATOM     15  C   UNL     1     259.291 -27.601  60.757  1.00  0.00     0.200 A 
ATOM     16  C   UNL     1     260.561 -27.016  60.894  1.00  0.00     0.162 A 
BRANCH  13  17
ATOM     17  O   UNL     1     257.718 -28.898  59.420  1.00  0.00    -0.504 OA
ATOM     18  H   UNL     1     257.615 -29.900  59.304  1.00  0.00     0.293 HD
ENDBRANCH  13  17
BRANCH  15  19
ATOM     19  O   UNL     1     258.349 -27.505  61.783  1.00  0.00    -0.502 OA
ATOM     20  H   UNL     1     258.390 -28.088  62.610  1.00  0.00     0.293 HD
ENDBRANCH  15  19
BRANCH  16  21
ATOM     21  O   UNL     1     260.894 -26.334  62.063  1.00  0.00    -0.504 OA
ATOM     22  H   UNL     1     261.284 -25.398  62.039  1.00  0.00     0.293 HD
ENDBRANCH  16  21
ENDBRANCH   1  11
BRANCH  10  23
ATOM     23  O   UNL     1     260.985 -26.349  56.139  1.00  0.00    -0.500 OA
ATOM     24  H   UNL     1     260.827 -25.925  55.232  1.00  0.00     0.294 HD
ENDBRANCH  10  23
BRANCH   5  25
ATOM     25  O   UNL     1     267.387 -30.719  56.607  1.00  0.00    -0.507 OA
ATOM     26  H   UNL     1     268.110 -30.426  57.254  1.00  0.00     0.293 HD
ENDBRANCH   5  25
BRANCH   7  27
ATOM     27  O   UNL     1     265.208 -27.850  53.436  1.00  0.00    -0.507 OA
ATOM     28  H   UNL     1     264.542 -28.054  52.704  1.00  0.00     0.293 HD
ENDBRANCH   7  27
TORSDOF 7
ENDMDL
MODEL 3
REMARK VINA RESULT:    -5.801      1.545      1.824
REMARK INTER + INTRA:          -7.530
REMARK INTER:                  -7.163
REMARK INTRA:                  -0.368
REMARK UNBOUND:                -0.373
REMARK SMILES Oc1cc(O)c2cc(O)c(-c3cc(O)c(O)c(O)c3)[o+]c2c1.[Cl-]
REMARK SMILES IDX 10 1 20 2 21 3 22 4 2 5 3 6 4 7 6 8 7 9 8 10 11 11 12 12
REMARK SMILES IDX 13 13 19 14 15 15 17 16 14 17 16 19 18 21 9 23 1 25 5 27
REMARK H PARENT 14 18 16 20 18 22 9 24 1 26 5 28
REMARK Flexibility Score: inf
ROOT
ATOM      1  C   UNL     1     253.172 -24.597  47.820  1.00  0.00     0.402 A 
ATOM      2  O   UNL     1     254.075 -24.908  46.892  1.00  0.00    -0.202 OA
ATOM      3  C   UNL     1     254.001 -24.486  45.635  1.00  0.00     0.368 A 
ATOM      4  C   UNL     1     254.996 -24.867  44.731  1.00  0.00     0.162 A 
ATOM      5  C   UNL     1     254.942 -24.441  43.400  1.00  0.00     0.128 A 
ATOM      6  C   UNL     1     253.888 -23.631  42.972  1.00  0.00     0.093 A 
ATOM      7  C   UNL     1     252.879 -23.234  43.858  1.00  0.00     0.136 A 
ATOM      8  C   UNL     1     252.930 -23.663  45.210  1.00  0.00     0.125 A 
ATOM      9  C   UNL     1     251.971 -23.304  46.171  1.00  0.00     0.078 A 
ATOM     10  C   UNL     1     252.091 -23.761  47.487  1.00  0.00     0.223 A 
ENDROOT
BRANCH   1  11
ATOM     11  C   UNL     1     253.359 -25.138  49.187  1.00  0.00     0.091 A 
ATOM     12  C   UNL     1     252.935 -26.433  49.526  1.00  0.00     0.068 A 
ATOM     13  C   UNL     1     253.139 -26.935  50.815  1.00  0.00     0.162 A 
ATOM     14  C   UNL     1     254.024 -24.363  50.150  1.00  0.00     0.068 A 
ATOM     15  C   UNL     1     253.785 -26.147  51.782  1.00  0.00     0.200 A 
ATOM     16  C   UNL     1     254.232 -24.858  51.445  1.00  0.00     0.162 A 
BRANCH  13  17
ATOM     17  O   UNL     1     252.697 -28.224  51.115  1.00  0.00    -0.504 OA
ATOM     18  H   UNL     1     253.126 -29.049  50.711  1.00  0.00     0.293 HD
ENDBRANCH  13  17
BRANCH  15  19
ATOM     19  O   UNL     1     253.981 -26.654  53.067  1.00  0.00    -0.502 OA
ATOM     20  H   UNL     1     254.858 -26.548  53.562  1.00  0.00     0.293 HD
ENDBRANCH  15  19
BRANCH  16  21
ATOM     21  O   UNL     1     254.882 -24.073  52.397  1.00  0.00    -0.504 OA
ATOM     22  H   UNL     1     255.770 -24.351  52.797  1.00  0.00     0.293 HD
ENDBRANCH  16  21
ENDBRANCH   1  11
BRANCH  10  23
ATOM     23  O   UNL     1     251.166 -23.365  48.453  1.00  0.00    -0.500 OA
ATOM     24  H   UNL     1     251.194 -22.443  48.872  1.00  0.00     0.294 HD
ENDBRANCH  10  23
BRANCH   5  25
ATOM     25  O   UNL     1     255.930 -24.817  42.493  1.00  0.00    -0.507 OA
ATOM     26  H   UNL     1     256.854 -24.401  42.514  1.00  0.00     0.293 HD
ENDBRANCH   5  25
BRANCH   7  27
ATOM     27  O   UNL     1     251.858 -22.425  43.351  1.00  0.00    -0.507 OA
ATOM     28  H   UNL     1     251.999 -21.503  42.963  1.00  0.00     0.293 HD
ENDBRANCH   7  27
TORSDOF 7
ENDMDL
MODEL 4
REMARK VINA RESULT:    -5.774     17.861     19.196
REMARK INTER + INTRA:          -7.497
REMARK INTER:                  -7.171
REMARK INTRA:                  -0.326
REMARK UNBOUND:                -0.373
REMARK SMILES Oc1cc(O)c2cc(O)c(-c3cc(O)c(O)c(O)c3)[o+]c2c1.[Cl-]
REMARK SMILES IDX 10 1 20 2 21 3 22 4 2 5 3 6 4 7 6 8 7 9 8 10 11 11 12 12
REMARK SMILES IDX 13 13 19 14 15 15 17 16 14 17 16 19 18 21 9 23 1 25 5 27
REMARK H PARENT 14 18 16 20 18 22 9 24 1 26 5 28
REMARK Flexibility Score: inf
ROOT
ATOM      1  C   UNL     1     268.109 -35.499  51.609  1.00  0.00     0.402 A 
ATOM      2  O   UNL     1     268.157 -36.230  50.497  1.00  0.00    -0.202 OA
ATOM      3  C   UNL     1     268.271 -35.704  49.283  1.00  0.00     0.368 A 
ATOM      4  C   UNL     1     268.311 -36.554  48.175  1.00  0.00     0.162 A 
ATOM      5  C   UNL     1     268.427 -36.027  46.885  1.00  0.00     0.128 A 
ATOM      6  C   UNL     1     268.503 -34.645  46.703  1.00  0.00     0.093 A 
ATOM      7  C   UNL     1     268.466 -33.771  47.797  1.00  0.00     0.136 A 
ATOM      8  C   UNL     1     268.350 -34.301  49.108  1.00  0.00     0.125 A 
ATOM      9  C   UNL     1     268.318 -33.503  50.263  1.00  0.00     0.078 A 
ATOM     10  C   UNL     1     268.208 -34.099  51.524  1.00  0.00     0.223 A 
ENDROOT
BRANCH   1  11
ATOM     11  C   UNL     1     267.970 -36.203  52.905  1.00  0.00     0.091 A 
ATOM     12  C   UNL     1     266.744 -36.756  53.309  1.00  0.00     0.068 A 
ATOM     13  C   UNL     1     266.637 -37.436  54.526  1.00  0.00     0.162 A 
ATOM     14  C   UNL     1     269.098 -36.371  53.722  1.00  0.00     0.068 A 
ATOM     15  C   UNL     1     267.764 -37.583  55.351  1.00  0.00     0.200 A 
ATOM     16  C   UNL     1     269.000 -37.051  54.944  1.00  0.00     0.162 A 
BRANCH  13  17
ATOM     17  O   UNL     1     265.400 -37.965  54.896  1.00  0.00    -0.504 OA
ATOM     18  H   UNL     1     264.671 -38.156  54.219  1.00  0.00     0.293 HD
ENDBRANCH  13  17
BRANCH  15  19
ATOM     19  O   UNL     1     267.647 -38.260  56.566  1.00  0.00    -0.502 OA
ATOM     20  H   UNL     1     267.716 -39.267  56.632  1.00  0.00     0.293 HD
ENDBRANCH  15  19
BRANCH  16  21
ATOM     21  O   UNL     1     270.125 -37.200  55.754  1.00  0.00    -0.504 OA
ATOM     22  H   UNL     1     271.053 -37.301  55.359  1.00  0.00     0.293 HD
ENDBRANCH  16  21
ENDBRANCH   1  11
BRANCH  10  23
ATOM     23  O   UNL     1     268.225 -33.310  52.674  1.00  0.00    -0.500 OA
ATOM     24  H   UNL     1     267.635 -32.491  52.769  1.00  0.00     0.294 HD
ENDBRANCH  10  23
BRANCH   5  25
ATOM     25  O   UNL     1     268.468 -36.868  45.775  1.00  0.00    -0.507 OA
ATOM     26  H   UNL     1     268.767 -37.834  45.853  1.00  0.00     0.293 HD
ENDBRANCH   5  25
BRANCH   7  27
ATOM     27  O   UNL     1     268.544 -32.401  47.530  1.00  0.00    -0.507 OA
ATOM     28  H   UNL     1     267.749 -31.779  47.503  1.00  0.00     0.293 HD
ENDBRANCH   7  27
TORSDOF 7
ENDMDL
MODEL 5
REMARK VINA RESULT:    -5.652     13.770     16.252
REMARK INTER + INTRA:          -7.346
REMARK INTER:                  -6.963
REMARK INTRA:                  -0.383
REMARK UNBOUND:                -0.373
REMARK SMILES Oc1cc(O)c2cc(O)c(-c3cc(O)c(O)c(O)c3)[o+]c2c1.[Cl-]
REMARK SMILES IDX 10 1 20 2 21 3 22 4 2 5 3 6 4 7 6 8 7 9 8 10 11 11 12 12
REMARK SMILES IDX 13 13 19 14 15 15 17 16 14 17 16 19 18 21 9 23 1 25 5 27
REMARK H PARENT 14 18 16 20 18 22 9 24 1 26 5 28
REMARK Flexibility Score: inf
ROOT
ATOM      1  C   UNL     1     262.913 -28.012  57.907  1.00  0.00     0.402 A 
ATOM      2  O   UNL     1     261.649 -28.430  57.883  1.00  0.00    -0.202 OA
ATOM      3  C   UNL     1     260.774 -28.156  58.843  1.00  0.00     0.368 A 
ATOM      4  C   UNL     1     259.468 -28.642  58.731  1.00  0.00     0.162 A 
ATOM      5  C   UNL     1     258.526 -28.372  59.728  1.00  0.00     0.128 A 
ATOM      6  C   UNL     1     258.892 -27.614  60.843  1.00  0.00     0.093 A 
ATOM      7  C   UNL     1     260.193 -27.114  60.979  1.00  0.00     0.136 A 
ATOM      8  C   UNL     1     261.152 -27.384  59.968  1.00  0.00     0.125 A 
ATOM      9  C   UNL     1     262.475 -26.915  60.014  1.00  0.00     0.078 A 
ATOM     10  C   UNL     1     263.363 -27.218  58.976  1.00  0.00     0.223 A 
ENDROOT
BRANCH   1  11
ATOM     11  C   UNL     1     263.797 -28.392  56.780  1.00  0.00     0.091 A 
ATOM     12  C   UNL     1     264.642 -29.511  56.858  1.00  0.00     0.068 A 
ATOM     13  C   UNL     1     265.453 -29.868  55.777  1.00  0.00     0.162 A 
ATOM     14  C   UNL     1     263.752 -27.652  55.589  1.00  0.00     0.068 A 
ATOM     15  C   UNL     1     265.420 -29.111  54.594  1.00  0.00     0.200 A 
ATOM     16  C   UNL     1     264.563 -28.002  54.500  1.00  0.00     0.162 A 
BRANCH  13  17
ATOM     17  O   UNL     1     266.284 -30.983  55.896  1.00  0.00    -0.504 OA
ATOM     18  H   UNL     1     266.333 -31.530  56.747  1.00  0.00     0.293 HD
ENDBRANCH  13  17
BRANCH  15  19
ATOM     19  O   UNL     1     266.237 -29.472  53.521  1.00  0.00    -0.502 OA
ATOM     20  H   UNL     1     267.229 -29.643  53.631  1.00  0.00     0.293 HD
ENDBRANCH  15  19
BRANCH  16  21
ATOM     21  O   UNL     1     264.518 -27.251  53.326  1.00  0.00    -0.504 OA
ATOM     22  H   UNL     1     263.869 -27.471  52.579  1.00  0.00     0.293 HD
ENDBRANCH  16  21
ENDBRANCH   1  11
BRANCH  10  23
ATOM     23  O   UNL     1     264.662 -26.711  58.998  1.00  0.00    -0.500 OA
ATOM     24  H   UNL     1     264.954 -26.020  59.679  1.00  0.00     0.294 HD
ENDBRANCH  10  23
BRANCH   5  25
ATOM     25  O   UNL     1     257.223 -28.852  59.623  1.00  0.00    -0.507 OA
ATOM     26  H   UNL     1     256.994 -29.636  59.023  1.00  0.00     0.293 HD
ENDBRANCH   5  25
BRANCH   7  27
ATOM     27  O   UNL     1     260.480 -26.367  62.125  1.00  0.00    -0.507 OA
ATOM     28  H   UNL     1     260.004 -26.474  63.010  1.00  0.00     0.293 HD
ENDBRANCH   7  27
TORSDOF 7
ENDMDL
MODEL 6
REMARK VINA RESULT:    -5.612      1.152      2.628
REMARK INTER + INTRA:          -7.297
REMARK INTER:                  -6.917
REMARK INTRA:                  -0.380
REMARK UNBOUND:                -0.373
REMARK SMILES Oc1cc(O)c2cc(O)c(-c3cc(O)c(O)c(O)c3)[o+]c2c1.[Cl-]
REMARK SMILES IDX 10 1 20 2 21 3 22 4 2 5 3 6 4 7 6 8 7 9 8 10 11 11 12 12
REMARK SMILES IDX 13 13 19 14 15 15 17 16 14 17 16 19 18 21 9 23 1 25 5 27
REMARK H PARENT 14 18 16 20 18 22 9 24 1 26 5 28
REMARK Flexibility Score: inf
ROOT
ATOM      1  C   UNL     1     253.521 -24.248  46.881  1.00  0.00     0.402 A 
ATOM      2  O   UNL     1     252.401 -24.162  46.166  1.00  0.00    -0.202 OA
ATOM      3  C   UNL     1     252.375 -24.244  44.841  1.00  0.00     0.368 A 
ATOM      4  C   UNL     1     251.150 -24.140  44.178  1.00  0.00     0.162 A 
ATOM      5  C   UNL     1     251.093 -24.219  42.783  1.00  0.00     0.128 A 
ATOM      6  C   UNL     1     252.266 -24.403  42.049  1.00  0.00     0.093 A 
ATOM      7  C   UNL     1     253.507 -24.512  42.689  1.00  0.00     0.136 A 
ATOM      8  C   UNL     1     253.570 -24.433  44.105  1.00  0.00     0.125 A 
ATOM      9  C   UNL     1     254.766 -24.544  44.832  1.00  0.00     0.078 A 
ATOM     10  C   UNL     1     254.748 -24.462  46.228  1.00  0.00     0.223 A 
ENDROOT
BRANCH   1  11
ATOM     11  C   UNL     1     253.422 -24.130  48.354  1.00  0.00     0.091 A 
ATOM     12  C   UNL     1     253.240 -25.261  49.168  1.00  0.00     0.068 A 
ATOM     13  C   UNL     1     253.172 -25.134  50.558  1.00  0.00     0.162 A 
ATOM     14  C   UNL     1     253.568 -22.872  48.957  1.00  0.00     0.068 A 
ATOM     15  C   UNL     1     253.296 -23.868  51.156  1.00  0.00     0.200 A 
ATOM     16  C   UNL     1     253.499 -22.735  50.351  1.00  0.00     0.162 A 
BRANCH  13  17
ATOM     17  O   UNL     1     252.983 -26.280  51.332  1.00  0.00    -0.504 OA
ATOM     18  H   UNL     1     252.421 -27.060  51.012  1.00  0.00     0.293 HD
ENDBRANCH  13  17
BRANCH  15  19
ATOM     19  O   UNL     1     253.221 -23.750  52.545  1.00  0.00    -0.502 OA
ATOM     20  H   UNL     1     252.856 -22.921  52.997  1.00  0.00     0.293 HD
ENDBRANCH  15  19
BRANCH  16  21
ATOM     21  O   UNL     1     253.632 -21.477  50.937  1.00  0.00    -0.504 OA
ATOM     22  H   UNL     1     253.803 -21.369  51.930  1.00  0.00     0.293 HD
ENDBRANCH  16  21
ENDBRANCH   1  11
BRANCH  10  23
ATOM     23  O   UNL     1     255.929 -24.621  46.953  1.00  0.00    -0.500 OA
ATOM     24  H   UNL     1     256.782 -24.138  46.695  1.00  0.00     0.294 HD
ENDBRANCH  10  23
BRANCH   5  25
ATOM     25  O   UNL     1     249.875 -24.117  42.115  1.00  0.00    -0.507 OA
ATOM     26  H   UNL     1     249.321 -24.937  41.893  1.00  0.00     0.293 HD
ENDBRANCH   5  25
BRANCH   7  27
ATOM     27  O   UNL     1     254.634 -24.691  41.882  1.00  0.00    -0.507 OA
ATOM     28  H   UNL     1     254.717 -24.354  40.934  1.00  0.00     0.293 HD
ENDBRANCH   7  27
TORSDOF 7
ENDMDL
MODEL 7
REMARK VINA RESULT:    -5.585     10.808     13.640
REMARK INTER + INTRA:          -7.264
REMARK INTER:                  -7.189
REMARK INTRA:                  -0.075
REMARK UNBOUND:                -0.373
REMARK SMILES Oc1cc(O)c2cc(O)c(-c3cc(O)c(O)c(O)c3)[o+]c2c1.[Cl-]
REMARK SMILES IDX 10 1 20 2 21 3 22 4 2 5 3 6 4 7 6 8 7 9 8 10 11 11 12 12
REMARK SMILES IDX 13 13 19 14 15 15 17 16 14 17 16 19 18 21 9 23 1 25 5 27
REMARK H PARENT 14 18 16 20 18 22 9 24 1 26 5 28
REMARK Flexibility Score: inf
ROOT
ATOM      1  C   UNL     1     261.805 -27.538  57.163  1.00  0.00     0.402 A 
ATOM      2  O   UNL     1     261.234 -27.300  55.984  1.00  0.00    -0.202 OA
ATOM      3  C   UNL     1     261.910 -27.267  54.841  1.00  0.00     0.368 A 
ATOM      4  C   UNL     1     261.222 -27.007  53.653  1.00  0.00     0.162 A 
ATOM      5  C   UNL     1     261.909 -26.962  52.435  1.00  0.00     0.128 A 
ATOM      6  C   UNL     1     263.288 -27.178  52.407  1.00  0.00     0.093 A 
ATOM      7  C   UNL     1     264.000 -27.441  53.583  1.00  0.00     0.136 A 
ATOM      8  C   UNL     1     263.308 -27.489  54.821  1.00  0.00     0.125 A 
ATOM      9  C   UNL     1     263.936 -27.759  56.048  1.00  0.00     0.078 A 
ATOM     10  C   UNL     1     263.186 -27.795  57.227  1.00  0.00     0.223 A 
ENDROOT
BRANCH   1  11
ATOM     11  C   UNL     1     260.945 -27.539  58.369  1.00  0.00     0.091 A 
ATOM     12  C   UNL     1     261.302 -26.821  59.522  1.00  0.00     0.068 A 
ATOM     13  C   UNL     1     260.467 -26.815  60.644  1.00  0.00     0.162 A 
ATOM     14  C   UNL     1     259.722 -28.226  58.344  1.00  0.00     0.068 A 
ATOM     15  C   UNL     1     259.254 -27.522  60.622  1.00  0.00     0.200 A 
ATOM     16  C   UNL     1     258.879 -28.226  59.464  1.00  0.00     0.162 A 
BRANCH  13  17
ATOM     17  O   UNL     1     260.860 -26.095  61.773  1.00  0.00    -0.504 OA
ATOM     18  H   UNL     1     261.014 -26.541  62.670  1.00  0.00     0.293 HD
ENDBRANCH  13  17
BRANCH  15  19
ATOM     19  O   UNL     1     258.429 -27.515  61.748  1.00  0.00    -0.502 OA
ATOM     20  H   UNL     1     257.492 -27.898  61.733  1.00  0.00     0.293 HD
ENDBRANCH  15  19
BRANCH  16  21
ATOM     21  O   UNL     1     257.673 -28.924  59.431  1.00  0.00    -0.504 OA
ATOM     22  H   UNL     1     257.425 -29.519  58.649  1.00  0.00     0.293 HD
ENDBRANCH  16  21
ENDBRANCH   1  11
BRANCH  10  23
ATOM     23  O   UNL     1     263.801 -28.111  58.438  1.00  0.00    -0.500 OA
ATOM     24  H   UNL     1     264.241 -29.011  58.594  1.00  0.00     0.294 HD
ENDBRANCH  10  23
BRANCH   5  25
ATOM     25  O   UNL     1     261.230 -26.704  51.246  1.00  0.00    -0.507 OA
ATOM     26  H   UNL     1     260.437 -27.264  50.957  1.00  0.00     0.293 HD
ENDBRANCH   5  25
BRANCH   7  27
ATOM     27  O   UNL     1     265.379 -27.643  53.470  1.00  0.00    -0.507 OA
ATOM     28  H   UNL     1     266.064 -26.901  53.448  1.00  0.00     0.293 HD
ENDBRANCH   7  27
TORSDOF 7
ENDMDL
MODEL 8
REMARK VINA RESULT:    -5.584     11.865     13.740
REMARK INTER + INTRA:          -7.263
REMARK INTER:                  -6.933
REMARK INTRA:                  -0.330
REMARK UNBOUND:                -0.373
REMARK SMILES Oc1cc(O)c2cc(O)c(-c3cc(O)c(O)c(O)c3)[o+]c2c1.[Cl-]
REMARK SMILES IDX 10 1 20 2 21 3 22 4 2 5 3 6 4 7 6 8 7 9 8 10 11 11 12 12
REMARK SMILES IDX 13 13 19 14 15 15 17 16 14 17 16 19 18 21 9 23 1 25 5 27
REMARK H PARENT 14 18 16 20 18 22 9 24 1 26 5 28
REMARK Flexibility Score: inf
ROOT
ATOM      1  C   UNL     1     262.697 -25.277  55.379  1.00  0.00     0.402 A 
ATOM      2  O   UNL     1     263.296 -24.339  56.109  1.00  0.00    -0.202 OA
ATOM      3  C   UNL     1     263.797 -23.222  55.592  1.00  0.00     0.368 A 
ATOM      4  C   UNL     1     264.411 -22.297  56.440  1.00  0.00     0.162 A 
ATOM      5  C   UNL     1     264.950 -21.115  55.923  1.00  0.00     0.128 A 
ATOM      6  C   UNL     1     264.875 -20.859  54.553  1.00  0.00     0.093 A 
ATOM      7  C   UNL     1     264.265 -21.769  53.682  1.00  0.00     0.136 A 
ATOM      8  C   UNL     1     263.715 -22.970  54.202  1.00  0.00     0.125 A 
ATOM      9  C   UNL     1     263.074 -23.933  53.407  1.00  0.00     0.078 A 
ATOM     10  C   UNL     1     262.550 -25.090  53.993  1.00  0.00     0.223 A 
ENDROOT
BRANCH   1  11
ATOM     11  C   UNL     1     262.187 -26.484  56.071  1.00  0.00     0.091 A 
ATOM     12  C   UNL     1     260.819 -26.648  56.344  1.00  0.00     0.068 A 
ATOM     13  C   UNL     1     260.353 -27.804  56.977  1.00  0.00     0.162 A 
ATOM     14  C   UNL     1     263.079 -27.511  56.411  1.00  0.00     0.068 A 
ATOM     15  C   UNL     1     261.254 -28.820  57.336  1.00  0.00     0.200 A 
ATOM     16  C   UNL     1     262.621 -28.673  57.047  1.00  0.00     0.162 A 
BRANCH  13  17
ATOM     17  O   UNL     1     258.988 -27.926  57.238  1.00  0.00    -0.504 OA
ATOM     18  H   UNL     1     258.558 -27.520  58.061  1.00  0.00     0.293 HD
ENDBRANCH  13  17
BRANCH  15  19
ATOM     19  O   UNL     1     260.781 -29.969  57.973  1.00  0.00    -0.502 OA
ATOM     20  H   UNL     1     260.631 -30.838  57.477  1.00  0.00     0.293 HD
ENDBRANCH  15  19
BRANCH  16  21
ATOM     21  O   UNL     1     263.520 -29.682  57.393  1.00  0.00    -0.504 OA
ATOM     22  H   UNL     1     264.446 -29.469  57.748  1.00  0.00     0.293 HD
ENDBRANCH  16  21
ENDBRANCH   1  11
BRANCH  10  23
ATOM     23  O   UNL     1     261.871 -26.024  53.211  1.00  0.00    -0.500 OA
ATOM     24  H   UNL     1     260.862 -26.114  53.244  1.00  0.00     0.294 HD
ENDBRANCH  10  23
BRANCH   5  25
ATOM     25  O   UNL     1     265.563 -20.187  56.762  1.00  0.00    -0.507 OA
ATOM     26  H   UNL     1     265.619 -19.206  56.515  1.00  0.00     0.293 HD
ENDBRANCH   5  25
BRANCH   7  27
ATOM     27  O   UNL     1     264.234 -21.440  52.324  1.00  0.00    -0.507 OA
ATOM     28  H   UNL     1     263.449 -21.006  51.859  1.00  0.00     0.293 HD
ENDBRANCH   7  27
TORSDOF 7
ENDMDL
MODEL 9
REMARK VINA RESULT:    -5.552     16.090     17.431
REMARK INTER + INTRA:          -7.223
REMARK INTER:                  -6.845
REMARK INTRA:                  -0.378
REMARK UNBOUND:                -0.373
REMARK SMILES Oc1cc(O)c2cc(O)c(-c3cc(O)c(O)c(O)c3)[o+]c2c1.[Cl-]
REMARK SMILES IDX 10 1 20 2 21 3 22 4 2 5 3 6 4 7 6 8 7 9 8 10 11 11 12 12
REMARK SMILES IDX 13 13 19 14 15 15 17 16 14 17 16 19 18 21 9 23 1 25 5 27
REMARK H PARENT 14 18 16 20 18 22 9 24 1 26 5 28
REMARK Flexibility Score: inf
ROOT
ATOM      1  C   UNL     1     267.929 -33.710  48.691  1.00  0.00     0.402 A 
ATOM      2  O   UNL     1     267.571 -34.851  48.105  1.00  0.00    -0.202 OA
ATOM      3  C   UNL     1     267.964 -35.197  46.884  1.00  0.00     0.368 A 
ATOM      4  C   UNL     1     267.533 -36.415  46.352  1.00  0.00     0.162 A 
ATOM      5  C   UNL     1     267.927 -36.803  45.068  1.00  0.00     0.128 A 
ATOM      6  C   UNL     1     268.755 -35.970  44.313  1.00  0.00     0.093 A 
ATOM      7  C   UNL     1     269.201 -34.744  44.823  1.00  0.00     0.136 A 
ATOM      8  C   UNL     1     268.804 -34.346  46.127  1.00  0.00     0.125 A 
ATOM      9  C   UNL     1     269.212 -33.143  46.724  1.00  0.00     0.078 A 
ATOM     10  C   UNL     1     268.785 -32.821  48.016  1.00  0.00     0.223 A 
ENDROOT
BRANCH   1  11
ATOM     11  C   UNL     1     267.417 -33.432  50.053  1.00  0.00     0.091 A 
ATOM     12  C   UNL     1     268.147 -33.796  51.197  1.00  0.00     0.068 A 
ATOM     13  C   UNL     1     267.659 -33.506  52.475  1.00  0.00     0.162 A 
ATOM     14  C   UNL     1     266.206 -32.741  50.207  1.00  0.00     0.068 A 
ATOM     15  C   UNL     1     266.435 -32.833  52.624  1.00  0.00     0.200 A 
ATOM     16  C   UNL     1     265.709 -32.447  51.484  1.00  0.00     0.162 A 
BRANCH  13  17
ATOM     17  O   UNL     1     268.409 -33.890  53.586  1.00  0.00    -0.504 OA
ATOM     18  H   UNL     1     268.231 -33.518  54.512  1.00  0.00     0.293 HD
ENDBRANCH  13  17
BRANCH  15  19
ATOM     19  O   UNL     1     265.953 -32.552  53.903  1.00  0.00    -0.502 OA
ATOM     20  H   UNL     1     265.310 -33.167  54.385  1.00  0.00     0.293 HD
ENDBRANCH  15  19
BRANCH  16  21
ATOM     21  O   UNL     1     264.497 -31.772  51.624  1.00  0.00    -0.504 OA
ATOM     22  H   UNL     1     264.379 -30.819  51.298  1.00  0.00     0.293 HD
ENDBRANCH  16  21
ENDBRANCH   1  11
BRANCH  10  23
ATOM     23  O   UNL     1     269.229 -31.650  48.629  1.00  0.00    -0.500 OA
ATOM     24  H   UNL     1     269.209 -31.533  49.635  1.00  0.00     0.294 HD
ENDBRANCH  10  23
BRANCH   5  25
ATOM     25  O   UNL     1     267.503 -38.016  44.531  1.00  0.00    -0.507 OA
ATOM     26  H   UNL     1     267.857 -38.901  44.875  1.00  0.00     0.293 HD
ENDBRANCH   5  25
BRANCH   7  27
ATOM     27  O   UNL     1     270.024 -33.966  44.004  1.00  0.00    -0.507 OA
ATOM     28  H   UNL     1     270.778 -34.333  43.440  1.00  0.00     0.293 HD
ENDBRANCH   7  27
TORSDOF 7
ENDMDL
