MODEL 1
REMARK VINA RESULT:    -3.164      0.000      0.000
REMARK INTER + INTRA:          -3.836
REMARK INTER:                  -3.718
REMARK INTRA:                  -0.118
REMARK UNBOUND:                -0.118
REMARK SMILES CCCCC(=O)[O-]
REMARK SMILES IDX 4 1 5 2 6 3 7 4 3 5 2 6 1 7
REMARK H PARENT
REMARK Flexibility Score: inf
ROOT
ATOM      1  C   UNL     1      14.080  41.698  28.728  1.00  0.00     0.053 C 
ENDROOT
BRANCH   1   2
ATOM      2  C   UNL     1      13.660  40.584  27.822  1.00  0.00     0.041 C 
ATOM      3  O   UNL     1      12.476  40.155  27.851  1.00  0.00    -0.550 OA
ATOM      4  O   UNL     1      14.589  39.984  26.982  1.00  0.00    -0.550 OA
ENDBRANCH   1   2
BRANCH   1   5
ATOM      5  C   UNL     1      15.491  41.444  29.272  1.00  0.00     0.006 C 
BRANCH   5   6
ATOM      6  C   UNL     1      15.530  40.307  30.303  1.00  0.00    -0.003 C 
ATOM      7  C   UNL     1      16.508  39.196  29.922  1.00  0.00     0.004 C 
ENDBRANCH   5   6
ENDBRANCH   1   5
TORSDOF 3
ENDMDL
MODEL 2
REMARK VINA RESULT:    -3.097      2.069      3.079
REMARK INTER + INTRA:          -3.759
REMARK INTER:                  -3.647
REMARK INTRA:                  -0.111
REMARK UNBOUND:                -0.118
REMARK SMILES CCCCC(=O)[O-]
REMARK SMILES IDX 4 1 5 2 6 3 7 4 3 5 2 6 1 7
REMARK H PARENT
REMARK Flexibility Score: inf
ROOT
ATOM      1  C   UNL     1      14.433  41.770  29.016  1.00  0.00     0.053 C 
ENDROOT
BRANCH   1   2
ATOM      2  C   UNL     1      15.511  40.850  29.494  1.00  0.00     0.041 C 
ATOM      3  O   UNL     1      15.395  40.257  30.599  1.00  0.00    -0.550 OA
ATOM      4  O   UNL     1      16.668  40.685  28.743  1.00  0.00    -0.550 OA
ENDBRANCH   1   2
BRANCH   1   5
ATOM      5  C   UNL     1      13.827  41.252  27.706  1.00  0.00     0.006 C 
BRANCH   5   6
ATOM      6  C   UNL     1      12.819  40.115  27.932  1.00  0.00    -0.003 C 
ATOM      7  C   UNL     1      13.262  38.797  27.296  1.00  0.00     0.004 C 
ENDBRANCH   5   6
ENDBRANCH   1   5
TORSDOF 3
ENDMDL
MODEL 3
REMARK VINA RESULT:    -3.062     10.525     11.824
REMARK INTER + INTRA:          -3.716
REMARK INTER:                  -3.693
REMARK INTRA:                  -0.024
REMARK UNBOUND:                -0.118
REMARK SMILES CCCCC(=O)[O-]
REMARK SMILES IDX 4 1 5 2 6 3 7 4 3 5 2 6 1 7
REMARK H PARENT
REMARK Flexibility Score: inf
ROOT
ATOM      1  C   UNL     1      10.673  45.056  19.963  1.00  0.00     0.053 C 
ENDROOT
BRANCH   1   2
ATOM      2  C   UNL     1      10.037  43.719  19.752  1.00  0.00     0.041 C 
ATOM      3  O   UNL     1       8.794  43.629  19.571  1.00  0.00    -0.550 OA
ATOM      4  O   UNL     1      10.810  42.566  19.803  1.00  0.00    -0.550 OA
ENDBRANCH   1   2
BRANCH   1   5
ATOM      5  C   UNL     1       9.763  46.172  19.433  1.00  0.00     0.006 C 
BRANCH   5   6
ATOM      6  C   UNL     1      10.553  47.329  18.804  1.00  0.00    -0.003 C 
ATOM      7  C   UNL     1       9.664  48.511  18.416  1.00  0.00     0.004 C 
ENDBRANCH   5   6
ENDBRANCH   1   5
TORSDOF 3
ENDMDL
MODEL 4
REMARK VINA RESULT:    -3.029     11.550     12.885
REMARK INTER + INTRA:          -3.678
REMARK INTER:                  -3.656
REMARK INTRA:                  -0.022
REMARK UNBOUND:                -0.118
REMARK SMILES CCCCC(=O)[O-]
REMARK SMILES IDX 4 1 5 2 6 3 7 4 3 5 2 6 1 7
REMARK H PARENT
REMARK Flexibility Score: inf
ROOT
ATOM      1  C   UNL     1      10.942  46.729  18.806  1.00  0.00     0.053 C 
ENDROOT
BRANCH   1   2
ATOM      2  C   UNL     1      10.652  45.484  19.583  1.00  0.00     0.041 C 
ATOM      3  O   UNL     1       9.484  45.015  19.616  1.00  0.00    -0.550 OA
ATOM      4  O   UNL     1      11.661  44.868  20.311  1.00  0.00    -0.550 OA
ENDBRANCH   1   2
BRANCH   1   5
ATOM      5  C   UNL     1       9.888  47.803  19.103  1.00  0.00     0.006 C 
BRANCH   5   6
ATOM      6  C   UNL     1       9.840  48.896  18.024  1.00  0.00    -0.003 C 
ATOM      7  C   UNL     1       8.413  49.269  17.623  1.00  0.00     0.004 C 
ENDBRANCH   5   6
ENDBRANCH   1   5
TORSDOF 3
ENDMDL
MODEL 5
REMARK VINA RESULT:    -3.013      2.088      3.325
REMARK INTER + INTRA:          -3.659
REMARK INTER:                  -3.568
REMARK INTRA:                  -0.092
REMARK UNBOUND:                -0.118
REMARK SMILES CCCCC(=O)[O-]
REMARK SMILES IDX 4 1 5 2 6 3 7 4 3 5 2 6 1 7
REMARK H PARENT
REMARK Flexibility Score: inf
ROOT
ATOM      1  C   UNL     1      15.465  40.297  30.319  1.00  0.00     0.053 C 
ENDROOT
BRANCH   1   2
ATOM      2  C   UNL     1      16.172  39.043  29.915  1.00  0.00     0.041 C 
ATOM      3  O   UNL     1      15.515  38.043  29.520  1.00  0.00    -0.550 OA
ATOM      4  O   UNL     1      17.554  38.958  30.022  1.00  0.00    -0.550 OA
ENDBRANCH   1   2
BRANCH   1   5
ATOM      5  C   UNL     1      15.474  41.311  29.168  1.00  0.00     0.006 C 
BRANCH   5   6
ATOM      6  C   UNL     1      14.059  41.714  28.727  1.00  0.00    -0.003 C 
ATOM      7  C   UNL     1      13.298  40.568  28.060  1.00  0.00     0.004 C 
ENDBRANCH   5   6
ENDBRANCH   1   5
TORSDOF 3
ENDMDL
MODEL 6
REMARK VINA RESULT:    -3.010      1.399      1.991
REMARK INTER + INTRA:          -3.655
REMARK INTER:                  -3.604
REMARK INTRA:                  -0.051
REMARK UNBOUND:                -0.118
REMARK SMILES CCCCC(=O)[O-]
REMARK SMILES IDX 4 1 5 2 6 3 7 4 3 5 2 6 1 7
REMARK H PARENT
REMARK Flexibility Score: inf
ROOT
ATOM      1  C   UNL     1      15.576  41.297  29.339  1.00  0.00     0.053 C 
ENDROOT
BRANCH   1   2
ATOM      2  C   UNL     1      14.220  41.697  28.850  1.00  0.00     0.041 C 
ATOM      3  O   UNL     1      13.946  42.912  28.662  1.00  0.00    -0.550 OA
ATOM      4  O   UNL     1      13.241  40.733  28.650  1.00  0.00    -0.550 OA
ENDBRANCH   1   2
BRANCH   1   5
ATOM      5  C   UNL     1      15.463  40.161  30.363  1.00  0.00     0.006 C 
BRANCH   5   6
ATOM      6  C   UNL     1      16.092  38.852  29.863  1.00  0.00    -0.003 C 
ATOM      7  C   UNL     1      17.618  38.916  29.799  1.00  0.00     0.004 C 
ENDBRANCH   5   6
ENDBRANCH   1   5
TORSDOF 3
ENDMDL
MODEL 7
REMARK VINA RESULT:    -2.984     12.397     13.430
REMARK INTER + INTRA:          -3.625
REMARK INTER:                  -3.604
REMARK INTRA:                  -0.022
REMARK UNBOUND:                -0.118
REMARK SMILES CCCCC(=O)[O-]
REMARK SMILES IDX 4 1 5 2 6 3 7 4 3 5 2 6 1 7
REMARK H PARENT
REMARK Flexibility Score: inf
ROOT
ATOM      1  C   UNL     1      10.442  48.038  18.307  1.00  0.00     0.053 C 
ENDROOT
BRANCH   1   2
ATOM      2  C   UNL     1       9.428  49.089  17.986  1.00  0.00     0.041 C 
ATOM      3  O   UNL     1       8.214  48.780  17.855  1.00  0.00    -0.550 OA
ATOM      4  O   UNL     1       9.829  50.403  17.782  1.00  0.00    -0.550 OA
ENDBRANCH   1   2
BRANCH   1   5
ATOM      5  C   UNL     1       9.828  46.957  19.205  1.00  0.00     0.006 C 
BRANCH   5   6
ATOM      6  C   UNL     1      10.721  45.713  19.326  1.00  0.00    -0.003 C 
ATOM      7  C   UNL     1      10.022  44.549  20.029  1.00  0.00     0.004 C 
ENDBRANCH   5   6
ENDBRANCH   1   5
TORSDOF 3
ENDMDL
MODEL 8
REMARK VINA RESULT:    -2.973     10.648     11.345
REMARK INTER + INTRA:          -3.612
REMARK INTER:                  -3.572
REMARK INTRA:                  -0.040
REMARK UNBOUND:                -0.118
REMARK SMILES CCCCC(=O)[O-]
REMARK SMILES IDX 4 1 5 2 6 3 7 4 3 5 2 6 1 7
REMARK H PARENT
REMARK Flexibility Score: inf
ROOT
ATOM      1  C   UNL     1       9.787  45.509  19.466  1.00  0.00     0.053 C 
ENDROOT
BRANCH   1   2
ATOM      2  C   UNL     1      10.670  46.716  19.519  1.00  0.00     0.041 C 
ATOM      3  O   UNL     1      11.917  46.584  19.638  1.00  0.00    -0.550 OA
ATOM      4  O   UNL     1      10.112  47.987  19.486  1.00  0.00    -0.550 OA
ENDBRANCH   1   2
BRANCH   1   5
ATOM      5  C   UNL     1      10.258  44.456  20.478  1.00  0.00     0.006 C 
BRANCH   5   6
ATOM      6  C   UNL     1      10.344  43.049  19.867  1.00  0.00    -0.003 C 
ATOM      7  C   UNL     1       9.086  42.217  20.119  1.00  0.00     0.004 C 
ENDBRANCH   5   6
ENDBRANCH   1   5
TORSDOF 3
ENDMDL
MODEL 9
REMARK VINA RESULT:    -2.952     11.699     12.597
REMARK INTER + INTRA:          -3.587
REMARK INTER:                  -3.545
REMARK INTRA:                  -0.043
REMARK UNBOUND:                -0.118
REMARK SMILES CCCCC(=O)[O-]
REMARK SMILES IDX 4 1 5 2 6 3 7 4 3 5 2 6 1 7
REMARK H PARENT
REMARK Flexibility Score: inf
ROOT
ATOM      1  C   UNL     1      11.705  46.572  19.263  1.00  0.00     0.053 C 
ENDROOT
BRANCH   1   2
ATOM      2  C   UNL     1      10.211  46.583  19.202  1.00  0.00     0.041 C 
ATOM      3  O   UNL     1       9.554  45.565  19.547  1.00  0.00    -0.550 OA
ATOM      4  O   UNL     1       9.543  47.700  18.718  1.00  0.00    -0.550 OA
ENDBRANCH   1   2
BRANCH   1   5
ATOM      5  C   UNL     1      12.287  45.887  18.020  1.00  0.00     0.006 C 
BRANCH   5   6
ATOM      6  C   UNL     1      12.920  46.885  17.039  1.00  0.00    -0.003 C 
ATOM      7  C   UNL     1      14.436  46.995  17.202  1.00  0.00     0.004 C 
ENDBRANCH   5   6
ENDBRANCH   1   5
TORSDOF 3
ENDMDL
