MODEL 1
REMARK VINA RESULT:    -4.190      0.000      0.000
REMARK INTER + INTRA:          -5.874
REMARK INTER:                  -5.660
REMARK INTRA:                  -0.214
REMARK UNBOUND:                -0.214
REMARK SMILES CCCCCCCC(=O)[O-]
REMARK SMILES IDX 5 1 6 2 7 3 8 4 9 5 10 6 4 7 3 8 2 9 1 10
REMARK H PARENT
REMARK Flexibility Score: inf
ROOT
ATOM      1  C   UNL     1      -2.195  38.035  18.621  1.00  0.00     0.000 C 
ENDROOT
BRANCH   1   2
ATOM      2  C   UNL     1      -3.653  37.629  18.886  1.00  0.00     0.006 C 
BRANCH   2   3
ATOM      3  C   UNL     1      -4.172  38.265  20.179  1.00  0.00     0.053 C 
BRANCH   3   4
ATOM      4  C   UNL     1      -4.949  37.268  20.979  1.00  0.00     0.041 C 
ATOM      5  O   UNL     1      -5.666  36.410  20.398  1.00  0.00    -0.550 OA
ATOM      6  O   UNL     1      -4.922  37.318  22.367  1.00  0.00    -0.550 OA
ENDBRANCH   3   4
ENDBRANCH   2   3
ENDBRANCH   1   2
BRANCH   1   7
ATOM      7  C   UNL     1      -1.662  37.514  17.273  1.00  0.00     0.000 C 
BRANCH   7   8
ATOM      8  C   UNL     1      -2.742  37.020  16.295  1.00  0.00    -0.000 C 
BRANCH   8   9
ATOM      9  C   UNL     1      -2.446  37.397  14.836  1.00  0.00    -0.003 C 
ATOM     10  C   UNL     1      -3.647  38.085  14.192  1.00  0.00     0.004 C 
ENDBRANCH   8   9
ENDBRANCH   7   8
ENDBRANCH   1   7
TORSDOF 6
ENDMDL
MODEL 2
REMARK VINA RESULT:    -4.131      1.172      1.564
REMARK INTER + INTRA:          -5.793
REMARK INTER:                  -5.611
REMARK INTRA:                  -0.183
REMARK UNBOUND:                -0.214
REMARK SMILES CCCCCCCC(=O)[O-]
REMARK SMILES IDX 5 1 6 2 7 3 8 4 9 5 10 6 4 7 3 8 2 9 1 10
REMARK H PARENT
REMARK Flexibility Score: inf
ROOT
ATOM      1  C   UNL     1      -3.680  37.986  19.175  1.00  0.00     0.000 C 
ENDROOT
BRANCH   1   2
ATOM      2  C   UNL     1      -4.025  36.644  19.837  1.00  0.00     0.006 C 
BRANCH   2   3
ATOM      3  C   UNL     1      -5.309  36.755  20.665  1.00  0.00     0.053 C 
BRANCH   3   4
ATOM      4  C   UNL     1      -4.986  36.916  22.116  1.00  0.00     0.041 C 
ATOM      5  O   UNL     1      -4.756  38.060  22.592  1.00  0.00    -0.550 OA
ATOM      6  O   UNL     1      -4.889  35.798  22.935  1.00  0.00    -0.550 OA
ENDBRANCH   3   4
ENDBRANCH   2   3
ENDBRANCH   1   2
BRANCH   1   7
ATOM      7  C   UNL     1      -2.513  37.879  18.176  1.00  0.00     0.000 C 
BRANCH   7   8
ATOM      8  C   UNL     1      -2.750  36.914  17.000  1.00  0.00    -0.000 C 
BRANCH   8   9
ATOM      9  C   UNL     1      -2.080  37.380  15.699  1.00  0.00    -0.003 C 
ATOM     10  C   UNL     1      -3.117  37.633  14.608  1.00  0.00     0.004 C 
ENDBRANCH   8   9
ENDBRANCH   7   8
ENDBRANCH   1   7
TORSDOF 6
ENDMDL
MODEL 3
REMARK VINA RESULT:    -4.091      3.095      5.638
REMARK INTER + INTRA:          -5.739
REMARK INTER:                  -5.444
REMARK INTRA:                  -0.295
REMARK UNBOUND:                -0.214
REMARK SMILES CCCCCCCC(=O)[O-]
REMARK SMILES IDX 5 1 6 2 7 3 8 4 9 5 10 6 4 7 3 8 2 9 1 10
REMARK H PARENT
REMARK Flexibility Score: inf
ROOT
ATOM      1  C   UNL     1      -3.876  36.707  19.543  1.00  0.00     0.000 C 
ENDROOT
BRANCH   1   2
ATOM      2  C   UNL     1      -3.511  38.047  18.887  1.00  0.00     0.006 C 
BRANCH   2   3
ATOM      3  C   UNL     1      -2.129  37.976  18.231  1.00  0.00     0.053 C 
BRANCH   3   4
ATOM      4  C   UNL     1      -2.250  37.582  16.793  1.00  0.00     0.041 C 
ATOM      5  O   UNL     1      -1.703  36.526  16.377  1.00  0.00    -0.550 OA
ATOM      6  O   UNL     1      -2.925  38.405  15.901  1.00  0.00    -0.550 OA
ENDBRANCH   3   4
ENDBRANCH   2   3
ENDBRANCH   1   2
BRANCH   1   7
ATOM      7  C   UNL     1      -5.058  36.821  20.524  1.00  0.00     0.000 C 
BRANCH   7   8
ATOM      8  C   UNL     1      -4.748  36.388  21.968  1.00  0.00    -0.000 C 
BRANCH   8   9
ATOM      9  C   UNL     1      -4.964  37.514  22.990  1.00  0.00    -0.003 C 
ATOM     10  C   UNL     1      -4.764  38.884  22.348  1.00  0.00     0.004 C 
ENDBRANCH   8   9
ENDBRANCH   7   8
ENDBRANCH   1   7
TORSDOF 6
ENDMDL
MODEL 4
REMARK VINA RESULT:    -4.085      3.278      5.619
REMARK INTER + INTRA:          -5.731
REMARK INTER:                  -5.404
REMARK INTRA:                  -0.327
REMARK UNBOUND:                -0.214
REMARK SMILES CCCCCCCC(=O)[O-]
REMARK SMILES IDX 5 1 6 2 7 3 8 4 9 5 10 6 4 7 3 8 2 9 1 10
REMARK H PARENT
REMARK Flexibility Score: inf
ROOT
ATOM      1  C   UNL     1      -4.977  36.737  19.926  1.00  0.00     0.000 C 
ENDROOT
BRANCH   1   2
ATOM      2  C   UNL     1      -3.703  36.770  19.068  1.00  0.00     0.006 C 
BRANCH   2   3
ATOM      3  C   UNL     1      -2.980  38.113  19.211  1.00  0.00     0.053 C 
BRANCH   3   4
ATOM      4  C   UNL     1      -1.673  38.085  18.484  1.00  0.00     0.041 C 
ATOM      5  O   UNL     1      -1.585  37.529  17.357  1.00  0.00    -0.550 OA
ATOM      6  O   UNL     1      -0.539  38.630  19.073  1.00  0.00    -0.550 OA
ENDBRANCH   3   4
ENDBRANCH   2   3
ENDBRANCH   1   2
BRANCH   1   7
ATOM      7  C   UNL     1      -5.034  37.877  20.959  1.00  0.00     0.000 C 
BRANCH   7   8
ATOM      8  C   UNL     1      -5.167  37.422  22.423  1.00  0.00    -0.000 C 
BRANCH   8   9
ATOM      9  C   UNL     1      -4.722  38.497  23.426  1.00  0.00    -0.003 C 
ATOM     10  C   UNL     1      -4.349  39.793  22.714  1.00  0.00     0.004 C 
ENDBRANCH   8   9
ENDBRANCH   7   8
ENDBRANCH   1   7
TORSDOF 6
ENDMDL
MODEL 5
REMARK VINA RESULT:    -4.023      1.331      2.148
REMARK INTER + INTRA:          -5.648
REMARK INTER:                  -5.410
REMARK INTRA:                  -0.239
REMARK UNBOUND:                -0.214
REMARK SMILES CCCCCCCC(=O)[O-]
REMARK SMILES IDX 5 1 6 2 7 3 8 4 9 5 10 6 4 7 3 8 2 9 1 10
REMARK H PARENT
REMARK Flexibility Score: inf
ROOT
ATOM      1  C   UNL     1      -3.911  36.674  19.148  1.00  0.00     0.000 C 
ENDROOT
BRANCH   1   2
ATOM      2  C   UNL     1      -4.555  36.786  20.538  1.00  0.00     0.006 C 
BRANCH   2   3
ATOM      3  C   UNL     1      -4.969  38.230  20.836  1.00  0.00     0.053 C 
BRANCH   3   4
ATOM      4  C   UNL     1      -4.685  38.572  22.265  1.00  0.00     0.041 C 
ATOM      5  O   UNL     1      -4.398  39.755  22.588  1.00  0.00    -0.550 OA
ATOM      6  O   UNL     1      -4.690  37.576  23.233  1.00  0.00    -0.550 OA
ENDBRANCH   3   4
ENDBRANCH   2   3
ENDBRANCH   1   2
BRANCH   1   7
ATOM      7  C   UNL     1      -3.206  37.971  18.707  1.00  0.00     0.000 C 
BRANCH   7   8
ATOM      8  C   UNL     1      -2.059  37.778  17.700  1.00  0.00    -0.000 C 
BRANCH   8   9
ATOM      9  C   UNL     1      -2.402  36.775  16.588  1.00  0.00    -0.003 C 
ATOM     10  C   UNL     1      -2.524  37.474  15.236  1.00  0.00     0.004 C 
ENDBRANCH   8   9
ENDBRANCH   7   8
ENDBRANCH   1   7
TORSDOF 6
ENDMDL
MODEL 6
REMARK VINA RESULT:    -4.005      2.538      3.603
REMARK INTER + INTRA:          -5.624
REMARK INTER:                  -5.437
REMARK INTRA:                  -0.187
REMARK UNBOUND:                -0.214
REMARK SMILES CCCCCCCC(=O)[O-]
REMARK SMILES IDX 5 1 6 2 7 3 8 4 9 5 10 6 4 7 3 8 2 9 1 10
REMARK H PARENT
REMARK Flexibility Score: inf
ROOT
ATOM      1  C   UNL     1      -5.060  36.771  20.440  1.00  0.00     0.000 C 
ENDROOT
BRANCH   1   2
ATOM      2  C   UNL     1      -4.872  37.855  21.512  1.00  0.00     0.006 C 
BRANCH   2   3
ATOM      3  C   UNL     1      -5.067  37.276  22.917  1.00  0.00     0.053 C 
BRANCH   3   4
ATOM      4  C   UNL     1      -4.728  38.297  23.956  1.00  0.00     0.041 C 
ATOM      5  O   UNL     1      -4.502  39.491  23.623  1.00  0.00    -0.550 OA
ATOM      6  O   UNL     1      -4.614  37.921  25.289  1.00  0.00    -0.550 OA
ENDBRANCH   3   4
ENDBRANCH   2   3
ENDBRANCH   1   2
BRANCH   1   7
ATOM      7  C   UNL     1      -3.873  36.681  19.462  1.00  0.00     0.000 C 
BRANCH   7   8
ATOM      8  C   UNL     1      -3.320  38.036  18.986  1.00  0.00    -0.000 C 
BRANCH   8   9
ATOM      9  C   UNL     1      -2.107  37.893  18.056  1.00  0.00    -0.003 C 
ATOM     10  C   UNL     1      -0.814  38.260  18.778  1.00  0.00     0.004 C 
ENDBRANCH   8   9
ENDBRANCH   7   8
ENDBRANCH   1   7
TORSDOF 6
ENDMDL
MODEL 7
REMARK VINA RESULT:    -4.003      3.362      5.779
REMARK INTER + INTRA:          -5.620
REMARK INTER:                  -5.358
REMARK INTRA:                  -0.262
REMARK UNBOUND:                -0.214
REMARK SMILES CCCCCCCC(=O)[O-]
REMARK SMILES IDX 5 1 6 2 7 3 8 4 9 5 10 6 4 7 3 8 2 9 1 10
REMARK H PARENT
REMARK Flexibility Score: inf
ROOT
ATOM      1  C   UNL     1      -4.615  36.809  19.959  1.00  0.00     0.000 C 
ENDROOT
BRANCH   1   2
ATOM      2  C   UNL     1      -3.579  36.984  18.838  1.00  0.00     0.006 C 
BRANCH   2   3
ATOM      3  C   UNL     1      -2.675  38.189  19.111  1.00  0.00     0.053 C 
BRANCH   3   4
ATOM      4  C   UNL     1      -1.358  38.024  18.420  1.00  0.00     0.041 C 
ATOM      5  O   UNL     1      -1.312  37.603  17.234  1.00  0.00    -0.550 OA
ATOM      6  O   UNL     1      -0.177  38.286  19.104  1.00  0.00    -0.550 OA
ENDBRANCH   3   4
ENDBRANCH   2   3
ENDBRANCH   1   2
BRANCH   1   7
ATOM      7  C   UNL     1      -4.584  37.954  20.988  1.00  0.00     0.000 C 
BRANCH   7   8
ATOM      8  C   UNL     1      -5.135  37.592  22.379  1.00  0.00    -0.000 C 
BRANCH   8   9
ATOM      9  C   UNL     1      -5.980  36.310  22.374  1.00  0.00    -0.003 C 
ATOM     10  C   UNL     1      -5.742  35.490  23.640  1.00  0.00     0.004 C 
ENDBRANCH   8   9
ENDBRANCH   7   8
ENDBRANCH   1   7
TORSDOF 6
ENDMDL
MODEL 8
REMARK VINA RESULT:    -3.987      2.942      5.882
REMARK INTER + INTRA:          -5.599
REMARK INTER:                  -5.304
REMARK INTRA:                  -0.295
REMARK UNBOUND:                -0.214
REMARK SMILES CCCCCCCC(=O)[O-]
REMARK SMILES IDX 5 1 6 2 7 3 8 4 9 5 10 6 4 7 3 8 2 9 1 10
REMARK H PARENT
REMARK Flexibility Score: inf
ROOT
ATOM      1  C   UNL     1      -5.388  36.815  20.804  1.00  0.00     0.000 C 
ENDROOT
BRANCH   1   2
ATOM      2  C   UNL     1      -4.555  37.791  19.959  1.00  0.00     0.006 C 
BRANCH   2   3
ATOM      3  C   UNL     1      -3.498  37.043  19.140  1.00  0.00     0.053 C 
BRANCH   3   4
ATOM      4  C   UNL     1      -2.642  38.007  18.382  1.00  0.00     0.041 C 
ATOM      5  O   UNL     1      -2.808  38.164  17.143  1.00  0.00    -0.550 OA
ATOM      6  O   UNL     1      -1.628  38.697  19.034  1.00  0.00    -0.550 OA
ENDBRANCH   3   4
ENDBRANCH   2   3
ENDBRANCH   1   2
BRANCH   1   7
ATOM      7  C   UNL     1      -4.872  36.682  22.249  1.00  0.00     0.000 C 
BRANCH   7   8
ATOM      8  C   UNL     1      -5.633  37.521  23.291  1.00  0.00    -0.000 C 
BRANCH   8   9
ATOM      9  C   UNL     1      -4.747  38.574  23.973  1.00  0.00    -0.003 C 
ATOM     10  C   UNL     1      -4.559  39.797  23.079  1.00  0.00     0.004 C 
ENDBRANCH   8   9
ENDBRANCH   7   8
ENDBRANCH   1   7
TORSDOF 6
ENDMDL
MODEL 9
REMARK VINA RESULT:    -3.732      3.241      6.290
REMARK INTER + INTRA:          -5.255
REMARK INTER:                  -4.788
REMARK INTRA:                  -0.467
REMARK UNBOUND:                -0.214
REMARK SMILES CCCCCCCC(=O)[O-]
REMARK SMILES IDX 5 1 6 2 7 3 8 4 9 5 10 6 4 7 3 8 2 9 1 10
REMARK H PARENT
REMARK Flexibility Score: inf
ROOT
ATOM      1  C   UNL     1      -5.053  39.831  22.810  1.00  0.00     0.000 C 
ENDROOT
BRANCH   1   2
ATOM      2  C   UNL     1      -4.222  38.951  21.864  1.00  0.00     0.006 C 
BRANCH   2   3
ATOM      3  C   UNL     1      -5.053  38.507  20.657  1.00  0.00     0.053 C 
BRANCH   3   4
ATOM      4  C   UNL     1      -4.243  37.629  19.756  1.00  0.00     0.041 C 
ATOM      5  O   UNL     1      -4.072  36.414  20.042  1.00  0.00    -0.550 OA
ATOM      6  O   UNL     1      -3.634  38.164  18.628  1.00  0.00    -0.550 OA
ENDBRANCH   3   4
ENDBRANCH   2   3
ENDBRANCH   1   2
BRANCH   1   7
ATOM      7  C   UNL     1      -5.749  39.025  23.923  1.00  0.00     0.000 C 
BRANCH   7   8
ATOM      8  C   UNL     1      -4.927  37.854  24.489  1.00  0.00    -0.000 C 
BRANCH   8   9
ATOM      9  C   UNL     1      -5.707  36.531  24.512  1.00  0.00    -0.003 C 
ATOM     10  C   UNL     1      -5.285  35.624  23.359  1.00  0.00     0.004 C 
ENDBRANCH   8   9
ENDBRANCH   7   8
ENDBRANCH   1   7
TORSDOF 6
ENDMDL
