MODEL 1
REMARK VINA RESULT:    -7.070      0.000      0.000
REMARK INTER + INTRA:          -7.628
REMARK INTER:                  -7.690
REMARK INTRA:                   0.061
REMARK UNBOUND:                 0.061
REMARK SMILES C[C@@H]1[C@H](C)CC[C@@]2(C(=O)[O-])CC[C@]3(C)C(=CC[C@H]4[C@@]5(C)CC[C@H](O)C(C)(C)[C@@H]5CC[C@@]43C)[C@H]12
REMARK SMILES IDX 7 1 6 2 11 3 33 4 5 5 12 6 15 7 2 8 3 9 13 10 16 11 1 12
REMARK SMILES IDX 4 13 14 14 31 15 17 16 18 17 30 18 32 19 19 20 29 21 28 22
REMARK SMILES IDX 21 23 20 24 25 25 22 26 23 27 26 28 27 29 8 30 9 31 10 32
REMARK SMILES IDX 24 33
REMARK H PARENT 24 34
REMARK Flexibility Score: inf
ROOT
ATOM      1  C   UNL     1       2.990   6.018  38.863  1.00  0.00     0.017 C 
ATOM      2  C   UNL     1       2.496   4.613  38.308  1.00  0.00     0.014 C 
ATOM      3  C   UNL     1       3.911   5.746  40.158  1.00  0.00     0.014 C 
ATOM      4  C   UNL     1       3.800   6.851  37.780  1.00  0.00     0.030 C 
ATOM      5  C   UNL     1       2.782   4.417  36.840  1.00  0.00     0.004 C 
ATOM      6  C   UNL     1       5.275   6.382  40.202  1.00  0.00     0.013 C 
ATOM      7  C   UNL     1       4.518   8.222  38.440  1.00  0.00    -0.063 C 
ATOM      8  C   UNL     1       3.108   6.876  36.324  1.00  0.00    -0.003 C 
ATOM      9  C   UNL     1       2.424   5.533  35.850  1.00  0.00    -0.011 C 
ATOM     10  C   UNL     1       5.397   7.925  39.801  1.00  0.00    -0.006 C 
ATOM     11  C   UNL     1       4.951   9.359  37.636  1.00  0.00    -0.027 C 
ATOM     12  C   UNL     1       2.225   8.130  36.043  1.00  0.00     0.008 C 
ATOM     13  C   UNL     1       0.953   5.559  35.526  1.00  0.00     0.008 C 
ATOM     14  C   UNL     1       4.661   8.721  40.914  1.00  0.00     0.017 C 
ATOM     15  C   UNL     1       6.903   8.380  39.382  1.00  0.00    -0.020 C 
ATOM     16  C   UNL     1       6.489   9.173  37.021  1.00  0.00     0.032 C 
ATOM     17  C   UNL     1       7.003   7.928  37.806  1.00  0.00     0.006 C 
ATOM     18  C   UNL     1       8.320   7.976  39.926  1.00  0.00     0.008 C 
ATOM     19  C   UNL     1       6.961   9.878  39.902  1.00  0.00     0.012 C 
ATOM     20  C   UNL     1       8.338   7.073  37.340  1.00  0.00    -0.025 C 
ATOM     21  C   UNL     1       9.586   8.413  39.028  1.00  0.00     0.005 C 
ATOM     22  C   UNL     1       9.367   8.174  37.558  1.00  0.00     0.003 C 
ATOM     23  C   UNL     1       8.234   6.438  35.923  1.00  0.00     0.010 C 
ATOM     24  C   UNL     1       8.665   5.683  38.172  1.00  0.00     0.012 C 
ATOM     25  C   UNL     1      10.410   8.245  36.433  1.00  0.00    -0.006 C 
ATOM     26  C   UNL     1       8.459   7.408  34.811  1.00  0.00     0.033 C 
ATOM     27  C   UNL     1       9.613   8.386  35.017  1.00  0.00     0.120 C 
ATOM     28  C   UNL     1      11.380   7.023  36.411  1.00  0.00     0.014 C 
ATOM     29  C   UNL     1      11.306   9.456  36.641  1.00  0.00     0.014 C 
ENDROOT
BRANCH   1  30
ATOM     30  C   UNL     1       1.696   6.887  39.432  1.00  0.00     0.048 C 
ATOM     31  O   UNL     1       0.537   6.612  39.034  1.00  0.00    -0.550 OA
ATOM     32  O   UNL     1       0.503   6.492  38.894  1.00  0.00    -0.550 OA
ENDBRANCH   1  30
BRANCH  27  33
ATOM     33  O   UNL     1      10.468   8.266  33.916  1.00  0.00    -0.393 OA
ATOM     34  H   UNL     1      11.393   7.970  34.212  1.00  0.00     0.210 HD
ENDBRANCH  27  33
TORSDOF 2
ENDMDL
MODEL 2
REMARK VINA RESULT:    -7.022     11.920     16.481
REMARK INTER + INTRA:          -7.577
REMARK INTER:                  -7.605
REMARK INTRA:                   0.028
REMARK UNBOUND:                 0.061
REMARK SMILES C[C@@H]1[C@H](C)CC[C@@]2(C(=O)[O-])CC[C@]3(C)C(=CC[C@H]4[C@@]5(C)CC[C@H](O)C(C)(C)[C@@H]5CC[C@@]43C)[C@H]12
REMARK SMILES IDX 7 1 6 2 11 3 33 4 5 5 12 6 15 7 2 8 3 9 13 10 16 11 1 12
REMARK SMILES IDX 4 13 14 14 31 15 17 16 18 17 30 18 32 19 19 20 29 21 28 22
REMARK SMILES IDX 21 23 20 24 25 25 22 26 23 27 26 28 27 29 8 30 9 31 10 32
REMARK SMILES IDX 24 33
REMARK H PARENT 24 34
REMARK Flexibility Score: inf
ROOT
ATOM      1  C   UNL     1      11.944  14.404  21.895  1.00  0.00     0.017 C 
ATOM      2  C   UNL     1      13.272  15.090  21.354  1.00  0.00     0.014 C 
ATOM      3  C   UNL     1      11.878  12.907  21.298  1.00  0.00     0.014 C 
ATOM      4  C   UNL     1      11.882  14.362  23.482  1.00  0.00     0.030 C 
ATOM      5  C   UNL     1      14.130  15.674  22.449  1.00  0.00     0.004 C 
ATOM      6  C   UNL     1      11.660  11.770  22.260  1.00  0.00     0.013 C 
ATOM      7  C   UNL     1      10.597  13.431  24.043  1.00  0.00    -0.063 C 
ATOM      8  C   UNL     1      12.290  15.753  24.188  1.00  0.00    -0.003 C 
ATOM      9  C   UNL     1      13.479  16.553  23.524  1.00  0.00    -0.011 C 
ATOM     10  C   UNL     1      10.515  11.931  23.365  1.00  0.00    -0.006 C 
ATOM     11  C   UNL     1      10.057  13.551  25.392  1.00  0.00    -0.027 C 
ATOM     12  C   UNL     1      11.086  16.671  24.564  1.00  0.00     0.008 C 
ATOM     13  C   UNL     1      13.211  17.952  23.033  1.00  0.00     0.008 C 
ATOM     14  C   UNL     1       9.166  11.934  22.594  1.00  0.00     0.017 C 
ATOM     15  C   UNL     1      10.684  10.933  24.640  1.00  0.00    -0.020 C 
ATOM     16  C   UNL     1      10.874  12.621  26.508  1.00  0.00     0.032 C 
ATOM     17  C   UNL     1      11.763  11.725  25.592  1.00  0.00     0.006 C 
ATOM     18  C   UNL     1      11.176   9.446  24.761  1.00  0.00     0.008 C 
ATOM     19  C   UNL     1       9.178  10.629  25.034  1.00  0.00     0.012 C 
ATOM     20  C   UNL     1      13.048  10.863  26.172  1.00  0.00    -0.025 C 
ATOM     21  C   UNL     1      11.500   8.915  26.248  1.00  0.00     0.005 C 
ATOM     22  C   UNL     1      12.265   9.917  27.071  1.00  0.00     0.003 C 
ATOM     23  C   UNL     1      14.167  11.730  26.819  1.00  0.00     0.010 C 
ATOM     24  C   UNL     1      13.995  10.092  25.058  1.00  0.00     0.012 C 
ATOM     25  C   UNL     1      12.944   9.688  28.429  1.00  0.00    -0.006 C 
ATOM     26  C   UNL     1      13.845  12.193  28.201  1.00  0.00     0.033 C 
ATOM     27  C   UNL     1      13.207  11.146  29.111  1.00  0.00     0.120 C 
ATOM     28  C   UNL     1      14.268   8.869  28.329  1.00  0.00     0.014 C 
ATOM     29  C   UNL     1      12.035   8.859  29.323  1.00  0.00     0.014 C 
ENDROOT
BRANCH   1  30
ATOM     30  C   UNL     1      10.615  15.174  21.270  1.00  0.00     0.048 C 
ATOM     31  O   UNL     1      10.687  16.388  20.956  1.00  0.00    -0.550 OA
ATOM     32  O   UNL     1      10.835  16.496  20.998  1.00  0.00    -0.550 OA
ENDBRANCH   1  30
BRANCH  27  33
ATOM     33  O   UNL     1      13.993  11.056  30.264  1.00  0.00    -0.393 OA
ATOM     34  H   UNL     1      14.908  11.465  30.106  1.00  0.00     0.210 HD
ENDBRANCH  27  33
TORSDOF 2
ENDMDL
MODEL 3
REMARK VINA RESULT:    -6.970      1.792      2.726
REMARK INTER + INTRA:          -7.520
REMARK INTER:                  -7.549
REMARK INTRA:                   0.029
REMARK UNBOUND:                 0.061
REMARK SMILES C[C@@H]1[C@H](C)CC[C@@]2(C(=O)[O-])CC[C@]3(C)C(=CC[C@H]4[C@@]5(C)CC[C@H](O)C(C)(C)[C@@H]5CC[C@@]43C)[C@H]12
REMARK SMILES IDX 7 1 6 2 11 3 33 4 5 5 12 6 15 7 2 8 3 9 13 10 16 11 1 12
REMARK SMILES IDX 4 13 14 14 31 15 17 16 18 17 30 18 32 19 19 20 29 21 28 22
REMARK SMILES IDX 21 23 20 24 25 25 22 26 23 27 26 28 27 29 8 30 9 31 10 32
REMARK SMILES IDX 24 33
REMARK H PARENT 24 34
REMARK Flexibility Score: inf
ROOT
ATOM      1  C   UNL     1       1.877   5.387  37.028  1.00  0.00     0.017 C 
ATOM      2  C   UNL     1       1.922   4.578  35.660  1.00  0.00     0.014 C 
ATOM      3  C   UNL     1       2.715   4.554  38.126  1.00  0.00     0.014 C 
ATOM      4  C   UNL     1       2.467   6.855  36.888  1.00  0.00     0.030 C 
ATOM      5  C   UNL     1       2.389   5.410  34.492  1.00  0.00     0.004 C 
ATOM      6  C   UNL     1       3.787   5.278  38.896  1.00  0.00     0.013 C 
ATOM      7  C   UNL     1       2.633   7.616  38.380  1.00  0.00    -0.063 C 
ATOM      8  C   UNL     1       1.940   7.648  35.588  1.00  0.00    -0.003 C 
ATOM      9  C   UNL     1       1.777   6.798  34.266  1.00  0.00    -0.011 C 
ATOM     10  C   UNL     1       3.435   6.715  39.503  1.00  0.00    -0.006 C 
ATOM     11  C   UNL     1       2.744   9.063  38.526  1.00  0.00    -0.027 C 
ATOM     12  C   UNL     1       0.725   8.591  35.847  1.00  0.00     0.008 C 
ATOM     13  C   UNL     1       0.414   6.726  33.628  1.00  0.00     0.008 C 
ATOM     14  C   UNL     1       2.380   6.468  40.617  1.00  0.00     0.017 C 
ATOM     15  C   UNL     1       4.741   7.622  39.850  1.00  0.00    -0.020 C 
ATOM     16  C   UNL     1       4.307   9.618  38.365  1.00  0.00     0.032 C 
ATOM     17  C   UNL     1       5.125   8.291  38.400  1.00  0.00     0.006 C 
ATOM     18  C   UNL     1       6.157   7.261  40.426  1.00  0.00     0.008 C 
ATOM     19  C   UNL     1       4.259   8.435  41.125  1.00  0.00     0.012 C 
ATOM     20  C   UNL     1       6.703   8.208  37.915  1.00  0.00    -0.025 C 
ATOM     21  C   UNL     1       7.287   8.407  40.328  1.00  0.00     0.005 C 
ATOM     22  C   UNL     1       7.292   9.106  38.995  1.00  0.00     0.003 C 
ATOM     23  C   UNL     1       6.942   8.598  36.427  1.00  0.00     0.010 C 
ATOM     24  C   UNL     1       7.389   6.706  37.852  1.00  0.00     0.012 C 
ATOM     25  C   UNL     1       8.352  10.074  38.451  1.00  0.00    -0.006 C 
ATOM     26  C   UNL     1       6.937  10.071  36.184  1.00  0.00     0.033 C 
ATOM     27  C   UNL     1       7.685  10.909  37.218  1.00  0.00     0.120 C 
ATOM     28  C   UNL     1       9.666   9.363  37.999  1.00  0.00     0.014 C 
ATOM     29  C   UNL     1       8.781  11.034  39.549  1.00  0.00     0.014 C 
ENDROOT
BRANCH   1  30
ATOM     30  C   UNL     1       0.325   5.424  37.612  1.00  0.00     0.048 C 
ATOM     31  O   UNL     1      -0.643   5.365  36.813  1.00  0.00    -0.550 OA
ATOM     32  O   UNL     1      -0.623   5.376  36.627  1.00  0.00    -0.550 OA
ENDBRANCH   1  30
BRANCH  27  33
ATOM     33  O   UNL     1       8.628  11.681  36.532  1.00  0.00    -0.393 OA
ATOM     34  H   UNL     1       9.560  11.522  36.904  1.00  0.00     0.210 HD
ENDBRANCH  27  33
TORSDOF 2
ENDMDL
MODEL 4
REMARK VINA RESULT:    -6.892      1.940      7.138
REMARK INTER + INTRA:          -7.435
REMARK INTER:                  -7.477
REMARK INTRA:                   0.041
REMARK UNBOUND:                 0.061
REMARK SMILES C[C@@H]1[C@H](C)CC[C@@]2(C(=O)[O-])CC[C@]3(C)C(=CC[C@H]4[C@@]5(C)CC[C@H](O)C(C)(C)[C@@H]5CC[C@@]43C)[C@H]12
REMARK SMILES IDX 7 1 6 2 11 3 33 4 5 5 12 6 15 7 2 8 3 9 13 10 16 11 1 12
REMARK SMILES IDX 4 13 14 14 31 15 17 16 18 17 30 18 32 19 19 20 29 21 28 22
REMARK SMILES IDX 21 23 20 24 25 25 22 26 23 27 26 28 27 29 8 30 9 31 10 32
REMARK SMILES IDX 24 33
REMARK H PARENT 24 34
REMARK Flexibility Score: inf
ROOT
ATOM      1  C   UNL     1       7.634   9.209  38.099  1.00  0.00     0.017 C 
ATOM      2  C   UNL     1       8.344   9.816  36.813  1.00  0.00     0.014 C 
ATOM      3  C   UNL     1       6.570  10.294  38.639  1.00  0.00     0.014 C 
ATOM      4  C   UNL     1       6.905   7.830  37.799  1.00  0.00     0.030 C 
ATOM      5  C   UNL     1       8.291   8.901  35.615  1.00  0.00     0.004 C 
ATOM      6  C   UNL     1       5.155   9.837  38.880  1.00  0.00     0.013 C 
ATOM      7  C   UNL     1       5.963   7.315  39.096  1.00  0.00    -0.063 C 
ATOM      8  C   UNL     1       7.791   6.797  36.935  1.00  0.00    -0.003 C 
ATOM      9  C   UNL     1       8.671   7.424  35.782  1.00  0.00    -0.011 C 
ATOM     10  C   UNL     1       4.933   8.466  39.670  1.00  0.00    -0.006 C 
ATOM     11  C   UNL     1       5.534   5.932  39.267  1.00  0.00    -0.027 C 
ATOM     12  C   UNL     1       8.572   5.743  37.778  1.00  0.00     0.008 C 
ATOM     13  C   UNL     1      10.163   7.219  35.832  1.00  0.00     0.008 C 
ATOM     14  C   UNL     1       5.418   8.720  41.125  1.00  0.00     0.017 C 
ATOM     15  C   UNL     1       3.464   7.802  39.441  1.00  0.00    -0.020 C 
ATOM     16  C   UNL     1       4.127   5.578  38.446  1.00  0.00     0.032 C 
ATOM     17  C   UNL     1       3.638   6.996  38.021  1.00  0.00     0.006 C 
ATOM     18  C   UNL     1       2.033   8.431  39.284  1.00  0.00     0.008 C 
ATOM     19  C   UNL     1       3.179   7.118  40.844  1.00  0.00     0.012 C 
ATOM     20  C   UNL     1       2.478   7.225  36.866  1.00  0.00    -0.025 C 
ATOM     21  C   UNL     1       0.870   7.447  38.754  1.00  0.00     0.005 C 
ATOM     22  C   UNL     1       1.321   6.576  37.613  1.00  0.00     0.003 C 
ATOM     23  C   UNL     1       2.848   6.666  35.461  1.00  0.00     0.010 C 
ATOM     24  C   UNL     1       2.180   8.783  36.402  1.00  0.00     0.012 C 
ATOM     25  C   UNL     1       0.448   5.695  36.708  1.00  0.00    -0.006 C 
ATOM     26  C   UNL     1       2.687   5.187  35.340  1.00  0.00     0.033 C 
ATOM     27  C   UNL     1       1.420   4.612  35.970  1.00  0.00     0.120 C 
ATOM     28  C   UNL     1      -0.379   6.508  35.663  1.00  0.00     0.014 C 
ATOM     29  C   UNL     1      -0.589   4.966  37.548  1.00  0.00     0.014 C 
ENDROOT
BRANCH   1  30
ATOM     30  C   UNL     1       8.736   9.042  39.327  1.00  0.00     0.048 C 
ATOM     31  O   UNL     1       9.956   8.913  39.056  1.00  0.00    -0.550 OA
ATOM     32  O   UNL     1      10.020   8.887  38.882  1.00  0.00    -0.550 OA
ENDBRANCH   1  30
BRANCH  27  33
ATOM     33  O   UNL     1       0.748   3.888  34.980  1.00  0.00    -0.393 OA
ATOM     34  H   UNL     1       0.307   4.516  34.316  1.00  0.00     0.210 HD
ENDBRANCH  27  33
TORSDOF 2
ENDMDL
MODEL 5
REMARK VINA RESULT:    -6.846      1.711      7.183
REMARK INTER + INTRA:          -7.385
REMARK INTER:                  -7.419
REMARK INTRA:                   0.034
REMARK UNBOUND:                 0.061
REMARK SMILES C[C@@H]1[C@H](C)CC[C@@]2(C(=O)[O-])CC[C@]3(C)C(=CC[C@H]4[C@@]5(C)CC[C@H](O)C(C)(C)[C@@H]5CC[C@@]43C)[C@H]12
REMARK SMILES IDX 7 1 6 2 11 3 33 4 5 5 12 6 15 7 2 8 3 9 13 10 16 11 1 12
REMARK SMILES IDX 4 13 14 14 31 15 17 16 18 17 30 18 32 19 19 20 29 21 28 22
REMARK SMILES IDX 21 23 20 24 25 25 22 26 23 27 26 28 27 29 8 30 9 31 10 32
REMARK SMILES IDX 24 33
REMARK H PARENT 24 34
REMARK Flexibility Score: inf
ROOT
ATOM      1  C   UNL     1       9.105   9.713  36.780  1.00  0.00     0.017 C 
ATOM      2  C   UNL     1       9.517   9.856  35.251  1.00  0.00     0.014 C 
ATOM      3  C   UNL     1       8.144  10.953  37.153  1.00  0.00     0.014 C 
ATOM      4  C   UNL     1       8.371   8.339  37.087  1.00  0.00     0.030 C 
ATOM      5  C   UNL     1       9.247   8.612  34.442  1.00  0.00     0.004 C 
ATOM      6  C   UNL     1       6.823  10.650  37.810  1.00  0.00     0.013 C 
ATOM      7  C   UNL     1       7.731   8.296  38.643  1.00  0.00    -0.063 C 
ATOM      8  C   UNL     1       9.090   7.053  36.433  1.00  0.00    -0.003 C 
ATOM      9  C   UNL     1       9.695   7.250  34.987  1.00  0.00    -0.011 C 
ATOM     10  C   UNL     1       6.809   9.608  39.021  1.00  0.00    -0.006 C 
ATOM     11  C   UNL     1       7.387   7.055  39.328  1.00  0.00    -0.027 C 
ATOM     12  C   UNL     1      10.058   6.290  37.389  1.00  0.00     0.008 C 
ATOM     13  C   UNL     1      11.171   7.015  34.793  1.00  0.00     0.008 C 
ATOM     14  C   UNL     1       7.574  10.290  40.189  1.00  0.00     0.017 C 
ATOM     15  C   UNL     1       5.343   8.963  39.319  1.00  0.00    -0.020 C 
ATOM     16  C   UNL     1       5.852   6.515  38.967  1.00  0.00     0.032 C 
ATOM     17  C   UNL     1       5.245   7.744  38.223  1.00  0.00     0.006 C 
ATOM     18  C   UNL     1       3.893   9.563  39.267  1.00  0.00     0.008 C 
ATOM     19  C   UNL     1       5.373   8.768  40.894  1.00  0.00     0.012 C 
ATOM     20  C   UNL     1       3.866   7.640  37.318  1.00  0.00    -0.025 C 
ATOM     21  C   UNL     1       2.676   8.508  39.325  1.00  0.00     0.005 C 
ATOM     22  C   UNL     1       2.907   7.304  38.452  1.00  0.00     0.003 C 
ATOM     23  C   UNL     1       3.955   6.652  36.118  1.00  0.00     0.010 C 
ATOM     24  C   UNL     1       3.434   8.982  36.456  1.00  0.00     0.012 C 
ATOM     25  C   UNL     1       1.892   6.217  38.071  1.00  0.00    -0.006 C 
ATOM     26  C   UNL     1       3.816   5.218  36.507  1.00  0.00     0.033 C 
ATOM     27  C   UNL     1       2.723   4.921  37.532  1.00  0.00     0.120 C 
ATOM     28  C   UNL     1       0.845   6.690  37.014  1.00  0.00     0.014 C 
ATOM     29  C   UNL     1       1.072   5.830  39.292  1.00  0.00     0.014 C 
ENDROOT
BRANCH   1  30
ATOM     30  C   UNL     1      10.441   9.901  37.744  1.00  0.00     0.048 C 
ATOM     31  O   UNL     1      11.569   9.539  37.325  1.00  0.00    -0.550 OA
ATOM     32  O   UNL     1      11.593   9.443  37.167  1.00  0.00    -0.550 OA
ENDBRANCH   1  30
BRANCH  27  33
ATOM     33  O   UNL     1       1.883   3.947  36.982  1.00  0.00    -0.393 OA
ATOM     34  H   UNL     1       0.913   4.242  37.031  1.00  0.00     0.210 HD
ENDBRANCH  27  33
TORSDOF 2
ENDMDL
MODEL 6
REMARK VINA RESULT:    -6.753      1.653      2.838
REMARK INTER + INTRA:          -7.284
REMARK INTER:                  -7.311
REMARK INTRA:                   0.027
REMARK UNBOUND:                 0.061
REMARK SMILES C[C@@H]1[C@H](C)CC[C@@]2(C(=O)[O-])CC[C@]3(C)C(=CC[C@H]4[C@@]5(C)CC[C@H](O)C(C)(C)[C@@H]5CC[C@@]43C)[C@H]12
REMARK SMILES IDX 7 1 6 2 11 3 33 4 5 5 12 6 15 7 2 8 3 9 13 10 16 11 1 12
REMARK SMILES IDX 4 13 14 14 31 15 17 16 18 17 30 18 32 19 19 20 29 21 28 22
REMARK SMILES IDX 21 23 20 24 25 25 22 26 23 27 26 28 27 29 8 30 9 31 10 32
REMARK SMILES IDX 24 33
REMARK H PARENT 24 34
REMARK Flexibility Score: inf
ROOT
ATOM      1  C   UNL     1       4.297   8.238  39.620  1.00  0.00     0.017 C 
ATOM      2  C   UNL     1       3.784   7.213  40.721  1.00  0.00     0.014 C 
ATOM      3  C   UNL     1       5.393   9.201  40.309  1.00  0.00     0.014 C 
ATOM      4  C   UNL     1       4.926   7.511  38.355  1.00  0.00     0.030 C 
ATOM      5  C   UNL     1       3.879   5.772  40.283  1.00  0.00     0.004 C 
ATOM      6  C   UNL     1       6.727   9.354  39.628  1.00  0.00     0.013 C 
ATOM      7  C   UNL     1       5.675   8.595  37.308  1.00  0.00    -0.063 C 
ATOM      8  C   UNL     1       4.045   6.277  37.807  1.00  0.00    -0.003 C 
ATOM      9  C   UNL     1       3.351   5.372  38.900  1.00  0.00    -0.011 C 
ATOM     10  C   UNL     1       6.739   9.611  38.050  1.00  0.00    -0.006 C 
ATOM     11  C   UNL     1       5.957   8.286  35.911  1.00  0.00    -0.027 C 
ATOM     12  C   UNL     1       3.088   6.632  36.628  1.00  0.00     0.008 C 
ATOM     13  C   UNL     1       1.850   5.247  38.875  1.00  0.00     0.008 C 
ATOM     14  C   UNL     1       6.130  11.025  37.836  1.00  0.00     0.017 C 
ATOM     15  C   UNL     1       8.158   9.256  37.335  1.00  0.00    -0.020 C 
ATOM     16  C   UNL     1       7.404   7.487  35.699  1.00  0.00     0.032 C 
ATOM     17  C   UNL     1       8.062   7.633  37.105  1.00  0.00     0.006 C 
ATOM     18  C   UNL     1       9.649   9.430  37.799  1.00  0.00     0.008 C 
ATOM     19  C   UNL     1       8.231  10.335  36.174  1.00  0.00     0.012 C 
ATOM     20  C   UNL     1       9.353   6.716  37.579  1.00  0.00    -0.025 C 
ATOM     21  C   UNL     1      10.767   8.660  36.929  1.00  0.00     0.005 C 
ATOM     22  C   UNL     1      10.361   7.254  36.574  1.00  0.00     0.003 C 
ATOM     23  C   UNL     1       9.083   5.183  37.598  1.00  0.00     0.010 C 
ATOM     24  C   UNL     1       9.837   6.864  39.153  1.00  0.00     0.012 C 
ATOM     25  C   UNL     1      11.242   6.153  35.966  1.00  0.00    -0.006 C 
ATOM     26  C   UNL     1       9.122   4.550  36.247  1.00  0.00     0.033 C 
ATOM     27  C   UNL     1      10.258   5.013  35.338  1.00  0.00     0.120 C 
ATOM     28  C   UNL     1      12.243   5.527  36.986  1.00  0.00     0.014 C 
ATOM     29  C   UNL     1      12.114   6.741  34.868  1.00  0.00     0.014 C 
ENDROOT
BRANCH   1  30
ATOM     30  C   UNL     1       3.061   9.249  39.170  1.00  0.00     0.048 C 
ATOM     31  O   UNL     1       1.873   8.845  39.227  1.00  0.00    -0.550 OA
ATOM     32  O   UNL     1       1.828   8.666  39.262  1.00  0.00    -0.550 OA
ENDBRANCH   1  30
BRANCH  27  33
ATOM     33  O   UNL     1      10.961   3.875  34.929  1.00  0.00    -0.393 OA
ATOM     34  H   UNL     1      11.597   4.101  34.171  1.00  0.00     0.210 HD
ENDBRANCH  27  33
TORSDOF 2
ENDMDL
MODEL 7
REMARK VINA RESULT:    -6.739     12.101     15.946
REMARK INTER + INTRA:          -7.269
REMARK INTER:                  -7.298
REMARK INTRA:                   0.029
REMARK UNBOUND:                 0.061
REMARK SMILES C[C@@H]1[C@H](C)CC[C@@]2(C(=O)[O-])CC[C@]3(C)C(=CC[C@H]4[C@@]5(C)CC[C@H](O)C(C)(C)[C@@H]5CC[C@@]43C)[C@H]12
REMARK SMILES IDX 7 1 6 2 11 3 33 4 5 5 12 6 15 7 2 8 3 9 13 10 16 11 1 12
REMARK SMILES IDX 4 13 14 14 31 15 17 16 18 17 30 18 32 19 19 20 29 21 28 22
REMARK SMILES IDX 21 23 20 24 25 25 22 26 23 27 26 28 27 29 8 30 9 31 10 32
REMARK SMILES IDX 24 33
REMARK H PARENT 24 34
REMARK Flexibility Score: inf
ROOT
ATOM      1  C   UNL     1      10.705  17.013  24.434  1.00  0.00     0.017 C 
ATOM      2  C   UNL     1      11.057  18.262  25.353  1.00  0.00     0.014 C 
ATOM      3  C   UNL     1      12.001  16.676  23.536  1.00  0.00     0.014 C 
ATOM      4  C   UNL     1      10.278  15.737  25.278  1.00  0.00     0.030 C 
ATOM      5  C   UNL     1      10.786  18.020  26.817  1.00  0.00     0.004 C 
ATOM      6  C   UNL     1      12.512  15.260  23.534  1.00  0.00     0.013 C 
ATOM      7  C   UNL     1      10.137  14.361  24.319  1.00  0.00    -0.063 C 
ATOM      8  C   UNL     1       9.226  16.057  26.457  1.00  0.00    -0.003 C 
ATOM      9  C   UNL     1       9.444  17.411  27.242  1.00  0.00    -0.011 C 
ATOM     10  C   UNL     1      11.448  14.079  23.362  1.00  0.00    -0.006 C 
ATOM     11  C   UNL     1       9.378  13.184  24.724  1.00  0.00    -0.027 C 
ATOM     12  C   UNL     1       7.732  15.815  26.083  1.00  0.00     0.008 C 
ATOM     13  C   UNL     1       8.330  18.424  27.237  1.00  0.00     0.008 C 
ATOM     14  C   UNL     1      10.897  14.200  21.913  1.00  0.00     0.017 C 
ATOM     15  C   UNL     1      11.983  12.629  23.875  1.00  0.00    -0.020 C 
ATOM     16  C   UNL     1      10.265  12.123  25.655  1.00  0.00     0.032 C 
ATOM     17  C   UNL     1      11.711  12.685  25.494  1.00  0.00     0.006 C 
ATOM     18  C   UNL     1      13.391  11.937  23.807  1.00  0.00     0.008 C 
ATOM     19  C   UNL     1      11.271  11.630  22.868  1.00  0.00     0.012 C 
ATOM     20  C   UNL     1      12.951  12.242  26.492  1.00  0.00    -0.025 C 
ATOM     21  C   UNL     1      13.589  10.620  24.715  1.00  0.00     0.005 C 
ATOM     22  C   UNL     1      13.013  10.774  26.097  1.00  0.00     0.003 C 
ATOM     23  C   UNL     1      12.724  12.588  27.993  1.00  0.00     0.010 C 
ATOM     24  C   UNL     1      14.384  13.043  26.305  1.00  0.00     0.012 C 
ATOM     25  C   UNL     1      13.207   9.841  27.300  1.00  0.00    -0.006 C 
ATOM     26  C   UNL     1      11.810  11.641  28.697  1.00  0.00     0.033 C 
ATOM     27  C   UNL     1      12.029  10.163  28.382  1.00  0.00     0.120 C 
ATOM     28  C   UNL     1      14.618   9.963  27.957  1.00  0.00     0.014 C 
ATOM     29  C   UNL     1      13.108   8.393  26.848  1.00  0.00     0.014 C 
ENDROOT
BRANCH   1  30
ATOM     30  C   UNL     1       9.525  17.427  23.345  1.00  0.00     0.048 C 
ATOM     31  O   UNL     1       8.693  18.323  23.637  1.00  0.00    -0.550 OA
ATOM     32  O   UNL     1       8.680  18.398  23.809  1.00  0.00    -0.550 OA
ENDBRANCH   1  30
BRANCH  27  33
ATOM     33  O   UNL     1      12.231   9.498  29.596  1.00  0.00    -0.393 OA
ATOM     34  H   UNL     1      13.190   9.173  29.671  1.00  0.00     0.210 HD
ENDBRANCH  27  33
TORSDOF 2
ENDMDL
MODEL 8
REMARK VINA RESULT:    -6.694      3.039      7.365
REMARK INTER + INTRA:          -7.220
REMARK INTER:                  -7.271
REMARK INTRA:                   0.051
REMARK UNBOUND:                 0.061
REMARK SMILES C[C@@H]1[C@H](C)CC[C@@]2(C(=O)[O-])CC[C@]3(C)C(=CC[C@H]4[C@@]5(C)CC[C@H](O)C(C)(C)[C@@H]5CC[C@@]43C)[C@H]12
REMARK SMILES IDX 7 1 6 2 11 3 33 4 5 5 12 6 15 7 2 8 3 9 13 10 16 11 1 12
REMARK SMILES IDX 4 13 14 14 31 15 17 16 18 17 30 18 32 19 19 20 29 21 28 22
REMARK SMILES IDX 21 23 20 24 25 25 22 26 23 27 26 28 27 29 8 30 9 31 10 32
REMARK SMILES IDX 24 33
REMARK H PARENT 24 34
REMARK Flexibility Score: inf
ROOT
ATOM      1  C   UNL     1       8.319  12.793  38.155  1.00  0.00     0.017 C 
ATOM      2  C   UNL     1       7.618  14.219  38.206  1.00  0.00     0.014 C 
ATOM      3  C   UNL     1       8.383  12.216  39.660  1.00  0.00     0.014 C 
ATOM      4  C   UNL     1       7.554  11.771  37.210  1.00  0.00     0.030 C 
ATOM      5  C   UNL     1       6.457  14.347  37.252  1.00  0.00     0.004 C 
ATOM      6  C   UNL     1       7.851  10.830  39.909  1.00  0.00     0.013 C 
ATOM      7  C   UNL     1       8.160  10.207  37.344  1.00  0.00    -0.063 C 
ATOM      8  C   UNL     1       7.128  12.394  35.785  1.00  0.00    -0.003 C 
ATOM      9  C   UNL     1       6.627  13.892  35.797  1.00  0.00    -0.011 C 
ATOM     10  C   UNL     1       8.278   9.669  38.897  1.00  0.00    -0.006 C 
ATOM     11  C   UNL     1       7.949   9.182  36.328  1.00  0.00    -0.027 C 
ATOM     12  C   UNL     1       8.125  12.104  34.622  1.00  0.00     0.008 C 
ATOM     13  C   UNL     1       7.378  14.901  34.967  1.00  0.00     0.008 C 
ATOM     14  C   UNL     1       9.801   9.447  39.110  1.00  0.00     0.017 C 
ATOM     15  C   UNL     1       7.289   8.375  38.922  1.00  0.00    -0.020 C 
ATOM     16  C   UNL     1       6.512   8.359  36.520  1.00  0.00     0.032 C 
ATOM     17  C   UNL     1       6.058   8.830  37.935  1.00  0.00     0.006 C 
ATOM     18  C   UNL     1       6.522   7.653  40.087  1.00  0.00     0.008 C 
ATOM     19  C   UNL     1       8.291   7.179  38.632  1.00  0.00     0.012 C 
ATOM     20  C   UNL     1       4.516   8.614  38.489  1.00  0.00    -0.025 C 
ATOM     21  C   UNL     1       5.389   6.592  39.652  1.00  0.00     0.005 C 
ATOM     22  C   UNL     1       4.526   7.092  38.524  1.00  0.00     0.003 C 
ATOM     23  C   UNL     1       3.420   9.320  37.638  1.00  0.00     0.010 C 
ATOM     24  C   UNL     1       4.138   9.310  39.939  1.00  0.00     0.012 C 
ATOM     25  C   UNL     1       3.221   6.476  38.001  1.00  0.00    -0.006 C 
ATOM     26  C   UNL     1       3.077   8.595  36.379  1.00  0.00     0.033 C 
ATOM     27  C   UNL     1       2.941   7.079  36.512  1.00  0.00     0.120 C 
ATOM     28  C   UNL     1       2.001   6.720  38.943  1.00  0.00     0.014 C 
ATOM     29  C   UNL     1       3.363   4.964  37.924  1.00  0.00     0.014 C 
ENDROOT
BRANCH   1  30
ATOM     30  C   UNL     1       9.902  12.958  37.691  1.00  0.00     0.048 C 
ATOM     31  O   UNL     1      10.259  13.970  37.037  1.00  0.00    -0.550 OA
ATOM     32  O   UNL     1      10.137  14.095  36.968  1.00  0.00    -0.550 OA
ENDBRANCH   1  30
BRANCH  27  33
ATOM     33  O   UNL     1       1.677   6.726  36.028  1.00  0.00    -0.393 OA
ATOM     34  H   UNL     1       1.521   7.128  35.108  1.00  0.00     0.210 HD
ENDBRANCH  27  33
TORSDOF 2
ENDMDL
MODEL 9
REMARK VINA RESULT:    -6.605      2.591      4.379
REMARK INTER + INTRA:          -7.123
REMARK INTER:                  -7.152
REMARK INTRA:                   0.029
REMARK UNBOUND:                 0.061
REMARK SMILES C[C@@H]1[C@H](C)CC[C@@]2(C(=O)[O-])CC[C@]3(C)C(=CC[C@H]4[C@@]5(C)CC[C@H](O)C(C)(C)[C@@H]5CC[C@@]43C)[C@H]12
REMARK SMILES IDX 7 1 6 2 11 3 33 4 5 5 12 6 15 7 2 8 3 9 13 10 16 11 1 12
REMARK SMILES IDX 4 13 14 14 31 15 17 16 18 17 30 18 32 19 19 20 29 21 28 22
REMARK SMILES IDX 21 23 20 24 25 25 22 26 23 27 26 28 27 29 8 30 9 31 10 32
REMARK SMILES IDX 24 33
REMARK H PARENT 24 34
REMARK Flexibility Score: inf
ROOT
ATOM      1  C   UNL     1       0.659   5.314  35.503  1.00  0.00     0.017 C 
ATOM      2  C   UNL     1       1.059   4.745  34.074  1.00  0.00     0.014 C 
ATOM      3  C   UNL     1       1.065   4.212  36.608  1.00  0.00     0.014 C 
ATOM      4  C   UNL     1       1.364   6.699  35.828  1.00  0.00     0.030 C 
ATOM      5  C   UNL     1       1.915   5.695  33.273  1.00  0.00     0.004 C 
ATOM      6  C   UNL     1       1.902   4.658  37.778  1.00  0.00     0.013 C 
ATOM      7  C   UNL     1       1.124   7.175  37.424  1.00  0.00    -0.063 C 
ATOM      8  C   UNL     1       1.312   7.758  34.613  1.00  0.00    -0.003 C 
ATOM      9  C   UNL     1       1.498   7.167  33.160  1.00  0.00    -0.011 C 
ATOM     10  C   UNL     1       1.483   6.006  38.529  1.00  0.00    -0.006 C 
ATOM     11  C   UNL     1       1.286   8.552  37.877  1.00  0.00    -0.027 C 
ATOM     12  C   UNL     1       0.145   8.789  34.696  1.00  0.00     0.008 C 
ATOM     13  C   UNL     1       0.391   7.373  32.159  1.00  0.00     0.008 C 
ATOM     14  C   UNL     1       0.127   5.710  39.227  1.00  0.00     0.017 C 
ATOM     15  C   UNL     1       2.683   6.673  39.405  1.00  0.00    -0.020 C 
ATOM     16  C   UNL     1       2.860   8.926  38.279  1.00  0.00     0.032 C 
ATOM     17  C   UNL     1       3.534   7.520  38.284  1.00  0.00     0.006 C 
ATOM     18  C   UNL     1       3.829   6.047  40.277  1.00  0.00     0.008 C 
ATOM     19  C   UNL     1       1.896   7.315  40.623  1.00  0.00     0.012 C 
ATOM     20  C   UNL     1       5.175   7.323  38.262  1.00  0.00    -0.025 C 
ATOM     21  C   UNL     1       5.013   7.043  40.731  1.00  0.00     0.005 C 
ATOM     22  C   UNL     1       5.470   7.948  39.618  1.00  0.00     0.003 C 
ATOM     23  C   UNL     1       5.879   7.923  37.010  1.00  0.00     0.010 C 
ATOM     24  C   UNL     1       5.741   5.778  38.103  1.00  0.00     0.012 C 
ATOM     25  C   UNL     1       6.710   8.853  39.599  1.00  0.00    -0.006 C 
ATOM     26  C   UNL     1       6.051   9.405  37.069  1.00  0.00     0.033 C 
ATOM     27  C   UNL     1       6.508   9.958  38.417  1.00  0.00     0.120 C 
ATOM     28  C   UNL     1       8.046   8.069  39.410  1.00  0.00     0.014 C 
ATOM     29  C   UNL     1       6.853   9.556  40.940  1.00  0.00     0.014 C 
ENDROOT
BRANCH   1  30
ATOM     30  C   UNL     1      -0.990   5.446  35.617  1.00  0.00     0.048 C 
ATOM     31  O   UNL     1      -1.673   5.646  34.581  1.00  0.00    -0.550 OA
ATOM     32  O   UNL     1      -1.596   5.685  34.414  1.00  0.00    -0.550 OA
ENDBRANCH   1  30
BRANCH  27  33
ATOM     33  O   UNL     1       7.666  10.710  38.192  1.00  0.00    -0.393 OA
ATOM     34  H   UNL     1       8.414  10.118  37.845  1.00  0.00     0.210 HD
ENDBRANCH  27  33
TORSDOF 2
ENDMDL
