MODEL 1
REMARK VINA RESULT:    -1.223      0.000      0.000
REMARK INTER + INTRA:          -2.819
REMARK INTER:                  -2.295
REMARK INTRA:                  -0.525
REMARK UNBOUND:                -0.525
REMARK SMILES O=C([O-])CCCCCCCCCCCCCCC(=O)[O-]
REMARK SMILES IDX 10 1 9 2 8 3 7 4 6 5 5 6 4 7 2 8 1 9 3 10 11 11 12 12 13 13
REMARK SMILES IDX 14 14 15 15 16 16 17 17 18 18 19 19 20 20
REMARK H PARENT
REMARK Flexibility Score: inf
ROOT
ATOM      1  C   UNL     1      -9.124  51.809  -2.137  1.00  0.00     0.000 C 
ENDROOT
BRANCH   1   2
ATOM      2  C   UNL     1      -8.209  52.125  -0.940  1.00  0.00     0.000 C 
BRANCH   2   3
ATOM      3  C   UNL     1      -6.721  51.897  -1.257  1.00  0.00     0.000 C 
BRANCH   3   4
ATOM      4  C   UNL     1      -5.819  52.071  -0.022  1.00  0.00     0.000 C 
BRANCH   4   5
ATOM      5  C   UNL     1      -5.166  50.752   0.422  1.00  0.00     0.000 C 
BRANCH   5   6
ATOM      6  C   UNL     1      -3.658  50.893   0.678  1.00  0.00     0.006 C 
BRANCH   6   7
ATOM      7  C   UNL     1      -3.090  52.111  -0.056  1.00  0.00     0.053 C 
BRANCH   7   8
ATOM      8  C   UNL     1      -1.594  52.075  -0.054  1.00  0.00     0.041 C 
ATOM      9  O   UNL     1      -0.961  51.958  -1.136  1.00  0.00    -0.550 OA
ATOM     10  O   UNL     1      -0.901  52.120   1.149  1.00  0.00    -0.550 OA
ENDBRANCH   7   8
ENDBRANCH   6   7
ENDBRANCH   5   6
ENDBRANCH   4   5
ENDBRANCH   3   4
ENDBRANCH   2   3
ENDBRANCH   1   2
BRANCH   1  11
ATOM     11  C   UNL     1      -8.365  51.152  -3.301  1.00  0.00     0.000 C 
BRANCH  11  12
ATOM     12  C   UNL     1      -8.123  52.123  -4.470  1.00  0.00     0.000 C 
BRANCH  12  13
ATOM     13  C   UNL     1      -6.944  51.698  -5.364  1.00  0.00     0.000 C 
BRANCH  13  14
ATOM     14  C   UNL     1      -7.058  52.118  -6.843  1.00  0.00     0.000 C 
BRANCH  14  15
ATOM     15  C   UNL     1      -7.954  51.219  -7.716  1.00  0.00     0.000 C 
BRANCH  15  16
ATOM     16  C   UNL     1      -7.919  51.523  -9.226  1.00  0.00     0.006 C 
BRANCH  16  17
ATOM     17  C   UNL     1      -6.587  52.124  -9.711  1.00  0.00     0.053 C 
BRANCH  17  18
ATOM     18  C   UNL     1      -5.482  51.113  -9.747  1.00  0.00     0.041 C 
ATOM     19  O   UNL     1      -5.748  49.883  -9.783  1.00  0.00    -0.550 OA
ATOM     20  O   UNL     1      -4.157  51.527  -9.704  1.00  0.00    -0.550 OA
ENDBRANCH  17  18
ENDBRANCH  16  17
ENDBRANCH  15  16
ENDBRANCH  14  15
ENDBRANCH  13  14
ENDBRANCH  12  13
ENDBRANCH  11  12
ENDBRANCH   1  11
TORSDOF 15
ENDMDL
MODEL 2
REMARK VINA RESULT:    -0.547      1.100      7.995
REMARK INTER + INTRA:          -1.552
REMARK INTER:                  -1.119
REMARK INTRA:                  -0.433
REMARK UNBOUND:                -0.525
REMARK SMILES O=C([O-])CCCCCCCCCCCCCCC(=O)[O-]
REMARK SMILES IDX 10 1 9 2 8 3 7 4 6 5 5 6 4 7 2 8 1 9 3 10 11 11 12 12 13 13
REMARK SMILES IDX 14 14 15 15 16 16 17 17 18 18 19 19 20 20
REMARK H PARENT
REMARK Flexibility Score: inf
ROOT
ATOM      1  C   UNL     1      -8.166  51.439  -3.074  1.00  0.00     0.000 C 
ENDROOT
BRANCH   1   2
ATOM      2  C   UNL     1      -8.973  51.290  -4.377  1.00  0.00     0.000 C 
BRANCH   2   3
ATOM      3  C   UNL     1      -8.381  52.109  -5.536  1.00  0.00     0.000 C 
BRANCH   3   4
ATOM      4  C   UNL     1      -6.974  51.632  -5.938  1.00  0.00     0.000 C 
BRANCH   4   5
ATOM      5  C   UNL     1      -6.561  52.125  -7.334  1.00  0.00     0.000 C 
BRANCH   5   6
ATOM      6  C   UNL     1      -6.720  51.046  -8.416  1.00  0.00     0.006 C 
BRANCH   6   7
ATOM      7  C   UNL     1      -5.526  51.053  -9.376  1.00  0.00     0.053 C 
BRANCH   7   8
ATOM      8  C   UNL     1      -4.240  51.061  -8.613  1.00  0.00     0.041 C 
ATOM      9  O   UNL     1      -4.120  50.375  -7.565  1.00  0.00    -0.550 OA
ATOM     10  O   UNL     1      -3.189  51.867  -9.033  1.00  0.00    -0.550 OA
ENDBRANCH   7   8
ENDBRANCH   6   7
ENDBRANCH   5   6
ENDBRANCH   4   5
ENDBRANCH   3   4
ENDBRANCH   2   3
ENDBRANCH   1   2
BRANCH   1  11
ATOM     11  C   UNL     1      -9.067  51.615  -1.840  1.00  0.00     0.000 C 
BRANCH  11  12
ATOM     12  C   UNL     1      -8.449  51.011  -0.568  1.00  0.00     0.000 C 
BRANCH  12  13
ATOM     13  C   UNL     1      -7.523  51.995   0.171  1.00  0.00     0.000 C 
BRANCH  13  14
ATOM     14  C   UNL     1      -6.019  51.823  -0.119  1.00  0.00     0.000 C 
BRANCH  14  15
ATOM     15  C   UNL     1      -5.436  50.439   0.222  1.00  0.00     0.000 C 
BRANCH  15  16
ATOM     16  C   UNL     1      -3.903  50.325   0.114  1.00  0.00     0.006 C 
BRANCH  16  17
ATOM     17  C   UNL     1      -3.183  51.682   0.008  1.00  0.00     0.053 C 
BRANCH  17  18
ATOM     18  C   UNL     1      -1.692  51.537  -0.042  1.00  0.00     0.041 C 
ATOM     19  O   UNL     1      -1.136  51.055  -1.063  1.00  0.00    -0.550 OA
ATOM     20  O   UNL     1      -0.919  51.900   1.053  1.00  0.00    -0.550 OA
ENDBRANCH  17  18
ENDBRANCH  16  17
ENDBRANCH  15  16
ENDBRANCH  14  15
ENDBRANCH  13  14
ENDBRANCH  12  13
ENDBRANCH  11  12
ENDBRANCH   1  11
TORSDOF 15
ENDMDL
MODEL 3
REMARK VINA RESULT:     0.348      4.086      5.016
REMARK INTER + INTRA:           0.130
REMARK INTER:                   0.289
REMARK INTRA:                  -0.159
REMARK UNBOUND:                -0.525
REMARK SMILES O=C([O-])CCCCCCCCCCCCCCC(=O)[O-]
REMARK SMILES IDX 10 1 9 2 8 3 7 4 6 5 5 6 4 7 2 8 1 9 3 10 11 11 12 12 13 13
REMARK SMILES IDX 14 14 15 15 16 16 17 17 18 18 19 19 20 20
REMARK H PARENT
REMARK Flexibility Score: inf
ROOT
ATOM      1  C   UNL     1      -8.296  51.584  -3.233  1.00  0.00     0.000 C 
ENDROOT
BRANCH   1   2
ATOM      2  C   UNL     1      -9.100  50.503  -2.486  1.00  0.00     0.000 C 
BRANCH   2   3
ATOM      3  C   UNL     1      -8.532  50.207  -1.088  1.00  0.00     0.000 C 
BRANCH   3   4
ATOM      4  C   UNL     1      -7.330  49.247  -1.128  1.00  0.00     0.000 C 
BRANCH   4   5
ATOM      5  C   UNL     1      -7.751  47.770  -1.072  1.00  0.00     0.000 C 
BRANCH   5   6
ATOM      6  C   UNL     1      -6.627  46.815  -1.501  1.00  0.00     0.006 C 
BRANCH   6   7
ATOM      7  C   UNL     1      -7.042  45.355  -1.299  1.00  0.00     0.053 C 
BRANCH   7   8
ATOM      8  C   UNL     1      -6.372  44.474  -2.306  1.00  0.00     0.041 C 
ATOM      9  O   UNL     1      -5.436  43.709  -1.955  1.00  0.00    -0.550 OA
ATOM     10  O   UNL     1      -6.749  44.536  -3.641  1.00  0.00    -0.550 OA
ENDBRANCH   7   8
ENDBRANCH   6   7
ENDBRANCH   5   6
ENDBRANCH   4   5
ENDBRANCH   3   4
ENDBRANCH   2   3
ENDBRANCH   1   2
BRANCH   1  11
ATOM     11  C   UNL     1      -7.786  51.098  -4.600  1.00  0.00     0.000 C 
BRANCH  11  12
ATOM     12  C   UNL     1      -8.027  52.125  -5.719  1.00  0.00     0.000 C 
BRANCH  12  13
ATOM     13  C   UNL     1      -6.914  52.119  -6.784  1.00  0.00     0.000 C 
BRANCH  13  14
ATOM     14  C   UNL     1      -7.368  51.728  -8.204  1.00  0.00     0.000 C 
BRANCH  14  15
ATOM     15  C   UNL     1      -6.239  51.302  -9.162  1.00  0.00     0.000 C 
BRANCH  15  16
ATOM     16  C   UNL     1      -4.898  52.035  -8.965  1.00  0.00     0.006 C 
BRANCH  16  17
ATOM     17  C   UNL     1      -4.063  51.505  -7.785  1.00  0.00     0.053 C 
BRANCH  17  18
ATOM     18  C   UNL     1      -2.610  51.849  -7.911  1.00  0.00     0.041 C 
ATOM     19  O   UNL     1      -1.915  52.053  -6.882  1.00  0.00    -0.550 OA
ATOM     20  O   UNL     1      -2.031  51.979  -9.167  1.00  0.00    -0.550 OA
ENDBRANCH  17  18
ENDBRANCH  16  17
ENDBRANCH  15  16
ENDBRANCH  14  15
ENDBRANCH  13  14
ENDBRANCH  12  13
ENDBRANCH  11  12
ENDBRANCH   1  11
TORSDOF 15
ENDMDL
MODEL 4
REMARK VINA RESULT:     0.421      1.568      2.091
REMARK INTER + INTRA:           0.267
REMARK INTER:                   0.988
REMARK INTRA:                  -0.722
REMARK UNBOUND:                -0.525
REMARK SMILES O=C([O-])CCCCCCCCCCCCCCC(=O)[O-]
REMARK SMILES IDX 10 1 9 2 8 3 7 4 6 5 5 6 4 7 2 8 1 9 3 10 11 11 12 12 13 13
REMARK SMILES IDX 14 14 15 15 16 16 17 17 18 18 19 19 20 20
REMARK H PARENT
REMARK Flexibility Score: inf
ROOT
ATOM      1  C   UNL     1      -7.516  49.455  -1.630  1.00  0.00     0.000 C 
ENDROOT
BRANCH   1   2
ATOM      2  C   UNL     1      -8.207  50.419  -0.647  1.00  0.00     0.000 C 
BRANCH   2   3
ATOM      3  C   UNL     1      -7.248  51.486  -0.094  1.00  0.00     0.000 C 
BRANCH   3   4
ATOM      4  C   UNL     1      -5.799  50.981   0.014  1.00  0.00     0.000 C 
BRANCH   4   5
ATOM      5  C   UNL     1      -4.772  52.125   0.004  1.00  0.00     0.000 C 
BRANCH   5   6
ATOM      6  C   UNL     1      -3.361  51.653  -0.379  1.00  0.00     0.006 C 
BRANCH   6   7
ATOM      7  C   UNL     1      -2.454  51.586   0.854  1.00  0.00     0.053 C 
BRANCH   7   8
ATOM      8  C   UNL     1      -1.015  51.642   0.450  1.00  0.00     0.041 C 
ATOM      9  O   UNL     1      -0.135  51.982   1.284  1.00  0.00    -0.550 OA
ATOM     10  O   UNL     1      -0.651  51.366  -0.862  1.00  0.00    -0.550 OA
ENDBRANCH   7   8
ENDBRANCH   6   7
ENDBRANCH   5   6
ENDBRANCH   4   5
ENDBRANCH   3   4
ENDBRANCH   2   3
ENDBRANCH   1   2
BRANCH   1  11
ATOM     11  C   UNL     1      -8.170  49.465  -3.022  1.00  0.00     0.000 C 
BRANCH  11  12
ATOM     12  C   UNL     1      -8.083  50.841  -3.704  1.00  0.00     0.000 C 
BRANCH  12  13
ATOM     13  C   UNL     1      -8.390  50.780  -5.212  1.00  0.00     0.000 C 
BRANCH  13  14
ATOM     14  C   UNL     1      -8.200  52.106  -5.974  1.00  0.00     0.000 C 
BRANCH  14  15
ATOM     15  C   UNL     1      -7.341  52.015  -7.250  1.00  0.00     0.000 C 
BRANCH  15  16
ATOM     16  C   UNL     1      -5.819  52.101  -7.027  1.00  0.00     0.006 C 
BRANCH  16  17
ATOM     17  C   UNL     1      -4.985  51.812  -8.289  1.00  0.00     0.053 C 
BRANCH  17  18
ATOM     18  C   UNL     1      -3.640  51.235  -7.966  1.00  0.00     0.041 C 
ATOM     19  O   UNL     1      -2.635  51.542  -8.659  1.00  0.00    -0.550 OA
ATOM     20  O   UNL     1      -3.502  50.329  -6.922  1.00  0.00    -0.550 OA
ENDBRANCH  17  18
ENDBRANCH  16  17
ENDBRANCH  15  16
ENDBRANCH  14  15
ENDBRANCH  13  14
ENDBRANCH  12  13
ENDBRANCH  11  12
ENDBRANCH   1  11
TORSDOF 15
ENDMDL
MODEL 5
REMARK VINA RESULT:     0.853      4.873      5.297
REMARK INTER + INTRA:           1.077
REMARK INTER:                   1.571
REMARK INTRA:                  -0.495
REMARK UNBOUND:                -0.525
REMARK SMILES O=C([O-])CCCCCCCCCCCCCCC(=O)[O-]
REMARK SMILES IDX 10 1 9 2 8 3 7 4 6 5 5 6 4 7 2 8 1 9 3 10 11 11 12 12 13 13
REMARK SMILES IDX 14 14 15 15 16 16 17 17 18 18 19 19 20 20
REMARK H PARENT
REMARK Flexibility Score: inf
ROOT
ATOM      1  C   UNL     1      -7.671  50.078  -1.422  1.00  0.00     0.000 C 
ENDROOT
BRANCH   1   2
ATOM      2  C   UNL     1      -7.653  48.706  -0.725  1.00  0.00     0.000 C 
BRANCH   2   3
ATOM      3  C   UNL     1      -7.082  47.595  -1.622  1.00  0.00     0.000 C 
BRANCH   3   4
ATOM      4  C   UNL     1      -7.273  46.191  -1.019  1.00  0.00     0.000 C 
BRANCH   4   5
ATOM      5  C   UNL     1      -6.896  45.071  -2.002  1.00  0.00     0.000 C 
BRANCH   5   6
ATOM      6  C   UNL     1      -5.400  44.723  -1.960  1.00  0.00     0.006 C 
BRANCH   6   7
ATOM      7  C   UNL     1      -5.194  43.215  -1.783  1.00  0.00     0.053 C 
BRANCH   7   8
ATOM      8  C   UNL     1      -3.911  42.941  -1.064  1.00  0.00     0.041 C 
ATOM      9  O   UNL     1      -2.844  43.492  -1.441  1.00  0.00    -0.550 OA
ATOM     10  O   UNL     1      -3.886  42.038  -0.009  1.00  0.00    -0.550 OA
ENDBRANCH   7   8
ENDBRANCH   6   7
ENDBRANCH   5   6
ENDBRANCH   4   5
ENDBRANCH   3   4
ENDBRANCH   2   3
ENDBRANCH   1   2
BRANCH   1  11
ATOM     11  C   UNL     1      -8.591  50.100  -2.654  1.00  0.00     0.000 C 
BRANCH  11  12
ATOM     12  C   UNL     1      -8.478  51.410  -3.452  1.00  0.00     0.000 C 
BRANCH  12  13
ATOM     13  C   UNL     1      -8.511  51.186  -4.975  1.00  0.00     0.000 C 
BRANCH  13  14
ATOM     14  C   UNL     1      -7.529  52.053  -5.787  1.00  0.00     0.000 C 
BRANCH  14  15
ATOM     15  C   UNL     1      -7.808  52.123  -7.301  1.00  0.00     0.000 C 
BRANCH  15  16
ATOM     16  C   UNL     1      -6.575  51.934  -8.206  1.00  0.00     0.006 C 
BRANCH  16  17
ATOM     17  C   UNL     1      -5.231  52.086  -7.470  1.00  0.00     0.053 C 
BRANCH  17  18
ATOM     18  C   UNL     1      -4.147  51.251  -8.081  1.00  0.00     0.041 C 
ATOM     19  O   UNL     1      -3.518  50.416  -7.380  1.00  0.00    -0.550 OA
ATOM     20  O   UNL     1      -3.806  51.421  -9.417  1.00  0.00    -0.550 OA
ENDBRANCH  17  18
ENDBRANCH  16  17
ENDBRANCH  15  16
ENDBRANCH  14  15
ENDBRANCH  13  14
ENDBRANCH  12  13
ENDBRANCH  11  12
ENDBRANCH   1  11
TORSDOF 15
ENDMDL
MODEL 6
REMARK VINA RESULT:     0.914      4.073      7.564
REMARK INTER + INTRA:           1.191
REMARK INTER:                   2.050
REMARK INTRA:                  -0.859
REMARK UNBOUND:                -0.525
REMARK SMILES O=C([O-])CCCCCCCCCCCCCCC(=O)[O-]
REMARK SMILES IDX 10 1 9 2 8 3 7 4 6 5 5 6 4 7 2 8 1 9 3 10 11 11 12 12 13 13
REMARK SMILES IDX 14 14 15 15 16 16 17 17 18 18 19 19 20 20
REMARK H PARENT
REMARK Flexibility Score: inf
ROOT
ATOM      1  C   UNL     1      -7.632  51.348  -4.970  1.00  0.00     0.000 C 
ENDROOT
BRANCH   1   2
ATOM      2  C   UNL     1      -7.569  52.114  -6.304  1.00  0.00     0.000 C 
BRANCH   2   3
ATOM      3  C   UNL     1      -8.133  51.298  -7.480  1.00  0.00     0.000 C 
BRANCH   3   4
ATOM      4  C   UNL     1      -7.083  51.035  -8.574  1.00  0.00     0.000 C 
BRANCH   4   5
ATOM      5  C   UNL     1      -6.000  52.124  -8.628  1.00  0.00     0.000 C 
BRANCH   5   6
ATOM      6  C   UNL     1      -4.580  51.545  -8.722  1.00  0.00     0.006 C 
BRANCH   6   7
ATOM      7  C   UNL     1      -3.759  51.905  -7.480  1.00  0.00     0.053 C 
BRANCH   7   8
ATOM      8  C   UNL     1      -2.314  51.582  -7.694  1.00  0.00     0.041 C 
ATOM      9  O   UNL     1      -1.693  52.073  -8.673  1.00  0.00    -0.550 OA
ATOM     10  O   UNL     1      -1.667  50.698  -6.840  1.00  0.00    -0.550 OA
ENDBRANCH   7   8
ENDBRANCH   6   7
ENDBRANCH   5   6
ENDBRANCH   4   5
ENDBRANCH   3   4
ENDBRANCH   2   3
ENDBRANCH   1   2
BRANCH   1  11
ATOM     11  C   UNL     1      -8.495  52.067  -3.919  1.00  0.00     0.000 C 
BRANCH  11  12
ATOM     12  C   UNL     1      -7.857  52.051  -2.520  1.00  0.00     0.000 C 
BRANCH  12  13
ATOM     13  C   UNL     1      -8.727  51.330  -1.475  1.00  0.00     0.000 C 
BRANCH  13  14
ATOM     14  C   UNL     1      -8.943  49.824  -1.726  1.00  0.00     0.000 C 
BRANCH  14  15
ATOM     15  C   UNL     1      -7.676  48.953  -1.627  1.00  0.00     0.000 C 
BRANCH  15  16
ATOM     16  C   UNL     1      -7.851  47.487  -2.070  1.00  0.00     0.006 C 
BRANCH  16  17
ATOM     17  C   UNL     1      -6.622  46.601  -1.794  1.00  0.00     0.053 C 
BRANCH  17  18
ATOM     18  C   UNL     1      -6.949  45.139  -1.837  1.00  0.00     0.041 C 
ATOM     19  O   UNL     1      -7.934  44.690  -1.195  1.00  0.00    -0.550 OA
ATOM     20  O   UNL     1      -6.145  44.266  -2.559  1.00  0.00    -0.550 OA
ENDBRANCH  17  18
ENDBRANCH  16  17
ENDBRANCH  15  16
ENDBRANCH  14  15
ENDBRANCH  13  14
ENDBRANCH  12  13
ENDBRANCH  11  12
ENDBRANCH   1  11
TORSDOF 15
ENDMDL
MODEL 7
REMARK VINA RESULT:     1.251      4.975      5.590
REMARK INTER + INTRA:           1.824
REMARK INTER:                   2.591
REMARK INTRA:                  -0.767
REMARK UNBOUND:                -0.525
REMARK SMILES O=C([O-])CCCCCCCCCCCCCCC(=O)[O-]
REMARK SMILES IDX 10 1 9 2 8 3 7 4 6 5 5 6 4 7 2 8 1 9 3 10 11 11 12 12 13 13
REMARK SMILES IDX 14 14 15 15 16 16 17 17 18 18 19 19 20 20
REMARK H PARENT
REMARK Flexibility Score: inf
ROOT
ATOM      1  C   UNL     1      -7.650  48.780  -2.076  1.00  0.00     0.000 C 
ENDROOT
BRANCH   1   2
ATOM      2  C   UNL     1      -7.224  47.938  -0.860  1.00  0.00     0.000 C 
BRANCH   2   3
ATOM      3  C   UNL     1      -7.204  46.431  -1.162  1.00  0.00     0.000 C 
BRANCH   3   4
ATOM      4  C   UNL     1      -6.875  46.127  -2.634  1.00  0.00     0.000 C 
BRANCH   4   5
ATOM      5  C   UNL     1      -6.385  44.685  -2.843  1.00  0.00     0.000 C 
BRANCH   5   6
ATOM      6  C   UNL     1      -6.257  43.904  -1.526  1.00  0.00     0.006 C 
BRANCH   6   7
ATOM      7  C   UNL     1      -5.339  42.689  -1.697  1.00  0.00     0.053 C 
BRANCH   7   8
ATOM      8  C   UNL     1      -4.053  42.896  -0.962  1.00  0.00     0.041 C 
ATOM      9  O   UNL     1      -3.873  42.361   0.163  1.00  0.00    -0.550 OA
ATOM     10  O   UNL     1      -3.073  43.722  -1.497  1.00  0.00    -0.550 OA
ENDBRANCH   7   8
ENDBRANCH   6   7
ENDBRANCH   5   6
ENDBRANCH   4   5
ENDBRANCH   3   4
ENDBRANCH   2   3
ENDBRANCH   1   2
BRANCH   1  11
ATOM     11  C   UNL     1      -8.536  49.974  -1.684  1.00  0.00     0.000 C 
BRANCH  11  12
ATOM     12  C   UNL     1      -8.851  50.892  -2.878  1.00  0.00     0.000 C 
BRANCH  12  13
ATOM     13  C   UNL     1      -7.795  51.994  -3.079  1.00  0.00     0.000 C 
BRANCH  13  14
ATOM     14  C   UNL     1      -7.244  52.122  -4.513  1.00  0.00     0.000 C 
BRANCH  14  15
ATOM     15  C   UNL     1      -8.135  51.521  -5.616  1.00  0.00     0.000 C 
BRANCH  15  16
ATOM     16  C   UNL     1      -7.694  51.831  -7.060  1.00  0.00     0.006 C 
BRANCH  16  17
ATOM     17  C   UNL     1      -6.189  52.123  -7.203  1.00  0.00     0.053 C 
BRANCH  17  18
ATOM     18  C   UNL     1      -5.635  51.643  -8.511  1.00  0.00     0.041 C 
ATOM     19  O   UNL     1      -6.259  50.784  -9.187  1.00  0.00    -0.550 OA
ATOM     20  O   UNL     1      -4.412  52.118  -8.966  1.00  0.00    -0.550 OA
ENDBRANCH  17  18
ENDBRANCH  16  17
ENDBRANCH  15  16
ENDBRANCH  14  15
ENDBRANCH  13  14
ENDBRANCH  12  13
ENDBRANCH  11  12
ENDBRANCH   1  11
TORSDOF 15
ENDMDL
MODEL 8
REMARK VINA RESULT:     1.462      4.750      8.766
REMARK INTER + INTRA:           2.219
REMARK INTER:                   2.884
REMARK INTRA:                  -0.665
REMARK UNBOUND:                -0.525
REMARK SMILES O=C([O-])CCCCCCCCCCCCCCC(=O)[O-]
REMARK SMILES IDX 10 1 9 2 8 3 7 4 6 5 5 6 4 7 2 8 1 9 3 10 11 11 12 12 13 13
REMARK SMILES IDX 14 14 15 15 16 16 17 17 18 18 19 19 20 20
REMARK H PARENT
REMARK Flexibility Score: inf
ROOT
ATOM      1  C   UNL     1      -8.801  50.617  -2.318  1.00  0.00     0.000 C 
ENDROOT
BRANCH   1   2
ATOM      2  C   UNL     1      -8.546  50.633  -3.836  1.00  0.00     0.000 C 
BRANCH   2   3
ATOM      3  C   UNL     1      -9.073  51.910  -4.510  1.00  0.00     0.000 C 
BRANCH   3   4
ATOM      4  C   UNL     1      -8.496  52.116  -5.922  1.00  0.00     0.000 C 
BRANCH   4   5
ATOM      5  C   UNL     1      -7.039  51.641  -6.039  1.00  0.00     0.000 C 
BRANCH   5   6
ATOM      6  C   UNL     1      -6.359  52.125  -7.329  1.00  0.00     0.006 C 
BRANCH   6   7
ATOM      7  C   UNL     1      -6.268  50.993  -8.357  1.00  0.00     0.053 C 
BRANCH   7   8
ATOM      8  C   UNL     1      -7.429  51.044  -9.299  1.00  0.00     0.041 C 
ATOM      9  O   UNL     1      -7.554  52.009 -10.098  1.00  0.00    -0.550 OA
ATOM     10  O   UNL     1      -8.400  50.052  -9.258  1.00  0.00    -0.550 OA
ENDBRANCH   7   8
ENDBRANCH   6   7
ENDBRANCH   5   6
ENDBRANCH   4   5
ENDBRANCH   3   4
ENDBRANCH   2   3
ENDBRANCH   1   2
BRANCH   1  11
ATOM     11  C   UNL     1      -8.523  49.241  -1.689  1.00  0.00     0.000 C 
BRANCH  11  12
ATOM     12  C   UNL     1      -7.292  49.253  -0.766  1.00  0.00     0.000 C 
BRANCH  12  13
ATOM     13  C   UNL     1      -6.588  47.885  -0.693  1.00  0.00     0.000 C 
BRANCH  13  14
ATOM     14  C   UNL     1      -7.149  46.807  -1.642  1.00  0.00     0.000 C 
BRANCH  14  15
ATOM     15  C   UNL     1      -6.845  45.352  -1.238  1.00  0.00     0.000 C 
BRANCH  15  16
ATOM     16  C   UNL     1      -6.273  44.464  -2.360  1.00  0.00     0.006 C 
BRANCH  16  17
ATOM     17  C   UNL     1      -5.728  43.110  -1.868  1.00  0.00     0.053 C 
BRANCH  17  18
ATOM     18  C   UNL     1      -4.361  43.228  -1.266  1.00  0.00     0.041 C 
ATOM     19  O   UNL     1      -3.605  44.182  -1.589  1.00  0.00    -0.550 OA
ATOM     20  O   UNL     1      -3.907  42.266  -0.373  1.00  0.00    -0.550 OA
ENDBRANCH  17  18
ENDBRANCH  16  17
ENDBRANCH  15  16
ENDBRANCH  14  15
ENDBRANCH  13  14
ENDBRANCH  12  13
ENDBRANCH  11  12
ENDBRANCH   1  11
TORSDOF 15
ENDMDL
