MODEL 1
REMARK VINA RESULT:    -4.051      0.000      0.000
REMARK INTER + INTRA:          -4.051
REMARK INTER:                  -4.051
REMARK INTRA:                   0.000
REMARK UNBOUND:                 0.000
REMARK SMILES CC1=CC(=O)[C@@H]2C[C@H]1C2(C)C
REMARK SMILES IDX 1 1 2 2 3 3 4 4 5 5 6 6 7 7 8 8 9 9 10 10 11 11
REMARK H PARENT
REMARK Flexibility Score: inf
ROOT
ATOM      1  C   UNL     1      10.136 -22.787  41.011  1.00  0.00     0.040 C 
ATOM      2  C   UNL     1       9.747 -24.135  40.492  1.00  0.00    -0.066 C 
ATOM      3  C   UNL     1       9.409 -24.323  39.186  1.00  0.00     0.047 C 
ATOM      4  C   UNL     1       9.070 -25.726  38.784  1.00  0.00     0.159 C 
ATOM      5  O   UNL     1       8.780 -26.032  37.598  1.00  0.00    -0.295 OA
ATOM      6  C   UNL     1       9.101 -26.756  39.912  1.00  0.00     0.067 C 
ATOM      7  C   UNL     1       8.352 -26.068  41.074  1.00  0.00     0.021 C 
ATOM      8  C   UNL     1       9.692 -25.374  41.411  1.00  0.00     0.022 C 
ATOM      9  C   UNL     1      10.417 -26.565  40.720  1.00  0.00    -0.019 C 
ATOM     10  C   UNL     1      11.729 -26.272  39.937  1.00  0.00     0.012 C 
ATOM     11  C   UNL     1      10.686 -27.739  41.695  1.00  0.00     0.012 C 
ENDROOT
TORSDOF 0
ENDMDL
MODEL 2
REMARK VINA RESULT:    -4.039      3.402      4.681
REMARK INTER + INTRA:          -4.039
REMARK INTER:                  -4.039
REMARK INTRA:                   0.000
REMARK UNBOUND:                 0.000
REMARK SMILES CC1=CC(=O)[C@@H]2C[C@H]1C2(C)C
REMARK SMILES IDX 1 1 2 2 3 3 4 4 5 5 6 6 7 7 8 8 9 9 10 10 11 11
REMARK H PARENT
REMARK Flexibility Score: inf
ROOT
ATOM      1  C   UNL     1      13.108 -21.881  44.143  1.00  0.00     0.040 C 
ATOM      2  C   UNL     1      12.693 -21.973  42.708  1.00  0.00    -0.066 C 
ATOM      3  C   UNL     1      13.212 -21.140  41.765  1.00  0.00     0.047 C 
ATOM      4  C   UNL     1      12.739 -21.354  40.359  1.00  0.00     0.159 C 
ATOM      5  O   UNL     1      13.174 -20.673  39.393  1.00  0.00    -0.295 OA
ATOM      6  C   UNL     1      11.695 -22.455  40.180  1.00  0.00     0.067 C 
ATOM      7  C   UNL     1      10.684 -22.207  41.321  1.00  0.00     0.021 C 
ATOM      8  C   UNL     1      11.648 -23.003  42.230  1.00  0.00     0.022 C 
ATOM      9  C   UNL     1      12.171 -23.719  40.951  1.00  0.00    -0.019 C 
ATOM     10  C   UNL     1      13.678 -24.099  40.888  1.00  0.00     0.012 C 
ATOM     11  C   UNL     1      11.338 -24.976  40.596  1.00  0.00     0.012 C 
ENDROOT
TORSDOF 0
ENDMDL
MODEL 3
REMARK VINA RESULT:    -3.911      4.087      5.664
REMARK INTER + INTRA:          -3.911
REMARK INTER:                  -3.911
REMARK INTRA:                   0.000
REMARK UNBOUND:                 0.000
REMARK SMILES CC1=CC(=O)[C@@H]2C[C@H]1C2(C)C
REMARK SMILES IDX 1 1 2 2 3 3 4 4 5 5 6 6 7 7 8 8 9 9 10 10 11 11
REMARK H PARENT
REMARK Flexibility Score: inf
ROOT
ATOM      1  C   UNL     1       9.895 -22.639  40.665  1.00  0.00     0.040 C 
ATOM      2  C   UNL     1      11.235 -22.369  41.273  1.00  0.00    -0.066 C 
ATOM      3  C   UNL     1      11.455 -22.535  42.607  1.00  0.00     0.047 C 
ATOM      4  C   UNL     1      12.848 -22.261  43.088  1.00  0.00     0.159 C 
ATOM      5  O   UNL     1      13.185 -22.417  44.291  1.00  0.00    -0.295 OA
ATOM      6  C   UNL     1      13.828 -21.782  42.017  1.00  0.00     0.067 C 
ATOM      7  C   UNL     1      13.040 -20.708  41.236  1.00  0.00     0.021 C 
ATOM      8  C   UNL     1      12.426 -21.872  40.426  1.00  0.00     0.022 C 
ATOM      9  C   UNL     1      13.693 -22.707  40.774  1.00  0.00    -0.019 C 
ATOM     10  C   UNL     1      13.524 -24.236  41.004  1.00  0.00     0.012 C 
ATOM     11  C   UNL     1      14.838 -22.493  39.752  1.00  0.00     0.012 C 
ENDROOT
TORSDOF 0
ENDMDL
MODEL 4
REMARK VINA RESULT:    -3.901      3.376      5.182
REMARK INTER + INTRA:          -3.901
REMARK INTER:                  -3.901
REMARK INTRA:                   0.000
REMARK UNBOUND:                 0.000
REMARK SMILES CC1=CC(=O)[C@@H]2C[C@H]1C2(C)C
REMARK SMILES IDX 1 1 2 2 3 3 4 4 5 5 6 6 7 7 8 8 9 9 10 10 11 11
REMARK H PARENT
REMARK Flexibility Score: inf
ROOT
ATOM      1  C   UNL     1       9.626 -22.732  40.650  1.00  0.00     0.040 C 
ATOM      2  C   UNL     1      11.097 -22.853  40.891  1.00  0.00    -0.066 C 
ATOM      3  C   UNL     1      11.774 -23.994  40.583  1.00  0.00     0.047 C 
ATOM      4  C   UNL     1      13.250 -23.979  40.844  1.00  0.00     0.159 C 
ATOM      5  O   UNL     1      13.991 -24.958  40.564  1.00  0.00    -0.295 OA
ATOM      6  C   UNL     1      13.792 -22.694  41.470  1.00  0.00     0.067 C 
ATOM      7  C   UNL     1      12.790 -22.373  42.600  1.00  0.00     0.021 C 
ATOM      8  C   UNL     1      11.915 -21.703  41.516  1.00  0.00     0.022 C 
ATOM      9  C   UNL     1      13.214 -21.481  40.687  1.00  0.00    -0.019 C 
ATOM     10  C   UNL     1      13.121 -21.577  39.138  1.00  0.00     0.012 C 
ATOM     11  C   UNL     1      13.925 -20.152  41.050  1.00  0.00     0.012 C 
ENDROOT
TORSDOF 0
ENDMDL
MODEL 5
REMARK VINA RESULT:    -3.897      1.448      2.207
REMARK INTER + INTRA:          -3.897
REMARK INTER:                  -3.897
REMARK INTRA:                   0.000
REMARK UNBOUND:                 0.000
REMARK SMILES CC1=CC(=O)[C@@H]2C[C@H]1C2(C)C
REMARK SMILES IDX 1 1 2 2 3 3 4 4 5 5 6 6 7 7 8 8 9 9 10 10 11 11
REMARK H PARENT
REMARK Flexibility Score: inf
ROOT
ATOM      1  C   UNL     1      11.205 -22.546  41.773  1.00  0.00     0.040 C 
ATOM      2  C   UNL     1      10.835 -23.668  40.855  1.00  0.00    -0.066 C 
ATOM      3  C   UNL     1      11.759 -24.262  40.051  1.00  0.00     0.047 C 
ATOM      4  C   UNL     1      11.269 -25.395  39.201  1.00  0.00     0.159 C 
ATOM      5  O   UNL     1      12.036 -26.048  38.447  1.00  0.00    -0.295 OA
ATOM      6  C   UNL     1       9.776 -25.701  39.317  1.00  0.00     0.067 C 
ATOM      7  C   UNL     1       9.099 -24.315  39.247  1.00  0.00     0.021 C 
ATOM      8  C   UNL     1       9.387 -24.195  40.761  1.00  0.00     0.022 C 
ATOM      9  C   UNL     1       9.396 -25.750  40.824  1.00  0.00    -0.019 C 
ATOM     10  C   UNL     1      10.380 -26.439  41.812  1.00  0.00     0.012 C 
ATOM     11  C   UNL     1       7.982 -26.339  41.057  1.00  0.00     0.012 C 
ENDROOT
TORSDOF 0
ENDMDL
MODEL 6
REMARK VINA RESULT:    -3.832      3.251      4.465
REMARK INTER + INTRA:          -3.832
REMARK INTER:                  -3.832
REMARK INTRA:                   0.000
REMARK UNBOUND:                 0.000
REMARK SMILES CC1=CC(=O)[C@@H]2C[C@H]1C2(C)C
REMARK SMILES IDX 1 1 2 2 3 3 4 4 5 5 6 6 7 7 8 8 9 9 10 10 11 11
REMARK H PARENT
REMARK Flexibility Score: inf
ROOT
ATOM      1  C   UNL     1      13.495 -20.753  38.735  1.00  0.00     0.040 C 
ATOM      2  C   UNL     1      12.866 -21.826  39.568  1.00  0.00    -0.066 C 
ATOM      3  C   UNL     1      12.723 -23.096  39.098  1.00  0.00     0.047 C 
ATOM      4  C   UNL     1      12.106 -24.085  40.039  1.00  0.00     0.159 C 
ATOM      5  O   UNL     1      11.957 -25.298  39.735  1.00  0.00    -0.295 OA
ATOM      6  C   UNL     1      11.673 -23.521  41.392  1.00  0.00     0.067 C 
ATOM      7  C   UNL     1      10.938 -22.209  41.036  1.00  0.00     0.021 C 
ATOM      8  C   UNL     1      12.333 -21.543  40.989  1.00  0.00     0.022 C 
ATOM      9  C   UNL     1      12.832 -22.653  41.959  1.00  0.00    -0.019 C 
ATOM     10  C   UNL     1      14.290 -23.170  41.796  1.00  0.00     0.012 C 
ATOM     11  C   UNL     1      12.614 -22.277  43.447  1.00  0.00     0.012 C 
ENDROOT
TORSDOF 0
ENDMDL
MODEL 7
REMARK VINA RESULT:    -3.739      3.270      4.661
REMARK INTER + INTRA:          -3.739
REMARK INTER:                  -3.739
REMARK INTRA:                   0.000
REMARK UNBOUND:                 0.000
REMARK SMILES CC1=CC(=O)[C@@H]2C[C@H]1C2(C)C
REMARK SMILES IDX 1 1 2 2 3 3 4 4 5 5 6 6 7 7 8 8 9 9 10 10 11 11
REMARK H PARENT
REMARK Flexibility Score: inf
ROOT
ATOM      1  C   UNL     1      13.789 -22.248  43.224  1.00  0.00     0.040 C 
ATOM      2  C   UNL     1      12.920 -22.598  42.057  1.00  0.00    -0.066 C 
ATOM      3  C   UNL     1      11.607 -22.238  42.018  1.00  0.00     0.047 C 
ATOM      4  C   UNL     1      10.852 -22.620  40.781  1.00  0.00     0.159 C 
ATOM      5  O   UNL     1       9.644 -22.310  40.609  1.00  0.00    -0.295 OA
ATOM      6  C   UNL     1      11.650 -23.409  39.744  1.00  0.00     0.067 C 
ATOM      7  C   UNL     1      12.394 -24.479  40.573  1.00  0.00     0.021 C 
ATOM      8  C   UNL     1      13.461 -23.396  40.852  1.00  0.00     0.022 C 
ATOM      9  C   UNL     1      13.019 -22.702  39.530  1.00  0.00    -0.019 C 
ATOM     10  C   UNL     1      13.047 -21.148  39.472  1.00  0.00     0.012 C 
ATOM     11  C   UNL     1      13.779 -23.248  38.295  1.00  0.00     0.012 C 
ENDROOT
TORSDOF 0
ENDMDL
MODEL 8
REMARK VINA RESULT:    -3.614      3.880      5.770
REMARK INTER + INTRA:          -3.614
REMARK INTER:                  -3.614
REMARK INTRA:                   0.000
REMARK UNBOUND:                 0.000
REMARK SMILES CC1=CC(=O)[C@@H]2C[C@H]1C2(C)C
REMARK SMILES IDX 1 1 2 2 3 3 4 4 5 5 6 6 7 7 8 8 9 9 10 10 11 11
REMARK H PARENT
REMARK Flexibility Score: inf
ROOT
ATOM      1  C   UNL     1      12.956 -29.936  38.691  1.00  0.00     0.040 C 
ATOM      2  C   UNL     1      13.578 -28.599  38.436  1.00  0.00    -0.066 C 
ATOM      3  C   UNL     1      13.145 -27.798  37.424  1.00  0.00     0.047 C 
ATOM      4  C   UNL     1      13.828 -26.470  37.291  1.00  0.00     0.159 C 
ATOM      5  O   UNL     1      13.491 -25.626  36.421  1.00  0.00    -0.295 OA
ATOM      6  C   UNL     1      14.960 -26.214  38.286  1.00  0.00     0.067 C 
ATOM      7  C   UNL     1      15.777 -27.525  38.274  1.00  0.00     0.021 C 
ATOM      8  C   UNL     1      14.749 -28.072  39.291  1.00  0.00     0.022 C 
ATOM      9  C   UNL     1      14.465 -26.600  39.709  1.00  0.00    -0.019 C 
ATOM     10  C   UNL     1      13.012 -26.220  40.114  1.00  0.00     0.012 C 
ATOM     11  C   UNL     1      15.424 -26.107  40.821  1.00  0.00     0.012 C 
ENDROOT
TORSDOF 0
ENDMDL
MODEL 9
REMARK VINA RESULT:    -3.603      5.888      8.250
REMARK INTER + INTRA:          -3.603
REMARK INTER:                  -3.603
REMARK INTRA:                   0.000
REMARK UNBOUND:                 0.000
REMARK SMILES CC1=CC(=O)[C@@H]2C[C@H]1C2(C)C
REMARK SMILES IDX 1 1 2 2 3 3 4 4 5 5 6 6 7 7 8 8 9 9 10 10 11 11
REMARK H PARENT
REMARK Flexibility Score: inf
ROOT
ATOM      1  C   UNL     1      12.027 -32.295  46.395  1.00  0.00     0.040 C 
ATOM      2  C   UNL     1      12.800 -31.759  45.231  1.00  0.00    -0.066 C 
ATOM      3  C   UNL     1      13.942 -32.363  44.801  1.00  0.00     0.047 C 
ATOM      4  C   UNL     1      14.607 -31.748  43.606  1.00  0.00     0.159 C 
ATOM      5  O   UNL     1      15.647 -32.237  43.091  1.00  0.00    -0.295 OA
ATOM      6  C   UNL     1      13.935 -30.490  43.058  1.00  0.00     0.067 C 
ATOM      7  C   UNL     1      13.636 -29.643  44.315  1.00  0.00     0.021 C 
ATOM      8  C   UNL     1      12.353 -30.491  44.474  1.00  0.00     0.022 C 
ATOM      9  C   UNL     1      12.408 -30.756  42.941  1.00  0.00    -0.019 C 
ATOM     10  C   UNL     1      11.937 -32.144  42.419  1.00  0.00     0.012 C 
ATOM     11  C   UNL     1      11.678 -29.658  42.126  1.00  0.00     0.012 C 
ENDROOT
TORSDOF 0
ENDMDL
