MODEL 1
REMARK VINA RESULT:    -3.920      0.000      0.000
REMARK INTER + INTRA:          -8.873
REMARK INTER:                  -6.899
REMARK INTRA:                  -1.974
REMARK UNBOUND:                -1.974
REMARK SMILES CCCCCCC=CCCCCCCCC(=O)[O-]
REMARK SMILES IDX 10 1 11 2 12 3 13 4 14 5 15 6 16 7 17 8 18 9 9 10 8 11 7 12
REMARK SMILES IDX 6 13 5 14 4 15 3 16 2 17 1 18
REMARK H PARENT
REMARK Flexibility Score: inf
ROOT
ATOM      1  C   UNL     1       0.774  -0.962  -6.770  1.00  0.00     0.004 C 
ENDROOT
BRANCH   1   2
ATOM      2  C   UNL     1       0.535  -0.782  -8.280  1.00  0.00     0.000 C 
BRANCH   2   3
ATOM      3  C   UNL     1      -0.151  -1.999  -8.921  1.00  0.00     0.000 C 
BRANCH   3   4
ATOM      4  C   UNL     1      -1.372  -1.569  -9.745  1.00  0.00     0.000 C 
BRANCH   4   5
ATOM      5  C   UNL     1      -2.182  -0.496  -9.009  1.00  0.00     0.006 C 
BRANCH   5   6
ATOM      6  C   UNL     1      -3.390  -0.052  -9.840  1.00  0.00     0.053 C 
BRANCH   6   7
ATOM      7  C   UNL     1      -4.659  -0.568  -9.235  1.00  0.00     0.041 C 
ATOM      8  O   UNL     1      -5.601   0.224  -8.970  1.00  0.00    -0.550 OA
ATOM      9  O   UNL     1      -4.782  -1.916  -8.922  1.00  0.00    -0.550 OA
ENDBRANCH   6   7
ENDBRANCH   5   6
ENDBRANCH   4   5
ENDBRANCH   3   4
ENDBRANCH   2   3
ENDBRANCH   1   2
BRANCH   1  10
ATOM     10  C   UNL     1       1.947  -1.895  -6.420  1.00  0.00     0.027 C 
BRANCH  10  11
ATOM     11  C   UNL     1       1.480  -3.127  -5.678  1.00  0.00    -0.031 C 
ATOM     12  C   UNL     1       1.775  -4.398  -6.013  1.00  0.00    -0.031 C 
BRANCH  12  13
ATOM     13  C   UNL     1       2.599  -4.816  -7.205  1.00  0.00     0.027 C 
BRANCH  13  14
ATOM     14  C   UNL     1       1.726  -5.025  -8.449  1.00  0.00     0.004 C 
BRANCH  14  15
ATOM     15  C   UNL     1       2.467  -4.587  -9.719  1.00  0.00     0.000 C 
BRANCH  15  16
ATOM     16  C   UNL     1       3.685  -3.698  -9.419  1.00  0.00    -0.000 C 
BRANCH  16  17
ATOM     17  C   UNL     1       3.465  -2.234  -9.830  1.00  0.00    -0.003 C 
ATOM     18  C   UNL     1       4.530  -1.326  -9.220  1.00  0.00     0.004 C 
ENDBRANCH  16  17
ENDBRANCH  15  16
ENDBRANCH  14  15
ENDBRANCH  13  14
ENDBRANCH  12  13
ENDBRANCH  10  11
ENDBRANCH   1  10
TORSDOF 13
ENDMDL
MODEL 2
REMARK VINA RESULT:    -3.860      3.695      5.686
REMARK INTER + INTRA:          -8.768
REMARK INTER:                  -7.385
REMARK INTRA:                  -1.383
REMARK UNBOUND:                -1.974
REMARK SMILES CCCCCCC=CCCCCCCCC(=O)[O-]
REMARK SMILES IDX 10 1 11 2 12 3 13 4 14 5 15 6 16 7 17 8 18 9 9 10 8 11 7 12
REMARK SMILES IDX 6 13 5 14 4 15 3 16 2 17 1 18
REMARK H PARENT
REMARK Flexibility Score: inf
ROOT
ATOM      1  C   UNL     1       0.208  -4.943  -8.916  1.00  0.00     0.004 C 
ENDROOT
BRANCH   1   2
ATOM      2  C   UNL     1       0.751  -6.338  -9.275  1.00  0.00     0.000 C 
BRANCH   2   3
ATOM      3  C   UNL     1      -0.353  -7.405  -9.347  1.00  0.00     0.000 C 
BRANCH   3   4
ATOM      4  C   UNL     1      -1.743  -6.763  -9.254  1.00  0.00     0.000 C 
BRANCH   4   5
ATOM      5  C   UNL     1      -2.831  -7.828  -9.077  1.00  0.00     0.006 C 
BRANCH   5   6
ATOM      6  C   UNL     1      -4.218  -7.187  -8.976  1.00  0.00     0.053 C 
BRANCH   6   7
ATOM      7  C   UNL     1      -4.970  -7.748  -7.810  1.00  0.00     0.041 C 
ATOM      8  O   UNL     1      -4.511  -8.734  -7.176  1.00  0.00    -0.550 OA
ATOM      9  O   UNL     1      -6.199  -7.210  -7.452  1.00  0.00    -0.550 OA
ENDBRANCH   6   7
ENDBRANCH   5   6
ENDBRANCH   4   5
ENDBRANCH   3   4
ENDBRANCH   2   3
ENDBRANCH   1   2
BRANCH   1  10
ATOM     10  C   UNL     1       0.564  -3.843  -9.931  1.00  0.00     0.027 C 
BRANCH  10  11
ATOM     11  C   UNL     1      -0.554  -2.835 -10.081  1.00  0.00    -0.031 C 
ATOM     12  C   UNL     1      -0.561  -1.595  -9.555  1.00  0.00    -0.031 C 
BRANCH  12  13
ATOM     13  C   UNL     1       0.532  -1.005  -8.700  1.00  0.00     0.027 C 
BRANCH  13  14
ATOM     14  C   UNL     1       0.196  -1.108  -7.206  1.00  0.00     0.004 C 
BRANCH  14  15
ATOM     15  C   UNL     1       1.469  -1.033  -6.352  1.00  0.00     0.000 C 
BRANCH  15  16
ATOM     16  C   UNL     1       2.272  -2.343  -6.368  1.00  0.00    -0.000 C 
BRANCH  16  17
ATOM     17  C   UNL     1       1.440  -3.555  -5.923  1.00  0.00    -0.003 C 
ATOM     18  C   UNL     1       2.299  -4.814  -5.848  1.00  0.00     0.004 C 
ENDBRANCH  16  17
ENDBRANCH  15  16
ENDBRANCH  14  15
ENDBRANCH  13  14
ENDBRANCH  12  13
ENDBRANCH  10  11
ENDBRANCH   1  10
TORSDOF 13
ENDMDL
MODEL 3
REMARK VINA RESULT:    -3.837      1.873      3.649
REMARK INTER + INTRA:          -8.728
REMARK INTER:                  -7.343
REMARK INTRA:                  -1.384
REMARK UNBOUND:                -1.974
REMARK SMILES CCCCCCC=CCCCCCCCC(=O)[O-]
REMARK SMILES IDX 10 1 11 2 12 3 13 4 14 5 15 6 16 7 17 8 18 9 9 10 8 11 7 12
REMARK SMILES IDX 6 13 5 14 4 15 3 16 2 17 1 18
REMARK H PARENT
REMARK Flexibility Score: inf
ROOT
ATOM      1  C   UNL     1      -1.411  -1.659  -9.578  1.00  0.00     0.004 C 
ENDROOT
BRANCH   1   2
ATOM      2  C   UNL     1      -2.326  -0.517  -9.098  1.00  0.00     0.000 C 
BRANCH   2   3
ATOM      3  C   UNL     1      -3.778  -0.679  -9.576  1.00  0.00     0.000 C 
BRANCH   3   4
ATOM      4  C   UNL     1      -4.148  -2.161  -9.713  1.00  0.00     0.000 C 
BRANCH   4   5
ATOM      5  C   UNL     1      -5.429  -2.483  -8.934  1.00  0.00     0.006 C 
BRANCH   5   6
ATOM      6  C   UNL     1      -6.265  -1.220  -8.704  1.00  0.00     0.053 C 
BRANCH   6   7
ATOM      7  C   UNL     1      -7.055  -1.339  -7.438  1.00  0.00     0.041 C 
ATOM      8  O   UNL     1      -7.320  -2.474  -6.961  1.00  0.00    -0.550 OA
ATOM      9  O   UNL     1      -7.538  -0.198  -6.811  1.00  0.00    -0.550 OA
ENDBRANCH   6   7
ENDBRANCH   5   6
ENDBRANCH   4   5
ENDBRANCH   3   4
ENDBRANCH   2   3
ENDBRANCH   1   2
BRANCH   1  10
ATOM     10  C   UNL     1       0.002  -1.637  -8.970  1.00  0.00     0.027 C 
BRANCH  10  11
ATOM     11  C   UNL     1       0.068  -0.762  -7.738  1.00  0.00    -0.031 C 
ATOM     12  C   UNL     1       0.913  -0.935  -6.703  1.00  0.00    -0.031 C 
BRANCH  12  13
ATOM     13  C   UNL     1       1.922  -2.049  -6.579  1.00  0.00     0.027 C 
BRANCH  13  14
ATOM     14  C   UNL     1       1.389  -3.198  -5.715  1.00  0.00     0.004 C 
BRANCH  14  15
ATOM     15  C   UNL     1       2.072  -4.523  -6.083  1.00  0.00     0.000 C 
BRANCH  15  16
ATOM     16  C   UNL     1       1.936  -4.866  -7.575  1.00  0.00    -0.000 C 
BRANCH  16  17
ATOM     17  C   UNL     1       0.492  -5.203  -7.976  1.00  0.00    -0.003 C 
ATOM     18  C   UNL     1       0.334  -5.225  -9.494  1.00  0.00     0.004 C 
ENDBRANCH  16  17
ENDBRANCH  15  16
ENDBRANCH  14  15
ENDBRANCH  13  14
ENDBRANCH  12  13
ENDBRANCH  10  11
ENDBRANCH   1  10
TORSDOF 13
ENDMDL
MODEL 4
REMARK VINA RESULT:    -3.785     12.306     14.079
REMARK INTER + INTRA:          -8.635
REMARK INTER:                  -6.493
REMARK INTRA:                  -2.143
REMARK UNBOUND:                -1.974
REMARK SMILES CCCCCCC=CCCCCCCCC(=O)[O-]
REMARK SMILES IDX 10 1 11 2 12 3 13 4 14 5 15 6 16 7 17 8 18 9 9 10 8 11 7 12
REMARK SMILES IDX 6 13 5 14 4 15 3 16 2 17 1 18
REMARK H PARENT
REMARK Flexibility Score: inf
ROOT
ATOM      1  C   UNL     1      -5.656  -5.906   4.944  1.00  0.00     0.004 C 
ENDROOT
BRANCH   1   2
ATOM      2  C   UNL     1      -6.689  -5.030   5.677  1.00  0.00     0.000 C 
BRANCH   2   3
ATOM      3  C   UNL     1      -6.261  -3.556   5.766  1.00  0.00     0.000 C 
BRANCH   3   4
ATOM      4  C   UNL     1      -5.773  -3.043   4.405  1.00  0.00     0.000 C 
BRANCH   4   5
ATOM      5  C   UNL     1      -6.895  -2.312   3.658  1.00  0.00     0.006 C 
BRANCH   5   6
ATOM      6  C   UNL     1      -6.332  -1.463   2.514  1.00  0.00     0.053 C 
BRANCH   6   7
ATOM      7  C   UNL     1      -6.638  -2.096   1.193  1.00  0.00     0.041 C 
ATOM      8  O   UNL     1      -7.833  -2.297   0.849  1.00  0.00    -0.550 OA
ATOM      9  O   UNL     1      -5.604  -2.506   0.362  1.00  0.00    -0.550 OA
ENDBRANCH   6   7
ENDBRANCH   5   6
ENDBRANCH   4   5
ENDBRANCH   3   4
ENDBRANCH   2   3
ENDBRANCH   1   2
BRANCH   1  10
ATOM     10  C   UNL     1      -5.980  -7.409   4.952  1.00  0.00     0.027 C 
BRANCH  10  11
ATOM     11  C   UNL     1      -5.204  -8.155   3.889  1.00  0.00    -0.031 C 
ATOM     12  C   UNL     1      -5.737  -8.984   2.971  1.00  0.00    -0.031 C 
BRANCH  12  13
ATOM     13  C   UNL     1      -7.199  -9.338   2.861  1.00  0.00     0.027 C 
BRANCH  13  14
ATOM     14  C   UNL     1      -7.715  -9.158   1.427  1.00  0.00     0.004 C 
BRANCH  14  15
ATOM     15  C   UNL     1      -6.776  -8.255   0.616  1.00  0.00     0.000 C 
BRANCH  15  16
ATOM     16  C   UNL     1      -7.379  -6.868   0.340  1.00  0.00    -0.000 C 
BRANCH  16  17
ATOM     17  C   UNL     1      -7.059  -5.852   1.447  1.00  0.00    -0.003 C 
ATOM     18  C   UNL     1      -8.290  -5.566   2.303  1.00  0.00     0.004 C 
ENDBRANCH  16  17
ENDBRANCH  15  16
ENDBRANCH  14  15
ENDBRANCH  13  14
ENDBRANCH  12  13
ENDBRANCH  10  11
ENDBRANCH   1  10
TORSDOF 13
ENDMDL
MODEL 5
REMARK VINA RESULT:    -3.734     12.413     14.215
REMARK INTER + INTRA:          -8.545
REMARK INTER:                  -6.010
REMARK INTRA:                  -2.535
REMARK UNBOUND:                -1.974
REMARK SMILES CCCCCCC=CCCCCCCCC(=O)[O-]
REMARK SMILES IDX 10 1 11 2 12 3 13 4 14 5 15 6 16 7 17 8 18 9 9 10 8 11 7 12
REMARK SMILES IDX 6 13 5 14 4 15 3 16 2 17 1 18
REMARK H PARENT
REMARK Flexibility Score: inf
ROOT
ATOM      1  C   UNL     1      -7.289  -6.039   1.157  1.00  0.00     0.004 C 
ENDROOT
BRANCH   1   2
ATOM      2  C   UNL     1      -8.621  -5.535   1.742  1.00  0.00     0.000 C 
BRANCH   2   3
ATOM      3  C   UNL     1      -8.485  -5.046   3.193  1.00  0.00     0.000 C 
BRANCH   3   4
ATOM      4  C   UNL     1      -7.113  -4.401   3.428  1.00  0.00     0.000 C 
BRANCH   4   5
ATOM      5  C   UNL     1      -7.232  -2.876   3.531  1.00  0.00     0.006 C 
BRANCH   5   6
ATOM      6  C   UNL     1      -6.173  -2.182   2.669  1.00  0.00     0.053 C 
BRANCH   6   7
ATOM      7  C   UNL     1      -6.574  -2.205   1.227  1.00  0.00     0.041 C 
ATOM      8  O   UNL     1      -5.695  -2.202   0.325  1.00  0.00    -0.550 OA
ATOM      9  O   UNL     1      -7.919  -2.184   0.879  1.00  0.00    -0.550 OA
ENDBRANCH   6   7
ENDBRANCH   5   6
ENDBRANCH   4   5
ENDBRANCH   3   4
ENDBRANCH   2   3
ENDBRANCH   1   2
BRANCH   1  10
ATOM     10  C   UNL     1      -7.442  -6.988  -0.044  1.00  0.00     0.027 C 
BRANCH  10  11
ATOM     11  C   UNL     1      -6.851  -8.351   0.240  1.00  0.00    -0.031 C 
ATOM     12  C   UNL     1      -7.498  -9.373   0.832  1.00  0.00    -0.031 C 
BRANCH  12  13
ATOM     13  C   UNL     1      -8.916  -9.328   1.343  1.00  0.00     0.027 C 
BRANCH  13  14
ATOM     14  C   UNL     1      -8.969  -8.951   2.828  1.00  0.00     0.004 C 
BRANCH  14  15
ATOM     15  C   UNL     1      -7.684  -9.382   3.549  1.00  0.00     0.000 C 
BRANCH  15  16
ATOM     16  C   UNL     1      -7.043  -8.239   4.353  1.00  0.00    -0.000 C 
BRANCH  16  17
ATOM     17  C   UNL     1      -5.619  -7.907   3.879  1.00  0.00    -0.003 C 
ATOM     18  C   UNL     1      -4.911  -9.151   3.351  1.00  0.00     0.004 C 
ENDBRANCH  16  17
ENDBRANCH  15  16
ENDBRANCH  14  15
ENDBRANCH  13  14
ENDBRANCH  12  13
ENDBRANCH  10  11
ENDBRANCH   1  10
TORSDOF 13
ENDMDL
MODEL 6
REMARK VINA RESULT:    -3.685      4.766      7.648
REMARK INTER + INTRA:          -8.459
REMARK INTER:                  -7.563
REMARK INTRA:                  -0.896
REMARK UNBOUND:                -1.974
REMARK SMILES CCCCCCC=CCCCCCCCC(=O)[O-]
REMARK SMILES IDX 10 1 11 2 12 3 13 4 14 5 15 6 16 7 17 8 18 9 9 10 8 11 7 12
REMARK SMILES IDX 6 13 5 14 4 15 3 16 2 17 1 18
REMARK H PARENT
REMARK Flexibility Score: inf
ROOT
ATOM      1  C   UNL     1      -0.469  -6.222  -8.553  1.00  0.00     0.004 C 
ENDROOT
BRANCH   1   2
ATOM      2  C   UNL     1       0.978  -5.997  -9.030  1.00  0.00     0.000 C 
BRANCH   2   3
ATOM      3  C   UNL     1       1.745  -4.999  -8.148  1.00  0.00     0.000 C 
BRANCH   3   4
ATOM      4  C   UNL     1       0.790  -4.246  -7.213  1.00  0.00     0.000 C 
BRANCH   4   5
ATOM      5  C   UNL     1       1.528  -3.725  -5.975  1.00  0.00     0.006 C 
BRANCH   5   6
ATOM      6  C   UNL     1       2.639  -2.747  -6.367  1.00  0.00     0.053 C 
BRANCH   6   7
ATOM      7  C   UNL     1       2.056  -1.511  -6.977  1.00  0.00     0.041 C 
ATOM      8  O   UNL     1       2.318  -1.210  -8.172  1.00  0.00    -0.550 OA
ATOM      9  O   UNL     1       1.260  -0.667  -6.213  1.00  0.00    -0.550 OA
ENDBRANCH   6   7
ENDBRANCH   5   6
ENDBRANCH   4   5
ENDBRANCH   3   4
ENDBRANCH   2   3
ENDBRANCH   1   2
BRANCH   1  10
ATOM     10  C   UNL     1      -1.242  -7.284  -9.354  1.00  0.00     0.027 C 
BRANCH  10  11
ATOM     11  C   UNL     1      -2.608  -6.785  -9.771  1.00  0.00    -0.031 C 
ATOM     12  C   UNL     1      -3.778  -7.167  -9.224  1.00  0.00    -0.031 C 
BRANCH  12  13
ATOM     13  C   UNL     1      -3.934  -8.182  -8.120  1.00  0.00     0.027 C 
BRANCH  13  14
ATOM     14  C   UNL     1      -5.284  -8.035  -7.406  1.00  0.00     0.004 C 
BRANCH  14  15
ATOM     15  C   UNL     1      -6.046  -6.807  -7.921  1.00  0.00     0.000 C 
BRANCH  15  16
ATOM     16  C   UNL     1      -6.667  -5.975  -6.788  1.00  0.00    -0.000 C 
BRANCH  16  17
ATOM     17  C   UNL     1      -7.307  -4.672  -7.290  1.00  0.00    -0.003 C 
ATOM     18  C   UNL     1      -6.268  -3.768  -7.949  1.00  0.00     0.004 C 
ENDBRANCH  16  17
ENDBRANCH  15  16
ENDBRANCH  14  15
ENDBRANCH  13  14
ENDBRANCH  12  13
ENDBRANCH  10  11
ENDBRANCH   1  10
TORSDOF 13
ENDMDL
MODEL 7
REMARK VINA RESULT:    -3.671      4.057      5.588
REMARK INTER + INTRA:          -8.435
REMARK INTER:                  -7.190
REMARK INTRA:                  -1.245
REMARK UNBOUND:                -1.974
REMARK SMILES CCCCCCC=CCCCCCCCC(=O)[O-]
REMARK SMILES IDX 10 1 11 2 12 3 13 4 14 5 15 6 16 7 17 8 18 9 9 10 8 11 7 12
REMARK SMILES IDX 6 13 5 14 4 15 3 16 2 17 1 18
REMARK H PARENT
REMARK Flexibility Score: inf
ROOT
ATOM      1  C   UNL     1       0.448  -6.571  -9.322  1.00  0.00     0.004 C 
ENDROOT
BRANCH   1   2
ATOM      2  C   UNL     1      -0.904  -7.249  -9.036  1.00  0.00     0.000 C 
BRANCH   2   3
ATOM      3  C   UNL     1      -1.074  -8.577  -9.790  1.00  0.00     0.000 C 
BRANCH   3   4
ATOM      4  C   UNL     1      -2.558  -8.930  -9.953  1.00  0.00     0.000 C 
BRANCH   4   5
ATOM      5  C   UNL     1      -3.435  -7.675  -9.874  1.00  0.00     0.006 C 
BRANCH   5   6
ATOM      6  C   UNL     1      -4.865  -8.028  -9.456  1.00  0.00     0.053 C 
BRANCH   6   7
ATOM      7  C   UNL     1      -5.066  -7.755  -7.998  1.00  0.00     0.041 C 
ATOM      8  O   UNL     1      -5.743  -6.760  -7.628  1.00  0.00    -0.550 OA
ATOM      9  O   UNL     1      -4.468  -8.573  -7.049  1.00  0.00    -0.550 OA
ENDBRANCH   6   7
ENDBRANCH   5   6
ENDBRANCH   4   5
ENDBRANCH   3   4
ENDBRANCH   2   3
ENDBRANCH   1   2
BRANCH   1  10
ATOM     10  C   UNL     1       0.560  -5.131  -8.793  1.00  0.00     0.027 C 
BRANCH  10  11
ATOM     11  C   UNL     1       2.001  -4.689  -8.673  1.00  0.00    -0.031 C 
ATOM     12  C   UNL     1       2.649  -4.446  -7.517  1.00  0.00    -0.031 C 
BRANCH  12  13
ATOM     13  C   UNL     1       2.041  -4.543  -6.141  1.00  0.00     0.027 C 
BRANCH  13  14
ATOM     14  C   UNL     1       1.138  -3.341  -5.837  1.00  0.00     0.004 C 
BRANCH  14  15
ATOM     15  C   UNL     1       1.847  -2.023  -6.176  1.00  0.00     0.000 C 
BRANCH  15  16
ATOM     16  C   UNL     1       0.877  -0.934  -6.658  1.00  0.00    -0.000 C 
BRANCH  16  17
ATOM     17  C   UNL     1       0.532  -1.064  -8.149  1.00  0.00    -0.003 C 
ATOM     18  C   UNL     1       1.793  -1.041  -9.010  1.00  0.00     0.004 C 
ENDBRANCH  16  17
ENDBRANCH  15  16
ENDBRANCH  14  15
ENDBRANCH  13  14
ENDBRANCH  12  13
ENDBRANCH  10  11
ENDBRANCH   1  10
TORSDOF 13
ENDMDL
MODEL 8
REMARK VINA RESULT:    -3.609      3.582      7.448
REMARK INTER + INTRA:          -8.325
REMARK INTER:                  -7.073
REMARK INTRA:                  -1.252
REMARK UNBOUND:                -1.974
REMARK SMILES CCCCCCC=CCCCCCCCC(=O)[O-]
REMARK SMILES IDX 10 1 11 2 12 3 13 4 14 5 15 6 16 7 17 8 18 9 9 10 8 11 7 12
REMARK SMILES IDX 6 13 5 14 4 15 3 16 2 17 1 18
REMARK H PARENT
REMARK Flexibility Score: inf
ROOT
ATOM      1  C   UNL     1       0.088   0.035  -9.088  1.00  0.00     0.004 C 
ENDROOT
BRANCH   1   2
ATOM      2  C   UNL     1       0.353  -1.215  -8.229  1.00  0.00     0.000 C 
BRANCH   2   3
ATOM      3  C   UNL     1       0.946  -2.378  -9.041  1.00  0.00     0.000 C 
BRANCH   3   4
ATOM      4  C   UNL     1       0.058  -3.625  -8.942  1.00  0.00     0.000 C 
BRANCH   4   5
ATOM      5  C   UNL     1       0.761  -4.741  -8.161  1.00  0.00     0.006 C 
BRANCH   5   6
ATOM      6  C   UNL     1       0.774  -4.439  -6.660  1.00  0.00     0.053 C 
BRANCH   6   7
ATOM      7  C   UNL     1       2.178  -4.428  -6.141  1.00  0.00     0.041 C 
ATOM      8  O   UNL     1       2.632  -5.427  -5.523  1.00  0.00    -0.550 OA
ATOM      9  O   UNL     1       2.969  -3.298  -6.298  1.00  0.00    -0.550 OA
ENDBRANCH   6   7
ENDBRANCH   5   6
ENDBRANCH   4   5
ENDBRANCH   3   4
ENDBRANCH   2   3
ENDBRANCH   1   2
BRANCH   1  10
ATOM     10  C   UNL     1      -1.093  -0.104 -10.064  1.00  0.00     0.027 C 
BRANCH  10  11
ATOM     11  C   UNL     1      -2.416   0.174  -9.385  1.00  0.00    -0.031 C 
ATOM     12  C   UNL     1      -3.440  -0.695  -9.289  1.00  0.00    -0.031 C 
BRANCH  12  13
ATOM     13  C   UNL     1      -3.459  -2.088  -9.868  1.00  0.00     0.027 C 
BRANCH  13  14
ATOM     14  C   UNL     1      -4.811  -2.775  -9.639  1.00  0.00     0.004 C 
BRANCH  14  15
ATOM     15  C   UNL     1      -5.743  -1.887  -8.803  1.00  0.00     0.000 C 
BRANCH  15  16
ATOM     16  C   UNL     1      -6.377  -2.638  -7.621  1.00  0.00    -0.000 C 
BRANCH  16  17
ATOM     17  C   UNL     1      -6.370  -4.162  -7.814  1.00  0.00    -0.003 C 
ATOM     18  C   UNL     1      -7.092  -4.865  -6.669  1.00  0.00     0.004 C 
ENDBRANCH  16  17
ENDBRANCH  15  16
ENDBRANCH  14  15
ENDBRANCH  13  14
ENDBRANCH  12  13
ENDBRANCH  10  11
ENDBRANCH   1  10
TORSDOF 13
ENDMDL
