MODEL 1
REMARK VINA RESULT:     9.821      0.000      0.000
REMARK INTER + INTRA:          18.180
REMARK INTER:                  19.008
REMARK INTRA:                  -0.828
REMARK UNBOUND:                -0.828
REMARK SMILES CCCCCCCCCCCCCCCCCC(=O)[O-]
REMARK SMILES IDX 10 1 11 2 12 3 13 4 14 5 15 6 16 7 17 8 18 9 19 10 20 11
REMARK SMILES IDX 9 12 8 13 7 14 6 15 5 16 4 17 3 18 2 19 1 20
REMARK H PARENT
REMARK Flexibility Score: inf
ROOT
ATOM      1  C   UNL     1      -6.531  20.490 -11.717  1.00  0.00     0.000 C 
ENDROOT
BRANCH   1   2
ATOM      2  C   UNL     1      -5.326  21.415 -11.470  1.00  0.00     0.000 C 
BRANCH   2   3
ATOM      3  C   UNL     1      -4.075  20.649 -11.011  1.00  0.00     0.000 C 
BRANCH   3   4
ATOM      4  C   UNL     1      -4.374  19.185 -10.655  1.00  0.00     0.000 C 
BRANCH   4   5
ATOM      5  C   UNL     1      -3.141  18.301 -10.888  1.00  0.00     0.000 C 
BRANCH   5   6
ATOM      6  C   UNL     1      -3.357  16.841 -10.452  1.00  0.00     0.000 C 
BRANCH   6   7
ATOM      7  C   UNL     1      -4.529  16.117 -11.147  1.00  0.00     0.006 C 
BRANCH   7   8
ATOM      8  C   UNL     1      -4.473  14.583 -11.062  1.00  0.00     0.053 C 
BRANCH   8   9
ATOM      9  C   UNL     1      -3.450  14.113 -10.075  1.00  0.00     0.041 C 
ATOM     10  O   UNL     1      -3.782  13.875  -8.884  1.00  0.00    -0.550 OA
ATOM     11  O   UNL     1      -2.136  13.906 -10.478  1.00  0.00    -0.550 OA
ENDBRANCH   8   9
ENDBRANCH   7   8
ENDBRANCH   6   7
ENDBRANCH   5   6
ENDBRANCH   4   5
ENDBRANCH   3   4
ENDBRANCH   2   3
ENDBRANCH   1   2
BRANCH   1  12
ATOM     12  C   UNL     1      -6.813  20.291 -13.221  1.00  0.00     0.000 C 
BRANCH  12  13
ATOM     13  C   UNL     1      -7.079  21.605 -13.977  1.00  0.00    -0.000 C 
BRANCH  13  14
ATOM     14  C   UNL     1      -6.421  21.639 -15.365  1.00  0.00    -0.000 C 
BRANCH  14  15
ATOM     15  C   UNL     1      -6.344  20.247 -16.016  1.00  0.00    -0.000 C 
BRANCH  15  16
ATOM     16  C   UNL     1      -5.248  20.160 -17.093  1.00  0.00    -0.000 C 
BRANCH  16  17
ATOM     17  C   UNL     1      -5.443  18.962 -18.037  1.00  0.00    -0.000 C 
BRANCH  17  18
ATOM     18  C   UNL     1      -6.889  18.437 -18.039  1.00  0.00    -0.000 C 
BRANCH  18  19
ATOM     19  C   UNL     1      -6.965  16.920 -17.805  1.00  0.00    -0.003 C 
ATOM     20  C   UNL     1      -7.442  16.156 -19.040  1.00  0.00     0.004 C 
ENDBRANCH  18  19
ENDBRANCH  17  18
ENDBRANCH  16  17
ENDBRANCH  15  16
ENDBRANCH  14  15
ENDBRANCH  13  14
ENDBRANCH  12  13
ENDBRANCH   1  12
TORSDOF 16
ENDMDL
MODEL 2
REMARK VINA RESULT:    10.093      5.504      8.494
REMARK INTER + INTRA:          18.706
REMARK INTER:                  19.887
REMARK INTRA:                  -1.182
REMARK UNBOUND:                -0.828
REMARK SMILES CCCCCCCCCCCCCCCCCC(=O)[O-]
REMARK SMILES IDX 10 1 11 2 12 3 13 4 14 5 15 6 16 7 17 8 18 9 19 10 20 11
REMARK SMILES IDX 9 12 8 13 7 14 6 15 5 16 4 17 3 18 2 19 1 20
REMARK H PARENT
REMARK Flexibility Score: inf
ROOT
ATOM      1  C   UNL     1      -5.501  15.843 -11.451  1.00  0.00     0.000 C 
ENDROOT
BRANCH   1   2
ATOM      2  C   UNL     1      -4.590  15.676 -10.221  1.00  0.00     0.000 C 
BRANCH   2   3
ATOM      3  C   UNL     1      -3.304  16.513 -10.318  1.00  0.00     0.000 C 
BRANCH   3   4
ATOM      4  C   UNL     1      -3.454  17.723 -11.252  1.00  0.00     0.000 C 
BRANCH   4   5
ATOM      5  C   UNL     1      -2.995  19.012 -10.556  1.00  0.00     0.000 C 
BRANCH   5   6
ATOM      6  C   UNL     1      -3.868  20.229 -10.910  1.00  0.00     0.000 C 
BRANCH   6   7
ATOM      7  C   UNL     1      -5.382  19.946 -10.991  1.00  0.00     0.006 C 
BRANCH   7   8
ATOM      8  C   UNL     1      -6.208  21.071 -11.637  1.00  0.00     0.053 C 
BRANCH   8   9
ATOM      9  C   UNL     1      -6.781  20.659 -12.958  1.00  0.00     0.041 C 
ATOM     10  O   UNL     1      -7.280  19.512 -13.101  1.00  0.00    -0.550 OA
ATOM     11  O   UNL     1      -6.793  21.552 -14.021  1.00  0.00    -0.550 OA
ENDBRANCH   8   9
ENDBRANCH   7   8
ENDBRANCH   6   7
ENDBRANCH   5   6
ENDBRANCH   4   5
ENDBRANCH   3   4
ENDBRANCH   2   3
ENDBRANCH   1   2
BRANCH   1  12
ATOM     12  C   UNL     1      -6.758  16.681 -11.134  1.00  0.00     0.000 C 
BRANCH  12  13
ATOM     13  C   UNL     1      -7.001  16.882  -9.628  1.00  0.00    -0.000 C 
BRANCH  13  14
ATOM     14  C   UNL     1      -8.046  15.910  -9.057  1.00  0.00    -0.000 C 
BRANCH  14  15
ATOM     15  C   UNL     1      -8.964  16.575  -8.019  1.00  0.00    -0.000 C 
BRANCH  15  16
ATOM     16  C   UNL     1     -10.454  16.291  -8.281  1.00  0.00    -0.000 C 
BRANCH  16  17
ATOM     17  C   UNL     1     -11.376  17.006  -7.281  1.00  0.00    -0.000 C 
BRANCH  17  18
ATOM     18  C   UNL     1     -11.622  16.181  -6.005  1.00  0.00    -0.000 C 
BRANCH  18  19
ATOM     19  C   UNL     1     -13.023  15.552  -5.973  1.00  0.00    -0.003 C 
ATOM     20  C   UNL     1     -13.088  14.304  -5.093  1.00  0.00     0.004 C 
ENDBRANCH  18  19
ENDBRANCH  17  18
ENDBRANCH  16  17
ENDBRANCH  15  16
ENDBRANCH  14  15
ENDBRANCH  13  14
ENDBRANCH  12  13
ENDBRANCH   1  12
TORSDOF 16
ENDMDL
MODEL 3
REMARK VINA RESULT:    10.271      5.525      8.602
REMARK INTER + INTRA:          19.051
REMARK INTER:                  19.104
REMARK INTRA:                  -0.053
REMARK UNBOUND:                -0.828
REMARK SMILES CCCCCCCCCCCCCCCCCC(=O)[O-]
REMARK SMILES IDX 10 1 11 2 12 3 13 4 14 5 15 6 16 7 17 8 18 9 19 10 20 11
REMARK SMILES IDX 9 12 8 13 7 14 6 15 5 16 4 17 3 18 2 19 1 20
REMARK H PARENT
REMARK Flexibility Score: inf
ROOT
ATOM      1  C   UNL     1      -6.690  19.872 -12.617  1.00  0.00     0.000 C 
ENDROOT
BRANCH   1   2
ATOM      2  C   UNL     1      -6.413  21.381 -12.740  1.00  0.00     0.000 C 
BRANCH   2   3
ATOM      3  C   UNL     1      -6.107  22.040 -11.386  1.00  0.00     0.000 C 
BRANCH   3   4
ATOM      4  C   UNL     1      -4.670  22.572 -11.298  1.00  0.00     0.000 C 
BRANCH   4   5
ATOM      5  C   UNL     1      -4.547  23.937 -11.990  1.00  0.00     0.000 C 
BRANCH   5   6
ATOM      6  C   UNL     1      -3.420  24.808 -11.407  1.00  0.00     0.000 C 
BRANCH   6   7
ATOM      7  C   UNL     1      -3.678  26.328 -11.453  1.00  0.00     0.006 C 
BRANCH   7   8
ATOM      8  C   UNL     1      -4.846  26.805 -10.575  1.00  0.00     0.053 C 
BRANCH   8   9
ATOM      9  C   UNL     1      -5.783  27.700 -11.326  1.00  0.00     0.041 C 
ATOM     10  O   UNL     1      -5.359  28.765 -11.848  1.00  0.00    -0.550 OA
ATOM     11  O   UNL     1      -7.117  27.343 -11.478  1.00  0.00    -0.550 OA
ENDBRANCH   8   9
ENDBRANCH   7   8
ENDBRANCH   6   7
ENDBRANCH   5   6
ENDBRANCH   4   5
ENDBRANCH   3   4
ENDBRANCH   2   3
ENDBRANCH   1   2
BRANCH   1  12
ATOM     12  C   UNL     1      -6.694  19.398 -11.148  1.00  0.00     0.000 C 
BRANCH  12  13
ATOM     13  C   UNL     1      -5.550  18.426 -10.811  1.00  0.00    -0.000 C 
BRANCH  13  14
ATOM     14  C   UNL     1      -4.171  19.105 -10.810  1.00  0.00    -0.000 C 
BRANCH  14  15
ATOM     15  C   UNL     1      -3.015  18.091 -10.819  1.00  0.00    -0.000 C 
BRANCH  15  16
ATOM     16  C   UNL     1      -3.509  16.633 -10.838  1.00  0.00    -0.000 C 
BRANCH  16  17
ATOM     17  C   UNL     1      -2.692  15.721  -9.910  1.00  0.00    -0.000 C 
BRANCH  17  18
ATOM     18  C   UNL     1      -3.364  14.358  -9.673  1.00  0.00    -0.000 C 
BRANCH  18  19
ATOM     19  C   UNL     1      -4.161  13.875 -10.895  1.00  0.00    -0.003 C 
ATOM     20  C   UNL     1      -5.348  14.782 -11.220  1.00  0.00     0.004 C 
ENDBRANCH  18  19
ENDBRANCH  17  18
ENDBRANCH  16  17
ENDBRANCH  15  16
ENDBRANCH  14  15
ENDBRANCH  13  14
ENDBRANCH  12  13
ENDBRANCH   1  12
TORSDOF 16
ENDMDL
MODEL 4
REMARK VINA RESULT:    10.657      3.173      7.173
REMARK INTER + INTRA:          19.798
REMARK INTER:                  21.259
REMARK INTRA:                  -1.461
REMARK UNBOUND:                -0.828
REMARK SMILES CCCCCCCCCCCCCCCCCC(=O)[O-]
REMARK SMILES IDX 10 1 11 2 12 3 13 4 14 5 15 6 16 7 17 8 18 9 19 10 20 11
REMARK SMILES IDX 9 12 8 13 7 14 6 15 5 16 4 17 3 18 2 19 1 20
REMARK H PARENT
REMARK Flexibility Score: inf
ROOT
ATOM      1  C   UNL     1      -4.451  21.628 -11.272  1.00  0.00     0.000 C 
ENDROOT
BRANCH   1   2
ATOM      2  C   UNL     1      -5.936  21.757 -11.654  1.00  0.00     0.000 C 
BRANCH   2   3
ATOM      3  C   UNL     1      -6.607  20.395 -11.898  1.00  0.00     0.000 C 
BRANCH   3   4
ATOM      4  C   UNL     1      -6.700  20.040 -13.389  1.00  0.00     0.000 C 
BRANCH   4   5
ATOM      5  C   UNL     1      -7.185  21.244 -14.210  1.00  0.00     0.000 C 
BRANCH   5   6
ATOM      6  C   UNL     1      -6.376  21.454 -15.502  1.00  0.00     0.000 C 
BRANCH   6   7
ATOM      7  C   UNL     1      -5.754  20.176 -16.100  1.00  0.00     0.006 C 
BRANCH   7   8
ATOM      8  C   UNL     1      -6.240  19.831 -17.517  1.00  0.00     0.053 C 
BRANCH   8   9
ATOM      9  C   UNL     1      -5.816  18.457 -17.936  1.00  0.00     0.041 C 
ATOM     10  O   UNL     1      -6.675  17.617 -18.312  1.00  0.00    -0.550 OA
ATOM     11  O   UNL     1      -4.469  18.115 -17.945  1.00  0.00    -0.550 OA
ENDBRANCH   8   9
ENDBRANCH   7   8
ENDBRANCH   6   7
ENDBRANCH   5   6
ENDBRANCH   4   5
ENDBRANCH   3   4
ENDBRANCH   2   3
ENDBRANCH   1   2
BRANCH   1  12
ATOM     12  C   UNL     1      -4.156  20.315 -10.517  1.00  0.00     0.000 C 
BRANCH  12  13
ATOM     13  C   UNL     1      -3.136  19.410 -11.229  1.00  0.00    -0.000 C 
BRANCH  13  14
ATOM     14  C   UNL     1      -3.379  17.915 -10.967  1.00  0.00    -0.000 C 
BRANCH  14  15
ATOM     15  C   UNL     1      -4.830  17.617 -10.552  1.00  0.00    -0.000 C 
BRANCH  15  16
ATOM     16  C   UNL     1      -5.076  16.118 -10.305  1.00  0.00    -0.000 C 
BRANCH  16  17
ATOM     17  C   UNL     1      -4.752  15.257 -11.536  1.00  0.00    -0.000 C 
BRANCH  17  18
ATOM     18  C   UNL     1      -4.188  13.875 -11.162  1.00  0.00    -0.000 C 
BRANCH  18  19
ATOM     19  C   UNL     1      -3.454  13.885  -9.813  1.00  0.00    -0.003 C 
ATOM     20  C   UNL     1      -2.062  14.511  -9.903  1.00  0.00     0.004 C 
ENDBRANCH  18  19
ENDBRANCH  17  18
ENDBRANCH  16  17
ENDBRANCH  15  16
ENDBRANCH  14  15
ENDBRANCH  13  14
ENDBRANCH  12  13
ENDBRANCH   1  12
TORSDOF 16
ENDMDL
MODEL 5
REMARK VINA RESULT:    10.810      5.513      8.558
REMARK INTER + INTRA:          20.094
REMARK INTER:                  19.248
REMARK INTRA:                   0.846
REMARK UNBOUND:                -0.828
REMARK SMILES CCCCCCCCCCCCCCCCCC(=O)[O-]
REMARK SMILES IDX 10 1 11 2 12 3 13 4 14 5 15 6 16 7 17 8 18 9 19 10 20 11
REMARK SMILES IDX 9 12 8 13 7 14 6 15 5 16 4 17 3 18 2 19 1 20
REMARK H PARENT
REMARK Flexibility Score: inf
ROOT
ATOM      1  C   UNL     1      -6.550  19.844 -11.081  1.00  0.00     0.000 C 
ENDROOT
BRANCH   1   2
ATOM      2  C   UNL     1      -6.417  20.489 -12.472  1.00  0.00     0.000 C 
BRANCH   2   3
ATOM      3  C   UNL     1      -6.292  22.020 -12.407  1.00  0.00     0.000 C 
BRANCH   3   4
ATOM      4  C   UNL     1      -5.437  22.494 -11.223  1.00  0.00     0.000 C 
BRANCH   4   5
ATOM      5  C   UNL     1      -4.272  23.371 -11.705  1.00  0.00     0.000 C 
BRANCH   5   6
ATOM      6  C   UNL     1      -4.663  24.850 -11.871  1.00  0.00     0.000 C 
BRANCH   6   7
ATOM      7  C   UNL     1      -3.695  25.859 -11.221  1.00  0.00     0.006 C 
BRANCH   7   8
ATOM      8  C   UNL     1      -4.381  26.978 -10.420  1.00  0.00     0.053 C 
BRANCH   8   9
ATOM      9  C   UNL     1      -5.550  27.557 -11.155  1.00  0.00     0.041 C 
ATOM     10  O   UNL     1      -6.684  27.015 -11.071  1.00  0.00    -0.550 OA
ATOM     11  O   UNL     1      -5.396  28.715 -11.908  1.00  0.00    -0.550 OA
ENDBRANCH   8   9
ENDBRANCH   7   8
ENDBRANCH   6   7
ENDBRANCH   5   6
ENDBRANCH   4   5
ENDBRANCH   3   4
ENDBRANCH   2   3
ENDBRANCH   1   2
BRANCH   1  12
ATOM     12  C   UNL     1      -5.395  18.864 -10.782  1.00  0.00     0.000 C 
BRANCH  12  13
ATOM     13  C   UNL     1      -3.999  19.469 -11.011  1.00  0.00    -0.000 C 
BRANCH  13  14
ATOM     14  C   UNL     1      -2.870  18.438 -10.859  1.00  0.00    -0.000 C 
BRANCH  14  15
ATOM     15  C   UNL     1      -3.394  16.992 -10.816  1.00  0.00    -0.000 C 
BRANCH  15  16
ATOM     16  C   UNL     1      -2.637  16.122  -9.796  1.00  0.00    -0.000 C 
BRANCH  16  17
ATOM     17  C   UNL     1      -2.722  14.622 -10.124  1.00  0.00    -0.000 C 
BRANCH  17  18
ATOM     18  C   UNL     1      -4.171  14.132 -10.292  1.00  0.00    -0.000 C 
BRANCH  18  19
ATOM     19  C   UNL     1      -4.908  14.855 -11.429  1.00  0.00    -0.003 C 
ATOM     20  C   UNL     1      -6.091  15.685 -10.931  1.00  0.00     0.004 C 
ENDBRANCH  18  19
ENDBRANCH  17  18
ENDBRANCH  16  17
ENDBRANCH  15  16
ENDBRANCH  14  15
ENDBRANCH  13  14
ENDBRANCH  12  13
ENDBRANCH   1  12
TORSDOF 16
ENDMDL
MODEL 6
REMARK VINA RESULT:    10.866      3.226      5.838
REMARK INTER + INTRA:          20.202
REMARK INTER:                  19.437
REMARK INTRA:                   0.764
REMARK UNBOUND:                -0.828
REMARK SMILES CCCCCCCCCCCCCCCCCC(=O)[O-]
REMARK SMILES IDX 10 1 11 2 12 3 13 4 14 5 15 6 16 7 17 8 18 9 19 10 20 11
REMARK SMILES IDX 9 12 8 13 7 14 6 15 5 16 4 17 3 18 2 19 1 20
REMARK H PARENT
REMARK Flexibility Score: inf
ROOT
ATOM      1  C   UNL     1      -6.685  19.620 -11.160  1.00  0.00     0.000 C 
ENDROOT
BRANCH   1   2
ATOM      2  C   UNL     1      -5.445  18.832 -10.700  1.00  0.00     0.000 C 
BRANCH   2   3
ATOM      3  C   UNL     1      -4.131  19.583 -10.971  1.00  0.00     0.000 C 
BRANCH   3   4
ATOM      4  C   UNL     1      -2.891  18.704 -10.749  1.00  0.00     0.000 C 
BRANCH   4   5
ATOM      5  C   UNL     1      -3.293  17.251 -10.458  1.00  0.00     0.000 C 
BRANCH   5   6
ATOM      6  C   UNL     1      -4.167  16.637 -11.566  1.00  0.00     0.000 C 
BRANCH   6   7
ATOM      7  C   UNL     1      -5.095  15.493 -11.108  1.00  0.00     0.006 C 
BRANCH   7   8
ATOM      8  C   UNL     1      -4.420  14.114 -11.034  1.00  0.00     0.053 C 
BRANCH   8   9
ATOM      9  C   UNL     1      -3.326  14.079 -10.011  1.00  0.00     0.041 C 
ATOM     10  O   UNL     1      -3.599  13.875  -8.799  1.00  0.00    -0.550 OA
ATOM     11  O   UNL     1      -2.002  14.240 -10.400  1.00  0.00    -0.550 OA
ENDBRANCH   8   9
ENDBRANCH   7   8
ENDBRANCH   6   7
ENDBRANCH   5   6
ENDBRANCH   4   5
ENDBRANCH   3   4
ENDBRANCH   2   3
ENDBRANCH   1   2
BRANCH   1  12
ATOM     12  C   UNL     1      -6.538  20.143 -12.605  1.00  0.00     0.000 C 
BRANCH  12  13
ATOM     13  C   UNL     1      -6.408  21.673 -12.696  1.00  0.00    -0.000 C 
BRANCH  13  14
ATOM     14  C   UNL     1      -5.562  22.268 -11.560  1.00  0.00    -0.000 C 
BRANCH  14  15
ATOM     15  C   UNL     1      -4.570  23.333 -12.058  1.00  0.00    -0.000 C 
BRANCH  15  16
ATOM     16  C   UNL     1      -4.215  24.363 -10.971  1.00  0.00    -0.000 C 
BRANCH  16  17
ATOM     17  C   UNL     1      -3.650  25.667 -11.556  1.00  0.00    -0.000 C 
BRANCH  17  18
ATOM     18  C   UNL     1      -4.239  26.922 -10.890  1.00  0.00    -0.000 C 
BRANCH  18  19
ATOM     19  C   UNL     1      -5.775  26.925 -10.897  1.00  0.00    -0.003 C 
ATOM     20  C   UNL     1      -6.359  27.984 -11.832  1.00  0.00     0.004 C 
ENDBRANCH  18  19
ENDBRANCH  17  18
ENDBRANCH  16  17
ENDBRANCH  15  16
ENDBRANCH  14  15
ENDBRANCH  13  14
ENDBRANCH  12  13
ENDBRANCH   1  12
TORSDOF 16
ENDMDL
MODEL 7
REMARK VINA RESULT:    10.991      5.370      8.129
REMARK INTER + INTRA:          20.443
REMARK INTER:                  21.760
REMARK INTRA:                  -1.316
REMARK UNBOUND:                -0.828
REMARK SMILES CCCCCCCCCCCCCCCCCC(=O)[O-]
REMARK SMILES IDX 10 1 11 2 12 3 13 4 14 5 15 6 16 7 17 8 18 9 19 10 20 11
REMARK SMILES IDX 9 12 8 13 7 14 6 15 5 16 4 17 3 18 2 19 1 20
REMARK H PARENT
REMARK Flexibility Score: inf
ROOT
ATOM      1  C   UNL     1      -6.758  15.469 -12.339  1.00  0.00     0.000 C 
ENDROOT
BRANCH   1   2
ATOM      2  C   UNL     1      -5.991  16.011 -11.120  1.00  0.00     0.000 C 
BRANCH   2   3
ATOM      3  C   UNL     1      -4.615  15.349 -10.942  1.00  0.00     0.000 C 
BRANCH   3   4
ATOM      4  C   UNL     1      -3.564  16.314 -10.375  1.00  0.00     0.000 C 
BRANCH   4   5
ATOM      5  C   UNL     1      -3.429  17.561 -11.261  1.00  0.00     0.000 C 
BRANCH   5   6
ATOM      6  C   UNL     1      -3.189  18.849 -10.453  1.00  0.00     0.000 C 
BRANCH   6   7
ATOM      7  C   UNL     1      -4.064  20.051 -10.863  1.00  0.00     0.006 C 
BRANCH   7   8
ATOM      8  C   UNL     1      -5.521  19.695 -11.200  1.00  0.00     0.053 C 
BRANCH   8   9
ATOM      9  C   UNL     1      -6.202  20.786 -11.967  1.00  0.00     0.041 C 
ATOM     10  O   UNL     1      -6.064  21.988 -11.617  1.00  0.00    -0.550 OA
ATOM     11  O   UNL     1      -6.962  20.479 -13.089  1.00  0.00    -0.550 OA
ENDBRANCH   8   9
ENDBRANCH   7   8
ENDBRANCH   6   7
ENDBRANCH   5   6
ENDBRANCH   4   5
ENDBRANCH   3   4
ENDBRANCH   2   3
ENDBRANCH   1   2
BRANCH   1  12
ATOM     12  C   UNL     1      -8.231  15.928 -12.351  1.00  0.00     0.000 C 
BRANCH  12  13
ATOM     13  C   UNL     1      -9.215  14.853 -11.855  1.00  0.00    -0.000 C 
BRANCH  13  14
ATOM     14  C   UNL     1     -10.320  15.427 -10.953  1.00  0.00    -0.000 C 
BRANCH  14  15
ATOM     15  C   UNL     1     -10.125  15.055  -9.473  1.00  0.00    -0.000 C 
BRANCH  15  16
ATOM     16  C   UNL     1      -9.172  16.017  -8.743  1.00  0.00    -0.000 C 
BRANCH  16  17
ATOM     17  C   UNL     1      -9.853  16.749  -7.576  1.00  0.00    -0.000 C 
BRANCH  17  18
ATOM     18  C   UNL     1     -11.355  16.435  -7.473  1.00  0.00    -0.000 C 
BRANCH  18  19
ATOM     19  C   UNL     1     -11.826  16.285  -6.019  1.00  0.00    -0.003 C 
ATOM     20  C   UNL     1     -13.083  15.424  -5.892  1.00  0.00     0.004 C 
ENDBRANCH  18  19
ENDBRANCH  17  18
ENDBRANCH  16  17
ENDBRANCH  15  16
ENDBRANCH  14  15
ENDBRANCH  13  14
ENDBRANCH  12  13
ENDBRANCH   1  12
TORSDOF 16
ENDMDL
MODEL 8
REMARK VINA RESULT:    11.019      5.185      7.456
REMARK INTER + INTRA:          20.498
REMARK INTER:                  21.797
REMARK INTRA:                  -1.299
REMARK UNBOUND:                -0.828
REMARK SMILES CCCCCCCCCCCCCCCCCC(=O)[O-]
REMARK SMILES IDX 10 1 11 2 12 3 13 4 14 5 15 6 16 7 17 8 18 9 19 10 20 11
REMARK SMILES IDX 9 12 8 13 7 14 6 15 5 16 4 17 3 18 2 19 1 20
REMARK H PARENT
REMARK Flexibility Score: inf
ROOT
ATOM      1  C   UNL     1      -5.356  15.593 -11.600  1.00  0.00     0.000 C 
ENDROOT
BRANCH   1   2
ATOM      2  C   UNL     1      -6.612  16.446 -11.349  1.00  0.00     0.000 C 
BRANCH   2   3
ATOM      3  C   UNL     1      -6.939  16.595  -9.855  1.00  0.00     0.000 C 
BRANCH   3   4
ATOM      4  C   UNL     1      -8.344  16.083  -9.502  1.00  0.00     0.000 C 
BRANCH   4   5
ATOM      5  C   UNL     1      -8.574  16.114  -7.985  1.00  0.00     0.000 C 
BRANCH   5   6
ATOM      6  C   UNL     1      -9.661  17.118  -7.563  1.00  0.00     0.000 C 
BRANCH   6   7
ATOM      7  C   UNL     1     -11.082  16.530  -7.439  1.00  0.00     0.006 C 
BRANCH   7   8
ATOM      8  C   UNL     1     -11.597  16.401  -5.997  1.00  0.00     0.053 C 
BRANCH   8   9
ATOM      9  C   UNL     1     -12.842  15.572  -5.918  1.00  0.00     0.041 C 
ATOM     10  O   UNL     1     -12.867  14.533  -5.207  1.00  0.00    -0.550 OA
ATOM     11  O   UNL     1     -13.985  15.965  -6.603  1.00  0.00    -0.550 OA
ENDBRANCH   8   9
ENDBRANCH   7   8
ENDBRANCH   6   7
ENDBRANCH   5   6
ENDBRANCH   4   5
ENDBRANCH   3   4
ENDBRANCH   2   3
ENDBRANCH   1   2
BRANCH   1  12
ATOM     12  C   UNL     1      -4.536  15.372 -10.312  1.00  0.00     0.000 C 
BRANCH  12  13
ATOM     13  C   UNL     1      -3.252  16.219 -10.247  1.00  0.00    -0.000 C 
BRANCH  13  14
ATOM     14  C   UNL     1      -3.319  17.473 -11.132  1.00  0.00    -0.000 C 
BRANCH  14  15
ATOM     15  C   UNL     1      -3.977  18.665 -10.417  1.00  0.00    -0.000 C 
BRANCH  15  16
ATOM     16  C   UNL     1      -3.658  20.009 -11.096  1.00  0.00    -0.000 C 
BRANCH  16  17
ATOM     17  C   UNL     1      -4.858  20.969 -11.097  1.00  0.00    -0.000 C 
BRANCH  17  18
ATOM     18  C   UNL     1      -6.207  20.232 -11.156  1.00  0.00    -0.000 C 
BRANCH  18  19
ATOM     19  C   UNL     1      -6.673  19.973 -12.597  1.00  0.00    -0.003 C 
ATOM     20  C   UNL     1      -6.706  21.245 -13.444  1.00  0.00     0.004 C 
ENDBRANCH  18  19
ENDBRANCH  17  18
ENDBRANCH  16  17
ENDBRANCH  15  16
ENDBRANCH  14  15
ENDBRANCH  13  14
ENDBRANCH  12  13
ENDBRANCH   1  12
TORSDOF 16
ENDMDL
MODEL 9
REMARK VINA RESULT:    11.159      4.467      6.830
REMARK INTER + INTRA:          20.768
REMARK INTER:                  21.904
REMARK INTRA:                  -1.135
REMARK UNBOUND:                -0.828
REMARK SMILES CCCCCCCCCCCCCCCCCC(=O)[O-]
REMARK SMILES IDX 10 1 11 2 12 3 13 4 14 5 15 6 16 7 17 8 18 9 19 10 20 11
REMARK SMILES IDX 9 12 8 13 7 14 6 15 5 16 4 17 3 18 2 19 1 20
REMARK H PARENT
REMARK Flexibility Score: inf
ROOT
ATOM      1  C   UNL     1      -7.203  17.920 -12.483  1.00  0.00     0.000 C 
ENDROOT
BRANCH   1   2
ATOM      2  C   UNL     1      -7.240  19.349 -13.055  1.00  0.00     0.000 C 
BRANCH   2   3
ATOM      3  C   UNL     1      -6.451  20.351 -12.197  1.00  0.00     0.000 C 
BRANCH   3   4
ATOM      4  C   UNL     1      -5.852  19.710 -10.937  1.00  0.00     0.000 C 
BRANCH   4   5
ATOM      5  C   UNL     1      -4.359  20.042 -10.810  1.00  0.00     0.000 C 
BRANCH   5   6
ATOM      6  C   UNL     1      -3.448  18.836 -11.104  1.00  0.00     0.000 C 
BRANCH   6   7
ATOM      7  C   UNL     1      -4.112  17.456 -10.921  1.00  0.00     0.006 C 
BRANCH   7   8
ATOM      8  C   UNL     1      -3.188  16.376 -10.336  1.00  0.00     0.053 C 
BRANCH   8   9
ATOM      9  C   UNL     1      -3.812  15.015 -10.388  1.00  0.00     0.041 C 
ATOM     10  O   UNL     1      -3.341  14.076  -9.695  1.00  0.00    -0.550 OA
ATOM     11  O   UNL     1      -4.934  14.793 -11.177  1.00  0.00    -0.550 OA
ENDBRANCH   8   9
ENDBRANCH   7   8
ENDBRANCH   6   7
ENDBRANCH   5   6
ENDBRANCH   4   5
ENDBRANCH   3   4
ENDBRANCH   2   3
ENDBRANCH   1   2
BRANCH   1  12
ATOM     12  C   UNL     1      -8.201  16.983 -13.196  1.00  0.00     0.000 C 
BRANCH  12  13
ATOM     13  C   UNL     1      -8.416  15.644 -12.468  1.00  0.00    -0.000 C 
BRANCH  13  14
ATOM     14  C   UNL     1      -9.843  15.485 -11.920  1.00  0.00    -0.000 C 
BRANCH  14  15
ATOM     15  C   UNL     1      -9.975  14.292 -10.958  1.00  0.00    -0.000 C 
BRANCH  15  16
ATOM     16  C   UNL     1     -10.868  14.609  -9.745  1.00  0.00    -0.000 C 
BRANCH  16  17
ATOM     17  C   UNL     1     -10.244  15.660  -8.812  1.00  0.00    -0.000 C 
BRANCH  17  18
ATOM     18  C   UNL     1     -11.291  16.601  -8.193  1.00  0.00    -0.000 C 
BRANCH  18  19
ATOM     19  C   UNL     1     -11.445  16.395  -6.679  1.00  0.00    -0.003 C 
ATOM     20  C   UNL     1     -12.741  15.674  -6.311  1.00  0.00     0.004 C 
ENDBRANCH  18  19
ENDBRANCH  17  18
ENDBRANCH  16  17
ENDBRANCH  15  16
ENDBRANCH  14  15
ENDBRANCH  13  14
ENDBRANCH  12  13
ENDBRANCH   1  12
TORSDOF 16
ENDMDL
