MODEL 1
REMARK VINA RESULT:    -3.587      0.000      0.000
REMARK INTER + INTRA:          -3.587
REMARK INTER:                  -3.587
REMARK INTRA:                   0.000
REMARK UNBOUND:                 0.000
REMARK SMILES CC1=CC[C@H]2C[C@@H]1C2(C)C
REMARK SMILES IDX 1 1 2 2 3 3 4 4 5 5 6 6 7 7 8 8 9 9 10 10
REMARK H PARENT
REMARK Flexibility Score: inf
ROOT
ATOM      1  C   UNL     1      22.221  63.104  17.137  1.00  0.00     0.039 C 
ATOM      2  C   UNL     1      21.565  63.449  15.833  1.00  0.00    -0.074 C 
ATOM      3  C   UNL     1      22.294  63.878  14.762  1.00  0.00    -0.027 C 
ATOM      4  C   UNL     1      21.553  64.245  13.460  1.00  0.00     0.031 C 
ATOM      5  C   UNL     1      20.014  63.995  13.629  1.00  0.00    -0.000 C 
ATOM      6  C   UNL     1      19.885  62.603  14.278  1.00  0.00     0.013 C 
ATOM      7  C   UNL     1      20.048  63.321  15.631  1.00  0.00     0.021 C 
ATOM      8  C   UNL     1      19.509  64.613  14.961  1.00  0.00    -0.026 C 
ATOM      9  C   UNL     1      17.963  64.702  15.016  1.00  0.00     0.012 C 
ATOM     10  C   UNL     1      20.093  65.980  15.416  1.00  0.00     0.012 C 
ENDROOT
TORSDOF 0
ENDMDL
MODEL 2
REMARK VINA RESULT:    -3.580      1.180      2.512
REMARK INTER + INTRA:          -3.580
REMARK INTER:                  -3.580
REMARK INTRA:                   0.000
REMARK UNBOUND:                 0.000
REMARK SMILES CC1=CC[C@H]2C[C@@H]1C2(C)C
REMARK SMILES IDX 1 1 2 2 3 3 4 4 5 5 6 6 7 7 8 8 9 9 10 10
REMARK H PARENT
REMARK Flexibility Score: inf
ROOT
ATOM      1  C   UNL     1      18.329  64.954  16.835  1.00  0.00     0.039 C 
ATOM      2  C   UNL     1      19.470  64.340  16.081  1.00  0.00    -0.074 C 
ATOM      3  C   UNL     1      20.545  63.804  16.728  1.00  0.00    -0.027 C 
ATOM      4  C   UNL     1      21.698  63.215  15.891  1.00  0.00     0.031 C 
ATOM      5  C   UNL     1      21.360  63.320  14.363  1.00  0.00    -0.000 C 
ATOM      6  C   UNL     1      19.908  62.822  14.221  1.00  0.00     0.013 C 
ATOM      7  C   UNL     1      19.479  64.265  14.547  1.00  0.00     0.021 C 
ATOM      8  C   UNL     1      20.855  64.748  14.018  1.00  0.00    -0.026 C 
ATOM      9  C   UNL     1      20.839  65.010  12.491  1.00  0.00     0.012 C 
ATOM     10  C   UNL     1      21.529  65.964  14.714  1.00  0.00     0.012 C 
ENDROOT
TORSDOF 0
ENDMDL
MODEL 3
REMARK VINA RESULT:    -3.576      1.479      3.590
REMARK INTER + INTRA:          -3.576
REMARK INTER:                  -3.576
REMARK INTRA:                   0.000
REMARK UNBOUND:                 0.000
REMARK SMILES CC1=CC[C@H]2C[C@@H]1C2(C)C
REMARK SMILES IDX 1 1 2 2 3 3 4 4 5 5 6 6 7 7 8 8 9 9 10 10
REMARK H PARENT
REMARK Flexibility Score: inf
ROOT
ATOM      1  C   UNL     1      19.277  62.695  13.864  1.00  0.00     0.039 C 
ATOM      2  C   UNL     1      20.531  63.463  14.154  1.00  0.00    -0.074 C 
ATOM      3  C   UNL     1      21.021  64.385  13.276  1.00  0.00    -0.027 C 
ATOM      4  C   UNL     1      22.333  65.118  13.623  1.00  0.00     0.031 C 
ATOM      5  C   UNL     1      22.851  64.654  15.030  1.00  0.00    -0.000 C 
ATOM      6  C   UNL     1      21.622  64.691  15.960  1.00  0.00     0.013 C 
ATOM      7  C   UNL     1      21.316  63.266  15.460  1.00  0.00     0.021 C 
ATOM      8  C   UNL     1      22.824  63.104  15.131  1.00  0.00    -0.026 C 
ATOM      9  C   UNL     1      23.637  62.584  16.344  1.00  0.00     0.012 C 
ATOM     10  C   UNL     1      23.224  62.269  13.882  1.00  0.00     0.012 C 
ENDROOT
TORSDOF 0
ENDMDL
MODEL 4
REMARK VINA RESULT:    -3.558      1.370      3.321
REMARK INTER + INTRA:          -3.558
REMARK INTER:                  -3.558
REMARK INTRA:                   0.000
REMARK UNBOUND:                 0.000
REMARK SMILES CC1=CC[C@H]2C[C@@H]1C2(C)C
REMARK SMILES IDX 1 1 2 2 3 3 4 4 5 5 6 6 7 7 8 8 9 9 10 10
REMARK H PARENT
REMARK Flexibility Score: inf
ROOT
ATOM      1  C   UNL     1      19.509  62.739  13.883  1.00  0.00     0.039 C 
ATOM      2  C   UNL     1      20.184  63.658  14.856  1.00  0.00    -0.074 C 
ATOM      3  C   UNL     1      20.859  64.767  14.436  1.00  0.00    -0.027 C 
ATOM      4  C   UNL     1      21.556  65.654  15.487  1.00  0.00     0.031 C 
ATOM      5  C   UNL     1      21.296  65.087  16.926  1.00  0.00    -0.000 C 
ATOM      6  C   UNL     1      19.786  64.779  16.987  1.00  0.00     0.013 C 
ATOM      7  C   UNL     1      20.135  63.411  16.370  1.00  0.00     0.021 C 
ATOM      8  C   UNL     1      21.563  63.557  16.961  1.00  0.00    -0.026 C 
ATOM      9  C   UNL     1      21.659  63.013  18.408  1.00  0.00     0.012 C 
ATOM     10  C   UNL     1      22.760  62.992  16.146  1.00  0.00     0.012 C 
ENDROOT
TORSDOF 0
ENDMDL
MODEL 5
REMARK VINA RESULT:    -3.469      1.121      3.202
REMARK INTER + INTRA:          -3.469
REMARK INTER:                  -3.469
REMARK INTRA:                   0.000
REMARK UNBOUND:                 0.000
REMARK SMILES CC1=CC[C@H]2C[C@@H]1C2(C)C
REMARK SMILES IDX 1 1 2 2 3 3 4 4 5 5 6 6 7 7 8 8 9 9 10 10
REMARK H PARENT
REMARK Flexibility Score: inf
ROOT
ATOM      1  C   UNL     1      17.296  64.706  14.906  1.00  0.00     0.039 C 
ATOM      2  C   UNL     1      18.714  64.260  14.705  1.00  0.00    -0.074 C 
ATOM      3  C   UNL     1      19.007  63.020  14.215  1.00  0.00    -0.027 C 
ATOM      4  C   UNL     1      20.487  62.614  14.061  1.00  0.00     0.031 C 
ATOM      5  C   UNL     1      21.417  63.803  14.488  1.00  0.00    -0.000 C 
ATOM      6  C   UNL     1      20.837  65.055  13.801  1.00  0.00     0.013 C 
ATOM      7  C   UNL     1      19.903  65.178  15.021  1.00  0.00     0.021 C 
ATOM      8  C   UNL     1      20.953  64.391  15.849  1.00  0.00    -0.026 C 
ATOM      9  C   UNL     1      22.021  65.319  16.479  1.00  0.00     0.012 C 
ATOM     10  C   UNL     1      20.446  63.414  16.948  1.00  0.00     0.012 C 
ENDROOT
TORSDOF 0
ENDMDL
MODEL 6
REMARK VINA RESULT:    -3.466      1.491      2.878
REMARK INTER + INTRA:          -3.466
REMARK INTER:                  -3.466
REMARK INTRA:                   0.000
REMARK UNBOUND:                 0.000
REMARK SMILES CC1=CC[C@H]2C[C@@H]1C2(C)C
REMARK SMILES IDX 1 1 2 2 3 3 4 4 5 5 6 6 7 7 8 8 9 9 10 10
REMARK H PARENT
REMARK Flexibility Score: inf
ROOT
ATOM      1  C   UNL     1      19.412  62.448  13.975  1.00  0.00     0.039 C 
ATOM      2  C   UNL     1      20.239  63.362  14.828  1.00  0.00    -0.074 C 
ATOM      3  C   UNL     1      21.590  63.206  14.938  1.00  0.00    -0.027 C 
ATOM      4  C   UNL     1      22.376  64.163  15.856  1.00  0.00     0.031 C 
ATOM      5  C   UNL     1      21.404  65.221  16.487  1.00  0.00    -0.000 C 
ATOM      6  C   UNL     1      20.533  65.734  15.324  1.00  0.00     0.013 C 
ATOM      7  C   UNL     1      19.613  64.531  15.604  1.00  0.00     0.021 C 
ATOM      8  C   UNL     1      20.143  64.520  17.062  1.00  0.00    -0.026 C 
ATOM      9  C   UNL     1      19.327  65.455  17.991  1.00  0.00     0.012 C 
ATOM     10  C   UNL     1      20.313  63.150  17.777  1.00  0.00     0.012 C 
ENDROOT
TORSDOF 0
ENDMDL
MODEL 7
REMARK VINA RESULT:    -3.454      1.296      2.010
REMARK INTER + INTRA:          -3.454
REMARK INTER:                  -3.454
REMARK INTRA:                   0.000
REMARK UNBOUND:                 0.000
REMARK SMILES CC1=CC[C@H]2C[C@@H]1C2(C)C
REMARK SMILES IDX 1 1 2 2 3 3 4 4 5 5 6 6 7 7 8 8 9 9 10 10
REMARK H PARENT
REMARK Flexibility Score: inf
ROOT
ATOM      1  C   UNL     1      20.646  63.698  18.562  1.00  0.00     0.039 C 
ATOM      2  C   UNL     1      20.842  64.090  17.129  1.00  0.00    -0.074 C 
ATOM      3  C   UNL     1      21.206  65.358  16.780  1.00  0.00    -0.027 C 
ATOM      4  C   UNL     1      21.361  65.702  15.285  1.00  0.00     0.031 C 
ATOM      5  C   UNL     1      21.091  64.429  14.410  1.00  0.00    -0.000 C 
ATOM      6  C   UNL     1      21.889  63.289  15.075  1.00  0.00     0.013 C 
ATOM      7  C   UNL     1      20.661  63.084  15.983  1.00  0.00     0.021 C 
ATOM      8  C   UNL     1      19.787  63.723  14.872  1.00  0.00    -0.026 C 
ATOM      9  C   UNL     1      19.291  62.679  13.840  1.00  0.00     0.012 C 
ATOM     10  C   UNL     1      18.576  64.601  15.297  1.00  0.00     0.012 C 
ENDROOT
TORSDOF 0
ENDMDL
MODEL 8
REMARK VINA RESULT:    -3.407      1.029      2.707
REMARK INTER + INTRA:          -3.407
REMARK INTER:                  -3.407
REMARK INTRA:                   0.000
REMARK UNBOUND:                 0.000
REMARK SMILES CC1=CC[C@H]2C[C@@H]1C2(C)C
REMARK SMILES IDX 1 1 2 2 3 3 4 4 5 5 6 6 7 7 8 8 9 9 10 10
REMARK H PARENT
REMARK Flexibility Score: inf
ROOT
ATOM      1  C   UNL     1      22.568  62.741  17.191  1.00  0.00     0.039 C 
ATOM      2  C   UNL     1      21.468  63.560  16.586  1.00  0.00    -0.074 C 
ATOM      3  C   UNL     1      20.231  63.624  17.160  1.00  0.00    -0.027 C 
ATOM      4  C   UNL     1      19.136  64.462  16.470  1.00  0.00     0.031 C 
ATOM      5  C   UNL     1      19.715  65.150  15.185  1.00  0.00    -0.000 C 
ATOM      6  C   UNL     1      21.065  65.760  15.611  1.00  0.00     0.013 C 
ATOM      7  C   UNL     1      21.680  64.381  15.306  1.00  0.00     0.021 C 
ATOM      8  C   UNL     1      20.503  64.120  14.329  1.00  0.00    -0.026 C 
ATOM      9  C   UNL     1      20.796  64.649  12.902  1.00  0.00     0.012 C 
ATOM     10  C   UNL     1      19.949  62.673  14.209  1.00  0.00     0.012 C 
ENDROOT
TORSDOF 0
ENDMDL
MODEL 9
REMARK VINA RESULT:    -3.397      1.286      1.906
REMARK INTER + INTRA:          -3.397
REMARK INTER:                  -3.397
REMARK INTRA:                   0.000
REMARK UNBOUND:                 0.000
REMARK SMILES CC1=CC[C@H]2C[C@@H]1C2(C)C
REMARK SMILES IDX 1 1 2 2 3 3 4 4 5 5 6 6 7 7 8 8 9 9 10 10
REMARK H PARENT
REMARK Flexibility Score: inf
ROOT
ATOM      1  C   UNL     1      23.188  62.699  13.869  1.00  0.00     0.039 C 
ATOM      2  C   UNL     1      21.921  63.486  14.017  1.00  0.00    -0.074 C 
ATOM      3  C   UNL     1      21.642  64.546  13.204  1.00  0.00    -0.027 C 
ATOM      4  C   UNL     1      20.335  65.332  13.431  1.00  0.00     0.031 C 
ATOM      5  C   UNL     1      19.515  64.684  14.601  1.00  0.00    -0.000 C 
ATOM      6  C   UNL     1      19.521  63.167  14.325  1.00  0.00     0.013 C 
ATOM      7  C   UNL     1      20.866  63.130  15.075  1.00  0.00     0.021 C 
ATOM      8  C   UNL     1      20.435  64.419  15.824  1.00  0.00    -0.026 C 
ATOM      9  C   UNL     1      19.626  64.110  17.108  1.00  0.00     0.012 C 
ATOM     10  C   UNL     1      21.526  65.469  16.175  1.00  0.00     0.012 C 
ENDROOT
TORSDOF 0
ENDMDL
