MODEL 1
REMARK VINA RESULT:    -4.433      0.000      0.000
REMARK INTER + INTRA:         -11.472
REMARK INTER:                  -8.579
REMARK INTRA:                  -2.893
REMARK UNBOUND:                -2.893
REMARK SMILES CCCCCC=CCC=CCCCCCCCCOC(C)=O
REMARK SMILES IDX 12 1 11 2 10 3 9 4 8 5 7 6 6 7 5 8 4 9 3 10 2 11 1 12 13 13
REMARK SMILES IDX 14 14 15 15 16 16 17 17 18 18 19 19 20 20 22 21 21 22
REMARK H PARENT
REMARK Flexibility Score: inf
ROOT
ATOM      1  C   UNL     1      -0.959 -24.476  -8.696  1.00  0.00     0.004 C 
ENDROOT
BRANCH   1   2
ATOM      2  C   UNL     1      -2.105 -25.386  -8.225  1.00  0.00     0.027 C 
BRANCH   2   3
ATOM      3  C   UNL     1      -1.969 -25.760  -6.770  1.00  0.00    -0.031 C 
ATOM      4  C   UNL     1      -1.887 -27.021  -6.307  1.00  0.00    -0.027 C 
BRANCH   4   5
ATOM      5  C   UNL     1      -1.811 -28.250  -7.176  1.00  0.00     0.054 C 
BRANCH   5   6
ATOM      6  C   UNL     1      -0.500 -28.960  -6.946  1.00  0.00    -0.027 C 
ATOM      7  C   UNL     1       0.617 -28.793  -7.681  1.00  0.00    -0.031 C 
BRANCH   7   8
ATOM      8  C   UNL     1       0.754 -27.852  -8.854  1.00  0.00     0.027 C 
BRANCH   8   9
ATOM      9  C   UNL     1       0.470 -28.529 -10.209  1.00  0.00     0.004 C 
BRANCH   9  10
ATOM     10  C   UNL     1      -0.977 -28.352 -10.712  1.00  0.00     0.000 C 
BRANCH  10  11
ATOM     11  C   UNL     1      -1.848 -29.618 -10.649  1.00  0.00    -0.003 C 
ATOM     12  C   UNL     1      -1.041 -30.892 -10.399  1.00  0.00     0.004 C 
ENDBRANCH  10  11
ENDBRANCH   9  10
ENDBRANCH   8   9
ENDBRANCH   7   8
ENDBRANCH   5   6
ENDBRANCH   4   5
ENDBRANCH   2   3
ENDBRANCH   1   2
BRANCH   1  13
ATOM     13  C   UNL     1      -0.503 -24.728 -10.148  1.00  0.00     0.000 C 
BRANCH  13  14
ATOM     14  C   UNL     1      -1.576 -24.478 -11.226  1.00  0.00     0.000 C 
BRANCH  14  15
ATOM     15  C   UNL     1      -1.362 -23.214 -12.080  1.00  0.00     0.000 C 
BRANCH  15  16
ATOM     16  C   UNL     1      -1.725 -21.922 -11.328  1.00  0.00     0.003 C 
BRANCH  16  17
ATOM     17  C   UNL     1      -0.803 -20.746 -11.691  1.00  0.00     0.042 C 
BRANCH  17  18
ATOM     18  C   UNL     1       0.645 -21.149 -12.006  1.00  0.00     0.233 C 
BRANCH  18  19
ATOM     19  O   UNL     1       1.525 -20.793 -10.939  1.00  0.00    -0.466 OA
BRANCH  19  20
ATOM     20  C   UNL     1       1.668 -21.539  -9.764  1.00  0.00     0.302 C 
ATOM     21  O   UNL     1       2.285 -22.639  -9.766  1.00  0.00    -0.253 OA
ATOM     22  C   UNL     1       1.127 -21.000  -8.484  1.00  0.00     0.139 C 
ENDBRANCH  19  20
ENDBRANCH  18  19
ENDBRANCH  17  18
ENDBRANCH  16  17
ENDBRANCH  15  16
ENDBRANCH  14  15
ENDBRANCH  13  14
ENDBRANCH   1  13
TORSDOF 16
ENDMDL
MODEL 2
REMARK VINA RESULT:    -4.209      2.690      7.507
REMARK INTER + INTRA:         -11.040
REMARK INTER:                  -8.765
REMARK INTRA:                  -2.275
REMARK UNBOUND:                -2.893
REMARK SMILES CCCCCC=CCC=CCCCCCCCCOC(C)=O
REMARK SMILES IDX 12 1 11 2 10 3 9 4 8 5 7 6 6 7 5 8 4 9 3 10 2 11 1 12 13 13
REMARK SMILES IDX 14 14 15 15 16 16 17 17 18 18 19 19 20 20 22 21 21 22
REMARK H PARENT
REMARK Flexibility Score: inf
ROOT
ATOM      1  C   UNL     1      -0.796 -25.041 -10.422  1.00  0.00     0.004 C 
ENDROOT
BRANCH   1   2
ATOM      2  C   UNL     1      -2.054 -24.376 -11.005  1.00  0.00     0.027 C 
BRANCH   2   3
ATOM      3  C   UNL     1      -1.835 -23.889 -12.416  1.00  0.00    -0.031 C 
ATOM      4  C   UNL     1      -1.319 -22.689 -12.742  1.00  0.00    -0.027 C 
BRANCH   4   5
ATOM      5  C   UNL     1      -0.784 -21.689 -11.750  1.00  0.00     0.054 C 
BRANCH   5   6
ATOM      6  C   UNL     1       0.628 -21.306 -12.121  1.00  0.00    -0.027 C 
ATOM      7  C   UNL     1       1.730 -21.602 -11.405  1.00  0.00    -0.031 C 
BRANCH   7   8
ATOM      8  C   UNL     1       1.745 -22.385 -10.114  1.00  0.00     0.027 C 
BRANCH   8   9
ATOM      9  C   UNL     1       1.642 -21.491  -8.863  1.00  0.00     0.004 C 
BRANCH   9  10
ATOM     10  C   UNL     1       0.200 -21.260  -8.370  1.00  0.00     0.000 C 
BRANCH  10  11
ATOM     11  C   UNL     1      -0.324 -19.823  -8.537  1.00  0.00    -0.003 C 
ATOM     12  C   UNL     1      -1.826 -19.759  -8.813  1.00  0.00     0.004 C 
ENDBRANCH  10  11
ENDBRANCH   9  10
ENDBRANCH   8   9
ENDBRANCH   7   8
ENDBRANCH   5   6
ENDBRANCH   4   5
ENDBRANCH   2   3
ENDBRANCH   1   2
BRANCH   1  13
ATOM     13  C   UNL     1      -0.623 -24.850  -8.902  1.00  0.00     0.000 C 
BRANCH  13  14
ATOM     14  C   UNL     1      -1.933 -24.830  -8.089  1.00  0.00     0.000 C 
BRANCH  14  15
ATOM     15  C   UNL     1      -2.079 -25.963  -7.056  1.00  0.00     0.000 C 
BRANCH  15  16
ATOM     16  C   UNL     1      -1.084 -27.113  -7.293  1.00  0.00     0.003 C 
BRANCH  16  17
ATOM     17  C   UNL     1      -1.638 -28.477  -6.848  1.00  0.00     0.042 C 
BRANCH  17  18
ATOM     18  C   UNL     1      -1.016 -29.681  -7.571  1.00  0.00     0.233 C 
BRANCH  18  19
ATOM     19  O   UNL     1      -1.192 -29.582  -8.985  1.00  0.00    -0.466 OA
BRANCH  19  20
ATOM     20  C   UNL     1      -0.143 -29.382  -9.889  1.00  0.00     0.302 C 
ATOM     21  O   UNL     1      -0.327 -29.502 -11.131  1.00  0.00    -0.253 OA
ATOM     22  C   UNL     1       1.196 -28.970  -9.380  1.00  0.00     0.139 C 
ENDBRANCH  19  20
ENDBRANCH  18  19
ENDBRANCH  17  18
ENDBRANCH  16  17
ENDBRANCH  15  16
ENDBRANCH  14  15
ENDBRANCH  13  14
ENDBRANCH   1  13
TORSDOF 16
ENDMDL
MODEL 3
REMARK VINA RESULT:    -4.056      3.276      8.308
REMARK INTER + INTRA:         -10.742
REMARK INTER:                  -8.701
REMARK INTRA:                  -2.041
REMARK UNBOUND:                -2.893
REMARK SMILES CCCCCC=CCC=CCCCCCCCCOC(C)=O
REMARK SMILES IDX 12 1 11 2 10 3 9 4 8 5 7 6 6 7 5 8 4 9 3 10 2 11 1 12 13 13
REMARK SMILES IDX 14 14 15 15 16 16 17 17 18 18 19 19 20 20 22 21 21 22
REMARK H PARENT
REMARK Flexibility Score: inf
ROOT
ATOM      1  C   UNL     1      -0.223 -26.775  -8.943  1.00  0.00     0.004 C 
ENDROOT
BRANCH   1   2
ATOM      2  C   UNL     1       0.301 -25.408  -9.413  1.00  0.00     0.027 C 
BRANCH   2   3
ATOM      3  C   UNL     1      -0.631 -24.283  -9.033  1.00  0.00    -0.031 C 
ATOM      4  C   UNL     1      -1.194 -23.426  -9.904  1.00  0.00    -0.027 C 
BRANCH   4   5
ATOM      5  C   UNL     1      -1.065 -23.520 -11.403  1.00  0.00     0.054 C 
BRANCH   5   6
ATOM      6  C   UNL     1      -1.139 -22.141 -12.010  1.00  0.00    -0.027 C 
ATOM      7  C   UNL     1      -0.111 -21.277 -12.112  1.00  0.00    -0.031 C 
BRANCH   7   8
ATOM      8  C   UNL     1       1.302 -21.547 -11.651  1.00  0.00     0.027 C 
BRANCH   8   9
ATOM      9  C   UNL     1       1.765 -20.596 -10.531  1.00  0.00     0.004 C 
BRANCH   9  10
ATOM     10  C   UNL     1       1.798 -21.240  -9.130  1.00  0.00     0.000 C 
BRANCH  10  11
ATOM     11  C   UNL     1       0.661 -20.809  -8.188  1.00  0.00    -0.003 C 
ATOM     12  C   UNL     1      -0.186 -19.668  -8.750  1.00  0.00     0.004 C 
ENDBRANCH  10  11
ENDBRANCH   9  10
ENDBRANCH   8   9
ENDBRANCH   7   8
ENDBRANCH   5   6
ENDBRANCH   4   5
ENDBRANCH   2   3
ENDBRANCH   1   2
BRANCH   1  13
ATOM     13  C   UNL     1      -1.341 -26.697  -7.883  1.00  0.00     0.000 C 
BRANCH  13  14
ATOM     14  C   UNL     1      -1.323 -27.819  -6.826  1.00  0.00     0.000 C 
BRANCH  14  15
ATOM     15  C   UNL     1      -0.402 -29.010  -7.152  1.00  0.00     0.000 C 
BRANCH  15  16
ATOM     16  C   UNL     1      -1.176 -30.331  -7.309  1.00  0.00     0.003 C 
BRANCH  16  17
ATOM     17  C   UNL     1      -1.356 -30.741  -8.780  1.00  0.00     0.042 C 
BRANCH  17  18
ATOM     18  C   UNL     1      -0.184 -30.355  -9.694  1.00  0.00     0.233 C 
BRANCH  18  19
ATOM     19  O   UNL     1       0.919 -31.245  -9.523  1.00  0.00    -0.466 OA
BRANCH  19  20
ATOM     20  C   UNL     1       0.985 -32.524 -10.086  1.00  0.00     0.302 C 
ATOM     21  O   UNL     1       0.114 -32.914 -10.911  1.00  0.00    -0.253 OA
ATOM     22  C   UNL     1       2.128 -33.418  -9.745  1.00  0.00     0.139 C 
ENDBRANCH  19  20
ENDBRANCH  18  19
ENDBRANCH  17  18
ENDBRANCH  16  17
ENDBRANCH  15  16
ENDBRANCH  14  15
ENDBRANCH  13  14
ENDBRANCH   1  13
TORSDOF 16
ENDMDL
MODEL 4
REMARK VINA RESULT:    -4.036      3.414      7.788
REMARK INTER + INTRA:         -10.705
REMARK INTER:                  -8.361
REMARK INTRA:                  -2.344
REMARK UNBOUND:                -2.893
REMARK SMILES CCCCCC=CCC=CCCCCCCCCOC(C)=O
REMARK SMILES IDX 12 1 11 2 10 3 9 4 8 5 7 6 6 7 5 8 4 9 3 10 2 11 1 12 13 13
REMARK SMILES IDX 14 14 15 15 16 16 17 17 18 18 19 19 20 20 22 21 21 22
REMARK H PARENT
REMARK Flexibility Score: inf
ROOT
ATOM      1  C   UNL     1       0.864 -26.026  -9.708  1.00  0.00     0.004 C 
ENDROOT
BRANCH   1   2
ATOM      2  C   UNL     1      -0.151 -24.878  -9.832  1.00  0.00     0.027 C 
BRANCH   2   3
ATOM      3  C   UNL     1      -1.031 -24.767  -8.610  1.00  0.00    -0.031 C 
ATOM      4  C   UNL     1      -1.608 -23.629  -8.183  1.00  0.00    -0.027 C 
BRANCH   4   5
ATOM      5  C   UNL     1      -1.553 -22.312  -8.913  1.00  0.00     0.054 C 
BRANCH   5   6
ATOM      6  C   UNL     1      -0.777 -21.307  -8.098  1.00  0.00    -0.027 C 
ATOM      7  C   UNL     1       0.528 -21.014  -8.258  1.00  0.00    -0.031 C 
BRANCH   7   8
ATOM      8  C   UNL     1       1.437 -21.628  -9.294  1.00  0.00     0.027 C 
BRANCH   8   9
ATOM      9  C   UNL     1       1.453 -20.849 -10.624  1.00  0.00     0.004 C 
BRANCH   9  10
ATOM     10  C   UNL     1       0.833 -21.613 -11.810  1.00  0.00     0.000 C 
BRANCH  10  11
ATOM     11  C   UNL     1      -0.664 -21.347 -12.046  1.00  0.00    -0.003 C 
ATOM     12  C   UNL     1      -1.384 -22.516 -12.717  1.00  0.00     0.004 C 
ENDBRANCH  10  11
ENDBRANCH   9  10
ENDBRANCH   8   9
ENDBRANCH   7   8
ENDBRANCH   5   6
ENDBRANCH   4   5
ENDBRANCH   2   3
ENDBRANCH   1   2
BRANCH   1  13
ATOM     13  C   UNL     1       0.229 -27.424  -9.564  1.00  0.00     0.000 C 
BRANCH  13  14
ATOM     14  C   UNL     1       0.818 -28.301  -8.441  1.00  0.00     0.000 C 
BRANCH  14  15
ATOM     15  C   UNL     1      -0.135 -28.585  -7.265  1.00  0.00     0.000 C 
BRANCH  15  16
ATOM     16  C   UNL     1      -1.541 -29.004  -7.729  1.00  0.00     0.003 C 
BRANCH  16  17
ATOM     17  C   UNL     1      -1.947 -30.393  -7.210  1.00  0.00     0.042 C 
BRANCH  17  18
ATOM     18  C   UNL     1      -1.972 -31.490  -8.284  1.00  0.00     0.233 C 
BRANCH  18  19
ATOM     19  O   UNL     1      -0.655 -31.789  -8.749  1.00  0.00    -0.466 OA
BRANCH  19  20
ATOM     20  C   UNL     1      -0.286 -31.791 -10.099  1.00  0.00     0.302 C 
ATOM     21  O   UNL     1       0.443 -32.706 -10.570  1.00  0.00    -0.253 OA
ATOM     22  C   UNL     1      -0.804 -30.725 -11.002  1.00  0.00     0.139 C 
ENDBRANCH  19  20
ENDBRANCH  18  19
ENDBRANCH  17  18
ENDBRANCH  16  17
ENDBRANCH  15  16
ENDBRANCH  14  15
ENDBRANCH  13  14
ENDBRANCH   1  13
TORSDOF 16
ENDMDL
MODEL 5
REMARK VINA RESULT:    -3.985      3.714      7.857
REMARK INTER + INTRA:         -10.607
REMARK INTER:                  -8.066
REMARK INTRA:                  -2.540
REMARK UNBOUND:                -2.893
REMARK SMILES CCCCCC=CCC=CCCCCCCCCOC(C)=O
REMARK SMILES IDX 12 1 11 2 10 3 9 4 8 5 7 6 6 7 5 8 4 9 3 10 2 11 1 12 13 13
REMARK SMILES IDX 14 14 15 15 16 16 17 17 18 18 19 19 20 20 22 21 21 22
REMARK H PARENT
REMARK Flexibility Score: inf
ROOT
ATOM      1  C   UNL     1       0.861 -29.557  -9.188  1.00  0.00     0.004 C 
ENDROOT
BRANCH   1   2
ATOM      2  C   UNL     1       0.840 -28.581  -7.999  1.00  0.00     0.027 C 
BRANCH   2   3
ATOM      3  C   UNL     1      -0.179 -28.977  -6.959  1.00  0.00    -0.031 C 
ATOM      4  C   UNL     1      -1.432 -28.490  -6.888  1.00  0.00    -0.027 C 
BRANCH   4   5
ATOM      5  C   UNL     1      -2.046 -27.553  -7.896  1.00  0.00     0.054 C 
BRANCH   5   6
ATOM      6  C   UNL     1      -1.801 -26.123  -7.481  1.00  0.00    -0.027 C 
ATOM      7  C   UNL     1      -1.202 -25.183  -8.238  1.00  0.00    -0.031 C 
BRANCH   7   8
ATOM      8  C   UNL     1      -0.687 -25.394  -9.642  1.00  0.00     0.027 C 
BRANCH   8   9
ATOM      9  C   UNL     1       0.850 -25.319  -9.739  1.00  0.00     0.004 C 
BRANCH   9  10
ATOM     10  C   UNL     1       1.411 -23.884  -9.757  1.00  0.00     0.000 C 
BRANCH  10  11
ATOM     11  C   UNL     1       0.659 -22.901 -10.670  1.00  0.00    -0.003 C 
ATOM     12  C   UNL     1       1.563 -21.824 -11.270  1.00  0.00     0.004 C 
ENDBRANCH  10  11
ENDBRANCH   9  10
ENDBRANCH   8   9
ENDBRANCH   7   8
ENDBRANCH   5   6
ENDBRANCH   4   5
ENDBRANCH   2   3
ENDBRANCH   1   2
BRANCH   1  13
ATOM     13  C   UNL     1       0.353 -28.954 -10.513  1.00  0.00     0.000 C 
BRANCH  13  14
ATOM     14  C   UNL     1      -0.785 -29.738 -11.198  1.00  0.00     0.000 C 
BRANCH  14  15
ATOM     15  C   UNL     1      -1.859 -30.297 -10.246  1.00  0.00     0.000 C 
BRANCH  15  16
ATOM     16  C   UNL     1      -1.845 -31.834 -10.174  1.00  0.00     0.003 C 
BRANCH  16  17
ATOM     17  C   UNL     1      -1.567 -32.489 -11.537  1.00  0.00     0.042 C 
BRANCH  17  18
ATOM     18  C   UNL     1      -0.367 -33.447 -11.548  1.00  0.00     0.233 C 
BRANCH  18  19
ATOM     19  O   UNL     1       0.753 -32.879 -10.867  1.00  0.00    -0.466 OA
BRANCH  19  20
ATOM     20  C   UNL     1       1.493 -33.550  -9.887  1.00  0.00     0.302 C 
ATOM     21  O   UNL     1       2.742 -33.399  -9.801  1.00  0.00    -0.253 OA
ATOM     22  C   UNL     1       0.787 -34.415  -8.900  1.00  0.00     0.139 C 
ENDBRANCH  19  20
ENDBRANCH  18  19
ENDBRANCH  17  18
ENDBRANCH  16  17
ENDBRANCH  15  16
ENDBRANCH  14  15
ENDBRANCH  13  14
ENDBRANCH   1  13
TORSDOF 16
ENDMDL
MODEL 6
REMARK VINA RESULT:    -3.950      2.701      5.162
REMARK INTER + INTRA:         -10.538
REMARK INTER:                  -8.156
REMARK INTRA:                  -2.381
REMARK UNBOUND:                -2.893
REMARK SMILES CCCCCC=CCC=CCCCCCCCCOC(C)=O
REMARK SMILES IDX 12 1 11 2 10 3 9 4 8 5 7 6 6 7 5 8 4 9 3 10 2 11 1 12 13 13
REMARK SMILES IDX 14 14 15 15 16 16 17 17 18 18 19 19 20 20 22 21 21 22
REMARK H PARENT
REMARK Flexibility Score: inf
ROOT
ATOM      1  C   UNL     1       1.514 -20.913  -9.986  1.00  0.00     0.004 C 
ENDROOT
BRANCH   1   2
ATOM      2  C   UNL     1       1.127 -22.114 -10.866  1.00  0.00     0.027 C 
BRANCH   2   3
ATOM      3  C   UNL     1       0.284 -21.701 -12.048  1.00  0.00    -0.031 C 
ATOM      4  C   UNL     1      -0.996 -22.069 -12.242  1.00  0.00    -0.027 C 
BRANCH   4   5
ATOM      5  C   UNL     1      -1.818 -22.863 -11.260  1.00  0.00     0.054 C 
BRANCH   5   6
ATOM      6  C   UNL     1      -1.814 -24.321 -11.649  1.00  0.00    -0.027 C 
ATOM      7  C   UNL     1      -1.270 -25.319 -10.926  1.00  0.00    -0.031 C 
BRANCH   7   8
ATOM      8  C   UNL     1      -0.584 -25.153  -9.591  1.00  0.00     0.027 C 
BRANCH   8   9
ATOM      9  C   UNL     1       0.770 -25.885  -9.511  1.00  0.00     0.004 C 
BRANCH   9  10
ATOM     10  C   UNL     1       0.667 -27.352  -9.048  1.00  0.00     0.000 C 
BRANCH  10  11
ATOM     11  C   UNL     1      -0.454 -27.639  -8.035  1.00  0.00    -0.003 C 
ATOM     12  C   UNL     1      -0.397 -29.053  -7.458  1.00  0.00     0.004 C 
ENDBRANCH  10  11
ENDBRANCH   9  10
ENDBRANCH   8   9
ENDBRANCH   7   8
ENDBRANCH   5   6
ENDBRANCH   4   5
ENDBRANCH   2   3
ENDBRANCH   1   2
BRANCH   1  13
ATOM     13  C   UNL     1       0.998 -20.998  -8.535  1.00  0.00     0.000 C 
BRANCH  13  14
ATOM     14  C   UNL     1      -0.535 -20.929  -8.379  1.00  0.00     0.000 C 
BRANCH  14  15
ATOM     15  C   UNL     1      -1.208 -19.722  -9.059  1.00  0.00     0.000 C 
BRANCH  15  16
ATOM     16  C   UNL     1      -1.316 -18.501  -8.128  1.00  0.00     0.003 C 
BRANCH  16  17
ATOM     17  C   UNL     1      -1.824 -17.245  -8.856  1.00  0.00     0.042 C 
BRANCH  17  18
ATOM     18  C   UNL     1      -0.739 -16.197  -9.144  1.00  0.00     0.233 C 
BRANCH  18  19
ATOM     19  O   UNL     1      -0.535 -16.037 -10.548  1.00  0.00    -0.466 OA
BRANCH  19  20
ATOM     20  C   UNL     1       0.506 -16.643 -11.260  1.00  0.00     0.302 C 
ATOM     21  O   UNL     1       1.653 -16.120 -11.302  1.00  0.00    -0.253 OA
ATOM     22  C   UNL     1       0.268 -17.950 -11.935  1.00  0.00     0.139 C 
ENDBRANCH  19  20
ENDBRANCH  18  19
ENDBRANCH  17  18
ENDBRANCH  16  17
ENDBRANCH  15  16
ENDBRANCH  14  15
ENDBRANCH  13  14
ENDBRANCH   1  13
TORSDOF 16
ENDMDL
MODEL 7
REMARK VINA RESULT:    -3.917      3.844      8.108
REMARK INTER + INTRA:         -10.474
REMARK INTER:                  -7.734
REMARK INTRA:                  -2.740
REMARK UNBOUND:                -2.893
REMARK SMILES CCCCCC=CCC=CCCCCCCCCOC(C)=O
REMARK SMILES IDX 12 1 11 2 10 3 9 4 8 5 7 6 6 7 5 8 4 9 3 10 2 11 1 12 13 13
REMARK SMILES IDX 14 14 15 15 16 16 17 17 18 18 19 19 20 20 22 21 21 22
REMARK H PARENT
REMARK Flexibility Score: inf
ROOT
ATOM      1  C   UNL     1       0.909 -29.600  -9.161  1.00  0.00     0.004 C 
ENDROOT
BRANCH   1   2
ATOM      2  C   UNL     1       0.537 -28.946 -10.502  1.00  0.00     0.027 C 
BRANCH   2   3
ATOM      3  C   UNL     1      -0.883 -29.257 -10.909  1.00  0.00    -0.031 C 
ATOM      4  C   UNL     1      -1.832 -28.333 -11.147  1.00  0.00    -0.027 C 
BRANCH   4   5
ATOM      5  C   UNL     1      -1.599 -26.845 -11.147  1.00  0.00     0.054 C 
BRANCH   5   6
ATOM      6  C   UNL     1      -1.677 -26.315  -9.736  1.00  0.00    -0.027 C 
ATOM      7  C   UNL     1      -0.699 -25.641  -9.101  1.00  0.00    -0.031 C 
BRANCH   7   8
ATOM      8  C   UNL     1       0.641 -25.284  -9.698  1.00  0.00     0.027 C 
BRANCH   8   9
ATOM      9  C   UNL     1       0.846 -23.765  -9.859  1.00  0.00     0.004 C 
BRANCH   9  10
ATOM     10  C   UNL     1      -0.339 -23.036 -10.523  1.00  0.00     0.000 C 
BRANCH  10  11
ATOM     11  C   UNL     1       0.050 -21.899 -11.484  1.00  0.00    -0.003 C 
ATOM     12  C   UNL     1       1.561 -21.688 -11.585  1.00  0.00     0.004 C 
ENDBRANCH  10  11
ENDBRANCH   9  10
ENDBRANCH   8   9
ENDBRANCH   7   8
ENDBRANCH   5   6
ENDBRANCH   4   5
ENDBRANCH   2   3
ENDBRANCH   1   2
BRANCH   1  13
ATOM     13  C   UNL     1       0.934 -28.626  -7.965  1.00  0.00     0.000 C 
BRANCH  13  14
ATOM     14  C   UNL     1      -0.129 -28.892  -6.880  1.00  0.00     0.000 C 
BRANCH  14  15
ATOM     15  C   UNL     1      -1.527 -29.259  -7.410  1.00  0.00     0.000 C 
BRANCH  15  16
ATOM     16  C   UNL     1      -1.898 -30.728  -7.139  1.00  0.00     0.003 C 
BRANCH  16  17
ATOM     17  C   UNL     1      -2.124 -31.529  -8.432  1.00  0.00     0.042 C 
BRANCH  17  18
ATOM     18  C   UNL     1      -1.348 -32.853  -8.501  1.00  0.00     0.233 C 
BRANCH  18  19
ATOM     19  O   UNL     1      -1.262 -33.332  -9.844  1.00  0.00    -0.466 OA
BRANCH  19  20
ATOM     20  C   UNL     1      -0.135 -33.176 -10.657  1.00  0.00     0.302 C 
ATOM     21  O   UNL     1      -0.252 -32.973 -11.897  1.00  0.00    -0.253 OA
ATOM     22  C   UNL     1       1.222 -33.198 -10.041  1.00  0.00     0.139 C 
ENDBRANCH  19  20
ENDBRANCH  18  19
ENDBRANCH  17  18
ENDBRANCH  16  17
ENDBRANCH  15  16
ENDBRANCH  14  15
ENDBRANCH  13  14
ENDBRANCH   1  13
TORSDOF 16
ENDMDL
MODEL 8
REMARK VINA RESULT:    -3.898      3.715      7.983
REMARK INTER + INTRA:         -10.438
REMARK INTER:                  -8.028
REMARK INTRA:                  -2.410
REMARK UNBOUND:                -2.893
REMARK SMILES CCCCCC=CCC=CCCCCCCCCOC(C)=O
REMARK SMILES IDX 12 1 11 2 10 3 9 4 8 5 7 6 6 7 5 8 4 9 3 10 2 11 1 12 13 13
REMARK SMILES IDX 14 14 15 15 16 16 17 17 18 18 19 19 20 20 22 21 21 22
REMARK H PARENT
REMARK Flexibility Score: inf
ROOT
ATOM      1  C   UNL     1       0.873 -28.359  -9.378  1.00  0.00     0.004 C 
ENDROOT
BRANCH   1   2
ATOM      2  C   UNL     1       0.650 -26.860  -9.638  1.00  0.00     0.027 C 
BRANCH   2   3
ATOM      3  C   UNL     1      -0.753 -26.570 -10.111  1.00  0.00    -0.031 C 
ATOM      4  C   UNL     1      -1.667 -25.868  -9.416  1.00  0.00    -0.027 C 
BRANCH   4   5
ATOM      5  C   UNL     1      -1.399 -25.174  -8.105  1.00  0.00     0.054 C 
BRANCH   5   6
ATOM      6  C   UNL     1      -1.752 -23.712  -8.219  1.00  0.00    -0.027 C 
ATOM      7  C   UNL     1      -0.941 -22.749  -8.701  1.00  0.00    -0.031 C 
BRANCH   7   8
ATOM      8  C   UNL     1       0.456 -22.972  -9.228  1.00  0.00     0.027 C 
BRANCH   8   9
ATOM      9  C   UNL     1       0.513 -23.071 -10.765  1.00  0.00     0.004 C 
BRANCH   9  10
ATOM     10  C   UNL     1      -0.097 -21.860 -11.498  1.00  0.00     0.000 C 
BRANCH  10  11
ATOM     11  C   UNL     1      -1.463 -22.117 -12.157  1.00  0.00    -0.003 C 
ATOM     12  C   UNL     1      -1.726 -23.596 -12.438  1.00  0.00     0.004 C 
ENDBRANCH  10  11
ENDBRANCH   9  10
ENDBRANCH   8   9
ENDBRANCH   7   8
ENDBRANCH   5   6
ENDBRANCH   4   5
ENDBRANCH   2   3
ENDBRANCH   1   2
BRANCH   1  13
ATOM     13  C   UNL     1       1.060 -28.725  -7.892  1.00  0.00     0.000 C 
BRANCH  13  14
ATOM     14  C   UNL     1      -0.229 -28.711  -7.045  1.00  0.00     0.000 C 
BRANCH  14  15
ATOM     15  C   UNL     1      -1.454 -29.365  -7.709  1.00  0.00     0.000 C 
BRANCH  15  16
ATOM     16  C   UNL     1      -1.308 -30.891  -7.850  1.00  0.00     0.003 C 
BRANCH  16  17
ATOM     17  C   UNL     1      -1.711 -31.398  -9.245  1.00  0.00     0.042 C 
BRANCH  17  18
ATOM     18  C   UNL     1      -1.139 -32.776  -9.608  1.00  0.00     0.233 C 
BRANCH  18  19
ATOM     19  O   UNL     1       0.259 -32.846  -9.327  1.00  0.00    -0.466 OA
BRANCH  19  20
ATOM     20  C   UNL     1       1.208 -33.369 -10.212  1.00  0.00     0.302 C 
ATOM     21  O   UNL     1       0.887 -33.696 -11.387  1.00  0.00    -0.253 OA
ATOM     22  C   UNL     1       2.628 -33.492  -9.776  1.00  0.00     0.139 C 
ENDBRANCH  19  20
ENDBRANCH  18  19
ENDBRANCH  17  18
ENDBRANCH  16  17
ENDBRANCH  15  16
ENDBRANCH  14  15
ENDBRANCH  13  14
ENDBRANCH   1  13
TORSDOF 16
ENDMDL
MODEL 9
REMARK VINA RESULT:    -3.876      3.354      8.114
REMARK INTER + INTRA:         -10.394
REMARK INTER:                  -8.126
REMARK INTRA:                  -2.268
REMARK UNBOUND:                -2.893
REMARK SMILES CCCCCC=CCC=CCCCCCCCCOC(C)=O
REMARK SMILES IDX 12 1 11 2 10 3 9 4 8 5 7 6 6 7 5 8 4 9 3 10 2 11 1 12 13 13
REMARK SMILES IDX 14 14 15 15 16 16 17 17 18 18 19 19 20 20 22 21 21 22
REMARK H PARENT
REMARK Flexibility Score: inf
ROOT
ATOM      1  C   UNL     1       0.056 -24.885 -10.335  1.00  0.00     0.004 C 
ENDROOT
BRANCH   1   2
ATOM      2  C   UNL     1      -1.168 -24.004 -10.034  1.00  0.00     0.027 C 
BRANCH   2   3
ATOM      3  C   UNL     1      -1.263 -23.646  -8.571  1.00  0.00    -0.031 C 
ATOM      4  C   UNL     1      -1.505 -22.409  -8.099  1.00  0.00    -0.027 C 
BRANCH   4   5
ATOM      5  C   UNL     1      -1.822 -21.211  -8.955  1.00  0.00     0.054 C 
BRANCH   5   6
ATOM      6  C   UNL     1      -1.230 -19.969  -8.337  1.00  0.00    -0.027 C 
ATOM      7  C   UNL     1      -0.674 -18.947  -9.017  1.00  0.00    -0.031 C 
BRANCH   7   8
ATOM      8  C   UNL     1      -0.563 -18.862 -10.520  1.00  0.00     0.027 C 
BRANCH   8   9
ATOM      9  C   UNL     1       0.778 -19.396 -11.059  1.00  0.00     0.004 C 
BRANCH   9  10
ATOM     10  C   UNL     1       0.686 -20.792 -11.708  1.00  0.00     0.000 C 
BRANCH  10  11
ATOM     11  C   UNL     1       1.685 -21.829 -11.168  1.00  0.00    -0.003 C 
ATOM     12  C   UNL     1       1.928 -21.704  -9.664  1.00  0.00     0.004 C 
ENDBRANCH  10  11
ENDBRANCH   9  10
ENDBRANCH   8   9
ENDBRANCH   7   8
ENDBRANCH   5   6
ENDBRANCH   4   5
ENDBRANCH   2   3
ENDBRANCH   1   2
BRANCH   1  13
ATOM     13  C   UNL     1       0.321 -25.984  -9.285  1.00  0.00     0.000 C 
BRANCH  13  14
ATOM     14  C   UNL     1       0.230 -27.430  -9.812  1.00  0.00     0.000 C 
BRANCH  14  15
ATOM     15  C   UNL     1       1.249 -28.412  -9.204  1.00  0.00     0.000 C 
BRANCH  15  16
ATOM     16  C   UNL     1       0.908 -28.798  -7.753  1.00  0.00     0.003 C 
BRANCH  16  17
ATOM     17  C   UNL     1      -0.605 -28.930  -7.515  1.00  0.00     0.042 C 
BRANCH  17  18
ATOM     18  C   UNL     1      -1.124 -30.376  -7.519  1.00  0.00     0.233 C 
BRANCH  18  19
ATOM     19  O   UNL     1      -1.794 -30.681  -8.743  1.00  0.00    -0.466 OA
BRANCH  19  20
ATOM     20  C   UNL     1      -1.299 -31.569  -9.703  1.00  0.00     0.302 C 
ATOM     21  O   UNL     1      -2.060 -32.075 -10.573  1.00  0.00    -0.253 OA
ATOM     22  C   UNL     1       0.158 -31.881  -9.731  1.00  0.00     0.139 C 
ENDBRANCH  19  20
ENDBRANCH  18  19
ENDBRANCH  17  18
ENDBRANCH  16  17
ENDBRANCH  15  16
ENDBRANCH  14  15
ENDBRANCH  13  14
ENDBRANCH   1  13
TORSDOF 16
ENDMDL
