MODEL 1
REMARK VINA RESULT:    -1.049      0.000      0.000
REMARK INTER + INTRA:          -2.617
REMARK INTER:                  -1.969
REMARK INTRA:                  -0.648
REMARK UNBOUND:                -0.648
REMARK SMILES O=C([O-])CCCCCCCCCCCCCCC(=O)[O-]
REMARK SMILES IDX 10 1 9 2 8 3 7 4 6 5 5 6 4 7 2 8 1 9 3 10 11 11 12 12 13 13
REMARK SMILES IDX 14 14 15 15 16 16 17 17 18 18 19 19 20 20
REMARK H PARENT
REMARK Flexibility Score: inf
ROOT
ATOM      1  C   UNL     1      -0.216  -0.002   0.116  1.00  0.00     0.000 C 
ENDROOT
BRANCH   1   2
ATOM      2  C   UNL     1      -0.453  -1.229  -0.776  1.00  0.00     0.000 C 
BRANCH   2   3
ATOM      3  C   UNL     1      -1.713  -1.090  -1.646  1.00  0.00     0.000 C 
BRANCH   3   4
ATOM      4  C   UNL     1      -2.987  -1.535  -0.909  1.00  0.00     0.000 C 
BRANCH   4   5
ATOM      5  C   UNL     1      -3.385  -2.989  -1.226  1.00  0.00     0.000 C 
BRANCH   5   6
ATOM      6  C   UNL     1      -2.814  -4.047  -0.259  1.00  0.00     0.006 C 
BRANCH   6   7
ATOM      7  C   UNL     1      -2.545  -5.419  -0.900  1.00  0.00     0.053 C 
BRANCH   7   8
ATOM      8  C   UNL     1      -3.628  -6.406  -0.587  1.00  0.00     0.041 C 
ATOM      9  O   UNL     1      -3.472  -7.625  -0.859  1.00  0.00    -0.550 OA
ATOM     10  O   UNL     1      -4.824  -5.973  -0.027  1.00  0.00    -0.550 OA
ENDBRANCH   7   8
ENDBRANCH   6   7
ENDBRANCH   5   6
ENDBRANCH   4   5
ENDBRANCH   3   4
ENDBRANCH   2   3
ENDBRANCH   1   2
BRANCH   1  11
ATOM     11  C   UNL     1      -0.051   1.269  -0.732  1.00  0.00     0.000 C 
BRANCH  11  12
ATOM     12  C   UNL     1       0.934   1.087  -1.903  1.00  0.00     0.000 C 
BRANCH  12  13
ATOM     13  C   UNL     1       2.240   0.350  -1.552  1.00  0.00     0.000 C 
BRANCH  13  14
ATOM     14  C   UNL     1       3.206   1.208  -0.716  1.00  0.00     0.000 C 
BRANCH  14  15
ATOM     15  C   UNL     1       3.218   2.680  -1.160  1.00  0.00     0.000 C 
BRANCH  15  16
ATOM     16  C   UNL     1       2.646   3.627  -0.089  1.00  0.00     0.006 C 
BRANCH  16  17
ATOM     17  C   UNL     1       2.325   5.015  -0.658  1.00  0.00     0.053 C 
BRANCH  17  18
ATOM     18  C   UNL     1       3.416   6.000  -0.367  1.00  0.00     0.041 C 
ATOM     19  O   UNL     1       3.293   7.205  -0.712  1.00  0.00    -0.550 OA
ATOM     20  O   UNL     1       4.576   5.580   0.273  1.00  0.00    -0.550 OA
ENDBRANCH  17  18
ENDBRANCH  16  17
ENDBRANCH  15  16
ENDBRANCH  14  15
ENDBRANCH  13  14
ENDBRANCH  12  13
ENDBRANCH  11  12
ENDBRANCH   1  11
TORSDOF 15
ENDMDL
MODEL 2
REMARK VINA RESULT:    -0.984      0.418     10.208
REMARK INTER + INTRA:          -2.494
REMARK INTER:                  -2.158
REMARK INTRA:                  -0.336
REMARK UNBOUND:                -0.648
REMARK SMILES O=C([O-])CCCCCCCCCCCCCCC(=O)[O-]
REMARK SMILES IDX 10 1 9 2 8 3 7 4 6 5 5 6 4 7 2 8 1 9 3 10 11 11 12 12 13 13
REMARK SMILES IDX 14 14 15 15 16 16 17 17 18 18 19 19 20 20
REMARK H PARENT
REMARK Flexibility Score: inf
ROOT
ATOM      1  C   UNL     1      -0.269   0.743  -0.091  1.00  0.00     0.000 C 
ENDROOT
BRANCH   1   2
ATOM      2  C   UNL     1       0.385   1.434  -1.296  1.00  0.00     0.000 C 
BRANCH   2   3
ATOM      3  C   UNL     1       1.702   0.760  -1.716  1.00  0.00     0.000 C 
BRANCH   3   4
ATOM      4  C   UNL     1       2.874   1.139  -0.795  1.00  0.00     0.000 C 
BRANCH   4   5
ATOM      5  C   UNL     1       3.345   2.592  -0.992  1.00  0.00     0.000 C 
BRANCH   5   6
ATOM      6  C   UNL     1       2.690   3.623  -0.049  1.00  0.00     0.006 C 
BRANCH   6   7
ATOM      7  C   UNL     1       2.407   4.990  -0.694  1.00  0.00     0.053 C 
BRANCH   7   8
ATOM      8  C   UNL     1       3.460   5.999  -0.354  1.00  0.00     0.041 C 
ATOM      9  O   UNL     1       4.551   5.631   0.155  1.00  0.00    -0.550 OA
ATOM     10  O   UNL     1       3.224   7.352  -0.567  1.00  0.00    -0.550 OA
ENDBRANCH   7   8
ENDBRANCH   6   7
ENDBRANCH   5   6
ENDBRANCH   4   5
ENDBRANCH   3   4
ENDBRANCH   2   3
ENDBRANCH   1   2
BRANCH   1  11
ATOM     11  C   UNL     1       0.048  -0.760  -0.081  1.00  0.00     0.000 C 
BRANCH  11  12
ATOM     12  C   UNL     1      -0.543  -1.507  -1.291  1.00  0.00     0.000 C 
BRANCH  12  13
ATOM     13  C   UNL     1      -1.877  -0.948  -1.821  1.00  0.00     0.000 C 
BRANCH  13  14
ATOM     14  C   UNL     1      -3.092  -1.435  -1.012  1.00  0.00     0.000 C 
BRANCH  14  15
ATOM     15  C   UNL     1      -3.396  -2.924  -1.246  1.00  0.00     0.000 C 
BRANCH  15  16
ATOM     16  C   UNL     1      -2.701  -3.840  -0.222  1.00  0.00     0.006 C 
BRANCH  16  17
ATOM     17  C   UNL     1      -2.339  -5.205  -0.821  1.00  0.00     0.053 C 
BRANCH  17  18
ATOM     18  C   UNL     1      -3.449  -6.197  -0.650  1.00  0.00     0.041 C 
ATOM     19  O   UNL     1      -3.320  -7.374  -1.080  1.00  0.00    -0.550 OA
ATOM     20  O   UNL     1      -4.632  -5.814  -0.032  1.00  0.00    -0.550 OA
ENDBRANCH  17  18
ENDBRANCH  16  17
ENDBRANCH  15  16
ENDBRANCH  14  15
ENDBRANCH  13  14
ENDBRANCH  12  13
ENDBRANCH  11  12
ENDBRANCH   1  11
TORSDOF 15
ENDMDL
MODEL 3
REMARK VINA RESULT:    -0.880      0.641     10.009
REMARK INTER + INTRA:          -2.299
REMARK INTER:                  -2.212
REMARK INTRA:                  -0.087
REMARK UNBOUND:                -0.648
REMARK SMILES O=C([O-])CCCCCCCCCCCCCCC(=O)[O-]
REMARK SMILES IDX 10 1 9 2 8 3 7 4 6 5 5 6 4 7 2 8 1 9 3 10 11 11 12 12 13 13
REMARK SMILES IDX 14 14 15 15 16 16 17 17 18 18 19 19 20 20
REMARK H PARENT
REMARK Flexibility Score: inf
ROOT
ATOM      1  C   UNL     1       0.147  -0.010  -0.116  1.00  0.00     0.000 C 
ENDROOT
BRANCH   1   2
ATOM      2  C   UNL     1       1.103  -0.599  -1.164  1.00  0.00     0.000 C 
BRANCH   2   3
ATOM      3  C   UNL     1       1.901   0.485  -1.907  1.00  0.00     0.000 C 
BRANCH   3   4
ATOM      4  C   UNL     1       2.988   1.120  -1.025  1.00  0.00     0.000 C 
BRANCH   4   5
ATOM      5  C   UNL     1       3.070   2.650  -1.183  1.00  0.00     0.000 C 
BRANCH   5   6
ATOM      6  C   UNL     1       2.039   3.447  -0.357  1.00  0.00     0.006 C 
BRANCH   6   7
ATOM      7  C   UNL     1       1.990   4.951  -0.675  1.00  0.00     0.053 C 
BRANCH   7   8
ATOM      8  C   UNL     1       3.285   5.633  -0.355  1.00  0.00     0.041 C 
ATOM      9  O   UNL     1       4.210   5.001   0.218  1.00  0.00    -0.550 OA
ATOM     10  O   UNL     1       3.457   6.978  -0.658  1.00  0.00    -0.550 OA
ENDBRANCH   7   8
ENDBRANCH   6   7
ENDBRANCH   5   6
ENDBRANCH   4   5
ENDBRANCH   3   4
ENDBRANCH   2   3
ENDBRANCH   1   2
BRANCH   1  11
ATOM     11  C   UNL     1      -0.750   1.071  -0.738  1.00  0.00     0.000 C 
BRANCH  11  12
ATOM     12  C   UNL     1      -1.684   0.521  -1.832  1.00  0.00     0.000 C 
BRANCH  12  13
ATOM     13  C   UNL     1      -1.868  -1.008  -1.830  1.00  0.00     0.000 C 
BRANCH  13  14
ATOM     14  C   UNL     1      -3.079  -1.464  -0.996  1.00  0.00     0.000 C 
BRANCH  14  15
ATOM     15  C   UNL     1      -3.368  -2.966  -1.153  1.00  0.00     0.000 C 
BRANCH  15  16
ATOM     16  C   UNL     1      -2.410  -3.845  -0.327  1.00  0.00     0.006 C 
BRANCH  16  17
ATOM     17  C   UNL     1      -2.283  -5.260  -0.904  1.00  0.00     0.053 C 
BRANCH  17  18
ATOM     18  C   UNL     1      -3.488  -6.095  -0.596  1.00  0.00     0.041 C 
ATOM     19  O   UNL     1      -4.488  -5.583  -0.027  1.00  0.00    -0.550 OA
ATOM     20  O   UNL     1      -3.497  -7.446  -0.922  1.00  0.00    -0.550 OA
ENDBRANCH  17  18
ENDBRANCH  16  17
ENDBRANCH  15  16
ENDBRANCH  14  15
ENDBRANCH  13  14
ENDBRANCH  12  13
ENDBRANCH  11  12
ENDBRANCH   1  11
TORSDOF 15
ENDMDL
MODEL 4
REMARK VINA RESULT:    -0.794      0.996      9.751
REMARK INTER + INTRA:          -2.138
REMARK INTER:                  -2.034
REMARK INTRA:                  -0.104
REMARK UNBOUND:                -0.648
REMARK SMILES O=C([O-])CCCCCCCCCCCCCCC(=O)[O-]
REMARK SMILES IDX 10 1 9 2 8 3 7 4 6 5 5 6 4 7 2 8 1 9 3 10 11 11 12 12 13 13
REMARK SMILES IDX 14 14 15 15 16 16 17 17 18 18 19 19 20 20
REMARK H PARENT
REMARK Flexibility Score: inf
ROOT
ATOM      1  C   UNL     1       0.225   0.994  -0.513  1.00  0.00     0.000 C 
ENDROOT
BRANCH   1   2
ATOM      2  C   UNL     1       0.926   0.756  -1.859  1.00  0.00     0.000 C 
BRANCH   2   3
ATOM      3  C   UNL     1       2.426   0.463  -1.695  1.00  0.00     0.000 C 
BRANCH   3   4
ATOM      4  C   UNL     1       3.094   1.383  -0.660  1.00  0.00     0.000 C 
BRANCH   4   5
ATOM      5  C   UNL     1       3.100   2.862  -1.087  1.00  0.00     0.000 C 
BRANCH   5   6
ATOM      6  C   UNL     1       2.312   3.812  -0.162  1.00  0.00     0.006 C 
BRANCH   6   7
ATOM      7  C   UNL     1       2.201   5.258  -0.674  1.00  0.00     0.053 C 
BRANCH   7   8
ATOM      8  C   UNL     1       3.413   6.068  -0.330  1.00  0.00     0.041 C 
ATOM      9  O   UNL     1       3.447   7.300  -0.588  1.00  0.00    -0.550 OA
ATOM     10  O   UNL     1       4.521   5.456   0.244  1.00  0.00    -0.550 OA
ENDBRANCH   7   8
ENDBRANCH   6   7
ENDBRANCH   5   6
ENDBRANCH   4   5
ENDBRANCH   3   4
ENDBRANCH   2   3
ENDBRANCH   1   2
BRANCH   1  11
ATOM     11  C   UNL     1       0.008  -0.330   0.234  1.00  0.00     0.000 C 
BRANCH  11  12
ATOM     12  C   UNL     1      -0.320  -1.505  -0.706  1.00  0.00     0.000 C 
BRANCH  12  13
ATOM     13  C   UNL     1      -1.256  -1.164  -1.880  1.00  0.00     0.000 C 
BRANCH  13  14
ATOM     14  C   UNL     1      -2.577  -0.519  -1.424  1.00  0.00     0.000 C 
BRANCH  14  15
ATOM     15  C   UNL     1      -3.487  -1.508  -0.678  1.00  0.00     0.000 C 
BRANCH  15  16
ATOM     16  C   UNL     1      -3.429  -2.929  -1.268  1.00  0.00     0.006 C 
BRANCH  16  17
ATOM     17  C   UNL     1      -3.238  -3.997  -0.184  1.00  0.00     0.053 C 
BRANCH  17  18
ATOM     18  C   UNL     1      -2.306  -5.082  -0.632  1.00  0.00     0.041 C 
ATOM     19  O   UNL     1      -2.760  -6.133  -1.157  1.00  0.00    -0.550 OA
ATOM     20  O   UNL     1      -0.936  -4.936  -0.452  1.00  0.00    -0.550 OA
ENDBRANCH  17  18
ENDBRANCH  16  17
ENDBRANCH  15  16
ENDBRANCH  14  15
ENDBRANCH  13  14
ENDBRANCH  12  13
ENDBRANCH  11  12
ENDBRANCH   1  11
TORSDOF 15
ENDMDL
MODEL 5
REMARK VINA RESULT:    -0.791      0.910      1.604
REMARK INTER + INTRA:          -2.133
REMARK INTER:                  -1.899
REMARK INTRA:                  -0.233
REMARK UNBOUND:                -0.648
REMARK SMILES O=C([O-])CCCCCCCCCCCCCCC(=O)[O-]
REMARK SMILES IDX 10 1 9 2 8 3 7 4 6 5 5 6 4 7 2 8 1 9 3 10 11 11 12 12 13 13
REMARK SMILES IDX 14 14 15 15 16 16 17 17 18 18 19 19 20 20
REMARK H PARENT
REMARK Flexibility Score: inf
ROOT
ATOM      1  C   UNL     1      -0.302  -1.316  -0.644  1.00  0.00     0.000 C 
ENDROOT
BRANCH   1   2
ATOM      2  C   UNL     1      -1.207  -1.236  -1.882  1.00  0.00     0.000 C 
BRANCH   2   3
ATOM      3  C   UNL     1      -2.605  -0.686  -1.554  1.00  0.00     0.000 C 
BRANCH   3   4
ATOM      4  C   UNL     1      -3.438  -1.667  -0.713  1.00  0.00     0.000 C 
BRANCH   4   5
ATOM      5  C   UNL     1      -3.346  -3.119  -1.220  1.00  0.00     0.000 C 
BRANCH   5   6
ATOM      6  C   UNL     1      -2.600  -4.091  -0.283  1.00  0.00     0.006 C 
BRANCH   6   7
ATOM      7  C   UNL     1      -2.453  -5.521  -0.830  1.00  0.00     0.053 C 
BRANCH   7   8
ATOM      8  C   UNL     1      -3.666  -6.355  -0.551  1.00  0.00     0.041 C 
ATOM      9  O   UNL     1      -4.683  -5.837  -0.021  1.00  0.00    -0.550 OA
ATOM     10  O   UNL     1      -3.660  -7.713  -0.846  1.00  0.00    -0.550 OA
ENDBRANCH   7   8
ENDBRANCH   6   7
ENDBRANCH   5   6
ENDBRANCH   4   5
ENDBRANCH   3   4
ENDBRANCH   2   3
ENDBRANCH   1   2
BRANCH   1  11
ATOM     11  C   UNL     1      -0.353  -0.007   0.158  1.00  0.00     0.000 C 
BRANCH  11  12
ATOM     12  C   UNL     1       0.021   1.229  -0.682  1.00  0.00     0.000 C 
BRANCH  12  13
ATOM     13  C   UNL     1       1.052   0.976  -1.798  1.00  0.00     0.000 C 
BRANCH  13  14
ATOM     14  C   UNL     1       2.327   0.281  -1.288  1.00  0.00     0.000 C 
BRANCH  14  15
ATOM     15  C   UNL     1       3.322   1.270  -0.657  1.00  0.00     0.000 C 
BRANCH  15  16
ATOM     16  C   UNL     1       3.199   2.689  -1.240  1.00  0.00     0.006 C 
BRANCH  16  17
ATOM     17  C   UNL     1       3.164   3.762  -0.145  1.00  0.00     0.053 C 
BRANCH  17  18
ATOM     18  C   UNL     1       2.227   4.879  -0.492  1.00  0.00     0.041 C 
ATOM     19  O   UNL     1       2.678   6.002  -0.841  1.00  0.00    -0.550 OA
ATOM     20  O   UNL     1       0.854   4.682  -0.413  1.00  0.00    -0.550 OA
ENDBRANCH  17  18
ENDBRANCH  16  17
ENDBRANCH  15  16
ENDBRANCH  14  15
ENDBRANCH  13  14
ENDBRANCH  12  13
ENDBRANCH  11  12
ENDBRANCH   1  11
TORSDOF 15
ENDMDL
MODEL 6
REMARK VINA RESULT:    -0.714      0.932      1.396
REMARK INTER + INTRA:          -1.988
REMARK INTER:                  -1.415
REMARK INTRA:                  -0.573
REMARK UNBOUND:                -0.648
REMARK SMILES O=C([O-])CCCCCCCCCCCCCCC(=O)[O-]
REMARK SMILES IDX 10 1 9 2 8 3 7 4 6 5 5 6 4 7 2 8 1 9 3 10 11 11 12 12 13 13
REMARK SMILES IDX 14 14 15 15 16 16 17 17 18 18 19 19 20 20
REMARK H PARENT
REMARK Flexibility Score: inf
ROOT
ATOM      1  C   UNL     1      -0.013  -0.075   0.045  1.00  0.00     0.000 C 
ENDROOT
BRANCH   1   2
ATOM      2  C   UNL     1      -0.394  -1.326  -0.760  1.00  0.00     0.000 C 
BRANCH   2   3
ATOM      3  C   UNL     1      -1.444  -1.031  -1.843  1.00  0.00     0.000 C 
BRANCH   3   4
ATOM      4  C   UNL     1      -2.786  -0.572  -1.249  1.00  0.00     0.000 C 
BRANCH   4   5
ATOM      5  C   UNL     1      -3.608  -1.733  -0.659  1.00  0.00     0.000 C 
BRANCH   5   6
ATOM      6  C   UNL     1      -3.336  -3.113  -1.294  1.00  0.00     0.006 C 
BRANCH   6   7
ATOM      7  C   UNL     1      -3.366  -4.290  -0.304  1.00  0.00     0.053 C 
BRANCH   7   8
ATOM      8  C   UNL     1      -2.337  -5.327  -0.636  1.00  0.00     0.041 C 
ATOM      9  O   UNL     1      -2.692  -6.472  -1.020  1.00  0.00    -0.550 OA
ATOM     10  O   UNL     1      -0.985  -5.041  -0.488  1.00  0.00    -0.550 OA
ENDBRANCH   7   8
ENDBRANCH   6   7
ENDBRANCH   5   6
ENDBRANCH   4   5
ENDBRANCH   3   4
ENDBRANCH   2   3
ENDBRANCH   1   2
BRANCH   1  11
ATOM     11  C   UNL     1       0.017   1.169  -0.856  1.00  0.00     0.000 C 
BRANCH  11  12
ATOM     12  C   UNL     1       1.095   1.092  -1.952  1.00  0.00     0.000 C 
BRANCH  12  13
ATOM     13  C   UNL     1       2.389   0.359  -1.549  1.00  0.00     0.000 C 
BRANCH  13  14
ATOM     14  C   UNL     1       3.340   1.238  -0.716  1.00  0.00     0.000 C 
BRANCH  14  15
ATOM     15  C   UNL     1       3.312   2.712  -1.154  1.00  0.00     0.000 C 
BRANCH  15  16
ATOM     16  C   UNL     1       2.688   3.634  -0.090  1.00  0.00     0.006 C 
BRANCH  16  17
ATOM     17  C   UNL     1       2.383   5.031  -0.645  1.00  0.00     0.053 C 
BRANCH  17  18
ATOM     18  C   UNL     1       3.476   6.006  -0.326  1.00  0.00     0.041 C 
ATOM     19  O   UNL     1       4.548   5.608   0.202  1.00  0.00    -0.550 OA
ATOM     20  O   UNL     1       3.300   7.357  -0.597  1.00  0.00    -0.550 OA
ENDBRANCH  17  18
ENDBRANCH  16  17
ENDBRANCH  15  16
ENDBRANCH  14  15
ENDBRANCH  13  14
ENDBRANCH  12  13
ENDBRANCH  11  12
ENDBRANCH   1  11
TORSDOF 15
ENDMDL
MODEL 7
REMARK VINA RESULT:    -0.066      1.641      9.561
REMARK INTER + INTRA:          -0.772
REMARK INTER:                   0.111
REMARK INTRA:                  -0.883
REMARK UNBOUND:                -0.648
REMARK SMILES O=C([O-])CCCCCCCCCCCCCCC(=O)[O-]
REMARK SMILES IDX 10 1 9 2 8 3 7 4 6 5 5 6 4 7 2 8 1 9 3 10 11 11 12 12 13 13
REMARK SMILES IDX 14 14 15 15 16 16 17 17 18 18 19 19 20 20
REMARK H PARENT
REMARK Flexibility Score: inf
ROOT
ATOM      1  C   UNL     1       0.643   0.192  -0.999  1.00  0.00     0.000 C 
ENDROOT
BRANCH   1   2
ATOM      2  C   UNL     1      -0.041   1.179  -0.042  1.00  0.00     0.000 C 
BRANCH   2   3
ATOM      3  C   UNL     1      -0.246   2.565  -0.675  1.00  0.00     0.000 C 
BRANCH   3   4
ATOM      4  C   UNL     1       0.251   3.703   0.231  1.00  0.00     0.000 C 
BRANCH   4   5
ATOM      5  C   UNL     1       0.912   4.850  -0.556  1.00  0.00     0.000 C 
BRANCH   5   6
ATOM      6  C   UNL     1       2.447   4.758  -0.678  1.00  0.00     0.006 C 
BRANCH   6   7
ATOM      7  C   UNL     1       3.080   3.584   0.088  1.00  0.00     0.053 C 
BRANCH   7   8
ATOM      8  C   UNL     1       3.307   2.396  -0.795  1.00  0.00     0.041 C 
ATOM      9  O   UNL     1       2.999   2.444  -2.014  1.00  0.00    -0.550 OA
ATOM     10  O   UNL     1       3.827   1.222  -0.263  1.00  0.00    -0.550 OA
ENDBRANCH   7   8
ENDBRANCH   6   7
ENDBRANCH   5   6
ENDBRANCH   4   5
ENDBRANCH   3   4
ENDBRANCH   2   3
ENDBRANCH   1   2
BRANCH   1  11
ATOM     11  C   UNL     1      -0.125  -1.137  -1.059  1.00  0.00     0.000 C 
BRANCH  11  12
ATOM     12  C   UNL     1      -1.304  -1.106  -2.050  1.00  0.00     0.000 C 
BRANCH  12  13
ATOM     13  C   UNL     1      -2.627  -0.560  -1.479  1.00  0.00     0.000 C 
BRANCH  13  14
ATOM     14  C   UNL     1      -3.369  -1.585  -0.603  1.00  0.00     0.000 C 
BRANCH  14  15
ATOM     15  C   UNL     1      -3.316  -3.006  -1.189  1.00  0.00     0.000 C 
BRANCH  15  16
ATOM     16  C   UNL     1      -2.694  -4.026  -0.217  1.00  0.00     0.006 C 
BRANCH  16  17
ATOM     17  C   UNL     1      -2.448  -5.384  -0.885  1.00  0.00     0.053 C 
BRANCH  17  18
ATOM     18  C   UNL     1      -3.564  -6.346  -0.613  1.00  0.00     0.041 C 
ATOM     19  O   UNL     1      -3.440  -7.564  -0.910  1.00  0.00    -0.550 OA
ATOM     20  O   UNL     1      -4.748  -5.892  -0.045  1.00  0.00    -0.550 OA
ENDBRANCH  17  18
ENDBRANCH  16  17
ENDBRANCH  15  16
ENDBRANCH  14  15
ENDBRANCH  13  14
ENDBRANCH  12  13
ENDBRANCH  11  12
ENDBRANCH   1  11
TORSDOF 15
ENDMDL
MODEL 8
REMARK VINA RESULT:     0.068      2.152      3.132
REMARK INTER + INTRA:          -0.520
REMARK INTER:                  -0.726
REMARK INTRA:                   0.206
REMARK UNBOUND:                -0.648
REMARK SMILES O=C([O-])CCCCCCCCCCCCCCC(=O)[O-]
REMARK SMILES IDX 10 1 9 2 8 3 7 4 6 5 5 6 4 7 2 8 1 9 3 10 11 11 12 12 13 13
REMARK SMILES IDX 14 14 15 15 16 16 17 17 18 18 19 19 20 20
REMARK H PARENT
REMARK Flexibility Score: inf
ROOT
ATOM      1  C   UNL     1      -0.291   0.806   0.222  1.00  0.00     0.000 C 
ENDROOT
BRANCH   1   2
ATOM      2  C   UNL     1      -0.182  -0.714   0.033  1.00  0.00     0.000 C 
BRANCH   2   3
ATOM      3  C   UNL     1      -0.525  -1.154  -1.399  1.00  0.00     0.000 C 
BRANCH   3   4
ATOM      4  C   UNL     1      -1.925  -0.694  -1.835  1.00  0.00     0.000 C 
BRANCH   4   5
ATOM      5  C   UNL     1      -3.053  -1.355  -1.021  1.00  0.00     0.000 C 
BRANCH   5   6
ATOM      6  C   UNL     1      -3.320  -2.837  -1.360  1.00  0.00     0.006 C 
BRANCH   6   7
ATOM      7  C   UNL     1      -3.068  -3.814  -0.199  1.00  0.00     0.053 C 
BRANCH   7   8
ATOM      8  C   UNL     1      -2.253  -4.995  -0.627  1.00  0.00     0.041 C 
ATOM      9  O   UNL     1      -2.814  -6.006  -1.124  1.00  0.00    -0.550 OA
ATOM     10  O   UNL     1      -0.875  -4.993  -0.447  1.00  0.00    -0.550 OA
ENDBRANCH   7   8
ENDBRANCH   6   7
ENDBRANCH   5   6
ENDBRANCH   4   5
ENDBRANCH   3   4
ENDBRANCH   2   3
ENDBRANCH   1   2
BRANCH   1  11
ATOM     11  C   UNL     1      -0.676   1.496  -1.095  1.00  0.00     0.000 C 
BRANCH  11  12
ATOM     12  C   UNL     1      -0.616   3.033  -1.009  1.00  0.00     0.000 C 
BRANCH  12  13
ATOM     13  C   UNL     1       0.367   3.593   0.037  1.00  0.00     0.000 C 
BRANCH  13  14
ATOM     14  C   UNL     1       0.894   4.993  -0.328  1.00  0.00     0.000 C 
BRANCH  14  15
ATOM     15  C   UNL     1       2.426   5.029  -0.454  1.00  0.00     0.000 C 
BRANCH  15  16
ATOM     16  C   UNL     1       3.069   3.641  -0.272  1.00  0.00     0.006 C 
BRANCH  16  17
ATOM     17  C   UNL     1       2.976   2.791  -1.545  1.00  0.00     0.053 C 
BRANCH  17  18
ATOM     18  C   UNL     1       2.890   1.328  -1.229  1.00  0.00     0.041 C 
ATOM     19  O   UNL     1       3.448   0.866  -0.199  1.00  0.00    -0.550 OA
ATOM     20  O   UNL     1       2.208   0.473  -2.087  1.00  0.00    -0.550 OA
ENDBRANCH  17  18
ENDBRANCH  16  17
ENDBRANCH  15  16
ENDBRANCH  14  15
ENDBRANCH  13  14
ENDBRANCH  12  13
ENDBRANCH  11  12
ENDBRANCH   1  11
TORSDOF 15
ENDMDL
MODEL 9
REMARK VINA RESULT:     0.264      2.100      8.768
REMARK INTER + INTRA:          -0.153
REMARK INTER:                  -0.053
REMARK INTRA:                  -0.100
REMARK UNBOUND:                -0.648
REMARK SMILES O=C([O-])CCCCCCCCCCCCCCC(=O)[O-]
REMARK SMILES IDX 10 1 9 2 8 3 7 4 6 5 5 6 4 7 2 8 1 9 3 10 11 11 12 12 13 13
REMARK SMILES IDX 14 14 15 15 16 16 17 17 18 18 19 19 20 20
REMARK H PARENT
REMARK Flexibility Score: inf
ROOT
ATOM      1  C   UNL     1      -0.201   1.224  -0.713  1.00  0.00     0.000 C 
ENDROOT
BRANCH   1   2
ATOM      2  C   UNL     1      -0.155   2.498   0.143  1.00  0.00     0.000 C 
BRANCH   2   3
ATOM      3  C   UNL     1      -0.014   3.772  -0.705  1.00  0.00     0.000 C 
BRANCH   3   4
ATOM      4  C   UNL     1       0.794   4.867   0.009  1.00  0.00     0.000 C 
BRANCH   4   5
ATOM      5  C   UNL     1       2.224   5.014  -0.544  1.00  0.00     0.000 C 
BRANCH   5   6
ATOM      6  C   UNL     1       3.108   3.757  -0.407  1.00  0.00     0.006 C 
BRANCH   6   7
ATOM      7  C   UNL     1       3.034   2.790  -1.601  1.00  0.00     0.053 C 
BRANCH   7   8
ATOM      8  C   UNL     1       3.065   1.358  -1.165  1.00  0.00     0.041 C 
ATOM      9  O   UNL     1       2.460   0.478  -1.832  1.00  0.00    -0.550 OA
ATOM     10  O   UNL     1       3.734   0.998  -0.001  1.00  0.00    -0.550 OA
ENDBRANCH   7   8
ENDBRANCH   6   7
ENDBRANCH   5   6
ENDBRANCH   4   5
ENDBRANCH   3   4
ENDBRANCH   2   3
ENDBRANCH   1   2
BRANCH   1  11
ATOM     11  C   UNL     1      -0.056  -0.031   0.161  1.00  0.00     0.000 C 
BRANCH  11  12
ATOM     12  C   UNL     1      -0.199  -1.340  -0.638  1.00  0.00     0.000 C 
BRANCH  12  13
ATOM     13  C   UNL     1      -1.035  -1.234  -1.927  1.00  0.00     0.000 C 
BRANCH  13  14
ATOM     14  C   UNL     1      -2.417  -0.599  -1.694  1.00  0.00     0.000 C 
BRANCH  14  15
ATOM     15  C   UNL     1      -3.315  -1.462  -0.791  1.00  0.00     0.000 C 
BRANCH  15  16
ATOM     16  C   UNL     1      -3.390  -2.928  -1.255  1.00  0.00     0.006 C 
BRANCH  16  17
ATOM     17  C   UNL     1      -3.052  -3.909  -0.126  1.00  0.00     0.053 C 
BRANCH  17  18
ATOM     18  C   UNL     1      -2.200  -5.042  -0.611  1.00  0.00     0.041 C 
ATOM     19  O   UNL     1      -2.729  -6.046  -1.158  1.00  0.00    -0.550 OA
ATOM     20  O   UNL     1      -0.822  -4.995  -0.442  1.00  0.00    -0.550 OA
ENDBRANCH  17  18
ENDBRANCH  16  17
ENDBRANCH  15  16
ENDBRANCH  14  15
ENDBRANCH  13  14
ENDBRANCH  12  13
ENDBRANCH  11  12
ENDBRANCH   1  11
TORSDOF 15
ENDMDL
