MODEL 1
REMARK VINA RESULT:    -4.425      0.000      0.000
REMARK INTER + INTRA:          -9.411
REMARK INTER:                  -7.788
REMARK INTRA:                  -1.624
REMARK UNBOUND:                -1.624
REMARK SMILES CCCCCCCCCCCCCCC(=O)[O-]
REMARK SMILES IDX 9 1 10 2 11 3 12 4 13 5 14 6 15 7 16 8 17 9 8 10 7 11 6 12
REMARK SMILES IDX 5 13 4 14 3 15 2 16 1 17
REMARK H PARENT
REMARK Flexibility Score: inf
ROOT
ATOM      1  C   UNL     1      -2.573  -0.017  28.631  1.00  0.00     0.000 C 
ENDROOT
BRANCH   1   2
ATOM      2  C   UNL     1      -2.432  -0.696  27.263  1.00  0.00     0.000 C 
BRANCH   2   3
ATOM      3  C   UNL     1      -1.023  -0.501  26.692  1.00  0.00     0.000 C 
BRANCH   3   4
ATOM      4  C   UNL     1      -0.049  -0.025  27.776  1.00  0.00     0.000 C 
BRANCH   4   5
ATOM      5  C   UNL     1       0.695   1.240  27.331  1.00  0.00     0.006 C 
BRANCH   5   6
ATOM      6  C   UNL     1      -0.280   2.289  26.789  1.00  0.00     0.053 C 
BRANCH   6   7
ATOM      7  C   UNL     1       0.384   3.129  25.744  1.00  0.00     0.041 C 
ATOM      8  O   UNL     1      -0.311   3.808  24.941  1.00  0.00    -0.550 OA
ATOM      9  O   UNL     1       1.770   3.202  25.687  1.00  0.00    -0.550 OA
ENDBRANCH   6   7
ENDBRANCH   5   6
ENDBRANCH   4   5
ENDBRANCH   3   4
ENDBRANCH   2   3
ENDBRANCH   1   2
BRANCH   1  10
ATOM     10  C   UNL     1      -4.010  -0.135  29.159  1.00  0.00     0.000 C 
BRANCH  10  11
ATOM     11  C   UNL     1      -4.889  -1.046  28.286  1.00  0.00    -0.000 C 
BRANCH  11  12
ATOM     12  C   UNL     1      -5.473  -2.232  29.074  1.00  0.00    -0.000 C 
BRANCH  12  13
ATOM     13  C   UNL     1      -5.588  -3.507  28.224  1.00  0.00    -0.000 C 
BRANCH  13  14
ATOM     14  C   UNL     1      -4.562  -4.581  28.618  1.00  0.00    -0.000 C 
BRANCH  14  15
ATOM     15  C   UNL     1      -3.346  -3.950  29.311  1.00  0.00    -0.000 C 
BRANCH  15  16
ATOM     16  C   UNL     1      -2.058  -4.086  28.483  1.00  0.00    -0.003 C 
ATOM     17  C   UNL     1      -0.837  -3.494  29.189  1.00  0.00     0.004 C 
ENDBRANCH  15  16
ENDBRANCH  14  15
ENDBRANCH  13  14
ENDBRANCH  12  13
ENDBRANCH  11  12
ENDBRANCH  10  11
ENDBRANCH   1  10
TORSDOF 13
ENDMDL
MODEL 2
REMARK VINA RESULT:    -4.344      4.298      6.556
REMARK INTER + INTRA:          -9.269
REMARK INTER:                  -7.933
REMARK INTRA:                  -1.336
REMARK UNBOUND:                -1.624
REMARK SMILES CCCCCCCCCCCCCCC(=O)[O-]
REMARK SMILES IDX 9 1 10 2 11 3 12 4 13 5 14 6 15 7 16 8 17 9 8 10 7 11 6 12
REMARK SMILES IDX 5 13 4 14 3 15 2 16 1 17
REMARK H PARENT
REMARK Flexibility Score: inf
ROOT
ATOM      1  C   UNL     1      -4.901   1.805  30.016  1.00  0.00     0.000 C 
ENDROOT
BRANCH   1   2
ATOM      2  C   UNL     1      -5.795   0.721  29.402  1.00  0.00     0.000 C 
BRANCH   2   3
ATOM      3  C   UNL     1      -4.958  -0.342  28.681  1.00  0.00     0.000 C 
BRANCH   3   4
ATOM      4  C   UNL     1      -4.999  -1.679  29.431  1.00  0.00     0.000 C 
BRANCH   4   5
ATOM      5  C   UNL     1      -4.624  -2.842  28.504  1.00  0.00     0.006 C 
BRANCH   5   6
ATOM      6  C   UNL     1      -5.854  -3.687  28.158  1.00  0.00     0.053 C 
BRANCH   6   7
ATOM      7  C   UNL     1      -5.656  -5.102  28.598  1.00  0.00     0.041 C 
ATOM      8  O   UNL     1      -5.424  -5.362  29.809  1.00  0.00    -0.550 OA
ATOM      9  O   UNL     1      -5.776  -6.139  27.682  1.00  0.00    -0.550 OA
ENDBRANCH   6   7
ENDBRANCH   5   6
ENDBRANCH   4   5
ENDBRANCH   3   4
ENDBRANCH   2   3
ENDBRANCH   1   2
BRANCH   1  10
ATOM     10  C   UNL     1      -3.431   1.360  30.034  1.00  0.00     0.000 C 
BRANCH  10  11
ATOM     11  C   UNL     1      -2.484   2.418  29.442  1.00  0.00    -0.000 C 
BRANCH  11  12
ATOM     12  C   UNL     1      -1.404   1.801  28.536  1.00  0.00    -0.000 C 
BRANCH  12  13
ATOM     13  C   UNL     1      -1.436   0.265  28.541  1.00  0.00    -0.000 C 
BRANCH  13  14
ATOM     14  C   UNL     1      -1.376  -0.338  27.129  1.00  0.00    -0.000 C 
BRANCH  14  15
ATOM     15  C   UNL     1      -0.500  -1.599  27.107  1.00  0.00    -0.000 C 
BRANCH  15  16
ATOM     16  C   UNL     1      -0.248  -2.168  28.512  1.00  0.00    -0.003 C 
ATOM     17  C   UNL     1      -1.034  -3.452  28.780  1.00  0.00     0.004 C 
ENDBRANCH  15  16
ENDBRANCH  14  15
ENDBRANCH  13  14
ENDBRANCH  12  13
ENDBRANCH  11  12
ENDBRANCH  10  11
ENDBRANCH   1  10
TORSDOF 13
ENDMDL
MODEL 3
REMARK VINA RESULT:    -4.299      4.999      7.185
REMARK INTER + INTRA:          -9.189
REMARK INTER:                  -8.507
REMARK INTRA:                  -0.682
REMARK UNBOUND:                -1.624
REMARK SMILES CCCCCCCCCCCCCCC(=O)[O-]
REMARK SMILES IDX 9 1 10 2 11 3 12 4 13 5 14 6 15 7 16 8 17 9 8 10 7 11 6 12
REMARK SMILES IDX 5 13 4 14 3 15 2 16 1 17
REMARK H PARENT
REMARK Flexibility Score: inf
ROOT
ATOM      1  C   UNL     1      -5.857  -6.519  28.224  1.00  0.00     0.000 C 
ENDROOT
BRANCH   1   2
ATOM      2  C   UNL     1      -5.412  -5.052  28.250  1.00  0.00     0.000 C 
BRANCH   2   3
ATOM      3  C   UNL     1      -5.468  -4.483  29.672  1.00  0.00     0.000 C 
BRANCH   3   4
ATOM      4  C   UNL     1      -5.367  -2.953  29.659  1.00  0.00     0.000 C 
BRANCH   4   5
ATOM      5  C   UNL     1      -5.117  -2.430  28.239  1.00  0.00     0.006 C 
BRANCH   5   6
ATOM      6  C   UNL     1      -4.400  -1.077  28.270  1.00  0.00     0.053 C 
BRANCH   6   7
ATOM      7  C   UNL     1      -2.943  -1.251  27.983  1.00  0.00     0.041 C 
ATOM      8  O   UNL     1      -2.344  -0.437  27.230  1.00  0.00    -0.550 OA
ATOM      9  O   UNL     1      -2.233  -2.281  28.585  1.00  0.00    -0.550 OA
ENDBRANCH   6   7
ENDBRANCH   5   6
ENDBRANCH   4   5
ENDBRANCH   3   4
ENDBRANCH   2   3
ENDBRANCH   1   2
BRANCH   1  10
ATOM     10  C   UNL     1      -5.731  -7.156  29.616  1.00  0.00     0.000 C 
BRANCH  10  11
ATOM     11  C   UNL     1      -6.273  -8.595  29.661  1.00  0.00    -0.000 C 
BRANCH  11  12
ATOM     12  C   UNL     1      -5.631  -9.501  28.596  1.00  0.00    -0.000 C 
BRANCH  12  13
ATOM     13  C   UNL     1      -4.711 -10.570  29.208  1.00  0.00    -0.000 C 
BRANCH  13  14
ATOM     14  C   UNL     1      -3.990 -11.414  28.146  1.00  0.00    -0.000 C 
BRANCH  14  15
ATOM     15  C   UNL     1      -4.583 -11.167  26.752  1.00  0.00    -0.000 C 
BRANCH  15  16
ATOM     16  C   UNL     1      -4.614 -12.438  25.889  1.00  0.00    -0.003 C 
ATOM     17  C   UNL     1      -3.487 -12.479  24.856  1.00  0.00     0.004 C 
ENDBRANCH  15  16
ENDBRANCH  14  15
ENDBRANCH  13  14
ENDBRANCH  12  13
ENDBRANCH  11  12
ENDBRANCH  10  11
ENDBRANCH   1  10
TORSDOF 13
ENDMDL
MODEL 4
REMARK VINA RESULT:    -4.280      4.063      5.670
REMARK INTER + INTRA:          -9.156
REMARK INTER:                  -8.615
REMARK INTRA:                  -0.541
REMARK UNBOUND:                -1.624
REMARK SMILES CCCCCCCCCCCCCCC(=O)[O-]
REMARK SMILES IDX 9 1 10 2 11 3 12 4 13 5 14 6 15 7 16 8 17 9 8 10 7 11 6 12
REMARK SMILES IDX 5 13 4 14 3 15 2 16 1 17
REMARK H PARENT
REMARK Flexibility Score: inf
ROOT
ATOM      1  C   UNL     1      -5.360  -4.211  29.218  1.00  0.00     0.000 C 
ENDROOT
BRANCH   1   2
ATOM      2  C   UNL     1      -5.738  -2.884  28.549  1.00  0.00     0.000 C 
BRANCH   2   3
ATOM      3  C   UNL     1      -4.873  -1.734  29.076  1.00  0.00     0.000 C 
BRANCH   3   4
ATOM      4  C   UNL     1      -4.090  -1.066  27.940  1.00  0.00     0.000 C 
BRANCH   4   5
ATOM      5  C   UNL     1      -2.785  -0.450  28.458  1.00  0.00     0.006 C 
BRANCH   5   6
ATOM      6  C   UNL     1      -1.709  -0.445  27.369  1.00  0.00     0.053 C 
BRANCH   6   7
ATOM      7  C   UNL     1      -0.762  -1.586  27.564  1.00  0.00     0.041 C 
ATOM      8  O   UNL     1      -0.836  -2.301  28.600  1.00  0.00    -0.550 OA
ATOM      9  O   UNL     1       0.169  -1.894  26.581  1.00  0.00    -0.550 OA
ENDBRANCH   6   7
ENDBRANCH   5   6
ENDBRANCH   4   5
ENDBRANCH   3   4
ENDBRANCH   2   3
ENDBRANCH   1   2
BRANCH   1  10
ATOM     10  C   UNL     1      -5.040  -5.285  28.168  1.00  0.00     0.000 C 
BRANCH  10  11
ATOM     11  C   UNL     1      -5.971  -6.505  28.264  1.00  0.00    -0.000 C 
BRANCH  11  12
ATOM     12  C   UNL     1      -5.782  -7.288  29.576  1.00  0.00    -0.000 C 
BRANCH  12  13
ATOM     13  C   UNL     1      -6.240  -8.751  29.461  1.00  0.00    -0.000 C 
BRANCH  13  14
ATOM     14  C   UNL     1      -5.543  -9.506  28.320  1.00  0.00    -0.000 C 
BRANCH  14  15
ATOM     15  C   UNL     1      -4.675 -10.649  28.868  1.00  0.00    -0.000 C 
BRANCH  15  16
ATOM     16  C   UNL     1      -3.878 -11.365  27.767  1.00  0.00    -0.003 C 
ATOM     17  C   UNL     1      -4.678 -11.540  26.475  1.00  0.00     0.004 C 
ENDBRANCH  15  16
ENDBRANCH  14  15
ENDBRANCH  13  14
ENDBRANCH  12  13
ENDBRANCH  11  12
ENDBRANCH  10  11
ENDBRANCH   1  10
TORSDOF 13
ENDMDL
MODEL 5
REMARK VINA RESULT:    -4.257      2.839      5.939
REMARK INTER + INTRA:          -9.116
REMARK INTER:                  -8.005
REMARK INTRA:                  -1.110
REMARK UNBOUND:                -1.624
REMARK SMILES CCCCCCCCCCCCCCC(=O)[O-]
REMARK SMILES IDX 9 1 10 2 11 3 12 4 13 5 14 6 15 7 16 8 17 9 8 10 7 11 6 12
REMARK SMILES IDX 5 13 4 14 3 15 2 16 1 17
REMARK H PARENT
REMARK Flexibility Score: inf
ROOT
ATOM      1  C   UNL     1      -5.021  -0.511  28.668  1.00  0.00     0.000 C 
ENDROOT
BRANCH   1   2
ATOM      2  C   UNL     1      -5.325  -1.881  29.285  1.00  0.00     0.000 C 
BRANCH   2   3
ATOM      3  C   UNL     1      -5.557  -2.937  28.198  1.00  0.00     0.000 C 
BRANCH   3   4
ATOM      4  C   UNL     1      -4.591  -4.116  28.358  1.00  0.00     0.000 C 
BRANCH   4   5
ATOM      5  C   UNL     1      -3.526  -3.816  29.420  1.00  0.00     0.006 C 
BRANCH   5   6
ATOM      6  C   UNL     1      -2.138  -4.257  28.947  1.00  0.00     0.053 C 
BRANCH   6   7
ATOM      7  C   UNL     1      -1.253  -3.068  28.744  1.00  0.00     0.041 C 
ATOM      8  O   UNL     1      -1.750  -1.956  28.419  1.00  0.00    -0.550 OA
ATOM      9  O   UNL     1       0.114  -3.173  28.962  1.00  0.00    -0.550 OA
ENDBRANCH   6   7
ENDBRANCH   5   6
ENDBRANCH   4   5
ENDBRANCH   3   4
ENDBRANCH   2   3
ENDBRANCH   1   2
BRANCH   1  10
ATOM     10  C   UNL     1      -5.908   0.580  29.286  1.00  0.00     0.000 C 
BRANCH  10  11
ATOM     11  C   UNL     1      -5.093   1.694  29.964  1.00  0.00    -0.000 C 
BRANCH  11  12
ATOM     12  C   UNL     1      -3.575   1.456  29.867  1.00  0.00    -0.000 C 
BRANCH  12  13
ATOM     13  C   UNL     1      -2.765   2.755  29.999  1.00  0.00    -0.000 C 
BRANCH  13  14
ATOM     14  C   UNL     1      -1.671   2.888  28.928  1.00  0.00    -0.000 C 
BRANCH  14  15
ATOM     15  C   UNL     1      -1.099   1.513  28.555  1.00  0.00    -0.000 C 
BRANCH  15  16
ATOM     16  C   UNL     1      -0.710   1.418  27.071  1.00  0.00    -0.003 C 
ATOM     17  C   UNL     1      -0.171   2.736  26.515  1.00  0.00     0.004 C 
ENDBRANCH  15  16
ENDBRANCH  14  15
ENDBRANCH  13  14
ENDBRANCH  12  13
ENDBRANCH  11  12
ENDBRANCH  10  11
ENDBRANCH   1  10
TORSDOF 13
ENDMDL
MODEL 6
REMARK VINA RESULT:    -4.252      2.616      3.835
REMARK INTER + INTRA:          -9.107
REMARK INTER:                  -8.114
REMARK INTRA:                  -0.993
REMARK UNBOUND:                -1.624
REMARK SMILES CCCCCCCCCCCCCCC(=O)[O-]
REMARK SMILES IDX 9 1 10 2 11 3 12 4 13 5 14 6 15 7 16 8 17 9 8 10 7 11 6 12
REMARK SMILES IDX 5 13 4 14 3 15 2 16 1 17
REMARK H PARENT
REMARK Flexibility Score: inf
ROOT
ATOM      1  C   UNL     1      -5.726   0.580  29.312  1.00  0.00     0.000 C 
ENDROOT
BRANCH   1   2
ATOM      2  C   UNL     1      -4.705   1.559  29.906  1.00  0.00     0.000 C 
BRANCH   2   3
ATOM      3  C   UNL     1      -3.278   1.014  29.777  1.00  0.00     0.000 C 
BRANCH   3   4
ATOM      4  C   UNL     1      -2.331   2.075  29.207  1.00  0.00     0.000 C 
BRANCH   4   5
ATOM      5  C   UNL     1      -1.023   1.441  28.718  1.00  0.00     0.006 C 
BRANCH   5   6
ATOM      6  C   UNL     1      -1.239   0.678  27.407  1.00  0.00     0.053 C 
BRANCH   6   7
ATOM      7  C   UNL     1      -0.706  -0.714  27.519  1.00  0.00     0.041 C 
ATOM      8  O   UNL     1       0.449  -0.987  27.094  1.00  0.00    -0.550 OA
ATOM      9  O   UNL     1      -1.462  -1.701  28.138  1.00  0.00    -0.550 OA
ENDBRANCH   6   7
ENDBRANCH   5   6
ENDBRANCH   4   5
ENDBRANCH   3   4
ENDBRANCH   2   3
ENDBRANCH   1   2
BRANCH   1  10
ATOM     10  C   UNL     1      -5.022  -0.554  28.552  1.00  0.00     0.000 C 
BRANCH  10  11
ATOM     11  C   UNL     1      -5.476  -1.949  29.014  1.00  0.00    -0.000 C 
BRANCH  11  12
ATOM     12  C   UNL     1      -4.363  -2.717  29.749  1.00  0.00    -0.000 C 
BRANCH  12  13
ATOM     13  C   UNL     1      -3.946  -3.999  29.011  1.00  0.00    -0.000 C 
BRANCH  13  14
ATOM     14  C   UNL     1      -5.141  -4.770  28.432  1.00  0.00    -0.000 C 
BRANCH  14  15
ATOM     15  C   UNL     1      -5.474  -5.996  29.295  1.00  0.00    -0.000 C 
BRANCH  15  16
ATOM     16  C   UNL     1      -6.103  -7.138  28.481  1.00  0.00    -0.003 C 
ATOM     17  C   UNL     1      -6.209  -8.441  29.274  1.00  0.00     0.004 C 
ENDBRANCH  15  16
ENDBRANCH  14  15
ENDBRANCH  13  14
ENDBRANCH  12  13
ENDBRANCH  11  12
ENDBRANCH  10  11
ENDBRANCH   1  10
TORSDOF 13
ENDMDL
MODEL 7
REMARK VINA RESULT:    -4.244      3.762      6.928
REMARK INTER + INTRA:          -9.093
REMARK INTER:                  -7.126
REMARK INTRA:                  -1.967
REMARK UNBOUND:                -1.624
REMARK SMILES CCCCCCCCCCCCCCC(=O)[O-]
REMARK SMILES IDX 9 1 10 2 11 3 12 4 13 5 14 6 15 7 16 8 17 9 8 10 7 11 6 12
REMARK SMILES IDX 5 13 4 14 3 15 2 16 1 17
REMARK H PARENT
REMARK Flexibility Score: inf
ROOT
ATOM      1  C   UNL     1      -1.578  -1.530  28.169  1.00  0.00     0.000 C 
ENDROOT
BRANCH   1   2
ATOM      2  C   UNL     1      -2.861  -0.783  27.784  1.00  0.00     0.000 C 
BRANCH   2   3
ATOM      3  C   UNL     1      -3.643  -0.351  29.029  1.00  0.00     0.000 C 
BRANCH   3   4
ATOM      4  C   UNL     1      -5.125  -0.722  28.907  1.00  0.00     0.000 C 
BRANCH   4   5
ATOM      5  C   UNL     1      -5.294  -2.114  28.285  1.00  0.00     0.006 C 
BRANCH   5   6
ATOM      6  C   UNL     1      -5.152  -3.211  29.345  1.00  0.00     0.053 C 
BRANCH   6   7
ATOM      7  C   UNL     1      -4.424  -4.390  28.781  1.00  0.00     0.041 C 
ATOM      8  O   UNL     1      -3.187  -4.524  28.979  1.00  0.00    -0.550 OA
ATOM      9  O   UNL     1      -5.119  -5.367  28.080  1.00  0.00    -0.550 OA
ENDBRANCH   6   7
ENDBRANCH   5   6
ENDBRANCH   4   5
ENDBRANCH   3   4
ENDBRANCH   2   3
ENDBRANCH   1   2
BRANCH   1  10
ATOM     10  C   UNL     1      -0.446  -1.226  27.177  1.00  0.00     0.000 C 
BRANCH  10  11
ATOM     11  C   UNL     1       0.855  -0.795  27.875  1.00  0.00    -0.000 C 
BRANCH  11  12
ATOM     12  C   UNL     1       0.650  -0.497  29.371  1.00  0.00    -0.000 C 
BRANCH  12  13
ATOM     13  C   UNL     1       0.731   1.005  29.690  1.00  0.00    -0.000 C 
BRANCH  13  14
ATOM     14  C   UNL     1      -0.649   1.675  29.759  1.00  0.00    -0.000 C 
BRANCH  14  15
ATOM     15  C   UNL     1      -0.739   2.850  28.775  1.00  0.00    -0.000 C 
BRANCH  15  16
ATOM     16  C   UNL     1      -0.995   2.392  27.330  1.00  0.00    -0.003 C 
ATOM     17  C   UNL     1       0.194   2.655  26.406  1.00  0.00     0.004 C 
ENDBRANCH  15  16
ENDBRANCH  14  15
ENDBRANCH  13  14
ENDBRANCH  12  13
ENDBRANCH  11  12
ENDBRANCH  10  11
ENDBRANCH   1  10
TORSDOF 13
ENDMDL
MODEL 8
REMARK VINA RESULT:    -4.209      6.961     10.025
REMARK INTER + INTRA:          -9.031
REMARK INTER:                  -8.298
REMARK INTRA:                  -0.733
REMARK UNBOUND:                -1.624
REMARK SMILES CCCCCCCCCCCCCCC(=O)[O-]
REMARK SMILES IDX 9 1 10 2 11 3 12 4 13 5 14 6 15 7 16 8 17 9 8 10 7 11 6 12
REMARK SMILES IDX 5 13 4 14 3 15 2 16 1 17
REMARK H PARENT
REMARK Flexibility Score: inf
ROOT
ATOM      1  C   UNL     1      -5.891  -7.311  29.691  1.00  0.00     0.000 C 
ENDROOT
BRANCH   1   2
ATOM      2  C   UNL     1      -6.207  -8.812  29.665  1.00  0.00     0.000 C 
BRANCH   2   3
ATOM      3  C   UNL     1      -5.423  -9.522  28.556  1.00  0.00     0.000 C 
BRANCH   3   4
ATOM      4  C   UNL     1      -4.666 -10.736  29.105  1.00  0.00     0.000 C 
BRANCH   4   5
ATOM      5  C   UNL     1      -4.065 -11.571  27.967  1.00  0.00     0.006 C 
BRANCH   5   6
ATOM      6  C   UNL     1      -4.696 -11.201  26.622  1.00  0.00     0.053 C 
BRANCH   6   7
ATOM      7  C   UNL     1      -4.147 -12.066  25.532  1.00  0.00     0.041 C 
ATOM      8  O   UNL     1      -3.885 -13.278  25.756  1.00  0.00    -0.550 OA
ATOM      9  O   UNL     1      -3.972 -11.548  24.255  1.00  0.00    -0.550 OA
ENDBRANCH   6   7
ENDBRANCH   5   6
ENDBRANCH   4   5
ENDBRANCH   3   4
ENDBRANCH   2   3
ENDBRANCH   1   2
BRANCH   1  10
ATOM     10  C   UNL     1      -5.781  -6.747  28.267  1.00  0.00     0.000 C 
BRANCH  10  11
ATOM     11  C   UNL     1      -5.673  -5.214  28.243  1.00  0.00    -0.000 C 
BRANCH  11  12
ATOM     12  C   UNL     1      -4.779  -4.668  29.370  1.00  0.00    -0.000 C 
BRANCH  12  13
ATOM     13  C   UNL     1      -4.955  -3.156  29.583  1.00  0.00    -0.000 C 
BRANCH  13  14
ATOM     14  C   UNL     1      -5.340  -2.413  28.295  1.00  0.00    -0.000 C 
BRANCH  14  15
ATOM     15  C   UNL     1      -4.807  -0.972  28.312  1.00  0.00    -0.000 C 
BRANCH  15  16
ATOM     16  C   UNL     1      -3.338  -0.891  28.753  1.00  0.00    -0.003 C 
ATOM     17  C   UNL     1      -2.390  -0.568  27.598  1.00  0.00     0.004 C 
ENDBRANCH  15  16
ENDBRANCH  14  15
ENDBRANCH  13  14
ENDBRANCH  12  13
ENDBRANCH  11  12
ENDBRANCH  10  11
ENDBRANCH   1  10
TORSDOF 13
ENDMDL
MODEL 9
REMARK VINA RESULT:    -4.205      1.767      3.569
REMARK INTER + INTRA:          -9.024
REMARK INTER:                  -7.102
REMARK INTRA:                  -1.922
REMARK UNBOUND:                -1.624
REMARK SMILES CCCCCCCCCCCCCCC(=O)[O-]
REMARK SMILES IDX 9 1 10 2 11 3 12 4 13 5 14 6 15 7 16 8 17 9 8 10 7 11 6 12
REMARK SMILES IDX 5 13 4 14 3 15 2 16 1 17
REMARK H PARENT
REMARK Flexibility Score: inf
ROOT
ATOM      1  C   UNL     1      -4.682  -1.117  28.299  1.00  0.00     0.000 C 
ENDROOT
BRANCH   1   2
ATOM      2  C   UNL     1      -5.539  -0.069  29.019  1.00  0.00     0.000 C 
BRANCH   2   3
ATOM      3  C   UNL     1      -4.662   0.985  29.705  1.00  0.00     0.000 C 
BRANCH   3   4
ATOM      4  C   UNL     1      -3.174   0.717  29.448  1.00  0.00     0.000 C 
BRANCH   4   5
ATOM      5  C   UNL     1      -2.346   1.995  29.623  1.00  0.00     0.006 C 
BRANCH   5   6
ATOM      6  C   UNL     1      -0.921   1.669  30.079  1.00  0.00     0.053 C 
BRANCH   6   7
ATOM      7  C   UNL     1       0.052   1.924  28.972  1.00  0.00     0.041 C 
ATOM      8  O   UNL     1       1.202   1.408  29.008  1.00  0.00    -0.550 OA
ATOM      9  O   UNL     1      -0.325   2.688  27.876  1.00  0.00    -0.550 OA
ENDBRANCH   6   7
ENDBRANCH   5   6
ENDBRANCH   4   5
ENDBRANCH   3   4
ENDBRANCH   2   3
ENDBRANCH   1   2
BRANCH   1  10
ATOM     10  C   UNL     1      -5.421  -2.460  28.204  1.00  0.00     0.000 C 
BRANCH  10  11
ATOM     11  C   UNL     1      -4.624  -3.621  28.822  1.00  0.00    -0.000 C 
BRANCH  11  12
ATOM     12  C   UNL     1      -3.234  -3.183  29.319  1.00  0.00    -0.000 C 
BRANCH  12  13
ATOM     13  C   UNL     1      -2.129  -4.178  28.930  1.00  0.00    -0.000 C 
BRANCH  13  14
ATOM     14  C   UNL     1      -0.753  -3.511  28.777  1.00  0.00    -0.000 C 
BRANCH  14  15
ATOM     15  C   UNL     1      -0.892  -1.986  28.665  1.00  0.00    -0.000 C 
BRANCH  15  16
ATOM     16  C   UNL     1      -0.272  -1.429  27.374  1.00  0.00    -0.003 C 
ATOM     17  C   UNL     1      -1.236  -0.537  26.591  1.00  0.00     0.004 C 
ENDBRANCH  15  16
ENDBRANCH  14  15
ENDBRANCH  13  14
ENDBRANCH  12  13
ENDBRANCH  11  12
ENDBRANCH  10  11
ENDBRANCH   1  10
TORSDOF 13
ENDMDL
