MODEL 1
REMARK VINA RESULT:    -3.183      0.000      0.000
REMARK INTER + INTRA:          -4.759
REMARK INTER:                  -4.299
REMARK INTRA:                  -0.460
REMARK UNBOUND:                -0.460
REMARK SMILES CCCCCCCC(=O)[O-]
REMARK SMILES IDX 5 1 6 2 7 3 8 4 9 5 10 6 4 7 3 8 2 9 1 10
REMARK H PARENT
REMARK Flexibility Score: inf
ROOT
ATOM      1  C   UNL     1      22.063  36.227  36.610  1.00  0.00     0.000 C 
ENDROOT
BRANCH   1   2
ATOM      2  C   UNL     1      21.512  36.202  38.048  1.00  0.00     0.006 C 
BRANCH   2   3
ATOM      3  C   UNL     1      21.123  37.583  38.599  1.00  0.00     0.053 C 
BRANCH   3   4
ATOM      4  C   UNL     1      19.647  37.824  38.519  1.00  0.00     0.041 C 
ATOM      5  O   UNL     1      18.937  37.753  39.557  1.00  0.00    -0.550 OA
ATOM      6  O   UNL     1      19.061  38.162  37.306  1.00  0.00    -0.550 OA
ENDBRANCH   3   4
ENDBRANCH   2   3
ENDBRANCH   1   2
BRANCH   1   7
ATOM      7  C   UNL     1      22.459  37.642  36.151  1.00  0.00     0.000 C 
BRANCH   7   8
ATOM      8  C   UNL     1      21.912  37.983  34.756  1.00  0.00    -0.000 C 
BRANCH   8   9
ATOM      9  C   UNL     1      20.736  37.084  34.347  1.00  0.00    -0.003 C 
ATOM     10  C   UNL     1      20.640  36.961  32.829  1.00  0.00     0.004 C 
ENDBRANCH   8   9
ENDBRANCH   7   8
ENDBRANCH   1   7
TORSDOF 6
ENDMDL
MODEL 2
REMARK VINA RESULT:    -3.175      1.842      4.327
REMARK INTER + INTRA:          -4.748
REMARK INTER:                  -4.458
REMARK INTRA:                  -0.291
REMARK UNBOUND:                -0.460
REMARK SMILES CCCCCCCC(=O)[O-]
REMARK SMILES IDX 5 1 6 2 7 3 8 4 9 5 10 6 4 7 3 8 2 9 1 10
REMARK H PARENT
REMARK Flexibility Score: inf
ROOT
ATOM      1  C   UNL     1      21.986  36.388  35.891  1.00  0.00     0.000 C 
ENDROOT
BRANCH   1   2
ATOM      2  C   UNL     1      21.563  37.511  34.926  1.00  0.00     0.006 C 
BRANCH   2   3
ATOM      3  C   UNL     1      20.825  37.019  33.670  1.00  0.00     0.053 C 
BRANCH   3   4
ATOM      4  C   UNL     1      19.355  36.863  33.909  1.00  0.00     0.041 C 
ATOM      5  O   UNL     1      18.683  36.053  33.217  1.00  0.00    -0.550 OA
ATOM      6  O   UNL     1      18.732  37.586  34.918  1.00  0.00    -0.550 OA
ENDBRANCH   3   4
ENDBRANCH   2   3
ENDBRANCH   1   2
BRANCH   1   7
ATOM      7  C   UNL     1      22.178  36.888  37.334  1.00  0.00     0.000 C 
BRANCH   7   8
ATOM      8  C   UNL     1      20.923  36.686  38.199  1.00  0.00    -0.000 C 
BRANCH   8   9
ATOM      9  C   UNL     1      20.027  37.932  38.238  1.00  0.00    -0.003 C 
ATOM     10  C   UNL     1      18.986  37.825  39.350  1.00  0.00     0.004 C 
ENDBRANCH   8   9
ENDBRANCH   7   8
ENDBRANCH   1   7
TORSDOF 6
ENDMDL
MODEL 3
REMARK VINA RESULT:    -3.157      2.198      4.135
REMARK INTER + INTRA:          -4.723
REMARK INTER:                  -4.160
REMARK INTRA:                  -0.563
REMARK UNBOUND:                -0.460
REMARK SMILES CCCCCCCC(=O)[O-]
REMARK SMILES IDX 5 1 6 2 7 3 8 4 9 5 10 6 4 7 3 8 2 9 1 10
REMARK H PARENT
REMARK Flexibility Score: inf
ROOT
ATOM      1  C   UNL     1      19.653  37.502  35.248  1.00  0.00     0.000 C 
ENDROOT
BRANCH   1   2
ATOM      2  C   UNL     1      21.135  37.780  35.562  1.00  0.00     0.006 C 
BRANCH   2   3
ATOM      3  C   UNL     1      21.948  36.527  35.924  1.00  0.00     0.053 C 
BRANCH   3   4
ATOM      4  C   UNL     1      22.167  36.407  37.401  1.00  0.00     0.041 C 
ATOM      5  O   UNL     1      21.508  35.570  38.073  1.00  0.00    -0.550 OA
ATOM      6  O   UNL     1      23.122  37.194  38.030  1.00  0.00    -0.550 OA
ENDBRANCH   3   4
ENDBRANCH   2   3
ENDBRANCH   1   2
BRANCH   1   7
ATOM      7  C   UNL     1      18.695  38.353  36.101  1.00  0.00     0.000 C 
BRANCH   7   8
ATOM      8  C   UNL     1      19.373  38.921  37.358  1.00  0.00    -0.000 C 
BRANCH   8   9
ATOM      9  C   UNL     1      18.946  38.190  38.639  1.00  0.00    -0.003 C 
ATOM     10  C   UNL     1      19.918  38.471  39.782  1.00  0.00     0.004 C 
ENDBRANCH   8   9
ENDBRANCH   7   8
ENDBRANCH   1   7
TORSDOF 6
ENDMDL
MODEL 4
REMARK VINA RESULT:    -3.148     10.978     12.689
REMARK INTER + INTRA:          -4.712
REMARK INTER:                  -4.248
REMARK INTRA:                  -0.464
REMARK UNBOUND:                -0.460
REMARK SMILES CCCCCCCC(=O)[O-]
REMARK SMILES IDX 5 1 6 2 7 3 8 4 9 5 10 6 4 7 3 8 2 9 1 10
REMARK H PARENT
REMARK Flexibility Score: inf
ROOT
ATOM      1  C   UNL     1      21.205  32.415  24.301  1.00  0.00     0.000 C 
ENDROOT
BRANCH   1   2
ATOM      2  C   UNL     1      20.451  31.083  24.473  1.00  0.00     0.006 C 
BRANCH   2   3
ATOM      3  C   UNL     1      19.629  30.986  25.768  1.00  0.00     0.053 C 
BRANCH   3   4
ATOM      4  C   UNL     1      18.156  31.061  25.504  1.00  0.00     0.041 C 
ATOM      5  O   UNL     1      17.367  30.279  26.096  1.00  0.00    -0.550 OA
ATOM      6  O   UNL     1      17.652  32.017  24.632  1.00  0.00    -0.550 OA
ENDBRANCH   3   4
ENDBRANCH   2   3
ENDBRANCH   1   2
BRANCH   1   7
ATOM      7  C   UNL     1      20.835  33.449  25.379  1.00  0.00     0.000 C 
BRANCH   7   8
ATOM      8  C   UNL     1      20.042  34.636  24.810  1.00  0.00    -0.000 C 
BRANCH   8   9
ATOM      9  C   UNL     1      19.414  35.507  25.908  1.00  0.00    -0.003 C 
ATOM     10  C   UNL     1      19.235  34.716  27.201  1.00  0.00     0.004 C 
ENDBRANCH   8   9
ENDBRANCH   7   8
ENDBRANCH   1   7
TORSDOF 6
ENDMDL
MODEL 5
REMARK VINA RESULT:    -3.117      1.705      4.115
REMARK INTER + INTRA:          -4.670
REMARK INTER:                  -4.267
REMARK INTRA:                  -0.403
REMARK UNBOUND:                -0.460
REMARK SMILES CCCCCCCC(=O)[O-]
REMARK SMILES IDX 5 1 6 2 7 3 8 4 9 5 10 6 4 7 3 8 2 9 1 10
REMARK H PARENT
REMARK Flexibility Score: inf
ROOT
ATOM      1  C   UNL     1      22.008  36.249  36.723  1.00  0.00     0.000 C 
ENDROOT
BRANCH   1   2
ATOM      2  C   UNL     1      21.699  37.438  35.794  1.00  0.00     0.006 C 
BRANCH   2   3
ATOM      3  C   UNL     1      21.135  37.037  34.422  1.00  0.00     0.053 C 
BRANCH   3   4
ATOM      4  C   UNL     1      19.637  37.039  34.408  1.00  0.00     0.041 C 
ATOM      5  O   UNL     1      18.997  37.731  35.243  1.00  0.00    -0.550 OA
ATOM      6  O   UNL     1      18.949  36.304  33.452  1.00  0.00    -0.550 OA
ENDBRANCH   3   4
ENDBRANCH   2   3
ENDBRANCH   1   2
BRANCH   1   7
ATOM      7  C   UNL     1      21.400  36.419  38.127  1.00  0.00     0.000 C 
BRANCH   7   8
ATOM      8  C   UNL     1      21.567  37.845  38.673  1.00  0.00    -0.000 C 
BRANCH   8   9
ATOM      9  C   UNL     1      20.390  38.279  39.560  1.00  0.00    -0.003 C 
ATOM     10  C   UNL     1      19.063  38.137  38.820  1.00  0.00     0.004 C 
ENDBRANCH   8   9
ENDBRANCH   7   8
ENDBRANCH   1   7
TORSDOF 6
ENDMDL
MODEL 6
REMARK VINA RESULT:    -3.108      2.298      3.362
REMARK INTER + INTRA:          -4.658
REMARK INTER:                  -4.172
REMARK INTRA:                  -0.486
REMARK UNBOUND:                -0.460
REMARK SMILES CCCCCCCC(=O)[O-]
REMARK SMILES IDX 5 1 6 2 7 3 8 4 9 5 10 6 4 7 3 8 2 9 1 10
REMARK H PARENT
REMARK Flexibility Score: inf
ROOT
ATOM      1  C   UNL     1      19.066  38.513  37.694  1.00  0.00     0.000 C 
ENDROOT
BRANCH   1   2
ATOM      2  C   UNL     1      19.545  37.863  39.005  1.00  0.00     0.006 C 
BRANCH   2   3
ATOM      3  C   UNL     1      20.081  38.860  40.045  1.00  0.00     0.053 C 
BRANCH   3   4
ATOM      4  C   UNL     1      21.509  38.584  40.403  1.00  0.00     0.041 C 
ATOM      5  O   UNL     1      22.398  38.588  39.510  1.00  0.00    -0.550 OA
ATOM      6  O   UNL     1      21.864  38.357  41.726  1.00  0.00    -0.550 OA
ENDBRANCH   3   4
ENDBRANCH   2   3
ENDBRANCH   1   2
BRANCH   1   7
ATOM      7  C   UNL     1      19.607  37.796  36.444  1.00  0.00     0.000 C 
BRANCH   7   8
ATOM      8  C   UNL     1      21.120  37.995  36.259  1.00  0.00    -0.000 C 
BRANCH   8   9
ATOM      9  C   UNL     1      21.850  36.687  35.920  1.00  0.00    -0.003 C 
ATOM     10  C   UNL     1      22.231  35.927  37.187  1.00  0.00     0.004 C 
ENDBRANCH   8   9
ENDBRANCH   7   8
ENDBRANCH   1   7
TORSDOF 6
ENDMDL
MODEL 7
REMARK VINA RESULT:    -3.102      1.931      2.766
REMARK INTER + INTRA:          -4.649
REMARK INTER:                  -4.013
REMARK INTRA:                  -0.636
REMARK UNBOUND:                -0.460
REMARK SMILES CCCCCCCC(=O)[O-]
REMARK SMILES IDX 5 1 6 2 7 3 8 4 9 5 10 6 4 7 3 8 2 9 1 10
REMARK H PARENT
REMARK Flexibility Score: inf
ROOT
ATOM      1  C   UNL     1      19.665  37.842  36.167  1.00  0.00     0.000 C 
ENDROOT
BRANCH   1   2
ATOM      2  C   UNL     1      19.151  38.434  37.492  1.00  0.00     0.006 C 
BRANCH   2   3
ATOM      3  C   UNL     1      19.691  37.733  38.748  1.00  0.00     0.053 C 
BRANCH   3   4
ATOM      4  C   UNL     1      20.580  38.630  39.553  1.00  0.00     0.041 C 
ATOM      5  O   UNL     1      20.109  39.288  40.518  1.00  0.00    -0.550 OA
ATOM      6  O   UNL     1      21.936  38.712  39.261  1.00  0.00    -0.550 OA
ENDBRANCH   3   4
ENDBRANCH   2   3
ENDBRANCH   1   2
BRANCH   1   7
ATOM      7  C   UNL     1      20.873  38.610  35.602  1.00  0.00     0.000 C 
BRANCH   7   8
ATOM      8  C   UNL     1      22.199  37.862  35.814  1.00  0.00    -0.000 C 
BRANCH   8   9
ATOM      9  C   UNL     1      21.998  36.355  36.030  1.00  0.00    -0.003 C 
ATOM     10  C   UNL     1      22.644  35.896  37.334  1.00  0.00     0.004 C 
ENDBRANCH   8   9
ENDBRANCH   7   8
ENDBRANCH   1   7
TORSDOF 6
ENDMDL
MODEL 8
REMARK VINA RESULT:    -3.091      1.272      1.795
REMARK INTER + INTRA:          -4.635
REMARK INTER:                  -4.128
REMARK INTRA:                  -0.506
REMARK UNBOUND:                -0.460
REMARK SMILES CCCCCCCC(=O)[O-]
REMARK SMILES IDX 5 1 6 2 7 3 8 4 9 5 10 6 4 7 3 8 2 9 1 10
REMARK H PARENT
REMARK Flexibility Score: inf
ROOT
ATOM      1  C   UNL     1      22.012  36.223  36.983  1.00  0.00     0.000 C 
ENDROOT
BRANCH   1   2
ATOM      2  C   UNL     1      21.165  36.522  38.233  1.00  0.00     0.006 C 
BRANCH   2   3
ATOM      3  C   UNL     1      21.154  38.002  38.649  1.00  0.00     0.053 C 
BRANCH   3   4
ATOM      4  C   UNL     1      19.989  38.328  39.531  1.00  0.00     0.041 C 
ATOM      5  O   UNL     1      18.940  37.633  39.478  1.00  0.00    -0.550 OA
ATOM      6  O   UNL     1      20.074  39.378  40.437  1.00  0.00    -0.550 OA
ENDBRANCH   3   4
ENDBRANCH   2   3
ENDBRANCH   1   2
BRANCH   1   7
ATOM      7  C   UNL     1      21.881  37.312  35.903  1.00  0.00     0.000 C 
BRANCH   7   8
ATOM      8  C   UNL     1      20.841  36.956  34.829  1.00  0.00    -0.000 C 
BRANCH   8   9
ATOM      9  C   UNL     1      19.814  38.077  34.608  1.00  0.00    -0.003 C 
ATOM     10  C   UNL     1      18.817  38.143  35.761  1.00  0.00     0.004 C 
ENDBRANCH   8   9
ENDBRANCH   7   8
ENDBRANCH   1   7
TORSDOF 6
ENDMDL
MODEL 9
REMARK VINA RESULT:    -3.085      1.383      1.957
REMARK INTER + INTRA:          -4.627
REMARK INTER:                  -4.002
REMARK INTRA:                  -0.625
REMARK UNBOUND:                -0.460
REMARK SMILES CCCCCCCC(=O)[O-]
REMARK SMILES IDX 5 1 6 2 7 3 8 4 9 5 10 6 4 7 3 8 2 9 1 10
REMARK H PARENT
REMARK Flexibility Score: inf
ROOT
ATOM      1  C   UNL     1      21.898  37.286  38.739  1.00  0.00     0.000 C 
ENDROOT
BRANCH   1   2
ATOM      2  C   UNL     1      20.427  36.893  38.510  1.00  0.00     0.006 C 
BRANCH   2   3
ATOM      3  C   UNL     1      19.435  38.060  38.640  1.00  0.00     0.053 C 
BRANCH   3   4
ATOM      4  C   UNL     1      19.219  38.762  37.335  1.00  0.00     0.041 C 
ATOM      5  O   UNL     1      19.995  39.689  36.978  1.00  0.00    -0.550 OA
ATOM      6  O   UNL     1      18.185  38.370  36.496  1.00  0.00    -0.550 OA
ENDBRANCH   3   4
ENDBRANCH   2   3
ENDBRANCH   1   2
BRANCH   1   7
ATOM      7  C   UNL     1      22.790  36.979  37.522  1.00  0.00     0.000 C 
BRANCH   7   8
ATOM      8  C   UNL     1      22.012  36.322  36.371  1.00  0.00    -0.000 C 
BRANCH   8   9
ATOM      9  C   UNL     1      21.901  37.232  35.139  1.00  0.00    -0.003 C 
ATOM     10  C   UNL     1      20.601  36.975  34.382  1.00  0.00     0.004 C 
ENDBRANCH   8   9
ENDBRANCH   7   8
ENDBRANCH   1   7
TORSDOF 6
ENDMDL
