MODEL 1
REMARK VINA RESULT:    -4.023      0.000      0.000
REMARK INTER + INTRA:          -4.910
REMARK INTER:                  -4.611
REMARK INTRA:                  -0.299
REMARK UNBOUND:                -0.299
REMARK SMILES COc1ccc(C(C)=O)c(O)c1
REMARK SMILES IDX 6 1 10 2 12 3 3 4 4 5 5 6 7 7 8 8 9 9 11 10 2 12 1 13
REMARK H PARENT 11 11
REMARK Flexibility Score: inf
ROOT
ATOM      1  C   UNL     1      12.542  15.864  15.731  1.00  0.00     0.059 A 
ATOM      2  C   UNL     1      11.913  15.130  16.763  1.00  0.00     0.130 A 
ATOM      3  C   UNL     1      11.342  15.803  17.853  1.00  0.00     0.093 A 
ATOM      4  C   UNL     1      11.398  17.196  17.947  1.00  0.00     0.122 A 
ATOM      5  C   UNL     1      12.039  17.926  16.932  1.00  0.00     0.047 A 
ATOM      6  C   UNL     1      12.606  17.265  15.841  1.00  0.00     0.019 A 
ENDROOT
BRANCH   1   7
ATOM      7  C   UNL     1      13.151  15.211  14.541  1.00  0.00     0.163 C 
ATOM      8  C   UNL     1      14.261  15.841  13.757  1.00  0.00     0.093 C 
ATOM      9  O   UNL     1      12.726  14.082  14.170  1.00  0.00    -0.294 OA
ENDBRANCH   1   7
BRANCH   2  10
ATOM     10  O   UNL     1      11.870  13.736  16.727  1.00  0.00    -0.507 OA
ATOM     11  H   UNL     1      11.043  13.220  17.001  1.00  0.00     0.293 HD
ENDBRANCH   2  10
BRANCH   4  12
ATOM     12  O   UNL     1      10.810  17.813  19.062  1.00  0.00    -0.497 OA
ATOM     13  C   UNL     1       9.436  18.177  19.147  1.00  0.00     0.278 C 
ENDBRANCH   4  12
TORSDOF 3
ENDMDL
MODEL 2
REMARK VINA RESULT:    -4.018      1.627      4.298
REMARK INTER + INTRA:          -4.905
REMARK INTER:                  -4.584
REMARK INTRA:                  -0.321
REMARK UNBOUND:                -0.299
REMARK SMILES COc1ccc(C(C)=O)c(O)c1
REMARK SMILES IDX 6 1 10 2 12 3 3 4 4 5 5 6 7 7 8 8 9 9 11 10 2 12 1 13
REMARK H PARENT 11 11
REMARK Flexibility Score: inf
ROOT
ATOM      1  C   UNL     1      11.874  15.954  17.214  1.00  0.00     0.059 A 
ATOM      2  C   UNL     1      12.206  14.946  16.280  1.00  0.00     0.130 A 
ATOM      3  C   UNL     1      12.829  15.289  15.071  1.00  0.00     0.093 A 
ATOM      4  C   UNL     1      13.114  16.621  14.762  1.00  0.00     0.122 A 
ATOM      5  C   UNL     1      12.769  17.627  15.680  1.00  0.00     0.047 A 
ATOM      6  C   UNL     1      12.153  17.295  16.889  1.00  0.00     0.019 A 
ENDROOT
BRANCH   1   7
ATOM      7  C   UNL     1      11.229  15.654  18.520  1.00  0.00     0.163 C 
ATOM      8  C   UNL     1       9.882  16.192  18.895  1.00  0.00     0.093 C 
ATOM      9  O   UNL     1      11.830  14.920  19.352  1.00  0.00    -0.294 OA
ENDBRANCH   1   7
BRANCH   2  10
ATOM     10  O   UNL     1      11.903  13.608  16.533  1.00  0.00    -0.507 OA
ATOM     11  H   UNL     1      11.700  12.957  15.784  1.00  0.00     0.293 HD
ENDBRANCH   2  10
BRANCH   4  12
ATOM     12  O   UNL     1      13.737  16.903  13.536  1.00  0.00    -0.497 OA
ATOM     13  C   UNL     1      13.936  18.215  13.019  1.00  0.00     0.278 C 
ENDBRANCH   4  12
TORSDOF 3
ENDMDL
MODEL 3
REMARK VINA RESULT:    -3.960      4.034      7.201
REMARK INTER + INTRA:          -4.837
REMARK INTER:                  -4.512
REMARK INTRA:                  -0.325
REMARK UNBOUND:                -0.299
REMARK SMILES COc1ccc(C(C)=O)c(O)c1
REMARK SMILES IDX 6 1 10 2 12 3 3 4 4 5 5 6 7 7 8 8 9 9 11 10 2 12 1 13
REMARK H PARENT 11 11
REMARK Flexibility Score: inf
ROOT
ATOM      1  C   UNL     1      14.828  16.956  13.151  1.00  0.00     0.059 A 
ATOM      2  C   UNL     1      15.893  17.468  12.375  1.00  0.00     0.130 A 
ATOM      3  C   UNL     1      16.961  16.633  12.013  1.00  0.00     0.093 A 
ATOM      4  C   UNL     1      17.000  15.298  12.423  1.00  0.00     0.122 A 
ATOM      5  C   UNL     1      15.952  14.791  13.209  1.00  0.00     0.047 A 
ATOM      6  C   UNL     1      14.882  15.613  13.571  1.00  0.00     0.019 A 
ENDROOT
BRANCH   1   7
ATOM      7  C   UNL     1      13.659  17.784  13.552  1.00  0.00     0.163 C 
ATOM      8  C   UNL     1      12.946  17.591  14.856  1.00  0.00     0.093 C 
ATOM      9  O   UNL     1      13.245  18.687  12.774  1.00  0.00    -0.294 OA
ENDBRANCH   1   7
BRANCH   2  10
ATOM     10  O   UNL     1      15.911  18.805  11.979  1.00  0.00    -0.507 OA
ATOM     11  H   UNL     1      16.099  19.076  11.021  1.00  0.00     0.293 HD
ENDBRANCH   2  10
BRANCH   4  12
ATOM     12  O   UNL     1      18.094  14.512  12.031  1.00  0.00    -0.497 OA
ATOM     13  C   UNL     1      18.889  14.760  10.875  1.00  0.00     0.278 C 
ENDBRANCH   4  12
TORSDOF 3
ENDMDL
MODEL 4
REMARK VINA RESULT:    -3.956      4.461      6.648
REMARK INTER + INTRA:          -4.834
REMARK INTER:                  -4.493
REMARK INTRA:                  -0.340
REMARK UNBOUND:                -0.299
REMARK SMILES COc1ccc(C(C)=O)c(O)c1
REMARK SMILES IDX 6 1 10 2 12 3 3 4 4 5 5 6 7 7 8 8 9 9 11 10 2 12 1 13
REMARK H PARENT 11 11
REMARK Flexibility Score: inf
ROOT
ATOM      1  C   UNL     1      15.015  17.510  12.740  1.00  0.00     0.059 A 
ATOM      2  C   UNL     1      14.536  16.413  13.493  1.00  0.00     0.130 A 
ATOM      3  C   UNL     1      15.259  15.211  13.516  1.00  0.00     0.093 A 
ATOM      4  C   UNL     1      16.443  15.070  12.788  1.00  0.00     0.122 A 
ATOM      5  C   UNL     1      16.911  16.152  12.025  1.00  0.00     0.047 A 
ATOM      6  C   UNL     1      16.202  17.355  11.999  1.00  0.00     0.019 A 
ENDROOT
BRANCH   1   7
ATOM      7  C   UNL     1      14.305  18.817  12.689  1.00  0.00     0.163 C 
ATOM      8  C   UNL     1      14.988  20.115  12.989  1.00  0.00     0.093 C 
ATOM      9  O   UNL     1      13.082  18.844  12.381  1.00  0.00    -0.294 OA
ENDBRANCH   1   7
BRANCH   2  10
ATOM     10  O   UNL     1      13.338  16.500  14.201  1.00  0.00    -0.507 OA
ATOM     11  H   UNL     1      12.787  17.349  14.216  1.00  0.00     0.293 HD
ENDBRANCH   2  10
BRANCH   4  12
ATOM     12  O   UNL     1      17.121  13.843  12.849  1.00  0.00    -0.497 OA
ATOM     13  C   UNL     1      18.032  13.378  11.858  1.00  0.00     0.278 C 
ENDBRANCH   4  12
TORSDOF 3
ENDMDL
MODEL 5
REMARK VINA RESULT:    -3.919      3.285      5.254
REMARK INTER + INTRA:          -4.791
REMARK INTER:                  -4.481
REMARK INTRA:                  -0.310
REMARK UNBOUND:                -0.299
REMARK SMILES COc1ccc(C(C)=O)c(O)c1
REMARK SMILES IDX 6 1 10 2 12 3 3 4 4 5 5 6 7 7 8 8 9 9 11 10 2 12 1 13
REMARK H PARENT 11 11
REMARK Flexibility Score: inf
ROOT
ATOM      1  C   UNL     1      16.042  15.908  12.740  1.00  0.00     0.059 A 
ATOM      2  C   UNL     1      15.500  17.209  12.629  1.00  0.00     0.130 A 
ATOM      3  C   UNL     1      14.317  17.535  13.309  1.00  0.00     0.093 A 
ATOM      4  C   UNL     1      13.651  16.586  14.088  1.00  0.00     0.122 A 
ATOM      5  C   UNL     1      14.178  15.288  14.186  1.00  0.00     0.047 A 
ATOM      6  C   UNL     1      15.357  14.954  13.516  1.00  0.00     0.019 A 
ENDROOT
BRANCH   1   7
ATOM      7  C   UNL     1      17.301  15.504  12.058  1.00  0.00     0.163 C 
ATOM      8  C   UNL     1      17.556  14.099  11.606  1.00  0.00     0.093 C 
ATOM      9  O   UNL     1      18.194  16.370  11.846  1.00  0.00    -0.294 OA
ENDBRANCH   1   7
BRANCH   2  10
ATOM     10  O   UNL     1      16.113  18.173  11.829  1.00  0.00    -0.507 OA
ATOM     11  H   UNL     1      17.112  18.335  11.859  1.00  0.00     0.293 HD
ENDBRANCH   2  10
BRANCH   4  12
ATOM     12  O   UNL     1      12.472  16.972  14.744  1.00  0.00    -0.497 OA
ATOM     13  C   UNL     1      12.434  17.659  15.991  1.00  0.00     0.278 C 
ENDBRANCH   4  12
TORSDOF 3
ENDMDL
MODEL 6
REMARK VINA RESULT:    -3.859      3.503      5.575
REMARK INTER + INTRA:          -4.722
REMARK INTER:                  -4.381
REMARK INTRA:                  -0.341
REMARK UNBOUND:                -0.299
REMARK SMILES COc1ccc(C(C)=O)c(O)c1
REMARK SMILES IDX 6 1 10 2 12 3 3 4 4 5 5 6 7 7 8 8 9 9 11 10 2 12 1 13
REMARK H PARENT 11 11
REMARK Flexibility Score: inf
ROOT
ATOM      1  C   UNL     1      14.892  18.458  13.421  1.00  0.00     0.059 A 
ATOM      2  C   UNL     1      15.514  17.344  12.812  1.00  0.00     0.130 A 
ATOM      3  C   UNL     1      15.095  16.045  13.135  1.00  0.00     0.093 A 
ATOM      4  C   UNL     1      14.078  15.828  14.068  1.00  0.00     0.122 A 
ATOM      5  C   UNL     1      13.471  16.933  14.688  1.00  0.00     0.047 A 
ATOM      6  C   UNL     1      13.877  18.231  14.370  1.00  0.00     0.019 A 
ENDROOT
BRANCH   1   7
ATOM      7  C   UNL     1      15.278  19.861  13.109  1.00  0.00     0.163 C 
ATOM      8  C   UNL     1      15.591  20.865  14.176  1.00  0.00     0.093 C 
ATOM      9  O   UNL     1      15.348  20.229  11.904  1.00  0.00    -0.294 OA
ENDBRANCH   1   7
BRANCH   2  10
ATOM     10  O   UNL     1      16.560  17.516  11.905  1.00  0.00    -0.507 OA
ATOM     11  H   UNL     1      17.329  16.860  11.848  1.00  0.00     0.293 HD
ENDBRANCH   2  10
BRANCH   4  12
ATOM     12  O   UNL     1      13.703  14.506  14.350  1.00  0.00    -0.497 OA
ATOM     13  C   UNL     1      12.989  14.105  15.516  1.00  0.00     0.278 C 
ENDBRANCH   4  12
TORSDOF 3
ENDMDL
MODEL 7
REMARK VINA RESULT:    -3.840      1.175      4.634
REMARK INTER + INTRA:          -4.700
REMARK INTER:                  -4.363
REMARK INTRA:                  -0.338
REMARK UNBOUND:                -0.299
REMARK SMILES COc1ccc(C(C)=O)c(O)c1
REMARK SMILES IDX 6 1 10 2 12 3 3 4 4 5 5 6 7 7 8 8 9 9 11 10 2 12 1 13
REMARK H PARENT 11 11
REMARK Flexibility Score: inf
ROOT
ATOM      1  C   UNL     1      11.873  17.284  17.221  1.00  0.00     0.059 A 
ATOM      2  C   UNL     1      11.822  15.873  17.288  1.00  0.00     0.130 A 
ATOM      3  C   UNL     1      12.363  15.102  16.248  1.00  0.00     0.093 A 
ATOM      4  C   UNL     1      12.943  15.708  15.130  1.00  0.00     0.122 A 
ATOM      5  C   UNL     1      12.978  17.110  15.053  1.00  0.00     0.047 A 
ATOM      6  C   UNL     1      12.446  17.887  16.085  1.00  0.00     0.019 A 
ENDROOT
BRANCH   1   7
ATOM      7  C   UNL     1      11.333  18.157  18.297  1.00  0.00     0.163 C 
ATOM      8  C   UNL     1      10.468  19.346  18.011  1.00  0.00     0.093 C 
ATOM      9  O   UNL     1      11.605  17.894  19.501  1.00  0.00    -0.294 OA
ENDBRANCH   1   7
BRANCH   2  10
ATOM     10  O   UNL     1      11.218  15.229  18.367  1.00  0.00    -0.507 OA
ATOM     11  H   UNL     1      11.072  14.227  18.378  1.00  0.00     0.293 HD
ENDBRANCH   2  10
BRANCH   4  12
ATOM     12  O   UNL     1      13.466  14.885  14.122  1.00  0.00    -0.497 OA
ATOM     13  C   UNL     1      14.800  14.967  13.630  1.00  0.00     0.278 C 
ENDBRANCH   4  12
TORSDOF 3
ENDMDL
MODEL 8
REMARK VINA RESULT:    -3.819     10.386     11.581
REMARK INTER + INTRA:          -4.677
REMARK INTER:                  -4.362
REMARK INTRA:                  -0.314
REMARK UNBOUND:                -0.299
REMARK SMILES COc1ccc(C(C)=O)c(O)c1
REMARK SMILES IDX 6 1 10 2 12 3 3 4 4 5 5 6 7 7 8 8 9 9 11 10 2 12 1 13
REMARK H PARENT 11 11
REMARK Flexibility Score: inf
ROOT
ATOM      1  C   UNL     1      17.546  19.124  24.455  1.00  0.00     0.059 A 
ATOM      2  C   UNL     1      18.812  19.700  24.203  1.00  0.00     0.130 A 
ATOM      3  C   UNL     1      19.792  19.702  25.208  1.00  0.00     0.093 A 
ATOM      4  C   UNL     1      19.532  19.157  26.467  1.00  0.00     0.122 A 
ATOM      5  C   UNL     1      18.268  18.601  26.725  1.00  0.00     0.047 A 
ATOM      6  C   UNL     1      17.287  18.589  25.731  1.00  0.00     0.019 A 
ENDROOT
BRANCH   1   7
ATOM      7  C   UNL     1      16.471  19.075  23.427  1.00  0.00     0.163 C 
ATOM      8  C   UNL     1      15.162  19.782  23.598  1.00  0.00     0.093 C 
ATOM      9  O   UNL     1      16.659  18.416  22.367  1.00  0.00    -0.294 OA
ENDBRANCH   1   7
BRANCH   2  10
ATOM     10  O   UNL     1      19.099  20.290  22.973  1.00  0.00    -0.507 OA
ATOM     11  H   UNL     1      19.759  19.877  22.324  1.00  0.00     0.293 HD
ENDBRANCH   2  10
BRANCH   4  12
ATOM     12  O   UNL     1      20.550  19.189  27.432  1.00  0.00    -0.497 OA
ATOM     13  C   UNL     1      20.430  18.655  28.746  1.00  0.00     0.278 C 
ENDBRANCH   4  12
TORSDOF 3
ENDMDL
MODEL 9
REMARK VINA RESULT:    -3.802     10.234     11.409
REMARK INTER + INTRA:          -4.657
REMARK INTER:                  -4.329
REMARK INTRA:                  -0.328
REMARK UNBOUND:                -0.299
REMARK SMILES COc1ccc(C(C)=O)c(O)c1
REMARK SMILES IDX 6 1 10 2 12 3 3 4 4 5 5 6 7 7 8 8 9 9 11 10 2 12 1 13
REMARK H PARENT 11 11
REMARK Flexibility Score: inf
ROOT
ATOM      1  C   UNL     1      19.158  19.445  25.189  1.00  0.00     0.059 A 
ATOM      2  C   UNL     1      18.360  19.598  24.032  1.00  0.00     0.130 A 
ATOM      3  C   UNL     1      17.013  19.203  24.053  1.00  0.00     0.093 A 
ATOM      4  C   UNL     1      16.447  18.641  25.200  1.00  0.00     0.122 A 
ATOM      5  C   UNL     1      17.243  18.472  26.345  1.00  0.00     0.047 A 
ATOM      6  C   UNL     1      18.583  18.866  26.336  1.00  0.00     0.019 A 
ENDROOT
BRANCH   1   7
ATOM      7  C   UNL     1      20.586  19.860  25.237  1.00  0.00     0.163 C 
ATOM      8  C   UNL     1      21.632  19.061  25.952  1.00  0.00     0.093 C 
ATOM      9  O   UNL     1      20.941  20.922  24.656  1.00  0.00    -0.294 OA
ENDBRANCH   1   7
BRANCH   2  10
ATOM     10  O   UNL     1      18.897  20.118  22.855  1.00  0.00    -0.507 OA
ATOM     11  H   UNL     1      18.693  19.712  21.950  1.00  0.00     0.293 HD
ENDBRANCH   2  10
BRANCH   4  12
ATOM     12  O   UNL     1      15.096  18.265  25.160  1.00  0.00    -0.497 OA
ATOM     13  C   UNL     1      14.013  19.117  25.521  1.00  0.00     0.278 C 
ENDBRANCH   4  12
TORSDOF 3
ENDMDL
