MODEL 1
REMARK VINA RESULT:    -4.715      0.000      0.000
REMARK INTER + INTRA:          -6.965
REMARK INTER:                  -6.644
REMARK INTRA:                  -0.321
REMARK UNBOUND:                -0.321
REMARK SMILES CCCCCCCCC(=O)[O-]
REMARK SMILES IDX 6 1 7 2 8 3 9 4 10 5 11 6 5 7 4 8 3 9 2 10 1 11
REMARK H PARENT
REMARK Flexibility Score: inf
ROOT
ATOM      1  C   UNL     1     -12.560  -7.527  38.498  1.00  0.00     0.000 C 
ENDROOT
BRANCH   1   2
ATOM      2  C   UNL     1     -11.331  -8.425  38.720  1.00  0.00     0.006 C 
BRANCH   2   3
ATOM      3  C   UNL     1     -11.255  -9.565  37.696  1.00  0.00     0.053 C 
BRANCH   3   4
ATOM      4  C   UNL     1      -9.902  -9.646  37.058  1.00  0.00     0.041 C 
ATOM      5  O   UNL     1      -9.762  -9.396  35.832  1.00  0.00    -0.550 OA
ATOM      6  O   UNL     1      -8.790  -9.965  37.827  1.00  0.00    -0.550 OA
ENDBRANCH   3   4
ENDBRANCH   2   3
ENDBRANCH   1   2
BRANCH   1   7
ATOM      7  C   UNL     1     -12.956  -7.413  37.015  1.00  0.00     0.000 C 
BRANCH   7   8
ATOM      8  C   UNL     1     -14.216  -6.569  36.738  1.00  0.00    -0.000 C 
BRANCH   8   9
ATOM      9  C   UNL     1     -14.852  -5.917  37.978  1.00  0.00    -0.000 C 
BRANCH   9  10
ATOM     10  C   UNL     1     -16.242  -6.482  38.302  1.00  0.00    -0.003 C 
ATOM     11  C   UNL     1     -17.034  -5.522  39.184  1.00  0.00     0.004 C 
ENDBRANCH   9  10
ENDBRANCH   8   9
ENDBRANCH   7   8
ENDBRANCH   1   7
TORSDOF 7
ENDMDL
MODEL 2
REMARK VINA RESULT:    -4.685      4.092      6.386
REMARK INTER + INTRA:          -6.923
REMARK INTER:                  -6.641
REMARK INTRA:                  -0.282
REMARK UNBOUND:                -0.321
REMARK SMILES CCCCCCCCC(=O)[O-]
REMARK SMILES IDX 6 1 7 2 8 3 9 4 10 5 11 6 5 7 4 8 3 9 2 10 1 11
REMARK H PARENT
REMARK Flexibility Score: inf
ROOT
ATOM      1  C   UNL     1     -14.026  -6.411  38.449  1.00  0.00     0.000 C 
ENDROOT
BRANCH   1   2
ATOM      2  C   UNL     1     -15.429  -5.970  37.996  1.00  0.00     0.006 C 
BRANCH   2   3
ATOM      3  C   UNL     1     -16.271  -5.437  39.162  1.00  0.00     0.053 C 
BRANCH   3   4
ATOM      4  C   UNL     1     -17.302  -6.432  39.601  1.00  0.00     0.041 C 
ATOM      5  O   UNL     1     -17.677  -7.344  38.819  1.00  0.00    -0.550 OA
ATOM      6  O   UNL     1     -17.823  -6.370  40.887  1.00  0.00    -0.550 OA
ENDBRANCH   3   4
ENDBRANCH   2   3
ENDBRANCH   1   2
BRANCH   1   7
ATOM      7  C   UNL     1     -13.255  -7.165  37.351  1.00  0.00     0.000 C 
BRANCH   7   8
ATOM      8  C   UNL     1     -11.988  -7.902  37.831  1.00  0.00    -0.000 C 
BRANCH   8   9
ATOM      9  C   UNL     1     -11.813  -7.973  39.358  1.00  0.00    -0.000 C 
BRANCH   9  10
ATOM     10  C   UNL     1     -10.720  -8.963  39.787  1.00  0.00    -0.003 C 
ATOM     11  C   UNL     1     -10.403  -9.951  38.668  1.00  0.00     0.004 C 
ENDBRANCH   9  10
ENDBRANCH   8   9
ENDBRANCH   7   8
ENDBRANCH   1   7
TORSDOF 7
ENDMDL
MODEL 3
REMARK VINA RESULT:    -4.682      0.578      1.186
REMARK INTER + INTRA:          -6.918
REMARK INTER:                  -6.543
REMARK INTRA:                  -0.376
REMARK UNBOUND:                -0.321
REMARK SMILES CCCCCCCCC(=O)[O-]
REMARK SMILES IDX 6 1 7 2 8 3 9 4 10 5 11 6 5 7 4 8 3 9 2 10 1 11
REMARK H PARENT
REMARK Flexibility Score: inf
ROOT
ATOM      1  C   UNL     1     -12.493  -7.249  38.741  1.00  0.00     0.000 C 
ENDROOT
BRANCH   1   2
ATOM      2  C   UNL     1     -11.470  -8.393  38.849  1.00  0.00     0.006 C 
BRANCH   2   3
ATOM      3  C   UNL     1     -11.455  -9.275  37.594  1.00  0.00     0.053 C 
BRANCH   3   4
ATOM      4  C   UNL     1     -10.058  -9.615  37.173  1.00  0.00     0.041 C 
ATOM      5  O   UNL     1      -9.239 -10.080  38.009  1.00  0.00    -0.550 OA
ATOM      6  O   UNL     1      -9.671  -9.449  35.849  1.00  0.00    -0.550 OA
ENDBRANCH   3   4
ENDBRANCH   2   3
ENDBRANCH   1   2
BRANCH   1   7
ATOM      7  C   UNL     1     -13.231  -7.234  37.390  1.00  0.00     0.000 C 
BRANCH   7   8
ATOM      8  C   UNL     1     -14.460  -6.305  37.327  1.00  0.00    -0.000 C 
BRANCH   8   9
ATOM      9  C   UNL     1     -14.599  -5.325  38.505  1.00  0.00    -0.000 C 
BRANCH   9  10
ATOM     10  C   UNL     1     -15.947  -5.449  39.228  1.00  0.00    -0.003 C 
ATOM     11  C   UNL     1     -16.886  -6.394  38.483  1.00  0.00     0.004 C 
ENDBRANCH   9  10
ENDBRANCH   8   9
ENDBRANCH   7   8
ENDBRANCH   1   7
TORSDOF 7
ENDMDL
MODEL 4
REMARK VINA RESULT:    -4.650      4.955      6.959
REMARK INTER + INTRA:          -6.874
REMARK INTER:                  -6.538
REMARK INTRA:                  -0.335
REMARK UNBOUND:                -0.321
REMARK SMILES CCCCCCCCC(=O)[O-]
REMARK SMILES IDX 6 1 7 2 8 3 9 4 10 5 11 6 5 7 4 8 3 9 2 10 1 11
REMARK H PARENT
REMARK Flexibility Score: inf
ROOT
ATOM      1  C   UNL     1     -17.848  -7.292  39.610  1.00  0.00     0.000 C 
ENDROOT
BRANCH   1   2
ATOM      2  C   UNL     1     -17.807  -6.702  41.031  1.00  0.00     0.006 C 
BRANCH   2   3
ATOM      3  C   UNL     1     -18.062  -7.767  42.106  1.00  0.00     0.053 C 
BRANCH   3   4
ATOM      4  C   UNL     1     -17.243  -7.518  43.335  1.00  0.00     0.041 C 
ATOM      5  O   UNL     1     -16.752  -8.482  43.977  1.00  0.00    -0.550 OA
ATOM      6  O   UNL     1     -16.995  -6.216  43.752  1.00  0.00    -0.550 OA
ENDBRANCH   3   4
ENDBRANCH   2   3
ENDBRANCH   1   2
BRANCH   1   7
ATOM      7  C   UNL     1     -16.998  -6.490  38.608  1.00  0.00     0.000 C 
BRANCH   7   8
ATOM      8  C   UNL     1     -15.986  -5.515  39.241  1.00  0.00    -0.000 C 
BRANCH   8   9
ATOM      9  C   UNL     1     -14.735  -5.229  38.392  1.00  0.00    -0.000 C 
BRANCH   9  10
ATOM     10  C   UNL     1     -14.736  -5.987  37.057  1.00  0.00    -0.003 C 
ATOM     11  C   UNL     1     -13.587  -6.989  36.993  1.00  0.00     0.004 C 
ENDBRANCH   9  10
ENDBRANCH   8   9
ENDBRANCH   7   8
ENDBRANCH   1   7
TORSDOF 7
ENDMDL
MODEL 5
REMARK VINA RESULT:    -4.530      3.826      6.310
REMARK INTER + INTRA:          -6.704
REMARK INTER:                  -6.401
REMARK INTRA:                  -0.303
REMARK UNBOUND:                -0.321
REMARK SMILES CCCCCCCCC(=O)[O-]
REMARK SMILES IDX 6 1 7 2 8 3 9 4 10 5 11 6 5 7 4 8 3 9 2 10 1 11
REMARK H PARENT
REMARK Flexibility Score: inf
ROOT
ATOM      1  C   UNL     1     -13.314  -7.173  37.064  1.00  0.00     0.000 C 
ENDROOT
BRANCH   1   2
ATOM      2  C   UNL     1     -14.185  -6.512  38.146  1.00  0.00     0.006 C 
BRANCH   2   3
ATOM      3  C   UNL     1     -15.506  -5.978  37.578  1.00  0.00     0.053 C 
BRANCH   3   4
ATOM      4  C   UNL     1     -16.641  -6.176  38.536  1.00  0.00     0.041 C 
ATOM      5  O   UNL     1     -16.980  -5.250  39.319  1.00  0.00    -0.550 OA
ATOM      6  O   UNL     1     -17.345  -7.374  38.540  1.00  0.00    -0.550 OA
ENDBRANCH   3   4
ENDBRANCH   2   3
ENDBRANCH   1   2
BRANCH   1   7
ATOM      7  C   UNL     1     -12.071  -7.871  37.644  1.00  0.00     0.000 C 
BRANCH   7   8
ATOM      8  C   UNL     1     -11.956  -7.832  39.181  1.00  0.00    -0.000 C 
BRANCH   8   9
ATOM      9  C   UNL     1     -10.912  -8.790  39.782  1.00  0.00    -0.000 C 
BRANCH   9  10
ATOM     10  C   UNL     1     -10.464  -9.878  38.796  1.00  0.00    -0.003 C 
ATOM     11  C   UNL     1      -8.951  -9.856  38.602  1.00  0.00     0.004 C 
ENDBRANCH   9  10
ENDBRANCH   8   9
ENDBRANCH   7   8
ENDBRANCH   1   7
TORSDOF 7
ENDMDL
MODEL 6
REMARK VINA RESULT:    -4.485      1.681      2.419
REMARK INTER + INTRA:          -6.641
REMARK INTER:                  -6.405
REMARK INTRA:                  -0.236
REMARK UNBOUND:                -0.321
REMARK SMILES CCCCCCCCC(=O)[O-]
REMARK SMILES IDX 6 1 7 2 8 3 9 4 10 5 11 6 5 7 4 8 3 9 2 10 1 11
REMARK H PARENT
REMARK Flexibility Score: inf
ROOT
ATOM      1  C   UNL     1     -13.070  -7.328  37.106  1.00  0.00     0.000 C 
ENDROOT
BRANCH   1   2
ATOM      2  C   UNL     1     -12.035  -8.275  37.737  1.00  0.00     0.006 C 
BRANCH   2   3
ATOM      3  C   UNL     1     -11.758  -7.932  39.207  1.00  0.00     0.053 C 
BRANCH   3   4
ATOM      4  C   UNL     1     -10.821  -8.916  39.837  1.00  0.00     0.041 C 
ATOM      5  O   UNL     1     -10.626  -8.901  41.081  1.00  0.00    -0.550 OA
ATOM      6  O   UNL     1     -10.189  -9.874  39.053  1.00  0.00    -0.550 OA
ENDBRANCH   3   4
ENDBRANCH   2   3
ENDBRANCH   1   2
BRANCH   1   7
ATOM      7  C   UNL     1     -13.899  -6.566  38.155  1.00  0.00     0.000 C 
BRANCH   7   8
ATOM      8  C   UNL     1     -15.281  -6.083  37.670  1.00  0.00    -0.000 C 
BRANCH   8   9
ATOM      9  C   UNL     1     -16.316  -5.842  38.784  1.00  0.00    -0.000 C 
BRANCH   9  10
ATOM     10  C   UNL     1     -17.389  -6.939  38.848  1.00  0.00    -0.003 C 
ATOM     11  C   UNL     1     -17.878  -7.146  40.278  1.00  0.00     0.004 C 
ENDBRANCH   9  10
ENDBRANCH   8   9
ENDBRANCH   7   8
ENDBRANCH   1   7
TORSDOF 7
ENDMDL
MODEL 7
REMARK VINA RESULT:    -4.367      5.568      7.378
REMARK INTER + INTRA:          -6.474
REMARK INTER:                  -6.222
REMARK INTRA:                  -0.252
REMARK UNBOUND:                -0.321
REMARK SMILES CCCCCCCCC(=O)[O-]
REMARK SMILES IDX 6 1 7 2 8 3 9 4 10 5 11 6 5 7 4 8 3 9 2 10 1 11
REMARK H PARENT
REMARK Flexibility Score: inf
ROOT
ATOM      1  C   UNL     1     -17.149  -6.579  41.720  1.00  0.00     0.000 C 
ENDROOT
BRANCH   1   2
ATOM      2  C   UNL     1     -17.679  -7.196  43.025  1.00  0.00     0.006 C 
BRANCH   2   3
ATOM      3  C   UNL     1     -17.808  -8.721  42.934  1.00  0.00     0.053 C 
BRANCH   3   4
ATOM      4  C   UNL     1     -17.387  -9.389  44.208  1.00  0.00     0.041 C 
ATOM      5  O   UNL     1     -16.661 -10.417  44.176  1.00  0.00    -0.550 OA
ATOM      6  O   UNL     1     -17.771  -8.854  45.431  1.00  0.00    -0.550 OA
ENDBRANCH   3   4
ENDBRANCH   2   3
ENDBRANCH   1   2
BRANCH   1   7
ATOM      7  C   UNL     1     -18.068  -6.850  40.516  1.00  0.00     0.000 C 
BRANCH   7   8
ATOM      8  C   UNL     1     -17.356  -6.909  39.149  1.00  0.00    -0.000 C 
BRANCH   8   9
ATOM      9  C   UNL     1     -16.463  -5.698  38.825  1.00  0.00    -0.000 C 
BRANCH   9  10
ATOM     10  C   UNL     1     -15.013  -6.094  38.513  1.00  0.00    -0.003 C 
ATOM     11  C   UNL     1     -14.734  -6.023  37.014  1.00  0.00     0.004 C 
ENDBRANCH   9  10
ENDBRANCH   8   9
ENDBRANCH   7   8
ENDBRANCH   1   7
TORSDOF 7
ENDMDL
MODEL 8
REMARK VINA RESULT:    -4.364      1.525      2.095
REMARK INTER + INTRA:          -6.470
REMARK INTER:                  -5.967
REMARK INTRA:                  -0.504
REMARK UNBOUND:                -0.321
REMARK SMILES CCCCCCCCC(=O)[O-]
REMARK SMILES IDX 6 1 7 2 8 3 9 4 10 5 11 6 5 7 4 8 3 9 2 10 1 11
REMARK H PARENT
REMARK Flexibility Score: inf
ROOT
ATOM      1  C   UNL     1     -13.668  -7.180  36.700  1.00  0.00     0.000 C 
ENDROOT
BRANCH   1   2
ATOM      2  C   UNL     1     -12.585  -7.511  37.742  1.00  0.00     0.006 C 
BRANCH   2   3
ATOM      3  C   UNL     1     -11.826  -8.798  37.398  1.00  0.00     0.053 C 
BRANCH   3   4
ATOM      4  C   UNL     1     -10.436  -8.509  36.917  1.00  0.00     0.041 C 
ATOM      5  O   UNL     1     -10.036  -8.972  35.817  1.00  0.00    -0.550 OA
ATOM      6  O   UNL     1      -9.596  -7.699  37.669  1.00  0.00    -0.550 OA
ENDBRANCH   3   4
ENDBRANCH   2   3
ENDBRANCH   1   2
BRANCH   1   7
ATOM      7  C   UNL     1     -14.529  -5.968  37.099  1.00  0.00     0.000 C 
BRANCH   7   8
ATOM      8  C   UNL     1     -15.700  -6.283  38.051  1.00  0.00    -0.000 C 
BRANCH   8   9
ATOM      9  C   UNL     1     -15.872  -5.300  39.222  1.00  0.00    -0.000 C 
BRANCH   9  10
ATOM     10  C   UNL     1     -14.534  -4.788  39.772  1.00  0.00    -0.003 C 
ATOM     11  C   UNL     1     -13.941  -5.770  40.779  1.00  0.00     0.004 C 
ENDBRANCH   9  10
ENDBRANCH   8   9
ENDBRANCH   7   8
ENDBRANCH   1   7
TORSDOF 7
ENDMDL
MODEL 9
REMARK VINA RESULT:    -4.178      9.096     10.544
REMARK INTER + INTRA:          -6.209
REMARK INTER:                  -5.381
REMARK INTRA:                  -0.828
REMARK UNBOUND:                -0.321
REMARK SMILES CCCCCCCCC(=O)[O-]
REMARK SMILES IDX 6 1 7 2 8 3 9 4 10 5 11 6 5 7 4 8 3 9 2 10 1 11
REMARK H PARENT
REMARK Flexibility Score: inf
ROOT
ATOM      1  C   UNL     1     -16.645  -8.417  44.600  1.00  0.00     0.000 C 
ENDROOT
BRANCH   1   2
ATOM      2  C   UNL     1     -17.519  -7.719  45.656  1.00  0.00     0.006 C 
BRANCH   2   3
ATOM      3  C   UNL     1     -17.337  -8.330  47.051  1.00  0.00     0.053 C 
BRANCH   3   4
ATOM      4  C   UNL     1     -16.270  -7.623  47.830  1.00  0.00     0.041 C 
ATOM      5  O   UNL     1     -15.885  -6.476  47.483  1.00  0.00    -0.550 OA
ATOM      6  O   UNL     1     -15.725  -8.219  48.960  1.00  0.00    -0.550 OA
ENDBRANCH   3   4
ENDBRANCH   2   3
ENDBRANCH   1   2
BRANCH   1   7
ATOM      7  C   UNL     1     -16.988  -9.908  44.432  1.00  0.00     0.000 C 
BRANCH   7   8
ATOM      8  C   UNL     1     -15.886 -10.887  44.886  1.00  0.00    -0.000 C 
BRANCH   8   9
ATOM      9  C   UNL     1     -14.571 -10.228  45.334  1.00  0.00    -0.000 C 
BRANCH   9  10
ATOM     10  C   UNL     1     -14.186 -10.585  46.777  1.00  0.00    -0.003 C 
ATOM     11  C   UNL     1     -15.229 -11.500  47.413  1.00  0.00     0.004 C 
ENDBRANCH   9  10
ENDBRANCH   8   9
ENDBRANCH   7   8
ENDBRANCH   1   7
TORSDOF 7
ENDMDL
