MODEL 1
REMARK VINA RESULT:    -3.372      0.000      0.000
REMARK INTER + INTRA:          -6.581
REMARK INTER:                  -5.343
REMARK INTRA:                  -1.238
REMARK UNBOUND:                -1.238
REMARK SMILES CCCCCCCCCCCC(=O)[O-]
REMARK SMILES IDX 7 1 8 2 9 3 10 4 11 5 12 6 13 7 14 8 6 9 5 10 4 11 3 12 2 13
REMARK SMILES IDX 1 14
REMARK H PARENT
REMARK Flexibility Score: inf
ROOT
ATOM      1  C   UNL     1      61.409  32.484  59.888  1.00  0.00     0.000 C 
ENDROOT
BRANCH   1   2
ATOM      2  C   UNL     1      61.018  33.947  60.166  1.00  0.00     0.000 C 
BRANCH   2   3
ATOM      3  C   UNL     1      62.120  34.735  60.893  1.00  0.00     0.000 C 
BRANCH   3   4
ATOM      4  C   UNL     1      63.525  34.175  60.618  1.00  0.00     0.006 C 
BRANCH   4   5
ATOM      5  C   UNL     1      64.512  34.464  61.757  1.00  0.00     0.053 C 
BRANCH   5   6
ATOM      6  C   UNL     1      65.090  35.837  61.610  1.00  0.00     0.041 C 
ATOM      7  O   UNL     1      65.719  36.151  60.565  1.00  0.00    -0.550 OA
ATOM      8  O   UNL     1      64.893  36.784  62.607  1.00  0.00    -0.550 OA
ENDBRANCH   5   6
ENDBRANCH   4   5
ENDBRANCH   3   4
ENDBRANCH   2   3
ENDBRANCH   1   2
BRANCH   1   9
ATOM      9  C   UNL     1      60.705  31.436  60.769  1.00  0.00     0.000 C 
BRANCH   9  10
ATOM     10  C   UNL     1      61.519  31.058  62.017  1.00  0.00    -0.000 C 
BRANCH  10  11
ATOM     11  C   UNL     1      62.021  29.605  61.976  1.00  0.00    -0.000 C 
BRANCH  11  12
ATOM     12  C   UNL     1      63.315  29.446  61.156  1.00  0.00    -0.000 C 
BRANCH  12  13
ATOM     13  C   UNL     1      64.288  30.616  61.362  1.00  0.00    -0.003 C 
ATOM     14  C   UNL     1      65.140  30.900  60.126  1.00  0.00     0.004 C 
ENDBRANCH  12  13
ENDBRANCH  11  12
ENDBRANCH  10  11
ENDBRANCH   9  10
ENDBRANCH   1   9
TORSDOF 10
ENDMDL
MODEL 2
REMARK VINA RESULT:    -3.360      2.055      4.654
REMARK INTER + INTRA:          -6.562
REMARK INTER:                  -5.694
REMARK INTRA:                  -0.868
REMARK UNBOUND:                -1.238
REMARK SMILES CCCCCCCCCCCC(=O)[O-]
REMARK SMILES IDX 7 1 8 2 9 3 10 4 11 5 12 6 13 7 14 8 6 9 5 10 4 11 3 12 2 13
REMARK SMILES IDX 1 14
REMARK H PARENT
REMARK Flexibility Score: inf
ROOT
ATOM      1  C   UNL     1      60.774  31.254  60.325  1.00  0.00     0.000 C 
ENDROOT
BRANCH   1   2
ATOM      2  C   UNL     1      60.929  31.047  61.843  1.00  0.00     0.000 C 
BRANCH   2   3
ATOM      3  C   UNL     1      61.851  29.869  62.197  1.00  0.00     0.000 C 
BRANCH   3   4
ATOM      4  C   UNL     1      63.070  29.774  61.266  1.00  0.00     0.006 C 
BRANCH   4   5
ATOM      5  C   UNL     1      64.074  30.913  61.487  1.00  0.00     0.053 C 
BRANCH   5   6
ATOM      6  C   UNL     1      64.838  31.187  60.228  1.00  0.00     0.041 C 
ATOM      7  O   UNL     1      64.964  32.367  59.807  1.00  0.00    -0.550 OA
ATOM      8  O   UNL     1      65.451  30.143  59.547  1.00  0.00    -0.550 OA
ENDBRANCH   5   6
ENDBRANCH   4   5
ENDBRANCH   3   4
ENDBRANCH   2   3
ENDBRANCH   1   2
BRANCH   1   9
ATOM      9  C   UNL     1      61.169  32.649  59.807  1.00  0.00     0.000 C 
BRANCH   9  10
ATOM     10  C   UNL     1      61.596  33.607  60.931  1.00  0.00    -0.000 C 
BRANCH  10  11
ATOM     11  C   UNL     1      61.557  35.082  60.496  1.00  0.00    -0.000 C 
BRANCH  11  12
ATOM     12  C   UNL     1      62.577  35.951  61.253  1.00  0.00    -0.000 C 
BRANCH  12  13
ATOM     13  C   UNL     1      63.962  35.294  61.337  1.00  0.00    -0.003 C 
ATOM     14  C   UNL     1      64.935  36.075  62.219  1.00  0.00     0.004 C 
ENDBRANCH  12  13
ENDBRANCH  11  12
ENDBRANCH  10  11
ENDBRANCH   9  10
ENDBRANCH   1   9
TORSDOF 10
ENDMDL
MODEL 3
REMARK VINA RESULT:    -3.330      3.720      5.990
REMARK INTER + INTRA:          -6.515
REMARK INTER:                  -5.302
REMARK INTRA:                  -1.213
REMARK UNBOUND:                -1.238
REMARK SMILES CCCCCCCCCCCC(=O)[O-]
REMARK SMILES IDX 7 1 8 2 9 3 10 4 11 5 12 6 13 7 14 8 6 9 5 10 4 11 3 12 2 13
REMARK SMILES IDX 1 14
REMARK H PARENT
REMARK Flexibility Score: inf
ROOT
ATOM      1  C   UNL     1      63.425  32.911  59.797  1.00  0.00     0.000 C 
ENDROOT
BRANCH   1   2
ATOM      2  C   UNL     1      62.228  31.944  59.865  1.00  0.00     0.000 C 
BRANCH   2   3
ATOM      3  C   UNL     1      61.295  32.227  61.054  1.00  0.00     0.000 C 
BRANCH   3   4
ATOM      4  C   UNL     1      61.008  30.970  61.891  1.00  0.00     0.006 C 
BRANCH   4   5
ATOM      5  C   UNL     1      62.243  30.076  62.060  1.00  0.00     0.053 C 
BRANCH   5   6
ATOM      6  C   UNL     1      61.929  28.670  61.655  1.00  0.00     0.041 C 
ATOM      7  O   UNL     1      60.777  28.371  61.242  1.00  0.00    -0.550 OA
ATOM      8  O   UNL     1      62.922  27.699  61.689  1.00  0.00    -0.550 OA
ENDBRANCH   5   6
ENDBRANCH   4   5
ENDBRANCH   3   4
ENDBRANCH   2   3
ENDBRANCH   1   2
BRANCH   1   9
ATOM      9  C   UNL     1      64.157  33.147  61.130  1.00  0.00     0.000 C 
BRANCH   9  10
ATOM     10  C   UNL     1      64.229  34.633  61.519  1.00  0.00    -0.000 C 
BRANCH  10  11
ATOM     11  C   UNL     1      63.371  35.524  60.604  1.00  0.00    -0.000 C 
BRANCH  11  12
ATOM     12  C   UNL     1      62.154  36.124  61.330  1.00  0.00    -0.000 C 
BRANCH  12  13
ATOM     13  C   UNL     1      61.051  36.569  60.359  1.00  0.00    -0.003 C 
ATOM     14  C   UNL     1      60.610  35.451  59.414  1.00  0.00     0.004 C 
ENDBRANCH  12  13
ENDBRANCH  11  12
ENDBRANCH  10  11
ENDBRANCH   9  10
ENDBRANCH   1   9
TORSDOF 10
ENDMDL
MODEL 4
REMARK VINA RESULT:    -3.290     13.286     14.821
REMARK INTER + INTRA:          -6.450
REMARK INTER:                  -4.978
REMARK INTRA:                  -1.472
REMARK UNBOUND:                -1.238
REMARK SMILES CCCCCCCCCCCC(=O)[O-]
REMARK SMILES IDX 7 1 8 2 9 3 10 4 11 5 12 6 13 7 14 8 6 9 5 10 4 11 3 12 2 13
REMARK SMILES IDX 1 14
REMARK H PARENT
REMARK Flexibility Score: inf
ROOT
ATOM      1  C   UNL     1      57.984  29.336  51.204  1.00  0.00     0.000 C 
ENDROOT
BRANCH   1   2
ATOM      2  C   UNL     1      56.493  29.061  51.476  1.00  0.00     0.000 C 
BRANCH   2   3
ATOM      3  C   UNL     1      55.827  28.225  50.371  1.00  0.00     0.000 C 
BRANCH   3   4
ATOM      4  C   UNL     1      55.573  26.771  50.804  1.00  0.00     0.006 C 
BRANCH   4   5
ATOM      5  C   UNL     1      55.301  25.839  49.616  1.00  0.00     0.053 C 
BRANCH   5   6
ATOM      6  C   UNL     1      53.858  25.443  49.583  1.00  0.00     0.041 C 
ATOM      7  O   UNL     1      53.516  24.268  49.878  1.00  0.00    -0.550 OA
ATOM      8  O   UNL     1      52.886  26.386  49.273  1.00  0.00    -0.550 OA
ENDBRANCH   5   6
ENDBRANCH   4   5
ENDBRANCH   3   4
ENDBRANCH   2   3
ENDBRANCH   1   2
BRANCH   1   9
ATOM      9  C   UNL     1      58.459  29.033  49.771  1.00  0.00     0.000 C 
BRANCH   9  10
ATOM     10  C   UNL     1      59.976  28.801  49.679  1.00  0.00    -0.000 C 
BRANCH  10  11
ATOM     11  C   UNL     1      60.334  27.321  49.465  1.00  0.00    -0.000 C 
BRANCH  11  12
ATOM     12  C   UNL     1      59.091  26.421  49.341  1.00  0.00    -0.000 C 
BRANCH  12  13
ATOM     13  C   UNL     1      59.091  25.276  50.365  1.00  0.00    -0.003 C 
ATOM     14  C   UNL     1      59.075  25.775  51.810  1.00  0.00     0.004 C 
ENDBRANCH  12  13
ENDBRANCH  11  12
ENDBRANCH  10  11
ENDBRANCH   9  10
ENDBRANCH   1   9
TORSDOF 10
ENDMDL
MODEL 5
REMARK VINA RESULT:    -3.273      1.679      2.688
REMARK INTER + INTRA:          -6.424
REMARK INTER:                  -4.739
REMARK INTRA:                  -1.685
REMARK UNBOUND:                -1.238
REMARK SMILES CCCCCCCCCCCC(=O)[O-]
REMARK SMILES IDX 7 1 8 2 9 3 10 4 11 5 12 6 13 7 14 8 6 9 5 10 4 11 3 12 2 13
REMARK SMILES IDX 1 14
REMARK H PARENT
REMARK Flexibility Score: inf
ROOT
ATOM      1  C   UNL     1      61.085  29.951  60.909  1.00  0.00     0.000 C 
ENDROOT
BRANCH   1   2
ATOM      2  C   UNL     1      60.637  31.282  60.277  1.00  0.00     0.000 C 
BRANCH   2   3
ATOM      3  C   UNL     1      61.107  32.512  61.071  1.00  0.00     0.000 C 
BRANCH   3   4
ATOM      4  C   UNL     1      61.840  33.538  60.192  1.00  0.00     0.006 C 
BRANCH   4   5
ATOM      5  C   UNL     1      62.887  34.344  60.971  1.00  0.00     0.053 C 
BRANCH   5   6
ATOM      6  C   UNL     1      62.396  35.736  61.219  1.00  0.00     0.041 C 
ATOM      7  O   UNL     1      63.181  36.616  61.660  1.00  0.00    -0.550 OA
ATOM      8  O   UNL     1      61.083  36.073  60.916  1.00  0.00    -0.550 OA
ENDBRANCH   5   6
ENDBRANCH   4   5
ENDBRANCH   3   4
ENDBRANCH   2   3
ENDBRANCH   1   2
BRANCH   1   9
ATOM      9  C   UNL     1      62.134  30.075  62.029  1.00  0.00     0.000 C 
BRANCH   9  10
ATOM     10  C   UNL     1      63.555  29.717  61.562  1.00  0.00    -0.000 C 
BRANCH  10  11
ATOM     11  C   UNL     1      64.462  30.953  61.434  1.00  0.00    -0.000 C 
BRANCH  11  12
ATOM     12  C   UNL     1      64.829  31.272  59.973  1.00  0.00    -0.000 C 
BRANCH  12  13
ATOM     13  C   UNL     1      64.318  30.206  58.993  1.00  0.00    -0.003 C 
ATOM     14  C   UNL     1      63.420  30.788  57.902  1.00  0.00     0.004 C 
ENDBRANCH  12  13
ENDBRANCH  11  12
ENDBRANCH  10  11
ENDBRANCH   9  10
ENDBRANCH   1   9
TORSDOF 10
ENDMDL
MODEL 6
REMARK VINA RESULT:    -3.234      1.115      2.913
REMARK INTER + INTRA:          -6.362
REMARK INTER:                  -4.892
REMARK INTRA:                  -1.470
REMARK UNBOUND:                -1.238
REMARK SMILES CCCCCCCCCCCC(=O)[O-]
REMARK SMILES IDX 7 1 8 2 9 3 10 4 11 5 12 6 13 7 14 8 6 9 5 10 4 11 3 12 2 13
REMARK SMILES IDX 1 14
REMARK H PARENT
REMARK Flexibility Score: inf
ROOT
ATOM      1  C   UNL     1      63.874  30.150  60.350  1.00  0.00     0.000 C 
ENDROOT
BRANCH   1   2
ATOM      2  C   UNL     1      64.971  31.208  60.570  1.00  0.00     0.000 C 
BRANCH   2   3
ATOM      3  C   UNL     1      64.520  32.628  60.193  1.00  0.00     0.000 C 
BRANCH   3   4
ATOM      4  C   UNL     1      64.058  33.443  61.412  1.00  0.00     0.006 C 
BRANCH   4   5
ATOM      5  C   UNL     1      63.492  34.816  61.026  1.00  0.00     0.053 C 
BRANCH   5   6
ATOM      6  C   UNL     1      64.323  35.909  61.622  1.00  0.00     0.041 C 
ATOM      7  O   UNL     1      65.565  35.755  61.765  1.00  0.00    -0.550 OA
ATOM      8  O   UNL     1      63.734  37.117  61.973  1.00  0.00    -0.550 OA
ENDBRANCH   5   6
ENDBRANCH   4   5
ENDBRANCH   3   4
ENDBRANCH   2   3
ENDBRANCH   1   2
BRANCH   1   9
ATOM      9  C   UNL     1      63.185  29.641  61.629  1.00  0.00     0.000 C 
BRANCH   9  10
ATOM     10  C   UNL     1      61.650  29.677  61.537  1.00  0.00    -0.000 C 
BRANCH  10  11
ATOM     11  C   UNL     1      61.056  30.975  62.110  1.00  0.00    -0.000 C 
BRANCH  11  12
ATOM     12  C   UNL     1      60.737  32.014  61.019  1.00  0.00    -0.000 C 
BRANCH  12  13
ATOM     13  C   UNL     1      60.449  31.366  59.657  1.00  0.00    -0.003 C 
ATOM     14  C   UNL     1      61.215  32.031  58.513  1.00  0.00     0.004 C 
ENDBRANCH  12  13
ENDBRANCH  11  12
ENDBRANCH  10  11
ENDBRANCH   9  10
ENDBRANCH   1   9
TORSDOF 10
ENDMDL
MODEL 7
REMARK VINA RESULT:    -3.213      4.208      6.525
REMARK INTER + INTRA:          -6.329
REMARK INTER:                  -5.783
REMARK INTRA:                  -0.546
REMARK UNBOUND:                -1.238
REMARK SMILES CCCCCCCCCCCC(=O)[O-]
REMARK SMILES IDX 7 1 8 2 9 3 10 4 11 5 12 6 13 7 14 8 6 9 5 10 4 11 3 12 2 13
REMARK SMILES IDX 1 14
REMARK H PARENT
REMARK Flexibility Score: inf
ROOT
ATOM      1  C   UNL     1      60.913  31.864  60.920  1.00  0.00     0.000 C 
ENDROOT
BRANCH   1   2
ATOM      2  C   UNL     1      61.070  30.817  62.039  1.00  0.00     0.000 C 
BRANCH   2   3
ATOM      3  C   UNL     1      62.435  30.110  62.012  1.00  0.00     0.000 C 
BRANCH   3   4
ATOM      4  C   UNL     1      62.477  28.947  61.007  1.00  0.00     0.006 C 
BRANCH   4   5
ATOM      5  C   UNL     1      61.556  27.786  61.407  1.00  0.00     0.053 C 
BRANCH   5   6
ATOM      6  C   UNL     1      62.347  26.693  62.054  1.00  0.00     0.041 C 
ATOM      7  O   UNL     1      63.484  26.384  61.610  1.00  0.00    -0.550 OA
ATOM      8  O   UNL     1      61.848  26.048  63.179  1.00  0.00    -0.550 OA
ENDBRANCH   5   6
ENDBRANCH   4   5
ENDBRANCH   3   4
ENDBRANCH   2   3
ENDBRANCH   1   2
BRANCH   1   9
ATOM      9  C   UNL     1      62.008  32.946  60.873  1.00  0.00     0.000 C 
BRANCH   9  10
ATOM     10  C   UNL     1      61.584  34.193  60.081  1.00  0.00    -0.000 C 
BRANCH  10  11
ATOM     11  C   UNL     1      61.682  35.482  60.914  1.00  0.00    -0.000 C 
BRANCH  11  12
ATOM     12  C   UNL     1      62.923  36.323  60.564  1.00  0.00    -0.000 C 
BRANCH  12  13
ATOM     13  C   UNL     1      63.882  36.478  61.754  1.00  0.00    -0.003 C 
ATOM     14  C   UNL     1      64.896  35.338  61.847  1.00  0.00     0.004 C 
ENDBRANCH  12  13
ENDBRANCH  11  12
ENDBRANCH  10  11
ENDBRANCH   9  10
ENDBRANCH   1   9
TORSDOF 10
ENDMDL
MODEL 8
REMARK VINA RESULT:    -3.176      2.996      5.043
REMARK INTER + INTRA:          -6.271
REMARK INTER:                  -4.828
REMARK INTRA:                  -1.443
REMARK UNBOUND:                -1.238
REMARK SMILES CCCCCCCCCCCC(=O)[O-]
REMARK SMILES IDX 7 1 8 2 9 3 10 4 11 5 12 6 13 7 14 8 6 9 5 10 4 11 3 12 2 13
REMARK SMILES IDX 1 14
REMARK H PARENT
REMARK Flexibility Score: inf
ROOT
ATOM      1  C   UNL     1      60.910  35.649  60.866  1.00  0.00     0.000 C 
ENDROOT
BRANCH   1   2
ATOM      2  C   UNL     1      61.050  35.020  59.468  1.00  0.00     0.000 C 
BRANCH   2   3
ATOM      3  C   UNL     1      61.030  33.483  59.496  1.00  0.00     0.000 C 
BRANCH   3   4
ATOM      4  C   UNL     1      61.437  32.913  60.864  1.00  0.00     0.006 C 
BRANCH   4   5
ATOM      5  C   UNL     1      60.851  31.518  61.122  1.00  0.00     0.053 C 
BRANCH   5   6
ATOM      6  C   UNL     1      61.940  30.491  61.144  1.00  0.00     0.041 C 
ATOM      7  O   UNL     1      62.711  30.363  60.157  1.00  0.00    -0.550 OA
ATOM      8  O   UNL     1      62.134  29.709  62.276  1.00  0.00    -0.550 OA
ENDBRANCH   5   6
ENDBRANCH   4   5
ENDBRANCH   3   4
ENDBRANCH   2   3
ENDBRANCH   1   2
BRANCH   1   9
ATOM      9  C   UNL     1      61.712  36.944  61.089  1.00  0.00     0.000 C 
BRANCH   9  10
ATOM     10  C   UNL     1      63.182  36.821  60.654  1.00  0.00    -0.000 C 
BRANCH  10  11
ATOM     11  C   UNL     1      64.065  36.173  61.734  1.00  0.00    -0.000 C 
BRANCH  11  12
ATOM     12  C   UNL     1      64.533  34.758  61.350  1.00  0.00    -0.000 C 
BRANCH  12  13
ATOM     13  C   UNL     1      64.792  34.614  59.843  1.00  0.00    -0.003 C 
ATOM     14  C   UNL     1      64.751  33.160  59.372  1.00  0.00     0.004 C 
ENDBRANCH  12  13
ENDBRANCH  11  12
ENDBRANCH  10  11
ENDBRANCH   9  10
ENDBRANCH   1   9
TORSDOF 10
ENDMDL
MODEL 9
REMARK VINA RESULT:    -3.103      3.090      5.046
REMARK INTER + INTRA:          -6.155
REMARK INTER:                  -4.730
REMARK INTRA:                  -1.425
REMARK UNBOUND:                -1.238
REMARK SMILES CCCCCCCCCCCC(=O)[O-]
REMARK SMILES IDX 7 1 8 2 9 3 10 4 11 5 12 6 13 7 14 8 6 9 5 10 4 11 3 12 2 13
REMARK SMILES IDX 1 14
REMARK H PARENT
REMARK Flexibility Score: inf
ROOT
ATOM      1  C   UNL     1      63.571  33.492  58.270  1.00  0.00     0.000 C 
ENDROOT
BRANCH   1   2
ATOM      2  C   UNL     1      64.783  32.608  58.618  1.00  0.00     0.000 C 
BRANCH   2   3
ATOM      3  C   UNL     1      64.382  31.214  59.130  1.00  0.00     0.000 C 
BRANCH   3   4
ATOM      4  C   UNL     1      64.925  30.925  60.538  1.00  0.00     0.006 C 
BRANCH   4   5
ATOM      5  C   UNL     1      63.895  31.208  61.640  1.00  0.00     0.053 C 
BRANCH   5   6
ATOM      6  C   UNL     1      62.939  30.064  61.766  1.00  0.00     0.041 C 
ATOM      7  O   UNL     1      63.344  28.880  61.622  1.00  0.00    -0.550 OA
ATOM      8  O   UNL     1      61.610  30.302  62.092  1.00  0.00    -0.550 OA
ENDBRANCH   5   6
ENDBRANCH   4   5
ENDBRANCH   3   4
ENDBRANCH   2   3
ENDBRANCH   1   2
BRANCH   1   9
ATOM      9  C   UNL     1      62.204  32.935  58.707  1.00  0.00     0.000 C 
BRANCH   9  10
ATOM     10  C   UNL     1      61.367  33.953  59.499  1.00  0.00    -0.000 C 
BRANCH  10  11
ATOM     11  C   UNL     1      61.944  34.231  60.897  1.00  0.00    -0.000 C 
BRANCH  11  12
ATOM     12  C   UNL     1      62.205  35.727  61.146  1.00  0.00    -0.000 C 
BRANCH  12  13
ATOM     13  C   UNL     1      63.701  36.048  61.286  1.00  0.00    -0.003 C 
ATOM     14  C   UNL     1      64.527  34.835  61.714  1.00  0.00     0.004 C 
ENDBRANCH  12  13
ENDBRANCH  11  12
ENDBRANCH  10  11
ENDBRANCH   9  10
ENDBRANCH   1   9
TORSDOF 10
ENDMDL
