MODEL 1
REMARK VINA RESULT:    -6.469      0.000      0.000
REMARK INTER + INTRA:          -7.080
REMARK INTER:                  -6.848
REMARK INTRA:                  -0.233
REMARK UNBOUND:                -0.233
REMARK SMILES O=c1cc(-c2ccccc2)oc2ccccc12
REMARK SMILES IDX 4 1 3 2 2 3 1 4 17 5 16 6 15 7 14 8 13 9 12 10 11 11 5 12
REMARK SMILES IDX 8 13 7 14 9 15 6 16 10 17
REMARK H PARENT
REMARK Flexibility Score: inf
ROOT
ATOM      1  C   UNL     1      24.095   6.332 -19.080  1.00  0.00     0.138 A 
ATOM      2  C   UNL     1      23.974   5.514 -17.938  1.00  0.00     0.100 A 
ATOM      3  C   UNL     1      24.068   6.086 -16.667  1.00  0.00     0.193 A 
ATOM      4  O   UNL     1      23.960   5.353 -15.646  1.00  0.00    -0.289 OA
ATOM      5  C   UNL     1      24.279   7.466 -16.546  1.00  0.00     0.065 A 
ATOM      6  C   UNL     1      24.383   8.106 -15.296  1.00  0.00     0.016 A 
ATOM      7  C   UNL     1      24.595   9.486 -15.232  1.00  0.00     0.001 A 
ATOM      8  C   UNL     1      24.705  10.236 -16.407  1.00  0.00     0.004 A 
ATOM      9  C   UNL     1      24.603   9.609 -17.652  1.00  0.00     0.048 A 
ATOM     10  C   UNL     1      24.391   8.228 -17.729  1.00  0.00     0.138 A 
ATOM     11  O   UNL     1      24.297   7.641 -18.917  1.00  0.00    -0.456 OA
ENDROOT
BRANCH   1  12
ATOM     12  C   UNL     1      24.008   5.801 -20.476  1.00  0.00     0.017 A 
ATOM     13  C   UNL     1      23.935   4.829 -23.125  1.00  0.00     0.000 A 
ATOM     14  C   UNL     1      25.086   5.448 -22.639  1.00  0.00     0.001 A 
ATOM     15  C   UNL     1      22.820   4.690 -22.299  1.00  0.00     0.001 A 
ATOM     16  C   UNL     1      25.125   5.931 -21.327  1.00  0.00     0.012 A 
ATOM     17  C   UNL     1      22.850   5.170 -20.986  1.00  0.00     0.012 A 
ENDBRANCH   1  12
TORSDOF 1
ENDMDL
MODEL 2
REMARK VINA RESULT:    -6.288      4.739      5.944
REMARK INTER + INTRA:          -6.888
REMARK INTER:                  -6.624
REMARK INTRA:                  -0.264
REMARK UNBOUND:                -0.233
REMARK SMILES O=c1cc(-c2ccccc2)oc2ccccc12
REMARK SMILES IDX 4 1 3 2 2 3 1 4 17 5 16 6 15 7 14 8 13 9 12 10 11 11 5 12
REMARK SMILES IDX 8 13 7 14 9 15 6 16 10 17
REMARK H PARENT
REMARK Flexibility Score: inf
ROOT
ATOM      1  C   UNL     1      20.186   8.888 -18.926  1.00  0.00     0.138 A 
ATOM      2  C   UNL     1      20.566   7.769 -19.696  1.00  0.00     0.100 A 
ATOM      3  C   UNL     1      21.906   7.378 -19.729  1.00  0.00     0.193 A 
ATOM      4  O   UNL     1      22.244   6.376 -20.418  1.00  0.00    -0.289 OA
ATOM      5  C   UNL     1      22.854   8.102 -18.995  1.00  0.00     0.065 A 
ATOM      6  C   UNL     1      24.220   7.761 -18.984  1.00  0.00     0.016 A 
ATOM      7  C   UNL     1      25.125   8.519 -18.234  1.00  0.00     0.001 A 
ATOM      8  C   UNL     1      24.678   9.616 -17.494  1.00  0.00     0.004 A 
ATOM      9  C   UNL     1      23.324   9.963 -17.499  1.00  0.00     0.048 A 
ATOM     10  C   UNL     1      22.409   9.211 -18.245  1.00  0.00     0.138 A 
ATOM     11  O   UNL     1      21.124   9.549 -18.244  1.00  0.00    -0.456 OA
ENDROOT
BRANCH   1  12
ATOM     12  C   UNL     1      18.775   9.375 -18.836  1.00  0.00     0.017 A 
ATOM     13  C   UNL     1      16.088  10.236 -18.744  1.00  0.00     0.000 A 
ATOM     14  C   UNL     1      16.488   9.297 -19.694  1.00  0.00     0.001 A 
ATOM     15  C   UNL     1      17.018  10.748 -17.839  1.00  0.00     0.001 A 
ATOM     16  C   UNL     1      17.819   8.868 -19.742  1.00  0.00     0.012 A 
ATOM     17  C   UNL     1      18.350  10.326 -17.881  1.00  0.00     0.012 A 
ENDBRANCH   1  12
TORSDOF 1
ENDMDL
MODEL 3
REMARK VINA RESULT:    -6.200      6.039      7.061
REMARK INTER + INTRA:          -6.795
REMARK INTER:                  -6.550
REMARK INTRA:                  -0.245
REMARK UNBOUND:                -0.233
REMARK SMILES O=c1cc(-c2ccccc2)oc2ccccc12
REMARK SMILES IDX 4 1 3 2 2 3 1 4 17 5 16 6 15 7 14 8 13 9 12 10 11 11 5 12
REMARK SMILES IDX 8 13 7 14 9 15 6 16 10 17
REMARK H PARENT
REMARK Flexibility Score: inf
ROOT
ATOM      1  C   UNL     1      20.899   0.502 -18.213  1.00  0.00     0.138 A 
ATOM      2  C   UNL     1      19.710   0.282 -17.487  1.00  0.00     0.100 A 
ATOM      3  C   UNL     1      19.674   0.566 -16.121  1.00  0.00     0.193 A 
ATOM      4  O   UNL     1      18.610   0.369 -15.472  1.00  0.00    -0.289 OA
ATOM      5  C   UNL     1      20.821   1.066 -15.490  1.00  0.00     0.065 A 
ATOM      6  C   UNL     1      20.852   1.374 -14.116  1.00  0.00     0.016 A 
ATOM      7  C   UNL     1      22.024   1.870 -13.537  1.00  0.00     0.001 A 
ATOM      8  C   UNL     1      23.166   2.064 -14.318  1.00  0.00     0.004 A 
ATOM      9  C   UNL     1      23.145   1.761 -15.682  1.00  0.00     0.048 A 
ATOM     10  C   UNL     1      21.977   1.264 -16.273  1.00  0.00     0.138 A 
ATOM     11  O   UNL     1      21.967   0.979 -17.570  1.00  0.00    -0.456 OA
ENDROOT
BRANCH   1  12
ATOM     12  C   UNL     1      21.022   0.224 -19.678  1.00  0.00     0.017 A 
ATOM     13  C   UNL     1      21.299  -0.214 -22.453  1.00  0.00     0.000 A 
ATOM     14  C   UNL     1      21.772   0.967 -21.881  1.00  0.00     0.001 A 
ATOM     15  C   UNL     1      20.689  -1.178 -21.650  1.00  0.00     0.001 A 
ATOM     16  C   UNL     1      21.636   1.187 -20.507  1.00  0.00     0.012 A 
ATOM     17  C   UNL     1      20.550  -0.967 -20.275  1.00  0.00     0.012 A 
ENDBRANCH   1  12
TORSDOF 1
ENDMDL
MODEL 4
REMARK VINA RESULT:    -6.076      6.390      7.678
REMARK INTER + INTRA:          -6.664
REMARK INTER:                  -6.420
REMARK INTRA:                  -0.244
REMARK UNBOUND:                -0.233
REMARK SMILES O=c1cc(-c2ccccc2)oc2ccccc12
REMARK SMILES IDX 4 1 3 2 2 3 1 4 17 5 16 6 15 7 14 8 13 9 12 10 11 11 5 12
REMARK SMILES IDX 8 13 7 14 9 15 6 16 10 17
REMARK H PARENT
REMARK Flexibility Score: inf
ROOT
ATOM      1  C   UNL     1      20.998   0.576 -18.246  1.00  0.00     0.138 A 
ATOM      2  C   UNL     1      22.078   1.051 -17.474  1.00  0.00     0.100 A 
ATOM      3  C   UNL     1      21.901   1.282 -16.108  1.00  0.00     0.193 A 
ATOM      4  O   UNL     1      22.867   1.707 -15.418  1.00  0.00    -0.289 OA
ATOM      5  C   UNL     1      20.650   1.037 -15.524  1.00  0.00     0.065 A 
ATOM      6  C   UNL     1      20.404   1.249 -14.155  1.00  0.00     0.016 A 
ATOM      7  C   UNL     1      19.137   0.988 -13.623  1.00  0.00     0.001 A 
ATOM      8  C   UNL     1      18.112   0.519 -14.448  1.00  0.00     0.004 A 
ATOM      9  C   UNL     1      18.347   0.306 -15.810  1.00  0.00     0.048 A 
ATOM     10  C   UNL     1      19.611   0.562 -16.353  1.00  0.00     0.138 A 
ATOM     11  O   UNL     1      19.825   0.358 -17.647  1.00  0.00    -0.456 OA
ENDROOT
BRANCH   1  12
ATOM     12  C   UNL     1      21.103   0.303 -19.713  1.00  0.00     0.017 A 
ATOM     13  C   UNL     1      21.258  -0.297 -22.467  1.00  0.00     0.000 A 
ATOM     14  C   UNL     1      20.670  -1.204 -21.586  1.00  0.00     0.001 A 
ATOM     15  C   UNL     1      21.768   0.908 -21.984  1.00  0.00     0.001 A 
ATOM     16  C   UNL     1      20.593  -0.910 -20.221  1.00  0.00     0.012 A 
ATOM     17  C   UNL     1      21.694   1.211 -20.622  1.00  0.00     0.012 A 
ENDBRANCH   1  12
TORSDOF 1
ENDMDL
MODEL 5
REMARK VINA RESULT:    -6.021      8.097     10.072
REMARK INTER + INTRA:          -6.606
REMARK INTER:                  -6.383
REMARK INTRA:                  -0.223
REMARK UNBOUND:                -0.233
REMARK SMILES O=c1cc(-c2ccccc2)oc2ccccc12
REMARK SMILES IDX 4 1 3 2 2 3 1 4 17 5 16 6 15 7 14 8 13 9 12 10 11 11 5 12
REMARK SMILES IDX 8 13 7 14 9 15 6 16 10 17
REMARK H PARENT
REMARK Flexibility Score: inf
ROOT
ATOM      1  C   UNL     1      18.757  -0.540 -16.658  1.00  0.00     0.138 A 
ATOM      2  C   UNL     1      18.653  -0.732 -18.052  1.00  0.00     0.100 A 
ATOM      3  C   UNL     1      19.648  -0.230 -18.892  1.00  0.00     0.193 A 
ATOM      4  O   UNL     1      19.555  -0.403 -20.139  1.00  0.00    -0.289 OA
ATOM      5  C   UNL     1      20.737   0.458 -18.339  1.00  0.00     0.065 A 
ATOM      6  C   UNL     1      21.774   0.988 -19.130  1.00  0.00     0.016 A 
ATOM      7  C   UNL     1      22.837   1.666 -18.526  1.00  0.00     0.001 A 
ATOM      8  C   UNL     1      22.875   1.820 -17.137  1.00  0.00     0.004 A 
ATOM      9  C   UNL     1      21.850   1.296 -16.344  1.00  0.00     0.048 A 
ATOM     10  C   UNL     1      20.780   0.615 -16.938  1.00  0.00     0.138 A 
ATOM     11  O   UNL     1      19.811   0.122 -16.176  1.00  0.00    -0.456 OA
ENDROOT
BRANCH   1  12
ATOM     12  C   UNL     1      17.736  -1.044 -15.688  1.00  0.00     0.017 A 
ATOM     13  C   UNL     1      15.772  -1.904 -13.852  1.00  0.00     0.000 A 
ATOM     14  C   UNL     1      15.802  -0.575 -14.271  1.00  0.00     0.001 A 
ATOM     15  C   UNL     1      16.714  -2.808 -14.343  1.00  0.00     0.001 A 
ATOM     16  C   UNL     1      16.774  -0.145 -15.180  1.00  0.00     0.012 A 
ATOM     17  C   UNL     1      17.689  -2.388 -15.252  1.00  0.00     0.012 A 
ENDBRANCH   1  12
TORSDOF 1
ENDMDL
MODEL 6
REMARK VINA RESULT:    -5.987      9.490     11.200
REMARK INTER + INTRA:          -6.570
REMARK INTER:                  -6.342
REMARK INTRA:                  -0.228
REMARK UNBOUND:                -0.233
REMARK SMILES O=c1cc(-c2ccccc2)oc2ccccc12
REMARK SMILES IDX 4 1 3 2 2 3 1 4 17 5 16 6 15 7 14 8 13 9 12 10 11 11 5 12
REMARK SMILES IDX 8 13 7 14 9 15 6 16 10 17
REMARK H PARENT
REMARK Flexibility Score: inf
ROOT
ATOM      1  C   UNL     1      18.491  -1.020 -16.759  1.00  0.00     0.138 A 
ATOM      2  C   UNL     1      17.808  -0.150 -15.885  1.00  0.00     0.100 A 
ATOM      3  C   UNL     1      17.034  -0.679 -14.850  1.00  0.00     0.193 A 
ATOM      4  O   UNL     1      16.424   0.101 -14.068  1.00  0.00    -0.289 OA
ATOM      5  C   UNL     1      16.949  -2.069 -14.694  1.00  0.00     0.065 A 
ATOM      6  C   UNL     1      16.187  -2.667 -13.672  1.00  0.00     0.016 A 
ATOM      7  C   UNL     1      16.136  -4.060 -13.562  1.00  0.00     0.001 A 
ATOM      8  C   UNL     1      16.839  -4.863 -14.465  1.00  0.00     0.004 A 
ATOM      9  C   UNL     1      17.597  -4.278 -15.483  1.00  0.00     0.048 A 
ATOM     10  C   UNL     1      17.656  -2.884 -15.602  1.00  0.00     0.138 A 
ATOM     11  O   UNL     1      18.379  -2.338 -16.573  1.00  0.00    -0.456 OA
ENDROOT
BRANCH   1  12
ATOM     12  C   UNL     1      19.339  -0.537 -17.892  1.00  0.00     0.017 A 
ATOM     13  C   UNL     1      20.874   0.336 -20.094  1.00  0.00     0.000 A 
ATOM     14  C   UNL     1      19.675  -0.343 -20.304  1.00  0.00     0.001 A 
ATOM     15  C   UNL     1      21.313   0.584 -18.793  1.00  0.00     0.001 A 
ATOM     16  C   UNL     1      18.912  -0.777 -19.216  1.00  0.00     0.012 A 
ATOM     17  C   UNL     1      20.557   0.153 -17.699  1.00  0.00     0.012 A 
ENDBRANCH   1  12
TORSDOF 1
ENDMDL
MODEL 7
REMARK VINA RESULT:    -5.950      8.210     10.589
REMARK INTER + INTRA:          -6.531
REMARK INTER:                  -6.306
REMARK INTRA:                  -0.225
REMARK UNBOUND:                -0.233
REMARK SMILES O=c1cc(-c2ccccc2)oc2ccccc12
REMARK SMILES IDX 4 1 3 2 2 3 1 4 17 5 16 6 15 7 14 8 13 9 12 10 11 11 5 12
REMARK SMILES IDX 8 13 7 14 9 15 6 16 10 17
REMARK H PARENT
REMARK Flexibility Score: inf
ROOT
ATOM      1  C   UNL     1      18.682  -0.467 -16.508  1.00  0.00     0.138 A 
ATOM      2  C   UNL     1      19.781   0.328 -16.122  1.00  0.00     0.100 A 
ATOM      3  C   UNL     1      20.715   0.726 -17.080  1.00  0.00     0.193 A 
ATOM      4  O   UNL     1      21.697   1.438 -16.734  1.00  0.00    -0.289 OA
ATOM      5  C   UNL     1      20.546   0.330 -18.414  1.00  0.00     0.065 A 
ATOM      6  C   UNL     1      21.450   0.697 -19.429  1.00  0.00     0.016 A 
ATOM      7  C   UNL     1      21.234   0.274 -20.745  1.00  0.00     0.001 A 
ATOM      8  C   UNL     1      20.122  -0.514 -21.056  1.00  0.00     0.004 A 
ATOM      9  C   UNL     1      19.220  -0.883 -20.054  1.00  0.00     0.048 A 
ATOM     10  C   UNL     1      19.425  -0.465 -18.735  1.00  0.00     0.138 A 
ATOM     11  O   UNL     1      18.562  -0.821 -17.790  1.00  0.00    -0.456 OA
ENDROOT
BRANCH   1  12
ATOM     12  C   UNL     1      17.638  -0.936 -15.546  1.00  0.00     0.017 A 
ATOM     13  C   UNL     1      15.708  -1.912 -13.731  1.00  0.00     0.000 A 
ATOM     14  C   UNL     1      16.719  -2.753 -14.196  1.00  0.00     0.001 A 
ATOM     15  C   UNL     1      15.654  -0.587 -14.165  1.00  0.00     0.001 A 
ATOM     16  C   UNL     1      17.676  -2.273 -15.095  1.00  0.00     0.012 A 
ATOM     17  C   UNL     1      16.606  -0.099 -15.064  1.00  0.00     0.012 A 
ENDBRANCH   1  12
TORSDOF 1
ENDMDL
MODEL 8
REMARK VINA RESULT:    -5.872     14.293     15.680
REMARK INTER + INTRA:          -6.448
REMARK INTER:                  -6.226
REMARK INTRA:                  -0.222
REMARK UNBOUND:                -0.233
REMARK SMILES O=c1cc(-c2ccccc2)oc2ccccc12
REMARK SMILES IDX 4 1 3 2 2 3 1 4 17 5 16 6 15 7 14 8 13 9 12 10 11 11 5 12
REMARK SMILES IDX 8 13 7 14 9 15 6 16 10 17
REMARK H PARENT
REMARK Flexibility Score: inf
ROOT
ATOM      1  C   UNL     1      20.794  -2.022  -7.151  1.00  0.00     0.138 A 
ATOM      2  C   UNL     1      20.599  -0.633  -6.997  1.00  0.00     0.100 A 
ATOM      3  C   UNL     1      19.414  -0.049  -7.450  1.00  0.00     0.193 A 
ATOM      4  O   UNL     1      19.240   1.192  -7.312  1.00  0.00    -0.289 OA
ATOM      5  C   UNL     1      18.436  -0.852  -8.052  1.00  0.00     0.065 A 
ATOM      6  C   UNL     1      17.220  -0.328  -8.530  1.00  0.00     0.016 A 
ATOM      7  C   UNL     1      16.278  -1.174  -9.123  1.00  0.00     0.001 A 
ATOM      8  C   UNL     1      16.538  -2.541  -9.243  1.00  0.00     0.004 A 
ATOM      9  C   UNL     1      17.743  -3.072  -8.771  1.00  0.00     0.048 A 
ATOM     10  C   UNL     1      18.693  -2.234  -8.176  1.00  0.00     0.138 A 
ATOM     11  O   UNL     1      19.835  -2.747  -7.731  1.00  0.00    -0.456 OA
ENDROOT
BRANCH   1  12
ATOM     12  C   UNL     1      22.032  -2.726  -6.694  1.00  0.00     0.017 A 
ATOM     13  C   UNL     1      24.415  -4.023  -5.913  1.00  0.00     0.000 A 
ATOM     14  C   UNL     1      24.376  -3.285  -7.096  1.00  0.00     0.001 A 
ATOM     15  C   UNL     1      23.273  -4.118  -5.117  1.00  0.00     0.001 A 
ATOM     16  C   UNL     1      23.197  -2.642  -7.485  1.00  0.00     0.012 A 
ATOM     17  C   UNL     1      22.091  -3.478  -5.499  1.00  0.00     0.012 A 
ENDBRANCH   1  12
TORSDOF 1
ENDMDL
MODEL 9
REMARK VINA RESULT:    -5.856     13.345     15.227
REMARK INTER + INTRA:          -6.431
REMARK INTER:                  -6.200
REMARK INTRA:                  -0.231
REMARK UNBOUND:                -0.233
REMARK SMILES O=c1cc(-c2ccccc2)oc2ccccc12
REMARK SMILES IDX 4 1 3 2 2 3 1 4 17 5 16 6 15 7 14 8 13 9 12 10 11 11 5 12
REMARK SMILES IDX 8 13 7 14 9 15 6 16 10 17
REMARK H PARENT
REMARK Flexibility Score: inf
ROOT
ATOM      1  C   UNL     1      20.897  -1.903  -7.005  1.00  0.00     0.138 A 
ATOM      2  C   UNL     1      19.641  -2.496  -7.253  1.00  0.00     0.100 A 
ATOM      3  C   UNL     1      18.547  -1.688  -7.570  1.00  0.00     0.193 A 
ATOM      4  O   UNL     1      17.425  -2.220  -7.791  1.00  0.00    -0.289 OA
ATOM      5  C   UNL     1      18.713  -0.298  -7.638  1.00  0.00     0.065 A 
ATOM      6  C   UNL     1      17.653   0.573  -7.952  1.00  0.00     0.016 A 
ATOM      7  C   UNL     1      17.873   1.952  -8.006  1.00  0.00     0.001 A 
ATOM      8  C   UNL     1      19.145   2.472  -7.749  1.00  0.00     0.004 A 
ATOM      9  C   UNL     1      20.204   1.615  -7.436  1.00  0.00     0.048 A 
ATOM     10  C   UNL     1      19.995   0.232  -7.379  1.00  0.00     0.138 A 
ATOM     11  O   UNL     1      21.007  -0.575  -7.080  1.00  0.00    -0.456 OA
ENDROOT
BRANCH   1  12
ATOM     12  C   UNL     1      22.118  -2.694  -6.659  1.00  0.00     0.017 A 
ATOM     13  C   UNL     1      24.378  -4.217  -5.923  1.00  0.00     0.000 A 
ATOM     14  C   UNL     1      23.249  -4.201  -5.104  1.00  0.00     0.001 A 
ATOM     15  C   UNL     1      24.387  -3.478  -7.107  1.00  0.00     0.001 A 
ATOM     16  C   UNL     1      22.128  -3.448  -5.466  1.00  0.00     0.012 A 
ATOM     17  C   UNL     1      23.271  -2.723  -7.476  1.00  0.00     0.012 A 
ENDBRANCH   1  12
TORSDOF 1
ENDMDL
