MODEL 1
REMARK VINA RESULT:    -3.851      0.000      0.000
REMARK INTER + INTRA:          -6.798
REMARK INTER:                  -5.877
REMARK INTRA:                  -0.921
REMARK UNBOUND:                -0.921
REMARK SMILES C=CCCCCCCCCCC
REMARK SMILES IDX 7 1 8 2 9 3 10 4 11 5 12 6 6 7 5 8 4 9 3 10 2 11 1 12
REMARK H PARENT
REMARK Flexibility Score: inf
ROOT
ATOM      1  C   UNL     1       8.322   1.517  26.278  1.00  0.00     0.000 C 
ENDROOT
BRANCH   1   2
ATOM      2  C   UNL     1       8.254   1.527  24.743  1.00  0.00    -0.000 C 
BRANCH   2   3
ATOM      3  C   UNL     1       9.647   1.591  24.091  1.00  0.00    -0.000 C 
BRANCH   3   4
ATOM      4  C   UNL     1       9.687   0.909  22.714  1.00  0.00    -0.000 C 
BRANCH   4   5
ATOM      5  C   UNL     1       8.496   1.298  21.824  1.00  0.00    -0.003 C 
ATOM      6  C   UNL     1       7.907   0.074  21.130  1.00  0.00     0.004 C 
ENDBRANCH   4   5
ENDBRANCH   3   4
ENDBRANCH   2   3
ENDBRANCH   1   2
BRANCH   1   7
ATOM      7  C   UNL     1       9.111   0.314  26.825  1.00  0.00     0.000 C 
BRANCH   7   8
ATOM      8  C   UNL     1      10.265   0.728  27.755  1.00  0.00     0.000 C 
BRANCH   8   9
ATOM      9  C   UNL     1      11.679   0.538  27.169  1.00  0.00     0.004 C 
BRANCH   9  10
ATOM     10  C   UNL     1      11.937  -0.852  26.562  1.00  0.00     0.027 C 
BRANCH  10  11
ATOM     11  C   UNL     1      12.199  -0.799  25.081  1.00  0.00    -0.035 C 
ATOM     12  C   UNL     1      13.427  -0.954  24.577  1.00  0.00     0.004 C 
ENDBRANCH  10  11
ENDBRANCH   9  10
ENDBRANCH   8   9
ENDBRANCH   7   8
ENDBRANCH   1   7
TORSDOF 9
ENDMDL
MODEL 2
REMARK VINA RESULT:    -3.820      7.992     10.230
REMARK INTER + INTRA:          -6.752
REMARK INTER:                  -5.468
REMARK INTRA:                  -1.284
REMARK UNBOUND:                -0.921
REMARK SMILES C=CCCCCCCCCCC
REMARK SMILES IDX 7 1 8 2 9 3 10 4 11 5 12 6 6 7 5 8 4 9 3 10 2 11 1 12
REMARK H PARENT
REMARK Flexibility Score: inf
ROOT
ATOM      1  C   UNL     1       5.358  -4.135  19.310  1.00  0.00     0.000 C 
ENDROOT
BRANCH   1   2
ATOM      2  C   UNL     1       5.577  -2.663  19.695  1.00  0.00    -0.000 C 
BRANCH   2   3
ATOM      3  C   UNL     1       6.386  -1.891  18.637  1.00  0.00    -0.000 C 
BRANCH   3   4
ATOM      4  C   UNL     1       7.094  -2.823  17.639  1.00  0.00    -0.000 C 
BRANCH   4   5
ATOM      5  C   UNL     1       7.656  -2.072  16.422  1.00  0.00    -0.003 C 
ATOM      6  C   UNL     1       9.093  -1.623  16.670  1.00  0.00     0.004 C 
ENDBRANCH   4   5
ENDBRANCH   3   4
ENDBRANCH   2   3
ENDBRANCH   1   2
BRANCH   1   7
ATOM      7  C   UNL     1       3.866  -4.502  19.212  1.00  0.00     0.000 C 
BRANCH   7   8
ATOM      8  C   UNL     1       2.952  -3.268  19.111  1.00  0.00     0.000 C 
BRANCH   8   9
ATOM      9  C   UNL     1       2.326  -3.028  17.722  1.00  0.00     0.004 C 
BRANCH   9  10
ATOM     10  C   UNL     1       2.975  -1.888  16.918  1.00  0.00     0.027 C 
BRANCH  10  11
ATOM     11  C   UNL     1       3.946  -2.390  15.882  1.00  0.00    -0.035 C 
ATOM     12  C   UNL     1       4.260  -1.667  14.803  1.00  0.00     0.004 C 
ENDBRANCH  10  11
ENDBRANCH   9  10
ENDBRANCH   8   9
ENDBRANCH   7   8
ENDBRANCH   1   7
TORSDOF 9
ENDMDL
MODEL 3
REMARK VINA RESULT:    -3.808      8.978     10.708
REMARK INTER + INTRA:          -6.733
REMARK INTER:                  -5.778
REMARK INTRA:                  -0.955
REMARK UNBOUND:                -0.921
REMARK SMILES C=CCCCCCCCCCC
REMARK SMILES IDX 7 1 8 2 9 3 10 4 11 5 12 6 6 7 5 8 4 9 3 10 2 11 1 12
REMARK H PARENT
REMARK Flexibility Score: inf
ROOT
ATOM      1  C   UNL     1       3.110  -3.823  17.882  1.00  0.00     0.000 C 
ENDROOT
BRANCH   1   2
ATOM      2  C   UNL     1       1.605  -3.591  18.095  1.00  0.00    -0.000 C 
BRANCH   2   3
ATOM      3  C   UNL     1       1.120  -2.264  17.485  1.00  0.00    -0.000 C 
BRANCH   3   4
ATOM      4  C   UNL     1       1.529  -2.106  16.012  1.00  0.00    -0.000 C 
BRANCH   4   5
ATOM      5  C   UNL     1       2.018  -0.688  15.679  1.00  0.00    -0.003 C 
ATOM      6  C   UNL     1       2.706  -0.650  14.318  1.00  0.00     0.004 C 
ENDBRANCH   4   5
ENDBRANCH   3   4
ENDBRANCH   2   3
ENDBRANCH   1   2
BRANCH   1   7
ATOM      7  C   UNL     1       3.974  -2.738  18.549  1.00  0.00     0.000 C 
BRANCH   7   8
ATOM      8  C   UNL     1       5.351  -2.575  17.882  1.00  0.00     0.000 C 
BRANCH   8   9
ATOM      9  C   UNL     1       5.316  -2.349  16.356  1.00  0.00     0.004 C 
BRANCH   9  10
ATOM     10  C   UNL     1       6.702  -2.244  15.696  1.00  0.00     0.027 C 
BRANCH  10  11
ATOM     11  C   UNL     1       7.828  -2.384  16.685  1.00  0.00    -0.035 C 
ATOM     12  C   UNL     1       8.899  -1.585  16.651  1.00  0.00     0.004 C 
ENDBRANCH  10  11
ENDBRANCH   9  10
ENDBRANCH   8   9
ENDBRANCH   7   8
ENDBRANCH   1   7
TORSDOF 9
ENDMDL
MODEL 4
REMARK VINA RESULT:    -3.807      8.803     11.278
REMARK INTER + INTRA:          -6.732
REMARK INTER:                  -5.679
REMARK INTRA:                  -1.053
REMARK UNBOUND:                -0.921
REMARK SMILES C=CCCCCCCCCCC
REMARK SMILES IDX 7 1 8 2 9 3 10 4 11 5 12 6 6 7 5 8 4 9 3 10 2 11 1 12
REMARK H PARENT
REMARK Flexibility Score: inf
ROOT
ATOM      1  C   UNL     1       3.187  -3.820  17.901  1.00  0.00     0.000 C 
ENDROOT
BRANCH   1   2
ATOM      2  C   UNL     1       4.411  -3.388  18.725  1.00  0.00    -0.000 C 
BRANCH   2   3
ATOM      3  C   UNL     1       5.224  -2.279  18.034  1.00  0.00    -0.000 C 
BRANCH   3   4
ATOM      4  C   UNL     1       6.717  -2.627  17.916  1.00  0.00    -0.000 C 
BRANCH   4   5
ATOM      5  C   UNL     1       7.270  -2.401  16.501  1.00  0.00    -0.003 C 
ATOM      6  C   UNL     1       8.763  -2.089  16.539  1.00  0.00     0.004 C 
ENDBRANCH   4   5
ENDBRANCH   3   4
ENDBRANCH   2   3
ENDBRANCH   1   2
BRANCH   1   7
ATOM      7  C   UNL     1       1.864  -3.311  18.500  1.00  0.00     0.000 C 
BRANCH   7   8
ATOM      8  C   UNL     1       1.158  -2.280  17.601  1.00  0.00     0.000 C 
BRANCH   8   9
ATOM      9  C   UNL     1       1.724  -2.162  16.171  1.00  0.00     0.004 C 
BRANCH   9  10
ATOM     10  C   UNL     1       2.195  -0.749  15.786  1.00  0.00     0.027 C 
BRANCH  10  11
ATOM     11  C   UNL     1       3.377  -0.765  14.854  1.00  0.00    -0.035 C 
ATOM     12  C   UNL     1       4.024  -1.896  14.556  1.00  0.00     0.004 C 
ENDBRANCH  10  11
ENDBRANCH   9  10
ENDBRANCH   8   9
ENDBRANCH   7   8
ENDBRANCH   1   7
TORSDOF 9
ENDMDL
MODEL 5
REMARK VINA RESULT:    -3.770     10.683     12.625
REMARK INTER + INTRA:          -6.675
REMARK INTER:                  -5.534
REMARK INTRA:                  -1.140
REMARK UNBOUND:                -0.921
REMARK SMILES C=CCCCCCCCCCC
REMARK SMILES IDX 7 1 8 2 9 3 10 4 11 5 12 6 6 7 5 8 4 9 3 10 2 11 1 12
REMARK H PARENT
REMARK Flexibility Score: inf
ROOT
ATOM      1  C   UNL     1       2.439  -3.859  17.863  1.00  0.00     0.000 C 
ENDROOT
BRANCH   1   2
ATOM      2  C   UNL     1       0.940  -3.752  18.186  1.00  0.00    -0.000 C 
BRANCH   2   3
ATOM      3  C   UNL     1       0.546  -2.356  18.702  1.00  0.00    -0.000 C 
BRANCH   3   4
ATOM      4  C   UNL     1      -0.230  -2.413  20.027  1.00  0.00    -0.000 C 
BRANCH   4   5
ATOM      5  C   UNL     1      -1.351  -1.364  20.104  1.00  0.00    -0.003 C 
ATOM      6  C   UNL     1      -1.541  -0.664  18.762  1.00  0.00     0.004 C 
ENDBRANCH   4   5
ENDBRANCH   3   4
ENDBRANCH   2   3
ENDBRANCH   1   2
BRANCH   1   7
ATOM      7  C   UNL     1       3.145  -2.491  17.881  1.00  0.00     0.000 C 
BRANCH   7   8
ATOM      8  C   UNL     1       4.100  -2.295  16.691  1.00  0.00     0.000 C 
BRANCH   8   9
ATOM      9  C   UNL     1       3.463  -1.659  15.438  1.00  0.00     0.004 C 
BRANCH   9  10
ATOM     10  C   UNL     1       2.286  -0.713  15.732  1.00  0.00     0.027 C 
BRANCH  10  11
ATOM     11  C   UNL     1       0.981  -1.222  15.181  1.00  0.00    -0.035 C 
ATOM     12  C   UNL     1      -0.163  -0.551  15.347  1.00  0.00     0.004 C 
ENDBRANCH  10  11
ENDBRANCH   9  10
ENDBRANCH   8   9
ENDBRANCH   7   8
ENDBRANCH   1   7
TORSDOF 9
ENDMDL
MODEL 6
REMARK VINA RESULT:    -3.769     15.312     18.237
REMARK INTER + INTRA:          -6.673
REMARK INTER:                  -5.139
REMARK INTRA:                  -1.533
REMARK UNBOUND:                -0.921
REMARK SMILES C=CCCCCCCCCCC
REMARK SMILES IDX 7 1 8 2 9 3 10 4 11 5 12 6 6 7 5 8 4 9 3 10 2 11 1 12
REMARK H PARENT
REMARK Flexibility Score: inf
ROOT
ATOM      1  C   UNL     1      -1.643  -6.064  10.828  1.00  0.00     0.000 C 
ENDROOT
BRANCH   1   2
ATOM      2  C   UNL     1      -0.876  -6.366   9.529  1.00  0.00    -0.000 C 
BRANCH   2   3
ATOM      3  C   UNL     1       0.105  -5.242   9.149  1.00  0.00    -0.000 C 
BRANCH   3   4
ATOM      4  C   UNL     1      -0.602  -3.901   8.897  1.00  0.00    -0.000 C 
BRANCH   4   5
ATOM      5  C   UNL     1       0.131  -2.713   9.540  1.00  0.00    -0.003 C 
ATOM      6  C   UNL     1       1.164  -3.191  10.557  1.00  0.00     0.004 C 
ENDBRANCH   4   5
ENDBRANCH   3   4
ENDBRANCH   2   3
ENDBRANCH   1   2
BRANCH   1   7
ATOM      7  C   UNL     1      -0.730  -6.077  12.067  1.00  0.00     0.000 C 
BRANCH   7   8
ATOM      8  C   UNL     1      -0.966  -4.871  12.995  1.00  0.00     0.000 C 
BRANCH   8   9
ATOM      9  C   UNL     1      -2.119  -3.937  12.574  1.00  0.00     0.004 C 
BRANCH   9  10
ATOM     10  C   UNL     1      -1.827  -2.438  12.766  1.00  0.00     0.027 C 
BRANCH  10  11
ATOM     11  C   UNL     1      -0.627  -2.188  13.640  1.00  0.00    -0.035 C 
ATOM     12  C   UNL     1      -0.405  -1.000  14.209  1.00  0.00     0.004 C 
ENDBRANCH  10  11
ENDBRANCH   9  10
ENDBRANCH   8   9
ENDBRANCH   7   8
ENDBRANCH   1   7
TORSDOF 9
ENDMDL
MODEL 7
REMARK VINA RESULT:    -3.769      8.998     12.012
REMARK INTER + INTRA:          -6.673
REMARK INTER:                  -5.625
REMARK INTRA:                  -1.047
REMARK UNBOUND:                -0.921
REMARK SMILES C=CCCCCCCCCCC
REMARK SMILES IDX 7 1 8 2 9 3 10 4 11 5 12 6 6 7 5 8 4 9 3 10 2 11 1 12
REMARK H PARENT
REMARK Flexibility Score: inf
ROOT
ATOM      1  C   UNL     1       3.100  -0.631  15.070  1.00  0.00     0.000 C 
ENDROOT
BRANCH   1   2
ATOM      2  C   UNL     1       4.093  -1.669  14.523  1.00  0.00    -0.000 C 
BRANCH   2   3
ATOM      3  C   UNL     1       5.066  -2.181  15.601  1.00  0.00    -0.000 C 
BRANCH   3   4
ATOM      4  C   UNL     1       6.535  -2.103  15.155  1.00  0.00    -0.000 C 
BRANCH   4   5
ATOM      5  C   UNL     1       7.519  -2.280  16.322  1.00  0.00    -0.003 C 
ATOM      6  C   UNL     1       6.778  -2.538  17.631  1.00  0.00     0.004 C 
ENDBRANCH   4   5
ENDBRANCH   3   4
ENDBRANCH   2   3
ENDBRANCH   1   2
BRANCH   1   7
ATOM      7  C   UNL     1       1.710  -0.746  14.422  1.00  0.00     0.000 C 
BRANCH   7   8
ATOM      8  C   UNL     1       0.656  -1.346  15.370  1.00  0.00     0.000 C 
BRANCH   8   9
ATOM      9  C   UNL     1       1.187  -1.772  16.755  1.00  0.00     0.004 C 
BRANCH   9  10
ATOM     10  C   UNL     1       1.353  -3.291  16.934  1.00  0.00     0.027 C 
BRANCH  10  11
ATOM     11  C   UNL     1       2.437  -3.643  17.917  1.00  0.00    -0.035 C 
ATOM     12  C   UNL     1       3.133  -2.705  18.565  1.00  0.00     0.004 C 
ENDBRANCH  10  11
ENDBRANCH   9  10
ENDBRANCH   8   9
ENDBRANCH   7   8
ENDBRANCH   1   7
TORSDOF 9
ENDMDL
MODEL 8
REMARK VINA RESULT:    -3.686     13.768     17.247
REMARK INTER + INTRA:          -6.547
REMARK INTER:                  -5.436
REMARK INTRA:                  -1.111
REMARK UNBOUND:                -0.921
REMARK SMILES C=CCCCCCCCCCC
REMARK SMILES IDX 7 1 8 2 9 3 10 4 11 5 12 6 6 7 5 8 4 9 3 10 2 11 1 12
REMARK H PARENT
REMARK Flexibility Score: inf
ROOT
ATOM      1  C   UNL     1      -1.911  -4.325  12.622  1.00  0.00     0.000 C 
ENDROOT
BRANCH   1   2
ATOM      2  C   UNL     1      -0.720  -5.268  12.855  1.00  0.00    -0.000 C 
BRANCH   2   3
ATOM      3  C   UNL     1      -0.625  -6.373  11.787  1.00  0.00    -0.000 C 
BRANCH   3   4
ATOM      4  C   UNL     1      -1.766  -6.301  10.760  1.00  0.00    -0.000 C 
BRANCH   4   5
ATOM      5  C   UNL     1      -1.258  -6.151   9.317  1.00  0.00    -0.003 C 
ATOM      6  C   UNL     1      -0.652  -4.769   9.089  1.00  0.00     0.004 C 
ENDBRANCH   4   5
ENDBRANCH   3   4
ENDBRANCH   2   3
ENDBRANCH   1   2
BRANCH   1   7
ATOM      7  C   UNL     1      -1.497  -2.843  12.611  1.00  0.00     0.000 C 
BRANCH   7   8
ATOM      8  C   UNL     1      -0.033  -2.635  12.184  1.00  0.00     0.000 C 
BRANCH   8   9
ATOM      9  C   UNL     1       0.819  -1.791  13.154  1.00  0.00     0.004 C 
BRANCH   9  10
ATOM     10  C   UNL     1       0.768  -2.258  14.619  1.00  0.00     0.027 C 
BRANCH  10  11
ATOM     11  C   UNL     1       0.488  -1.132  15.578  1.00  0.00    -0.035 C 
ATOM     12  C   UNL     1      -0.588  -0.350  15.451  1.00  0.00     0.004 C 
ENDBRANCH  10  11
ENDBRANCH   9  10
ENDBRANCH   8   9
ENDBRANCH   7   8
ENDBRANCH   1   7
TORSDOF 9
ENDMDL
MODEL 9
REMARK VINA RESULT:    -3.659     10.456     12.178
REMARK INTER + INTRA:          -6.506
REMARK INTER:                  -5.241
REMARK INTRA:                  -1.265
REMARK UNBOUND:                -0.921
REMARK SMILES C=CCCCCCCCCCC
REMARK SMILES IDX 7 1 8 2 9 3 10 4 11 5 12 6 6 7 5 8 4 9 3 10 2 11 1 12
REMARK H PARENT
REMARK Flexibility Score: inf
ROOT
ATOM      1  C   UNL     1       3.441  -2.752  18.061  1.00  0.00     0.000 C 
ENDROOT
BRANCH   1   2
ATOM      2  C   UNL     1       4.367  -2.584  16.845  1.00  0.00    -0.000 C 
BRANCH   2   3
ATOM      3  C   UNL     1       3.640  -1.979  15.630  1.00  0.00    -0.000 C 
BRANCH   3   4
ATOM      4  C   UNL     1       2.516  -1.012  16.035  1.00  0.00    -0.000 C 
BRANCH   4   5
ATOM      5  C   UNL     1       1.254  -1.173  15.174  1.00  0.00    -0.003 C 
ATOM      6  C   UNL     1       0.885  -2.645  15.012  1.00  0.00     0.004 C 
ENDBRANCH   4   5
ENDBRANCH   3   4
ENDBRANCH   2   3
ENDBRANCH   1   2
BRANCH   1   7
ATOM      7  C   UNL     1       2.793  -4.146  18.120  1.00  0.00     0.000 C 
BRANCH   7   8
ATOM      8  C   UNL     1       1.274  -4.090  18.366  1.00  0.00     0.000 C 
BRANCH   8   9
ATOM      9  C   UNL     1       0.803  -2.951  19.295  1.00  0.00     0.004 C 
BRANCH   9  10
ATOM     10  C   UNL     1      -0.078  -1.892  18.609  1.00  0.00     0.027 C 
BRANCH  10  11
ATOM     11  C   UNL     1      -1.044  -1.238  19.560  1.00  0.00    -0.035 C 
ATOM     12  C   UNL     1      -1.048  -1.521  20.866  1.00  0.00     0.004 C 
ENDBRANCH  10  11
ENDBRANCH   9  10
ENDBRANCH   8   9
ENDBRANCH   7   8
ENDBRANCH   1   7
TORSDOF 9
ENDMDL
