MODEL 1
REMARK VINA RESULT:    -3.420      0.000      0.000
REMARK INTER + INTRA:          -3.748
REMARK INTER:                  -3.720
REMARK INTRA:                  -0.028
REMARK UNBOUND:                -0.028
REMARK SMILES O=C([O-])c1ccc(O)cc1
REMARK SMILES IDX 4 1 5 2 10 3 6 4 9 5 7 6 2 7 1 8 3 9 8 10
REMARK H PARENT 8 11
REMARK Flexibility Score: inf
ROOT
ATOM      1  C   UNL     1      13.608   3.871  -1.631  1.00  0.00    -0.003 A 
ATOM      2  C   UNL     1      14.751   3.504  -0.897  1.00  0.00     0.014 A 
ATOM      3  C   UNL     1      13.240   3.101  -2.750  1.00  0.00     0.014 A 
ATOM      4  C   UNL     1      15.509   2.392  -1.276  1.00  0.00     0.047 A 
ATOM      5  C   UNL     1      14.001   1.990  -3.125  1.00  0.00     0.047 A 
ATOM      6  C   UNL     1      15.138   1.633  -2.389  1.00  0.00     0.115 A 
ENDROOT
BRANCH   1   7
ATOM      7  C   UNL     1      12.801   5.046  -1.236  1.00  0.00     0.071 C 
ATOM      8  O   UNL     1      12.103   5.020  -0.187  1.00  0.00    -0.545 OA
ATOM      9  O   UNL     1      12.801   6.197  -2.017  1.00  0.00    -0.545 OA
ENDBRANCH   1   7
BRANCH   6  10
ATOM     10  O   UNL     1      15.903   0.528  -2.754  1.00  0.00    -0.508 OA
ATOM     11  H   UNL     1      15.475  -0.316  -3.118  1.00  0.00     0.293 HD
ENDBRANCH   6  10
TORSDOF 2
ENDMDL
MODEL 2
REMARK VINA RESULT:    -3.240     17.038     18.042
REMARK INTER + INTRA:          -3.551
REMARK INTER:                  -3.519
REMARK INTRA:                  -0.032
REMARK UNBOUND:                -0.028
REMARK SMILES O=C([O-])c1ccc(O)cc1
REMARK SMILES IDX 4 1 5 2 10 3 6 4 9 5 7 6 2 7 1 8 3 9 8 10
REMARK H PARENT 8 11
REMARK Flexibility Score: inf
ROOT
ATOM      1  C   UNL     1      23.918  17.685  -0.046  1.00  0.00    -0.003 A 
ATOM      2  C   UNL     1      25.254  18.125  -0.046  1.00  0.00     0.014 A 
ATOM      3  C   UNL     1      23.373  17.160   1.140  1.00  0.00     0.014 A 
ATOM      4  C   UNL     1      26.028  18.039   1.116  1.00  0.00     0.047 A 
ATOM      5  C   UNL     1      24.150  17.076   2.299  1.00  0.00     0.047 A 
ATOM      6  C   UNL     1      25.480  17.515   2.290  1.00  0.00     0.115 A 
ENDROOT
BRANCH   1   7
ATOM      7  C   UNL     1      23.094  17.773  -1.271  1.00  0.00     0.071 C 
ATOM      8  O   UNL     1      21.873  18.077  -1.203  1.00  0.00    -0.545 OA
ATOM      9  O   UNL     1      23.657  17.521  -2.519  1.00  0.00    -0.545 OA
ENDBRANCH   1   7
BRANCH   6  10
ATOM     10  O   UNL     1      26.262  17.437   3.439  1.00  0.00    -0.508 OA
ATOM     11  H   UNL     1      27.152  17.918   3.508  1.00  0.00     0.293 HD
ENDBRANCH   6  10
TORSDOF 2
ENDMDL
MODEL 3
REMARK VINA RESULT:    -3.211      2.965      4.109
REMARK INTER + INTRA:          -3.520
REMARK INTER:                  -3.488
REMARK INTRA:                  -0.032
REMARK UNBOUND:                -0.028
REMARK SMILES O=C([O-])c1ccc(O)cc1
REMARK SMILES IDX 4 1 5 2 10 3 6 4 9 5 7 6 2 7 1 8 3 9 8 10
REMARK H PARENT 8 11
REMARK Flexibility Score: inf
ROOT
ATOM      1  C   UNL     1      10.271   5.016  -2.102  1.00  0.00    -0.003 A 
ATOM      2  C   UNL     1      11.017   4.269  -3.031  1.00  0.00     0.014 A 
ATOM      3  C   UNL     1      10.873   5.388  -0.886  1.00  0.00     0.014 A 
ATOM      4  C   UNL     1      12.336   3.901  -2.748  1.00  0.00     0.047 A 
ATOM      5  C   UNL     1      12.191   5.018  -0.607  1.00  0.00     0.047 A 
ATOM      6  C   UNL     1      12.927   4.273  -1.537  1.00  0.00     0.115 A 
ENDROOT
BRANCH   1   7
ATOM      7  C   UNL     1       8.875   5.408  -2.395  1.00  0.00     0.071 C 
ATOM      8  O   UNL     1       8.100   4.617  -2.996  1.00  0.00    -0.545 OA
ATOM      9  O   UNL     1       8.399   6.658  -2.012  1.00  0.00    -0.545 OA
ENDBRANCH   1   7
BRANCH   6  10
ATOM     10  O   UNL     1      14.241   3.899  -1.269  1.00  0.00    -0.508 OA
ATOM     11  H   UNL     1      14.551   3.688  -0.327  1.00  0.00     0.293 HD
ENDBRANCH   6  10
TORSDOF 2
ENDMDL
MODEL 4
REMARK VINA RESULT:    -3.180      1.822      2.749
REMARK INTER + INTRA:          -3.486
REMARK INTER:                  -3.450
REMARK INTRA:                  -0.036
REMARK UNBOUND:                -0.028
REMARK SMILES O=C([O-])c1ccc(O)cc1
REMARK SMILES IDX 4 1 5 2 10 3 6 4 9 5 7 6 2 7 1 8 3 9 8 10
REMARK H PARENT 8 11
REMARK Flexibility Score: inf
ROOT
ATOM      1  C   UNL     1      11.536   4.593  -1.786  1.00  0.00    -0.003 A 
ATOM      2  C   UNL     1      11.349   3.595  -2.759  1.00  0.00     0.014 A 
ATOM      3  C   UNL     1      12.802   4.732  -1.188  1.00  0.00     0.014 A 
ATOM      4  C   UNL     1      12.405   2.755  -3.125  1.00  0.00     0.047 A 
ATOM      5  C   UNL     1      13.855   3.890  -1.556  1.00  0.00     0.047 A 
ATOM      6  C   UNL     1      13.659   2.898  -2.525  1.00  0.00     0.115 A 
ENDROOT
BRANCH   1   7
ATOM      7  C   UNL     1      10.423   5.485  -1.395  1.00  0.00     0.071 C 
ATOM      8  O   UNL     1      10.563   6.309  -0.452  1.00  0.00    -0.545 OA
ATOM      9  O   UNL     1       9.204   5.427  -2.064  1.00  0.00    -0.545 OA
ENDBRANCH   1   7
BRANCH   6  10
ATOM     10  O   UNL     1      14.702   2.054  -2.899  1.00  0.00    -0.508 OA
ATOM     11  H   UNL     1      14.777   1.693  -3.843  1.00  0.00     0.293 HD
ENDBRANCH   6  10
TORSDOF 2
ENDMDL
MODEL 5
REMARK VINA RESULT:    -3.149      2.961      4.359
REMARK INTER + INTRA:          -3.452
REMARK INTER:                  -3.418
REMARK INTRA:                  -0.034
REMARK UNBOUND:                -0.028
REMARK SMILES O=C([O-])c1ccc(O)cc1
REMARK SMILES IDX 4 1 5 2 10 3 6 4 9 5 7 6 2 7 1 8 3 9 8 10
REMARK H PARENT 8 11
REMARK Flexibility Score: inf
ROOT
ATOM      1  C   UNL     1      10.836   6.918  -1.492  1.00  0.00    -0.003 A 
ATOM      2  C   UNL     1      11.819   6.961  -2.497  1.00  0.00     0.014 A 
ATOM      3  C   UNL     1      10.923   5.928  -0.496  1.00  0.00     0.014 A 
ATOM      4  C   UNL     1      12.865   6.033  -2.505  1.00  0.00     0.047 A 
ATOM      5  C   UNL     1      11.971   5.003  -0.507  1.00  0.00     0.047 A 
ATOM      6  C   UNL     1      12.945   5.052  -1.513  1.00  0.00     0.115 A 
ENDROOT
BRANCH   1   7
ATOM      7  C   UNL     1       9.727   7.896  -1.478  1.00  0.00     0.071 C 
ATOM      8  O   UNL     1       8.619   7.601  -0.956  1.00  0.00    -0.545 OA
ATOM      9  O   UNL     1       9.892   9.157  -2.042  1.00  0.00    -0.545 OA
ENDBRANCH   1   7
BRANCH   6  10
ATOM     10  O   UNL     1      13.992   4.135  -1.534  1.00  0.00    -0.508 OA
ATOM     11  H   UNL     1      14.811   4.254  -0.948  1.00  0.00     0.293 HD
ENDBRANCH   6  10
TORSDOF 2
ENDMDL
MODEL 6
REMARK VINA RESULT:    -3.135      2.183      4.794
REMARK INTER + INTRA:          -3.438
REMARK INTER:                  -3.409
REMARK INTRA:                  -0.029
REMARK UNBOUND:                -0.028
REMARK SMILES O=C([O-])c1ccc(O)cc1
REMARK SMILES IDX 4 1 5 2 10 3 6 4 9 5 7 6 2 7 1 8 3 9 8 10
REMARK H PARENT 8 11
REMARK Flexibility Score: inf
ROOT
ATOM      1  C   UNL     1      12.992   4.597  -1.760  1.00  0.00    -0.003 A 
ATOM      2  C   UNL     1      12.198   4.755  -0.610  1.00  0.00     0.014 A 
ATOM      3  C   UNL     1      12.852   5.516  -2.816  1.00  0.00     0.014 A 
ATOM      4  C   UNL     1      11.284   5.809  -0.519  1.00  0.00     0.047 A 
ATOM      5  C   UNL     1      11.936   6.568  -2.722  1.00  0.00     0.047 A 
ATOM      6  C   UNL     1      11.149   6.717  -1.573  1.00  0.00     0.115 A 
ENDROOT
BRANCH   1   7
ATOM      7  C   UNL     1      13.961   3.484  -1.862  1.00  0.00     0.071 C 
ATOM      8  O   UNL     1      14.914   3.388  -1.043  1.00  0.00    -0.545 OA
ATOM      9  O   UNL     1      13.835   2.528  -2.864  1.00  0.00    -0.545 OA
ENDBRANCH   1   7
BRANCH   6  10
ATOM     10  O   UNL     1      10.234   7.762  -1.469  1.00  0.00    -0.508 OA
ATOM     11  H   UNL     1       9.734   7.943  -0.606  1.00  0.00     0.293 HD
ENDBRANCH   6  10
TORSDOF 2
ENDMDL
MODEL 7
REMARK VINA RESULT:    -2.982      3.015      5.512
REMARK INTER + INTRA:          -3.271
REMARK INTER:                  -3.239
REMARK INTRA:                  -0.032
REMARK UNBOUND:                -0.028
REMARK SMILES O=C([O-])c1ccc(O)cc1
REMARK SMILES IDX 4 1 5 2 10 3 6 4 9 5 7 6 2 7 1 8 3 9 8 10
REMARK H PARENT 8 11
REMARK Flexibility Score: inf
ROOT
ATOM      1  C   UNL     1      18.143   1.291  -2.415  1.00  0.00    -0.003 A 
ATOM      2  C   UNL     1      17.470   2.349  -1.776  1.00  0.00     0.014 A 
ATOM      3  C   UNL     1      17.391   0.310  -3.085  1.00  0.00     0.014 A 
ATOM      4  C   UNL     1      16.073   2.421  -1.808  1.00  0.00     0.047 A 
ATOM      5  C   UNL     1      15.995   0.386  -3.115  1.00  0.00     0.047 A 
ATOM      6  C   UNL     1      15.333   1.442  -2.476  1.00  0.00     0.115 A 
ENDROOT
BRANCH   1   7
ATOM      7  C   UNL     1      19.620   1.209  -2.385  1.00  0.00     0.071 C 
ATOM      8  O   UNL     1      20.198   0.095  -2.280  1.00  0.00    -0.545 OA
ATOM      9  O   UNL     1      20.392   2.363  -2.471  1.00  0.00    -0.545 OA
ENDBRANCH   1   7
BRANCH   6  10
ATOM     10  O   UNL     1      13.943   1.527  -2.499  1.00  0.00    -0.508 OA
ATOM     11  H   UNL     1      13.464   2.409  -2.357  1.00  0.00     0.293 HD
ENDBRANCH   6  10
TORSDOF 2
ENDMDL
