MODEL 1
REMARK VINA RESULT:    -4.659      0.000      0.000
REMARK INTER + INTRA:          -6.736
REMARK INTER:                  -6.566
REMARK INTRA:                  -0.169
REMARK UNBOUND:                -0.169
REMARK SMILES CCCCCCCCC(=O)[O-]
REMARK SMILES IDX 6 1 7 2 8 3 9 4 10 5 11 6 5 7 4 8 3 9 2 10 1 11
REMARK H PARENT
REMARK Flexibility Score: inf
ROOT
ATOM      1  C   UNL     1       0.679   7.679  18.885  1.00  0.00     0.000 C 
ENDROOT
BRANCH   1   2
ATOM      2  C   UNL     1       0.846   7.590  20.409  1.00  0.00     0.006 C 
BRANCH   2   3
ATOM      3  C   UNL     1      -0.379   6.969  21.093  1.00  0.00     0.053 C 
BRANCH   3   4
ATOM      4  C   UNL     1      -0.149   6.750  22.557  1.00  0.00     0.041 C 
ATOM      5  O   UNL     1      -1.122   6.737  23.357  1.00  0.00    -0.550 OA
ATOM      6  O   UNL     1       1.143   6.596  23.044  1.00  0.00    -0.550 OA
ENDBRANCH   3   4
ENDBRANCH   2   3
ENDBRANCH   1   2
BRANCH   1   7
ATOM      7  C   UNL     1       1.456   8.877  18.317  1.00  0.00     0.000 C 
BRANCH   7   8
ATOM      8  C   UNL     1       1.621   8.809  16.790  1.00  0.00    -0.000 C 
BRANCH   8   9
ATOM      9  C   UNL     1       1.869  10.190  16.160  1.00  0.00    -0.000 C 
BRANCH   9  10
ATOM     10  C   UNL     1       0.595  10.793  15.546  1.00  0.00    -0.003 C 
ATOM     11  C   UNL     1       0.080   9.997  14.347  1.00  0.00     0.004 C 
ENDBRANCH   9  10
ENDBRANCH   8   9
ENDBRANCH   7   8
ENDBRANCH   1   7
TORSDOF 7
ENDMDL
MODEL 2
REMARK VINA RESULT:    -4.482      3.706      6.522
REMARK INTER + INTRA:          -6.486
REMARK INTER:                  -6.133
REMARK INTRA:                  -0.353
REMARK UNBOUND:                -0.169
REMARK SMILES CCCCCCCCC(=O)[O-]
REMARK SMILES IDX 6 1 7 2 8 3 9 4 10 5 11 6 5 7 4 8 3 9 2 10 1 11
REMARK H PARENT
REMARK Flexibility Score: inf
ROOT
ATOM      1  C   UNL     1       0.696   8.744  19.380  1.00  0.00     0.000 C 
ENDROOT
BRANCH   1   2
ATOM      2  C   UNL     1       1.158   8.298  17.985  1.00  0.00     0.006 C 
BRANCH   2   3
ATOM      3  C   UNL     1       2.189   9.260  17.379  1.00  0.00     0.053 C 
BRANCH   3   4
ATOM      4  C   UNL     1       1.622  10.028  16.224  1.00  0.00     0.041 C 
ATOM      5  O   UNL     1       2.137  11.125  15.879  1.00  0.00    -0.550 OA
ATOM      6  O   UNL     1       0.506   9.550  15.550  1.00  0.00    -0.550 OA
ENDBRANCH   3   4
ENDBRANCH   2   3
ENDBRANCH   1   2
BRANCH   1   7
ATOM      7  C   UNL     1       1.892   8.879  20.336  1.00  0.00     0.000 C 
BRANCH   7   8
ATOM      8  C   UNL     1       2.029   7.682  21.290  1.00  0.00    -0.000 C 
BRANCH   8   9
ATOM      9  C   UNL     1       0.714   6.900  21.451  1.00  0.00    -0.000 C 
BRANCH   9  10
ATOM     10  C   UNL     1       0.400   6.573  22.919  1.00  0.00    -0.003 C 
ATOM     11  C   UNL     1      -1.024   6.958  23.322  1.00  0.00     0.004 C 
ENDBRANCH   9  10
ENDBRANCH   8   9
ENDBRANCH   7   8
ENDBRANCH   1   7
TORSDOF 7
ENDMDL
MODEL 3
REMARK VINA RESULT:    -3.964      7.204      7.998
REMARK INTER + INTRA:          -5.755
REMARK INTER:                  -5.066
REMARK INTRA:                  -0.689
REMARK UNBOUND:                -0.169
REMARK SMILES CCCCCCCCC(=O)[O-]
REMARK SMILES IDX 6 1 7 2 8 3 9 4 10 5 11 6 5 7 4 8 3 9 2 10 1 11
REMARK H PARENT
REMARK Flexibility Score: inf
ROOT
ATOM      1  C   UNL     1      -4.642   5.798  16.556  1.00  0.00     0.000 C 
ENDROOT
BRANCH   1   2
ATOM      2  C   UNL     1      -3.389   5.396  15.765  1.00  0.00     0.006 C 
BRANCH   2   3
ATOM      3  C   UNL     1      -3.097   3.893  15.864  1.00  0.00     0.053 C 
BRANCH   3   4
ATOM      4  C   UNL     1      -1.670   3.626  16.238  1.00  0.00     0.041 C 
ATOM      5  O   UNL     1      -0.753   4.375  15.810  1.00  0.00    -0.550 OA
ATOM      6  O   UNL     1      -1.351   2.531  17.030  1.00  0.00    -0.550 OA
ENDBRANCH   3   4
ENDBRANCH   2   3
ENDBRANCH   1   2
BRANCH   1   7
ATOM      7  C   UNL     1      -5.824   4.876  16.217  1.00  0.00     0.000 C 
BRANCH   7   8
ATOM      8  C   UNL     1      -6.772   5.483  15.171  1.00  0.00    -0.000 C 
BRANCH   8   9
ATOM      9  C   UNL     1      -6.944   4.583  13.935  1.00  0.00    -0.000 C 
BRANCH   9  10
ATOM     10  C   UNL     1      -5.717   4.613  13.010  1.00  0.00    -0.003 C 
ATOM     11  C   UNL     1      -5.341   6.028  12.569  1.00  0.00     0.004 C 
ENDBRANCH   9  10
ENDBRANCH   8   9
ENDBRANCH   7   8
ENDBRANCH   1   7
TORSDOF 7
ENDMDL
MODEL 4
REMARK VINA RESULT:    -3.919      7.228      7.962
REMARK INTER + INTRA:          -5.692
REMARK INTER:                  -5.085
REMARK INTRA:                  -0.606
REMARK UNBOUND:                -0.169
REMARK SMILES CCCCCCCCC(=O)[O-]
REMARK SMILES IDX 6 1 7 2 8 3 9 4 10 5 11 6 5 7 4 8 3 9 2 10 1 11
REMARK H PARENT
REMARK Flexibility Score: inf
ROOT
ATOM      1  C   UNL     1      -4.720   5.747  16.808  1.00  0.00     0.000 C 
ENDROOT
BRANCH   1   2
ATOM      2  C   UNL     1      -3.570   5.307  15.891  1.00  0.00     0.006 C 
BRANCH   2   3
ATOM      3  C   UNL     1      -3.268   3.808  16.016  1.00  0.00     0.053 C 
BRANCH   3   4
ATOM      4  C   UNL     1      -1.805   3.549  16.215  1.00  0.00     0.041 C 
ATOM      5  O   UNL     1      -1.425   2.589  16.936  1.00  0.00    -0.550 OA
ATOM      6  O   UNL     1      -0.864   4.388  15.634  1.00  0.00    -0.550 OA
ENDBRANCH   3   4
ENDBRANCH   2   3
ENDBRANCH   1   2
BRANCH   1   7
ATOM      7  C   UNL     1      -5.438   6.979  16.236  1.00  0.00     0.000 C 
BRANCH   7   8
ATOM      8  C   UNL     1      -6.165   6.684  14.914  1.00  0.00    -0.000 C 
BRANCH   8   9
ATOM      9  C   UNL     1      -7.070   5.443  15.001  1.00  0.00    -0.000 C 
BRANCH   9  10
ATOM     10  C   UNL     1      -7.143   4.674  13.673  1.00  0.00    -0.003 C 
ATOM     11  C   UNL     1      -5.771   4.451  13.039  1.00  0.00     0.004 C 
ENDBRANCH   9  10
ENDBRANCH   8   9
ENDBRANCH   7   8
ENDBRANCH   1   7
TORSDOF 7
ENDMDL
MODEL 5
REMARK VINA RESULT:    -3.852      6.999      7.788
REMARK INTER + INTRA:          -5.598
REMARK INTER:                  -5.095
REMARK INTRA:                  -0.504
REMARK UNBOUND:                -0.169
REMARK SMILES CCCCCCCCC(=O)[O-]
REMARK SMILES IDX 6 1 7 2 8 3 9 4 10 5 11 6 5 7 4 8 3 9 2 10 1 11
REMARK H PARENT
REMARK Flexibility Score: inf
ROOT
ATOM      1  C   UNL     1      -4.998   3.836  15.946  1.00  0.00     0.000 C 
ENDROOT
BRANCH   1   2
ATOM      2  C   UNL     1      -3.693   4.600  16.218  1.00  0.00     0.006 C 
BRANCH   2   3
ATOM      3  C   UNL     1      -2.491   3.970  15.503  1.00  0.00     0.053 C 
BRANCH   3   4
ATOM      4  C   UNL     1      -1.328   3.782  16.429  1.00  0.00     0.041 C 
ATOM      5  O   UNL     1      -1.171   2.689  17.034  1.00  0.00    -0.550 OA
ATOM      6  O   UNL     1      -0.438   4.825  16.651  1.00  0.00    -0.550 OA
ENDBRANCH   3   4
ENDBRANCH   2   3
ENDBRANCH   1   2
BRANCH   1   7
ATOM      7  C   UNL     1      -5.912   4.630  15.000  1.00  0.00     0.000 C 
BRANCH   7   8
ATOM      8  C   UNL     1      -6.855   5.586  15.747  1.00  0.00    -0.000 C 
BRANCH   8   9
ATOM      9  C   UNL     1      -6.472   7.064  15.556  1.00  0.00    -0.000 C 
BRANCH   9  10
ATOM     10  C   UNL     1      -6.059   7.740  16.872  1.00  0.00    -0.003 C 
ATOM     11  C   UNL     1      -6.576   7.002  18.107  1.00  0.00     0.004 C 
ENDBRANCH   9  10
ENDBRANCH   8   9
ENDBRANCH   7   8
ENDBRANCH   1   7
TORSDOF 7
ENDMDL
MODEL 6
REMARK VINA RESULT:    -3.823      8.241      9.276
REMARK INTER + INTRA:          -5.557
REMARK INTER:                  -5.091
REMARK INTRA:                  -0.466
REMARK UNBOUND:                -0.169
REMARK SMILES CCCCCCCCC(=O)[O-]
REMARK SMILES IDX 6 1 7 2 8 3 9 4 10 5 11 6 5 7 4 8 3 9 2 10 1 11
REMARK H PARENT
REMARK Flexibility Score: inf
ROOT
ATOM      1  C   UNL     1      -5.258   5.617  16.977  1.00  0.00     0.000 C 
ENDROOT
BRANCH   1   2
ATOM      2  C   UNL     1      -6.396   6.335  16.236  1.00  0.00     0.006 C 
BRANCH   2   3
ATOM      3  C   UNL     1      -7.169   5.392  15.304  1.00  0.00     0.053 C 
BRANCH   3   4
ATOM      4  C   UNL     1      -8.521   5.937  14.958  1.00  0.00     0.041 C 
ATOM      5  O   UNL     1      -9.198   6.550  15.825  1.00  0.00    -0.550 OA
ATOM      6  O   UNL     1      -9.048   5.738  13.689  1.00  0.00    -0.550 OA
ENDBRANCH   3   4
ENDBRANCH   2   3
ENDBRANCH   1   2
BRANCH   1   7
ATOM      7  C   UNL     1      -5.431   4.092  16.901  1.00  0.00     0.000 C 
BRANCH   7   8
ATOM      8  C   UNL     1      -4.184   3.378  16.354  1.00  0.00    -0.000 C 
BRANCH   8   9
ATOM      9  C   UNL     1      -3.311   4.298  15.483  1.00  0.00    -0.000 C 
BRANCH   9  10
ATOM     10  C   UNL     1      -1.810   4.003  15.638  1.00  0.00    -0.003 C 
ATOM     11  C   UNL     1      -1.518   2.962  16.718  1.00  0.00     0.004 C 
ENDBRANCH   9  10
ENDBRANCH   8   9
ENDBRANCH   7   8
ENDBRANCH   1   7
TORSDOF 7
ENDMDL
MODEL 7
REMARK VINA RESULT:    -3.784     14.163     15.926
REMARK INTER + INTRA:          -5.502
REMARK INTER:                  -5.268
REMARK INTRA:                  -0.234
REMARK UNBOUND:                -0.169
REMARK SMILES CCCCCCCCC(=O)[O-]
REMARK SMILES IDX 6 1 7 2 8 3 9 4 10 5 11 6 5 7 4 8 3 9 2 10 1 11
REMARK H PARENT
REMARK Flexibility Score: inf
ROOT
ATOM      1  C   UNL     1       5.932  -3.966  26.358  1.00  0.00     0.000 C 
ENDROOT
BRANCH   1   2
ATOM      2  C   UNL     1       7.159  -3.098  26.675  1.00  0.00     0.006 C 
BRANCH   2   3
ATOM      3  C   UNL     1       7.060  -1.701  26.048  1.00  0.00     0.053 C 
BRANCH   3   4
ATOM      4  C   UNL     1       8.349  -0.946  26.165  1.00  0.00     0.041 C 
ATOM      5  O   UNL     1       8.680  -0.117  25.276  1.00  0.00    -0.550 OA
ATOM      6  O   UNL     1       9.200  -1.182  27.236  1.00  0.00    -0.550 OA
ENDBRANCH   3   4
ENDBRANCH   2   3
ENDBRANCH   1   2
BRANCH   1   7
ATOM      7  C   UNL     1       4.917  -3.923  27.511  1.00  0.00     0.000 C 
BRANCH   7   8
ATOM      8  C   UNL     1       3.899  -5.073  27.450  1.00  0.00    -0.000 C 
BRANCH   8   9
ATOM      9  C   UNL     1       3.490  -5.424  26.009  1.00  0.00    -0.000 C 
BRANCH   9  10
ATOM     10  C   UNL     1       2.662  -6.717  25.931  1.00  0.00    -0.003 C 
ATOM     11  C   UNL     1       1.796  -6.943  27.170  1.00  0.00     0.004 C 
ENDBRANCH   9  10
ENDBRANCH   8   9
ENDBRANCH   7   8
ENDBRANCH   1   7
TORSDOF 7
ENDMDL
MODEL 8
REMARK VINA RESULT:    -3.782      8.140      8.827
REMARK INTER + INTRA:          -5.499
REMARK INTER:                  -4.927
REMARK INTRA:                  -0.572
REMARK UNBOUND:                -0.169
REMARK SMILES CCCCCCCCC(=O)[O-]
REMARK SMILES IDX 6 1 7 2 8 3 9 4 10 5 11 6 5 7 4 8 3 9 2 10 1 11
REMARK H PARENT
REMARK Flexibility Score: inf
ROOT
ATOM      1  C   UNL     1      -5.574   6.243  17.414  1.00  0.00     0.000 C 
ENDROOT
BRANCH   1   2
ATOM      2  C   UNL     1      -4.966   5.346  16.326  1.00  0.00     0.006 C 
BRANCH   2   3
ATOM      3  C   UNL     1      -5.624   3.961  16.280  1.00  0.00     0.053 C 
BRANCH   3   4
ATOM      4  C   UNL     1      -4.724   2.898  16.833  1.00  0.00     0.041 C 
ATOM      5  O   UNL     1      -3.489   2.924  16.590  1.00  0.00    -0.550 OA
ATOM      6  O   UNL     1      -5.255   1.860  17.588  1.00  0.00    -0.550 OA
ENDBRANCH   3   4
ENDBRANCH   2   3
ENDBRANCH   1   2
BRANCH   1   7
ATOM      7  C   UNL     1      -6.203   7.502  16.799  1.00  0.00     0.000 C 
BRANCH   7   8
ATOM      8  C   UNL     1      -7.033   7.199  15.541  1.00  0.00    -0.000 C 
BRANCH   8   9
ATOM      9  C   UNL     1      -8.520   6.959  15.857  1.00  0.00    -0.000 C 
BRANCH   9  10
ATOM     10  C   UNL     1      -9.217   6.102  14.788  1.00  0.00    -0.003 C 
ATOM     11  C   UNL     1      -8.239   5.263  13.968  1.00  0.00     0.004 C 
ENDBRANCH   9  10
ENDBRANCH   8   9
ENDBRANCH   7   8
ENDBRANCH   1   7
TORSDOF 7
ENDMDL
MODEL 9
REMARK VINA RESULT:    -3.778      8.304      9.102
REMARK INTER + INTRA:          -5.493
REMARK INTER:                  -4.684
REMARK INTRA:                  -0.809
REMARK UNBOUND:                -0.169
REMARK SMILES CCCCCCCCC(=O)[O-]
REMARK SMILES IDX 6 1 7 2 8 3 9 4 10 5 11 6 5 7 4 8 3 9 2 10 1 11
REMARK H PARENT
REMARK Flexibility Score: inf
ROOT
ATOM      1  C   UNL     1      -6.330   7.434  15.932  1.00  0.00     0.000 C 
ENDROOT
BRANCH   1   2
ATOM      2  C   UNL     1      -5.162   6.504  16.290  1.00  0.00     0.006 C 
BRANCH   2   3
ATOM      3  C   UNL     1      -5.629   5.242  17.027  1.00  0.00     0.053 C 
BRANCH   3   4
ATOM      4  C   UNL     1      -4.958   4.009  16.500  1.00  0.00     0.041 C 
ATOM      5  O   UNL     1      -4.139   4.092  15.548  1.00  0.00    -0.550 OA
ATOM      6  O   UNL     1      -5.264   2.766  17.039  1.00  0.00    -0.550 OA
ENDBRANCH   3   4
ENDBRANCH   2   3
ENDBRANCH   1   2
BRANCH   1   7
ATOM      7  C   UNL     1      -7.611   7.014  16.669  1.00  0.00     0.000 C 
BRANCH   7   8
ATOM      8  C   UNL     1      -8.805   6.814  15.720  1.00  0.00    -0.000 C 
BRANCH   8   9
ATOM      9  C   UNL     1      -8.369   6.565  14.266  1.00  0.00    -0.000 C 
BRANCH   9  10
ATOM     10  C   UNL     1      -8.274   5.069  13.928  1.00  0.00    -0.003 C 
ATOM     11  C   UNL     1      -6.903   4.669  13.383  1.00  0.00     0.004 C 
ENDBRANCH   9  10
ENDBRANCH   8   9
ENDBRANCH   7   8
ENDBRANCH   1   7
TORSDOF 7
ENDMDL
