MODEL 1
REMARK VINA RESULT:    -5.025      0.000      0.000
REMARK INTER + INTRA:         -11.308
REMARK INTER:                  -9.431
REMARK INTRA:                  -1.877
REMARK UNBOUND:                -1.877
REMARK SMILES O=C([O-])CCCCCCCCCCCCCCC(=O)[O-]
REMARK SMILES IDX 10 1 9 2 8 3 7 4 6 5 5 6 4 7 2 8 1 9 3 10 11 11 12 12 13 13
REMARK SMILES IDX 14 14 15 15 16 16 17 17 18 18 19 19 20 20
REMARK H PARENT
REMARK Flexibility Score: inf
ROOT
ATOM      1  C   UNL     1     163.812 163.766 157.890  1.00  0.00     0.000 C 
ENDROOT
BRANCH   1   2
ATOM      2  C   UNL     1     163.969 165.114 158.610  1.00  0.00     0.000 C 
BRANCH   2   3
ATOM      3  C   UNL     1     163.405 166.290 157.797  1.00  0.00     0.000 C 
BRANCH   3   4
ATOM      4  C   UNL     1     161.908 166.526 158.055  1.00  0.00     0.000 C 
BRANCH   4   5
ATOM      5  C   UNL     1     161.070 166.129 156.831  1.00  0.00     0.000 C 
BRANCH   5   6
ATOM      6  C   UNL     1     161.580 166.765 155.525  1.00  0.00     0.006 C 
BRANCH   6   7
ATOM      7  C   UNL     1     160.607 166.651 154.342  1.00  0.00     0.053 C 
BRANCH   7   8
ATOM      8  C   UNL     1     161.318 166.688 153.024  1.00  0.00     0.041 C 
ATOM      9  O   UNL     1     161.281 165.693 152.255  1.00  0.00    -0.550 OA
ATOM     10  O   UNL     1     161.995 167.837 152.633  1.00  0.00    -0.550 OA
ENDBRANCH   7   8
ENDBRANCH   6   7
ENDBRANCH   5   6
ENDBRANCH   4   5
ENDBRANCH   3   4
ENDBRANCH   2   3
ENDBRANCH   1   2
BRANCH   1  11
ATOM     11  C   UNL     1     162.834 162.852 158.642  1.00  0.00     0.000 C 
BRANCH  11  12
ATOM     12  C   UNL     1     161.500 162.671 157.899  1.00  0.00     0.000 C 
BRANCH  12  13
ATOM     13  C   UNL     1     160.335 162.339 158.844  1.00  0.00     0.000 C 
BRANCH  13  14
ATOM     14  C   UNL     1     159.211 163.374 158.714  1.00  0.00     0.000 C 
BRANCH  14  15
ATOM     15  C   UNL     1     158.834 163.951 160.087  1.00  0.00     0.000 C 
BRANCH  15  16
ATOM     16  C   UNL     1     159.610 165.234 160.422  1.00  0.00     0.006 C 
BRANCH  16  17
ATOM     17  C   UNL     1     160.896 164.959 161.213  1.00  0.00     0.053 C 
BRANCH  17  18
ATOM     18  C   UNL     1     160.661 165.156 162.677  1.00  0.00     0.041 C 
ATOM     19  O   UNL     1     159.920 166.090 163.080  1.00  0.00    -0.550 OA
ATOM     20  O   UNL     1     161.301 164.337 163.599  1.00  0.00    -0.550 OA
ENDBRANCH  17  18
ENDBRANCH  16  17
ENDBRANCH  15  16
ENDBRANCH  14  15
ENDBRANCH  13  14
ENDBRANCH  12  13
ENDBRANCH  11  12
ENDBRANCH   1  11
TORSDOF 15
ENDMDL
MODEL 2
REMARK VINA RESULT:    -4.993      0.751      7.102
REMARK INTER + INTRA:         -11.249
REMARK INTER:                  -9.293
REMARK INTRA:                  -1.956
REMARK UNBOUND:                -1.877
REMARK SMILES O=C([O-])CCCCCCCCCCCCCCC(=O)[O-]
REMARK SMILES IDX 10 1 9 2 8 3 7 4 6 5 5 6 4 7 2 8 1 9 3 10 11 11 12 12 13 13
REMARK SMILES IDX 14 14 15 15 16 16 17 17 18 18 19 19 20 20
REMARK H PARENT
REMARK Flexibility Score: inf
ROOT
ATOM      1  C   UNL     1     163.071 163.136 158.663  1.00  0.00     0.000 C 
ENDROOT
BRANCH   1   2
ATOM      2  C   UNL     1     161.929 162.480 157.872  1.00  0.00     0.000 C 
BRANCH   2   3
ATOM      3  C   UNL     1     160.637 162.346 158.695  1.00  0.00     0.000 C 
BRANCH   3   4
ATOM      4  C   UNL     1     159.736 163.586 158.590  1.00  0.00     0.000 C 
BRANCH   4   5
ATOM      5  C   UNL     1     159.521 164.227 159.969  1.00  0.00     0.000 C 
BRANCH   5   6
ATOM      6  C   UNL     1     159.953 165.703 160.016  1.00  0.00     0.006 C 
BRANCH   6   7
ATOM      7  C   UNL     1     160.988 166.027 161.104  1.00  0.00     0.053 C 
BRANCH   7   8
ATOM      8  C   UNL     1     160.491 165.680 162.473  1.00  0.00     0.041 C 
ATOM      9  O   UNL     1     160.985 164.707 163.100  1.00  0.00    -0.550 OA
ATOM     10  O   UNL     1     159.502 166.453 163.070  1.00  0.00    -0.550 OA
ENDBRANCH   7   8
ENDBRANCH   6   7
ENDBRANCH   5   6
ENDBRANCH   4   5
ENDBRANCH   3   4
ENDBRANCH   2   3
ENDBRANCH   1   2
BRANCH   1  11
ATOM     11  C   UNL     1     163.686 164.302 157.875  1.00  0.00     0.000 C 
BRANCH  11  12
ATOM     12  C   UNL     1     163.818 165.582 158.717  1.00  0.00     0.000 C 
BRANCH  12  13
ATOM     13  C   UNL     1     163.025 166.760 158.131  1.00  0.00     0.000 C 
BRANCH  13  14
ATOM     14  C   UNL     1     162.658 166.500 156.664  1.00  0.00     0.000 C 
BRANCH  14  15
ATOM     15  C   UNL     1     161.140 166.329 156.500  1.00  0.00     0.000 C 
BRANCH  15  16
ATOM     16  C   UNL     1     160.675 166.542 155.051  1.00  0.00     0.006 C 
BRANCH  16  17
ATOM     17  C   UNL     1     161.824 166.932 154.112  1.00  0.00     0.053 C 
BRANCH  17  18
ATOM     18  C   UNL     1     161.396 166.808 152.684  1.00  0.00     0.041 C 
ATOM     19  O   UNL     1     160.798 167.759 152.117  1.00  0.00    -0.550 OA
ATOM     20  O   UNL     1     161.615 165.623 151.993  1.00  0.00    -0.550 OA
ENDBRANCH  17  18
ENDBRANCH  16  17
ENDBRANCH  15  16
ENDBRANCH  14  15
ENDBRANCH  13  14
ENDBRANCH  12  13
ENDBRANCH  11  12
ENDBRANCH   1  11
TORSDOF 15
ENDMDL
MODEL 3
REMARK VINA RESULT:    -4.952      2.808      6.277
REMARK INTER + INTRA:         -11.172
REMARK INTER:                  -9.048
REMARK INTRA:                  -2.124
REMARK UNBOUND:                -1.877
REMARK SMILES O=C([O-])CCCCCCCCCCCCCCC(=O)[O-]
REMARK SMILES IDX 10 1 9 2 8 3 7 4 6 5 5 6 4 7 2 8 1 9 3 10 11 11 12 12 13 13
REMARK SMILES IDX 14 14 15 15 16 16 17 17 18 18 19 19 20 20
REMARK H PARENT
REMARK Flexibility Score: inf
ROOT
ATOM      1  C   UNL     1     157.353 165.226 160.197  1.00  0.00     0.000 C 
ENDROOT
BRANCH   1   2
ATOM      2  C   UNL     1     157.803 163.758 160.128  1.00  0.00     0.000 C 
BRANCH   2   3
ATOM      3  C   UNL     1     157.463 163.096 158.784  1.00  0.00     0.000 C 
BRANCH   3   4
ATOM      4  C   UNL     1     158.708 162.578 158.046  1.00  0.00     0.000 C 
BRANCH   4   5
ATOM      5  C   UNL     1     159.925 162.541 158.981  1.00  0.00     0.000 C 
BRANCH   5   6
ATOM      6  C   UNL     1     161.196 162.021 158.286  1.00  0.00     0.006 C 
BRANCH   6   7
ATOM      7  C   UNL     1     162.404 161.850 159.220  1.00  0.00     0.053 C 
BRANCH   7   8
ATOM      8  C   UNL     1     163.677 161.641 158.459  1.00  0.00     0.041 C 
ATOM      9  O   UNL     1     164.302 162.625 157.984  1.00  0.00    -0.550 OA
ATOM     10  O   UNL     1     164.190 160.359 158.302  1.00  0.00    -0.550 OA
ENDBRANCH   7   8
ENDBRANCH   6   7
ENDBRANCH   5   6
ENDBRANCH   4   5
ENDBRANCH   3   4
ENDBRANCH   2   3
ENDBRANCH   1   2
BRANCH   1  11
ATOM     11  C   UNL     1     158.537 166.149 160.519  1.00  0.00     0.000 C 
BRANCH  11  12
ATOM     12  C   UNL     1     159.515 165.527 161.530  1.00  0.00     0.000 C 
BRANCH  12  13
ATOM     13  C   UNL     1     160.912 166.165 161.471  1.00  0.00     0.000 C 
BRANCH  13  14
ATOM     14  C   UNL     1     161.911 165.234 160.772  1.00  0.00     0.000 C 
BRANCH  14  15
ATOM     15  C   UNL     1     162.701 165.988 159.692  1.00  0.00     0.000 C 
BRANCH  15  16
ATOM     16  C   UNL     1     162.399 165.478 158.274  1.00  0.00     0.006 C 
BRANCH  16  17
ATOM     17  C   UNL     1     161.200 166.188 157.633  1.00  0.00     0.053 C 
BRANCH  17  18
ATOM     18  C   UNL     1     161.492 166.521 156.205  1.00  0.00     0.041 C 
ATOM     19  O   UNL     1     162.632 166.938 155.872  1.00  0.00    -0.550 OA
ATOM     20  O   UNL     1     160.490 166.417 155.248  1.00  0.00    -0.550 OA
ENDBRANCH  17  18
ENDBRANCH  16  17
ENDBRANCH  15  16
ENDBRANCH  14  15
ENDBRANCH  13  14
ENDBRANCH  12  13
ENDBRANCH  11  12
ENDBRANCH   1  11
TORSDOF 15
ENDMDL
MODEL 4
REMARK VINA RESULT:    -4.866      2.854      6.697
REMARK INTER + INTRA:         -11.010
REMARK INTER:                  -8.862
REMARK INTRA:                  -2.148
REMARK UNBOUND:                -1.877
REMARK SMILES O=C([O-])CCCCCCCCCCCCCCC(=O)[O-]
REMARK SMILES IDX 10 1 9 2 8 3 7 4 6 5 5 6 4 7 2 8 1 9 3 10 11 11 12 12 13 13
REMARK SMILES IDX 14 14 15 15 16 16 17 17 18 18 19 19 20 20
REMARK H PARENT
REMARK Flexibility Score: inf
ROOT
ATOM      1  C   UNL     1     161.470 166.690 157.227  1.00  0.00     0.000 C 
ENDROOT
BRANCH   1   2
ATOM      2  C   UNL     1     160.866 166.041 158.482  1.00  0.00     0.000 C 
BRANCH   2   3
ATOM      3  C   UNL     1     160.375 167.076 159.507  1.00  0.00     0.000 C 
BRANCH   3   4
ATOM      4  C   UNL     1     160.365 166.529 160.943  1.00  0.00     0.000 C 
BRANCH   4   5
ATOM      5  C   UNL     1     161.622 165.694 161.222  1.00  0.00     0.000 C 
BRANCH   5   6
ATOM      6  C   UNL     1     161.322 164.403 162.004  1.00  0.00     0.006 C 
BRANCH   6   7
ATOM      7  C   UNL     1     160.652 164.629 163.368  1.00  0.00     0.053 C 
BRANCH   7   8
ATOM      8  C   UNL     1     161.313 163.840 164.456  1.00  0.00     0.041 C 
ATOM      9  O   UNL     1     160.723 163.652 165.552  1.00  0.00    -0.550 OA
ATOM     10  O   UNL     1     162.569 163.284 164.247  1.00  0.00    -0.550 OA
ENDBRANCH   7   8
ENDBRANCH   6   7
ENDBRANCH   5   6
ENDBRANCH   4   5
ENDBRANCH   3   4
ENDBRANCH   2   3
ENDBRANCH   1   2
BRANCH   1  11
ATOM     11  C   UNL     1     162.943 166.291 157.057  1.00  0.00     0.000 C 
BRANCH  11  12
ATOM     12  C   UNL     1     163.707 166.266 158.391  1.00  0.00     0.000 C 
BRANCH  12  13
ATOM     13  C   UNL     1     164.396 164.918 158.654  1.00  0.00     0.000 C 
BRANCH  13  14
ATOM     14  C   UNL     1     163.777 163.808 157.794  1.00  0.00     0.000 C 
BRANCH  14  15
ATOM     15  C   UNL     1     162.872 162.899 158.639  1.00  0.00     0.000 C 
BRANCH  15  16
ATOM     16  C   UNL     1     161.470 162.732 158.033  1.00  0.00     0.006 C 
BRANCH  16  17
ATOM     17  C   UNL     1     160.416 162.343 159.078  1.00  0.00     0.053 C 
BRANCH  17  18
ATOM     18  C   UNL     1     159.062 162.818 158.656  1.00  0.00     0.041 C 
ATOM     19  O   UNL     1     158.633 162.565 157.500  1.00  0.00    -0.550 OA
ATOM     20  O   UNL     1     158.293 163.583 159.524  1.00  0.00    -0.550 OA
ENDBRANCH  17  18
ENDBRANCH  16  17
ENDBRANCH  15  16
ENDBRANCH  14  15
ENDBRANCH  13  14
ENDBRANCH  12  13
ENDBRANCH  11  12
ENDBRANCH   1  11
TORSDOF 15
ENDMDL
MODEL 5
REMARK VINA RESULT:    -4.800      2.323      3.492
REMARK INTER + INTRA:         -10.887
REMARK INTER:                  -9.296
REMARK INTRA:                  -1.591
REMARK UNBOUND:                -1.877
REMARK SMILES O=C([O-])CCCCCCCCCCCCCCC(=O)[O-]
REMARK SMILES IDX 10 1 9 2 8 3 7 4 6 5 5 6 4 7 2 8 1 9 3 10 11 11 12 12 13 13
REMARK SMILES IDX 14 14 15 15 16 16 17 17 18 18 19 19 20 20
REMARK H PARENT
REMARK Flexibility Score: inf
ROOT
ATOM      1  C   UNL     1     162.386 168.030 159.680  1.00  0.00     0.000 C 
ENDROOT
BRANCH   1   2
ATOM      2  C   UNL     1     163.136 166.689 159.712  1.00  0.00     0.000 C 
BRANCH   2   3
ATOM      3  C   UNL     1     163.348 166.094 158.311  1.00  0.00     0.000 C 
BRANCH   3   4
ATOM      4  C   UNL     1     162.572 166.850 157.222  1.00  0.00     0.000 C 
BRANCH   4   5
ATOM      5  C   UNL     1     161.210 166.191 156.960  1.00  0.00     0.000 C 
BRANCH   5   6
ATOM      6  C   UNL     1     160.674 166.469 155.544  1.00  0.00     0.006 C 
BRANCH   6   7
ATOM      7  C   UNL     1     161.756 166.838 154.517  1.00  0.00     0.053 C 
BRANCH   7   8
ATOM      8  C   UNL     1     161.235 166.799 153.114  1.00  0.00     0.041 C 
ATOM      9  O   UNL     1     160.184 167.420 152.809  1.00  0.00    -0.550 OA
ATOM     10  O   UNL     1     161.930 166.100 152.134  1.00  0.00    -0.550 OA
ENDBRANCH   7   8
ENDBRANCH   6   7
ENDBRANCH   5   6
ENDBRANCH   4   5
ENDBRANCH   3   4
ENDBRANCH   2   3
ENDBRANCH   1   2
BRANCH   1  11
ATOM     11  C   UNL     1     161.074 167.944 160.475  1.00  0.00     0.000 C 
BRANCH  11  12
ATOM     12  C   UNL     1     160.963 166.648 161.295  1.00  0.00     0.000 C 
BRANCH  12  13
ATOM     13  C   UNL     1     159.516 166.327 161.700  1.00  0.00     0.000 C 
BRANCH  13  14
ATOM     14  C   UNL     1     158.726 165.760 160.513  1.00  0.00     0.000 C 
BRANCH  14  15
ATOM     15  C   UNL     1     159.039 164.271 160.306  1.00  0.00     0.000 C 
BRANCH  15  16
ATOM     16  C   UNL     1     160.094 164.034 159.215  1.00  0.00     0.006 C 
BRANCH  16  17
ATOM     17  C   UNL     1     161.328 163.287 159.737  1.00  0.00     0.053 C 
BRANCH  17  18
ATOM     18  C   UNL     1     161.653 162.130 158.846  1.00  0.00     0.041 C 
ATOM     19  O   UNL     1     160.931 161.877 157.847  1.00  0.00    -0.550 OA
ATOM     20  O   UNL     1     162.727 161.301 159.148  1.00  0.00    -0.550 OA
ENDBRANCH  17  18
ENDBRANCH  16  17
ENDBRANCH  15  16
ENDBRANCH  14  15
ENDBRANCH  13  14
ENDBRANCH  12  13
ENDBRANCH  11  12
ENDBRANCH   1  11
TORSDOF 15
ENDMDL
MODEL 6
REMARK VINA RESULT:    -4.745      1.146      7.320
REMARK INTER + INTRA:         -10.783
REMARK INTER:                  -9.413
REMARK INTRA:                  -1.370
REMARK UNBOUND:                -1.877
REMARK SMILES O=C([O-])CCCCCCCCCCCCCCC(=O)[O-]
REMARK SMILES IDX 10 1 9 2 8 3 7 4 6 5 5 6 4 7 2 8 1 9 3 10 11 11 12 12 13 13
REMARK SMILES IDX 14 14 15 15 16 16 17 17 18 18 19 19 20 20
REMARK H PARENT
REMARK Flexibility Score: inf
ROOT
ATOM      1  C   UNL     1     163.898 163.889 157.873  1.00  0.00     0.000 C 
ENDROOT
BRANCH   1   2
ATOM      2  C   UNL     1     163.365 162.504 158.273  1.00  0.00     0.000 C 
BRANCH   2   3
ATOM      3  C   UNL     1     162.089 162.582 159.125  1.00  0.00     0.000 C 
BRANCH   3   4
ATOM      4  C   UNL     1     160.825 162.205 158.337  1.00  0.00     0.000 C 
BRANCH   4   5
ATOM      5  C   UNL     1     159.567 162.770 159.011  1.00  0.00     0.000 C 
BRANCH   5   6
ATOM      6  C   UNL     1     159.717 164.249 159.412  1.00  0.00     0.006 C 
BRANCH   6   7
ATOM      7  C   UNL     1     159.125 164.597 160.786  1.00  0.00     0.053 C 
BRANCH   7   8
ATOM      8  C   UNL     1     160.132 165.250 161.682  1.00  0.00     0.041 C 
ATOM      9  O   UNL     1     161.305 164.798 161.753  1.00  0.00    -0.550 OA
ATOM     10  O   UNL     1     159.783 166.377 162.415  1.00  0.00    -0.550 OA
ENDBRANCH   7   8
ENDBRANCH   6   7
ENDBRANCH   5   6
ENDBRANCH   4   5
ENDBRANCH   3   4
ENDBRANCH   2   3
ENDBRANCH   1   2
BRANCH   1  11
ATOM     11  C   UNL     1     163.102 165.004 158.566  1.00  0.00     0.000 C 
BRANCH  11  12
ATOM     12  C   UNL     1     162.972 166.267 157.698  1.00  0.00     0.000 C 
BRANCH  12  13
ATOM     13  C   UNL     1     161.630 166.337 156.952  1.00  0.00     0.000 C 
BRANCH  13  14
ATOM     14  C   UNL     1     161.829 166.816 155.508  1.00  0.00     0.000 C 
BRANCH  14  15
ATOM     15  C   UNL     1     160.616 166.454 154.638  1.00  0.00     0.000 C 
BRANCH  15  16
ATOM     16  C   UNL     1     160.815 166.833 153.162  1.00  0.00     0.006 C 
BRANCH  16  17
ATOM     17  C   UNL     1     162.260 167.235 152.843  1.00  0.00     0.053 C 
BRANCH  17  18
ATOM     18  C   UNL     1     162.897 166.226 151.941  1.00  0.00     0.041 C 
ATOM     19  O   UNL     1     164.136 166.260 151.727  1.00  0.00    -0.550 OA
ATOM     20  O   UNL     1     162.112 165.276 151.298  1.00  0.00    -0.550 OA
ENDBRANCH  17  18
ENDBRANCH  16  17
ENDBRANCH  15  16
ENDBRANCH  14  15
ENDBRANCH  13  14
ENDBRANCH  12  13
ENDBRANCH  11  12
ENDBRANCH   1  11
TORSDOF 15
ENDMDL
MODEL 7
REMARK VINA RESULT:    -4.735      2.948      4.547
REMARK INTER + INTRA:         -10.765
REMARK INTER:                  -8.527
REMARK INTRA:                  -2.237
REMARK UNBOUND:                -1.877
REMARK SMILES O=C([O-])CCCCCCCCCCCCCCC(=O)[O-]
REMARK SMILES IDX 10 1 9 2 8 3 7 4 6 5 5 6 4 7 2 8 1 9 3 10 11 11 12 12 13 13
REMARK SMILES IDX 14 14 15 15 16 16 17 17 18 18 19 19 20 20
REMARK H PARENT
REMARK Flexibility Score: inf
ROOT
ATOM      1  C   UNL     1     163.937 166.194 159.131  1.00  0.00     0.000 C 
ENDROOT
BRANCH   1   2
ATOM      2  C   UNL     1     163.152 165.151 158.320  1.00  0.00     0.000 C 
BRANCH   2   3
ATOM      3  C   UNL     1     162.432 165.761 157.107  1.00  0.00     0.000 C 
BRANCH   3   4
ATOM      4  C   UNL     1     160.911 165.549 157.152  1.00  0.00     0.000 C 
BRANCH   4   5
ATOM      5  C   UNL     1     160.503 164.755 158.401  1.00  0.00     0.000 C 
BRANCH   5   6
ATOM      6  C   UNL     1     159.686 163.494 158.067  1.00  0.00     0.006 C 
BRANCH   6   7
ATOM      7  C   UNL     1     159.996 162.283 158.961  1.00  0.00     0.053 C 
BRANCH   7   8
ATOM      8  C   UNL     1     161.469 162.043 159.091  1.00  0.00     0.041 C 
ATOM      9  O   UNL     1     162.009 162.013 160.227  1.00  0.00    -0.550 OA
ATOM     10  O   UNL     1     162.239 161.820 157.956  1.00  0.00    -0.550 OA
ENDBRANCH   7   8
ENDBRANCH   6   7
ENDBRANCH   5   6
ENDBRANCH   4   5
ENDBRANCH   3   4
ENDBRANCH   2   3
ENDBRANCH   1   2
BRANCH   1  11
ATOM     11  C   UNL     1     163.073 166.774 160.260  1.00  0.00     0.000 C 
BRANCH  11  12
ATOM     12  C   UNL     1     162.386 168.091 159.864  1.00  0.00     0.000 C 
BRANCH  12  13
ATOM     13  C   UNL     1     160.875 168.077 160.141  1.00  0.00     0.000 C 
BRANCH  13  14
ATOM     14  C   UNL     1     160.560 167.306 161.429  1.00  0.00     0.000 C 
BRANCH  14  15
ATOM     15  C   UNL     1     159.510 166.214 161.172  1.00  0.00     0.000 C 
BRANCH  15  16
ATOM     16  C   UNL     1     159.716 164.976 162.059  1.00  0.00     0.006 C 
BRANCH  16  17
ATOM     17  C   UNL     1     161.187 164.751 162.429  1.00  0.00     0.053 C 
BRANCH  17  18
ATOM     18  C   UNL     1     161.294 164.078 163.761  1.00  0.00     0.041 C 
ATOM     19  O   UNL     1     160.465 164.339 164.671  1.00  0.00    -0.550 OA
ATOM     20  O   UNL     1     162.339 163.198 164.013  1.00  0.00    -0.550 OA
ENDBRANCH  17  18
ENDBRANCH  16  17
ENDBRANCH  15  16
ENDBRANCH  14  15
ENDBRANCH  13  14
ENDBRANCH  12  13
ENDBRANCH  11  12
ENDBRANCH   1  11
TORSDOF 15
ENDMDL
MODEL 8
REMARK VINA RESULT:    -4.664      3.593      5.663
REMARK INTER + INTRA:         -10.631
REMARK INTER:                  -9.003
REMARK INTRA:                  -1.628
REMARK UNBOUND:                -1.877
REMARK SMILES O=C([O-])CCCCCCCCCCCCCCC(=O)[O-]
REMARK SMILES IDX 10 1 9 2 8 3 7 4 6 5 5 6 4 7 2 8 1 9 3 10 11 11 12 12 13 13
REMARK SMILES IDX 14 14 15 15 16 16 17 17 18 18 19 19 20 20
REMARK H PARENT
REMARK Flexibility Score: inf
ROOT
ATOM      1  C   UNL     1     163.981 166.097 158.641  1.00  0.00     0.000 C 
ENDROOT
BRANCH   1   2
ATOM      2  C   UNL     1     163.223 166.471 159.924  1.00  0.00     0.000 C 
BRANCH   2   3
ATOM      3  C   UNL     1     162.199 167.596 159.703  1.00  0.00     0.000 C 
BRANCH   3   4
ATOM      4  C   UNL     1     160.858 167.079 159.160  1.00  0.00     0.000 C 
BRANCH   4   5
ATOM      5  C   UNL     1     159.731 167.300 160.179  1.00  0.00     0.000 C 
BRANCH   5   6
ATOM      6  C   UNL     1     159.493 166.076 161.082  1.00  0.00     0.006 C 
BRANCH   6   7
ATOM      7  C   UNL     1     160.277 166.102 162.403  1.00  0.00     0.053 C 
BRANCH   7   8
ATOM      8  C   UNL     1     160.945 164.791 162.685  1.00  0.00     0.041 C 
ATOM      9  O   UNL     1     160.937 164.313 163.849  1.00  0.00    -0.550 OA
ATOM     10  O   UNL     1     161.549 164.083 161.653  1.00  0.00    -0.550 OA
ENDBRANCH   7   8
ENDBRANCH   6   7
ENDBRANCH   5   6
ENDBRANCH   4   5
ENDBRANCH   3   4
ENDBRANCH   2   3
ENDBRANCH   1   2
BRANCH   1  11
ATOM     11  C   UNL     1     163.689 164.646 158.234  1.00  0.00     0.000 C 
BRANCH  11  12
ATOM     12  C   UNL     1     162.309 164.481 157.574  1.00  0.00     0.000 C 
BRANCH  12  13
ATOM     13  C   UNL     1     161.474 163.366 158.220  1.00  0.00     0.000 C 
BRANCH  13  14
ATOM     14  C   UNL     1     159.975 163.679 158.128  1.00  0.00     0.000 C 
BRANCH  14  15
ATOM     15  C   UNL     1     159.167 162.786 159.081  1.00  0.00     0.000 C 
BRANCH  15  16
ATOM     16  C   UNL     1     157.650 162.977 158.928  1.00  0.00     0.006 C 
BRANCH  16  17
ATOM     17  C   UNL     1     157.096 164.074 159.846  1.00  0.00     0.053 C 
BRANCH  17  18
ATOM     18  C   UNL     1     155.648 164.315 159.557  1.00  0.00     0.041 C 
ATOM     19  O   UNL     1     154.973 165.077 160.296  1.00  0.00    -0.550 OA
ATOM     20  O   UNL     1     155.033 163.658 158.498  1.00  0.00    -0.550 OA
ENDBRANCH  17  18
ENDBRANCH  16  17
ENDBRANCH  15  16
ENDBRANCH  14  15
ENDBRANCH  13  14
ENDBRANCH  12  13
ENDBRANCH  11  12
ENDBRANCH   1  11
TORSDOF 15
ENDMDL
MODEL 9
REMARK VINA RESULT:    -4.512      2.193      3.437
REMARK INTER + INTRA:         -10.345
REMARK INTER:                  -8.657
REMARK INTRA:                  -1.688
REMARK UNBOUND:                -1.877
REMARK SMILES O=C([O-])CCCCCCCCCCCCCCC(=O)[O-]
REMARK SMILES IDX 10 1 9 2 8 3 7 4 6 5 5 6 4 7 2 8 1 9 3 10 11 11 12 12 13 13
REMARK SMILES IDX 14 14 15 15 16 16 17 17 18 18 19 19 20 20
REMARK H PARENT
REMARK Flexibility Score: inf
ROOT
ATOM      1  C   UNL     1     163.641 166.476 158.471  1.00  0.00     0.000 C 
ENDROOT
BRANCH   1   2
ATOM      2  C   UNL     1     162.866 165.718 157.382  1.00  0.00     0.000 C 
BRANCH   2   3
ATOM      3  C   UNL     1     162.371 166.640 156.256  1.00  0.00     0.000 C 
BRANCH   3   4
ATOM      4  C   UNL     1     160.852 166.546 156.039  1.00  0.00     0.000 C 
BRANCH   4   5
ATOM      5  C   UNL     1     160.527 166.184 154.583  1.00  0.00     0.000 C 
BRANCH   5   6
ATOM      6  C   UNL     1     160.234 167.419 153.711  1.00  0.00     0.006 C 
BRANCH   6   7
ATOM      7  C   UNL     1     160.796 167.335 152.284  1.00  0.00     0.053 C 
BRANCH   7   8
ATOM      8  C   UNL     1     162.204 166.827 152.263  1.00  0.00     0.041 C 
ATOM      9  O   UNL     1     162.495 165.789 151.613  1.00  0.00    -0.550 OA
ATOM     10  O   UNL     1     163.203 167.521 152.937  1.00  0.00    -0.550 OA
ENDBRANCH   7   8
ENDBRANCH   6   7
ENDBRANCH   5   6
ENDBRANCH   4   5
ENDBRANCH   3   4
ENDBRANCH   2   3
ENDBRANCH   1   2
BRANCH   1  11
ATOM     11  C   UNL     1     162.966 166.312 159.840  1.00  0.00     0.000 C 
BRANCH  11  12
ATOM     12  C   UNL     1     161.959 167.434 160.143  1.00  0.00     0.000 C 
BRANCH  12  13
ATOM     13  C   UNL     1     160.509 167.025 159.846  1.00  0.00     0.000 C 
BRANCH  13  14
ATOM     14  C   UNL     1     160.247 165.577 160.279  1.00  0.00     0.000 C 
BRANCH  14  15
ATOM     15  C   UNL     1     159.926 164.690 159.067  1.00  0.00     0.000 C 
BRANCH  15  16
ATOM     16  C   UNL     1     160.094 163.193 159.369  1.00  0.00     0.006 C 
BRANCH  16  17
ATOM     17  C   UNL     1     160.885 162.454 158.282  1.00  0.00     0.053 C 
BRANCH  17  18
ATOM     18  C   UNL     1     162.219 162.026 158.806  1.00  0.00     0.041 C 
ATOM     19  O   UNL     1     163.275 162.426 158.251  1.00  0.00    -0.550 OA
ATOM     20  O   UNL     1     162.294 161.145 159.878  1.00  0.00    -0.550 OA
ENDBRANCH  17  18
ENDBRANCH  16  17
ENDBRANCH  15  16
ENDBRANCH  14  15
ENDBRANCH  13  14
ENDBRANCH  12  13
ENDBRANCH  11  12
ENDBRANCH   1  11
TORSDOF 15
ENDMDL
