MODEL 1
REMARK VINA RESULT:    -7.053      0.000      0.000
REMARK INTER + INTRA:          -9.600
REMARK INTER:                  -8.909
REMARK INTRA:                  -0.691
REMARK UNBOUND:                -0.691
REMARK SMILES O=C(C=Cc1ccc(O)cc1)c1ccc(O)cc1O
REMARK SMILES IDX 4 1 3 2 5 3 6 4 7 5 8 6 11 7 10 8 9 9 2 11 1 12 12 13 18 14
REMARK SMILES IDX 13 15 17 16 14 17 15 18 19 19 16 21
REMARK H PARENT 9 10 19 20 16 22
REMARK Flexibility Score: inf
ROOT
ATOM      1  C   UNL     1      29.218  23.690  48.717  1.00  0.00     0.012 C 
ATOM      2  C   UNL     1      30.207  22.789  48.812  1.00  0.00     0.053 C 
ENDROOT
BRANCH   1   3
ATOM      3  C   UNL     1      28.612  24.121  47.434  1.00  0.00    -0.025 A 
ATOM      4  C   UNL     1      29.328  24.850  46.461  1.00  0.00     0.012 A 
ATOM      5  C   UNL     1      28.712  25.225  45.263  1.00  0.00     0.047 A 
ATOM      6  C   UNL     1      27.380  24.872  45.013  1.00  0.00     0.115 A 
ATOM      7  C   UNL     1      27.281  23.760  47.164  1.00  0.00     0.012 A 
ATOM      8  C   UNL     1      26.668  24.137  45.966  1.00  0.00     0.047 A 
BRANCH   6   9
ATOM      9  O   UNL     1      26.757  25.241  43.823  1.00  0.00    -0.508 OA
ATOM     10  H   UNL     1      27.001  24.807  42.941  1.00  0.00     0.293 HD
ENDBRANCH   6   9
ENDBRANCH   1   3
BRANCH   2  11
ATOM     11  C   UNL     1      30.792  22.376  50.104  1.00  0.00     0.189 C 
ATOM     12  O   UNL     1      31.912  21.796  50.095  1.00  0.00    -0.289 OA
BRANCH  11  13
ATOM     13  C   UNL     1      30.122  22.606  51.404  1.00  0.00     0.064 A 
ATOM     14  C   UNL     1      30.564  23.607  52.295  1.00  0.00     0.130 A 
ATOM     15  C   UNL     1      29.048  21.780  51.778  1.00  0.00     0.020 A 
ATOM     16  C   UNL     1      29.902  23.797  53.517  1.00  0.00     0.093 A 
ATOM     17  C   UNL     1      28.398  21.972  53.000  1.00  0.00     0.047 A 
ATOM     18  C   UNL     1      28.822  22.984  53.870  1.00  0.00     0.119 A 
BRANCH  14  19
ATOM     19  O   UNL     1      31.667  24.400  51.974  1.00  0.00    -0.507 OA
ATOM     20  H   UNL     1      32.015  24.468  51.025  1.00  0.00     0.293 HD
ENDBRANCH  14  19
BRANCH  18  21
ATOM     21  O   UNL     1      28.178  23.187  55.089  1.00  0.00    -0.508 OA
ATOM     22  H   UNL     1      28.458  22.688  55.926  1.00  0.00     0.293 HD
ENDBRANCH  18  21
ENDBRANCH  11  13
ENDBRANCH   2  11
TORSDOF 6
ENDMDL
MODEL 2
REMARK VINA RESULT:    -6.300     13.121     14.430
REMARK INTER + INTRA:          -8.648
REMARK INTER:                  -8.125
REMARK INTRA:                  -0.523
REMARK UNBOUND:                -0.691
REMARK SMILES O=C(C=Cc1ccc(O)cc1)c1ccc(O)cc1O
REMARK SMILES IDX 4 1 3 2 5 3 6 4 7 5 8 6 11 7 10 8 9 9 2 11 1 12 12 13 18 14
REMARK SMILES IDX 13 15 17 16 14 17 15 18 19 19 16 21
REMARK H PARENT 9 10 19 20 16 22
REMARK Flexibility Score: inf
ROOT
ATOM      1  C   UNL     1      17.126  20.339  43.957  1.00  0.00     0.012 C 
ATOM      2  C   UNL     1      16.016  19.629  44.212  1.00  0.00     0.053 C 
ENDROOT
BRANCH   1   3
ATOM      3  C   UNL     1      17.153  21.556  43.109  1.00  0.00    -0.025 A 
ATOM      4  C   UNL     1      15.978  22.205  42.673  1.00  0.00     0.012 A 
ATOM      5  C   UNL     1      16.059  23.356  41.882  1.00  0.00     0.047 A 
ATOM      6  C   UNL     1      17.307  23.879  41.523  1.00  0.00     0.115 A 
ATOM      7  C   UNL     1      18.398  22.100  42.755  1.00  0.00     0.012 A 
ATOM      8  C   UNL     1      18.475  23.250  41.963  1.00  0.00     0.047 A 
BRANCH   6   9
ATOM      9  O   UNL     1      17.398  25.024  40.734  1.00  0.00    -0.508 OA
ATOM     10  H   UNL     1      16.571  25.488  40.379  1.00  0.00     0.293 HD
ENDBRANCH   6   9
ENDBRANCH   1   3
BRANCH   2  11
ATOM     11  C   UNL     1      16.018  18.420  45.062  1.00  0.00     0.189 C 
ATOM     12  O   UNL     1      16.556  17.373  44.610  1.00  0.00    -0.289 OA
BRANCH  11  13
ATOM     13  C   UNL     1      15.412  18.381  46.413  1.00  0.00     0.064 A 
ATOM     14  C   UNL     1      16.191  18.572  47.575  1.00  0.00     0.130 A 
ATOM     15  C   UNL     1      14.041  18.107  46.542  1.00  0.00     0.020 A 
ATOM     16  C   UNL     1      15.581  18.530  48.838  1.00  0.00     0.093 A 
ATOM     17  C   UNL     1      13.443  18.062  47.805  1.00  0.00     0.047 A 
ATOM     18  C   UNL     1      14.211  18.277  48.955  1.00  0.00     0.119 A 
BRANCH  14  19
ATOM     19  O   UNL     1      17.566  18.785  47.475  1.00  0.00    -0.507 OA
ATOM     20  H   UNL     1      17.967  19.713  47.536  1.00  0.00     0.293 HD
ENDBRANCH  14  19
BRANCH  18  21
ATOM     21  O   UNL     1      13.625  18.239  50.218  1.00  0.00    -0.508 OA
ATOM     22  H   UNL     1      13.450  19.085  50.747  1.00  0.00     0.293 HD
ENDBRANCH  18  21
ENDBRANCH  11  13
ENDBRANCH   2  11
TORSDOF 6
ENDMDL
MODEL 3
REMARK VINA RESULT:    -6.192     13.273     15.750
REMARK INTER + INTRA:          -8.512
REMARK INTER:                  -7.894
REMARK INTRA:                  -0.618
REMARK UNBOUND:                -0.691
REMARK SMILES O=C(C=Cc1ccc(O)cc1)c1ccc(O)cc1O
REMARK SMILES IDX 4 1 3 2 5 3 6 4 7 5 8 6 11 7 10 8 9 9 2 11 1 12 12 13 18 14
REMARK SMILES IDX 13 15 17 16 14 17 15 18 19 19 16 21
REMARK H PARENT 9 10 19 20 16 22
REMARK Flexibility Score: inf
ROOT
ATOM      1  C   UNL     1      17.538  20.803  43.491  1.00  0.00     0.012 C 
ATOM      2  C   UNL     1      17.273  22.050  43.074  1.00  0.00     0.053 C 
ENDROOT
BRANCH   1   3
ATOM      3  C   UNL     1      16.546  19.927  44.161  1.00  0.00    -0.025 A 
ATOM      4  C   UNL     1      15.212  20.325  44.392  1.00  0.00     0.012 A 
ATOM      5  C   UNL     1      14.314  19.457  45.021  1.00  0.00     0.047 A 
ATOM      6  C   UNL     1      14.728  18.179  45.418  1.00  0.00     0.115 A 
ATOM      7  C   UNL     1      16.944  18.637  44.551  1.00  0.00     0.012 A 
ATOM      8  C   UNL     1      16.043  17.773  45.180  1.00  0.00     0.047 A 
BRANCH   6   9
ATOM      9  O   UNL     1      13.840  17.308  46.046  1.00  0.00    -0.508 OA
ATOM     10  H   UNL     1      13.910  17.105  47.035  1.00  0.00     0.293 HD
ENDBRANCH   6   9
ENDBRANCH   1   3
BRANCH   2  11
ATOM     11  C   UNL     1      18.281  22.902  42.408  1.00  0.00     0.189 C 
ATOM     12  O   UNL     1      19.367  23.122  43.008  1.00  0.00    -0.289 OA
BRANCH  11  13
ATOM     13  C   UNL     1      18.069  23.511  41.074  1.00  0.00     0.064 A 
ATOM     14  C   UNL     1      19.045  23.417  40.059  1.00  0.00     0.130 A 
ATOM     15  C   UNL     1      16.890  24.233  40.830  1.00  0.00     0.020 A 
ATOM     16  C   UNL     1      18.808  24.005  38.807  1.00  0.00     0.093 A 
ATOM     17  C   UNL     1      16.665  24.821  39.582  1.00  0.00     0.047 A 
ATOM     18  C   UNL     1      17.622  24.705  38.567  1.00  0.00     0.119 A 
BRANCH  14  19
ATOM     19  O   UNL     1      20.251  22.758  40.298  1.00  0.00    -0.507 OA
ATOM     20  H   UNL     1      20.748  22.273  39.560  1.00  0.00     0.293 HD
ENDBRANCH  14  19
BRANCH  18  21
ATOM     21  O   UNL     1      17.406  25.283  37.318  1.00  0.00    -0.508 OA
ATOM     22  H   UNL     1      17.200  26.270  37.219  1.00  0.00     0.293 HD
ENDBRANCH  18  21
ENDBRANCH  11  13
ENDBRANCH   2  11
TORSDOF 6
ENDMDL
MODEL 4
REMARK VINA RESULT:    -5.940     13.973     16.265
REMARK INTER + INTRA:          -8.194
REMARK INTER:                  -7.630
REMARK INTRA:                  -0.563
REMARK UNBOUND:                -0.691
REMARK SMILES O=C(C=Cc1ccc(O)cc1)c1ccc(O)cc1O
REMARK SMILES IDX 4 1 3 2 5 3 6 4 7 5 8 6 11 7 10 8 9 9 2 11 1 12 12 13 18 14
REMARK SMILES IDX 13 15 17 16 14 17 15 18 19 19 16 21
REMARK H PARENT 9 10 19 20 16 22
REMARK Flexibility Score: inf
ROOT
ATOM      1  C   UNL     1      13.799  24.065  44.946  1.00  0.00     0.012 C 
ATOM      2  C   UNL     1      13.984  24.121  43.618  1.00  0.00     0.053 C 
ENDROOT
BRANCH   1   3
ATOM      3  C   UNL     1      13.508  25.249  45.791  1.00  0.00    -0.025 A 
ATOM      4  C   UNL     1      14.493  25.885  46.575  1.00  0.00     0.012 A 
ATOM      5  C   UNL     1      14.168  27.004  47.348  1.00  0.00     0.047 A 
ATOM      6  C   UNL     1      12.861  27.509  47.343  1.00  0.00     0.115 A 
ATOM      7  C   UNL     1      12.205  25.774  45.783  1.00  0.00     0.012 A 
ATOM      8  C   UNL     1      11.883  26.893  46.559  1.00  0.00     0.047 A 
BRANCH   6   9
ATOM      9  O   UNL     1      12.527  28.623  48.111  1.00  0.00    -0.508 OA
ATOM     10  H   UNL     1      12.387  29.533  47.690  1.00  0.00     0.293 HD
ENDBRANCH   6   9
ENDBRANCH   1   3
BRANCH   2  11
ATOM     11  C   UNL     1      14.272  22.925  42.799  1.00  0.00     0.189 C 
ATOM     12  O   UNL     1      13.749  22.845  41.655  1.00  0.00    -0.289 OA
BRANCH  11  13
ATOM     13  C   UNL     1      15.140  21.819  43.263  1.00  0.00     0.064 A 
ATOM     14  C   UNL     1      16.543  21.872  43.117  1.00  0.00     0.130 A 
ATOM     15  C   UNL     1      14.550  20.673  43.821  1.00  0.00     0.020 A 
ATOM     16  C   UNL     1      17.332  20.804  43.572  1.00  0.00     0.093 A 
ATOM     17  C   UNL     1      15.344  19.612  44.266  1.00  0.00     0.047 A 
ATOM     18  C   UNL     1      16.737  19.677  44.145  1.00  0.00     0.119 A 
BRANCH  14  19
ATOM     19  O   UNL     1      17.148  22.972  42.509  1.00  0.00    -0.507 OA
ATOM     20  H   UNL     1      16.898  23.267  41.574  1.00  0.00     0.293 HD
ENDBRANCH  14  19
BRANCH  18  21
ATOM     21  O   UNL     1      17.538  18.627  44.588  1.00  0.00    -0.508 OA
ATOM     22  H   UNL     1      18.532  18.750  44.747  1.00  0.00     0.293 HD
ENDBRANCH  18  21
ENDBRANCH  11  13
ENDBRANCH   2  11
TORSDOF 6
ENDMDL
MODEL 5
REMARK VINA RESULT:    -5.880     13.191     14.342
REMARK INTER + INTRA:          -8.119
REMARK INTER:                  -7.373
REMARK INTRA:                  -0.745
REMARK UNBOUND:                -0.691
REMARK SMILES O=C(C=Cc1ccc(O)cc1)c1ccc(O)cc1O
REMARK SMILES IDX 4 1 3 2 5 3 6 4 7 5 8 6 11 7 10 8 9 9 2 11 1 12 12 13 18 14
REMARK SMILES IDX 13 15 17 16 14 17 15 18 19 19 16 21
REMARK H PARENT 9 10 19 20 16 22
REMARK Flexibility Score: inf
ROOT
ATOM      1  C   UNL     1      15.703  27.521  51.082  1.00  0.00     0.012 C 
ATOM      2  C   UNL     1      14.955  28.470  51.665  1.00  0.00     0.053 C 
ENDROOT
BRANCH   1   3
ATOM      3  C   UNL     1      15.366  26.881  49.787  1.00  0.00    -0.025 A 
ATOM      4  C   UNL     1      14.818  25.584  49.698  1.00  0.00     0.012 A 
ATOM      5  C   UNL     1      14.509  25.030  48.452  1.00  0.00     0.047 A 
ATOM      6  C   UNL     1      14.733  25.763  47.279  1.00  0.00     0.115 A 
ATOM      7  C   UNL     1      15.571  27.611  48.604  1.00  0.00     0.012 A 
ATOM      8  C   UNL     1      15.262  27.053  47.359  1.00  0.00     0.047 A 
BRANCH   6   9
ATOM      9  O   UNL     1      14.430  25.219  46.033  1.00  0.00    -0.508 OA
ATOM     10  H   UNL     1      15.119  24.704  45.499  1.00  0.00     0.293 HD
ENDBRANCH   6   9
ENDBRANCH   1   3
BRANCH   2  11
ATOM     11  C   UNL     1      15.315  29.092  52.956  1.00  0.00     0.189 C 
ATOM     12  O   UNL     1      14.432  29.161  53.853  1.00  0.00    -0.289 OA
BRANCH  11  13
ATOM     13  C   UNL     1      16.660  29.643  53.239  1.00  0.00     0.064 A 
ATOM     14  C   UNL     1      17.476  29.106  54.258  1.00  0.00     0.130 A 
ATOM     15  C   UNL     1      17.117  30.751  52.507  1.00  0.00     0.020 A 
ATOM     16  C   UNL     1      18.746  29.653  54.497  1.00  0.00     0.093 A 
ATOM     17  C   UNL     1      18.381  31.293  52.755  1.00  0.00     0.047 A 
ATOM     18  C   UNL     1      19.200  30.742  53.748  1.00  0.00     0.119 A 
BRANCH  14  19
ATOM     19  O   UNL     1      17.020  28.044  55.042  1.00  0.00    -0.507 OA
ATOM     20  H   UNL     1      17.597  27.233  55.226  1.00  0.00     0.293 HD
ENDBRANCH  14  19
BRANCH  18  21
ATOM     21  O   UNL     1      20.463  31.272  54.001  1.00  0.00    -0.508 OA
ATOM     22  H   UNL     1      20.688  32.234  53.778  1.00  0.00     0.293 HD
ENDBRANCH  18  21
ENDBRANCH  11  13
ENDBRANCH   2  11
TORSDOF 6
ENDMDL
MODEL 6
REMARK VINA RESULT:    -5.836     13.146     16.017
REMARK INTER + INTRA:          -8.062
REMARK INTER:                  -7.609
REMARK INTRA:                  -0.453
REMARK UNBOUND:                -0.691
REMARK SMILES O=C(C=Cc1ccc(O)cc1)c1ccc(O)cc1O
REMARK SMILES IDX 4 1 3 2 5 3 6 4 7 5 8 6 11 7 10 8 9 9 2 11 1 12 12 13 18 14
REMARK SMILES IDX 13 15 17 16 14 17 15 18 19 19 16 21
REMARK H PARENT 9 10 19 20 16 22
REMARK Flexibility Score: inf
ROOT
ATOM      1  C   UNL     1      15.644  29.061  52.133  1.00  0.00     0.012 C 
ATOM      2  C   UNL     1      15.532  28.737  50.836  1.00  0.00     0.053 C 
ENDROOT
BRANCH   1   3
ATOM      3  C   UNL     1      16.913  29.489  52.771  1.00  0.00    -0.025 A 
ATOM      4  C   UNL     1      17.320  30.839  52.823  1.00  0.00     0.012 A 
ATOM      5  C   UNL     1      18.523  31.191  53.446  1.00  0.00     0.047 A 
ATOM      6  C   UNL     1      19.329  30.207  54.032  1.00  0.00     0.115 A 
ATOM      7  C   UNL     1      17.722  28.514  53.377  1.00  0.00     0.012 A 
ATOM      8  C   UNL     1      18.924  28.870  53.997  1.00  0.00     0.047 A 
BRANCH   6   9
ATOM      9  O   UNL     1      20.528  30.547  54.653  1.00  0.00    -0.508 OA
ATOM     10  H   UNL     1      20.946  29.953  55.359  1.00  0.00     0.293 HD
ENDBRANCH   6   9
ENDBRANCH   1   3
BRANCH   2  11
ATOM     11  C   UNL     1      14.254  28.314  50.225  1.00  0.00     0.189 C 
ATOM     12  O   UNL     1      13.182  28.609  50.818  1.00  0.00    -0.289 OA
BRANCH  11  13
ATOM     13  C   UNL     1      14.179  27.556  48.955  1.00  0.00     0.064 A 
ATOM     14  C   UNL     1      13.006  27.552  48.169  1.00  0.00     0.130 A 
ATOM     15  C   UNL     1      15.283  26.790  48.546  1.00  0.00     0.020 A 
ATOM     16  C   UNL     1      12.973  26.823  46.970  1.00  0.00     0.093 A 
ATOM     17  C   UNL     1      15.238  26.062  47.354  1.00  0.00     0.047 A 
ATOM     18  C   UNL     1      14.084  26.080  46.561  1.00  0.00     0.119 A 
BRANCH  14  19
ATOM     19  O   UNL     1      11.875  28.255  48.585  1.00  0.00    -0.507 OA
ATOM     20  H   UNL     1      10.948  27.853  48.526  1.00  0.00     0.293 HD
ENDBRANCH  14  19
BRANCH  18  21
ATOM     21  O   UNL     1      14.030  25.362  45.369  1.00  0.00    -0.508 OA
ATOM     22  H   UNL     1      14.842  24.875  45.007  1.00  0.00     0.293 HD
ENDBRANCH  18  21
ENDBRANCH  11  13
ENDBRANCH   2  11
TORSDOF 6
ENDMDL
MODEL 7
REMARK VINA RESULT:    -5.810      1.480      2.283
REMARK INTER + INTRA:          -8.030
REMARK INTER:                  -7.852
REMARK INTRA:                  -0.177
REMARK UNBOUND:                -0.691
REMARK SMILES O=C(C=Cc1ccc(O)cc1)c1ccc(O)cc1O
REMARK SMILES IDX 4 1 3 2 5 3 6 4 7 5 8 6 11 7 10 8 9 9 2 11 1 12 12 13 18 14
REMARK SMILES IDX 13 15 17 16 14 17 15 18 19 19 16 21
REMARK H PARENT 9 10 19 20 16 22
REMARK Flexibility Score: inf
ROOT
ATOM      1  C   UNL     1      27.948  23.466  49.083  1.00  0.00     0.012 C 
ATOM      2  C   UNL     1      29.065  22.954  49.621  1.00  0.00     0.053 C 
ENDROOT
BRANCH   1   3
ATOM      3  C   UNL     1      27.840  23.918  47.674  1.00  0.00    -0.025 A 
ATOM      4  C   UNL     1      26.681  23.714  46.896  1.00  0.00     0.012 A 
ATOM      5  C   UNL     1      26.628  24.168  45.574  1.00  0.00     0.047 A 
ATOM      6  C   UNL     1      27.723  24.837  45.013  1.00  0.00     0.115 A 
ATOM      7  C   UNL     1      28.926  24.604  47.104  1.00  0.00     0.012 A 
ATOM      8  C   UNL     1      28.869  25.055  45.782  1.00  0.00     0.047 A 
BRANCH   6   9
ATOM      9  O   UNL     1      27.680  25.292  43.697  1.00  0.00    -0.508 OA
ATOM     10  H   UNL     1      28.299  24.918  42.988  1.00  0.00     0.293 HD
ENDBRANCH   6   9
ENDBRANCH   1   3
BRANCH   2  11
ATOM     11  C   UNL     1      29.145  22.510  51.028  1.00  0.00     0.189 C 
ATOM     12  O   UNL     1      28.505  21.477  51.366  1.00  0.00    -0.289 OA
BRANCH  11  13
ATOM     13  C   UNL     1      29.933  23.226  52.057  1.00  0.00     0.064 A 
ATOM     14  C   UNL     1      31.283  23.574  51.840  1.00  0.00     0.130 A 
ATOM     15  C   UNL     1      29.336  23.527  53.293  1.00  0.00     0.020 A 
ATOM     16  C   UNL     1      31.998  24.255  52.838  1.00  0.00     0.093 A 
ATOM     17  C   UNL     1      30.057  24.199  54.283  1.00  0.00     0.047 A 
ATOM     18  C   UNL     1      31.389  24.568  54.056  1.00  0.00     0.119 A 
BRANCH  14  19
ATOM     19  O   UNL     1      31.917  23.232  50.645  1.00  0.00    -0.507 OA
ATOM     20  H   UNL     1      32.660  22.545  50.615  1.00  0.00     0.293 HD
ENDBRANCH  14  19
BRANCH  18  21
ATOM     21  O   UNL     1      32.115  25.242  55.035  1.00  0.00    -0.508 OA
ATOM     22  H   UNL     1      31.671  25.599  55.873  1.00  0.00     0.293 HD
ENDBRANCH  18  21
ENDBRANCH  11  13
ENDBRANCH   2  11
TORSDOF 6
ENDMDL
MODEL 8
REMARK VINA RESULT:    -5.750     12.655     14.939
REMARK INTER + INTRA:          -7.954
REMARK INTER:                  -7.420
REMARK INTRA:                  -0.534
REMARK UNBOUND:                -0.691
REMARK SMILES O=C(C=Cc1ccc(O)cc1)c1ccc(O)cc1O
REMARK SMILES IDX 4 1 3 2 5 3 6 4 7 5 8 6 11 7 10 8 9 9 2 11 1 12 12 13 18 14
REMARK SMILES IDX 13 15 17 16 14 17 15 18 19 19 16 21
REMARK H PARENT 9 10 19 20 16 22
REMARK Flexibility Score: inf
ROOT
ATOM      1  C   UNL     1      19.278  26.087  37.764  1.00  0.00     0.012 C 
ATOM      2  C   UNL     1      19.795  24.897  37.421  1.00  0.00     0.053 C 
ENDROOT
BRANCH   1   3
ATOM      3  C   UNL     1      19.727  27.379  37.192  1.00  0.00    -0.025 A 
ATOM      4  C   UNL     1      20.215  28.436  37.989  1.00  0.00     0.012 A 
ATOM      5  C   UNL     1      20.634  29.633  37.399  1.00  0.00     0.047 A 
ATOM      6  C   UNL     1      20.583  29.789  36.007  1.00  0.00     0.115 A 
ATOM      7  C   UNL     1      19.695  27.543  35.797  1.00  0.00     0.012 A 
ATOM      8  C   UNL     1      20.114  28.741  35.210  1.00  0.00     0.047 A 
BRANCH   6   9
ATOM      9  O   UNL     1      20.998  30.977  35.410  1.00  0.00    -0.508 OA
ATOM     10  H   UNL     1      20.907  31.127  34.413  1.00  0.00     0.293 HD
ENDBRANCH   6   9
ENDBRANCH   1   3
BRANCH   2  11
ATOM     11  C   UNL     1      19.328  23.623  38.006  1.00  0.00     0.189 C 
ATOM     12  O   UNL     1      18.994  22.693  37.223  1.00  0.00    -0.289 OA
BRANCH  11  13
ATOM     13  C   UNL     1      19.227  23.393  39.465  1.00  0.00     0.064 A 
ATOM     14  C   UNL     1      20.180  22.614  40.155  1.00  0.00     0.130 A 
ATOM     15  C   UNL     1      18.137  23.928  40.171  1.00  0.00     0.020 A 
ATOM     16  C   UNL     1      20.053  22.420  41.539  1.00  0.00     0.093 A 
ATOM     17  C   UNL     1      18.015  23.725  41.548  1.00  0.00     0.047 A 
ATOM     18  C   UNL     1      18.976  22.973  42.236  1.00  0.00     0.119 A 
BRANCH  14  19
ATOM     19  O   UNL     1      21.239  22.020  39.466  1.00  0.00    -0.507 OA
ATOM     20  H   UNL     1      21.478  22.294  38.522  1.00  0.00     0.293 HD
ENDBRANCH  14  19
BRANCH  18  21
ATOM     21  O   UNL     1      18.866  22.768  43.610  1.00  0.00    -0.508 OA
ATOM     22  H   UNL     1      19.442  22.087  44.091  1.00  0.00     0.293 HD
ENDBRANCH  18  21
ENDBRANCH  11  13
ENDBRANCH   2  11
TORSDOF 6
ENDMDL
MODEL 9
REMARK VINA RESULT:    -5.573     12.358     14.007
REMARK INTER + INTRA:          -7.731
REMARK INTER:                  -7.227
REMARK INTRA:                  -0.504
REMARK UNBOUND:                -0.691
REMARK SMILES O=C(C=Cc1ccc(O)cc1)c1ccc(O)cc1O
REMARK SMILES IDX 4 1 3 2 5 3 6 4 7 5 8 6 11 7 10 8 9 9 2 11 1 12 12 13 18 14
REMARK SMILES IDX 13 15 17 16 14 17 15 18 19 19 16 21
REMARK H PARENT 9 10 19 20 16 22
REMARK Flexibility Score: inf
ROOT
ATOM      1  C   UNL     1      16.853  25.841  52.263  1.00  0.00     0.012 C 
ATOM      2  C   UNL     1      15.942  26.365  51.428  1.00  0.00     0.053 C 
ENDROOT
BRANCH   1   3
ATOM      3  C   UNL     1      17.410  24.474  52.126  1.00  0.00    -0.025 A 
ATOM      4  C   UNL     1      18.654  24.100  52.677  1.00  0.00     0.012 A 
ATOM      5  C   UNL     1      19.130  22.793  52.526  1.00  0.00     0.047 A 
ATOM      6  C   UNL     1      18.371  21.840  51.834  1.00  0.00     0.115 A 
ATOM      7  C   UNL     1      16.652  23.505  51.448  1.00  0.00     0.012 A 
ATOM      8  C   UNL     1      17.132  22.200  51.298  1.00  0.00     0.047 A 
BRANCH   6   9
ATOM      9  O   UNL     1      18.837  20.537  51.679  1.00  0.00    -0.508 OA
ATOM     10  H   UNL     1      19.794  20.288  51.896  1.00  0.00     0.293 HD
ENDBRANCH   6   9
ENDBRANCH   1   3
BRANCH   2  11
ATOM     11  C   UNL     1      15.405  27.733  51.587  1.00  0.00     0.189 C 
ATOM     12  O   UNL     1      14.389  28.056  50.914  1.00  0.00    -0.289 OA
BRANCH  11  13
ATOM     13  C   UNL     1      16.008  28.737  52.492  1.00  0.00     0.064 A 
ATOM     14  C   UNL     1      16.675  29.875  51.989  1.00  0.00     0.130 A 
ATOM     15  C   UNL     1      15.953  28.531  53.880  1.00  0.00     0.020 A 
ATOM     16  C   UNL     1      17.232  30.807  52.878  1.00  0.00     0.093 A 
ATOM     17  C   UNL     1      16.516  29.461  54.758  1.00  0.00     0.047 A 
ATOM     18  C   UNL     1      17.154  30.603  54.259  1.00  0.00     0.119 A 
BRANCH  14  19
ATOM     19  O   UNL     1      16.797  30.071  50.613  1.00  0.00    -0.507 OA
ATOM     20  H   UNL     1      17.595  30.547  50.213  1.00  0.00     0.293 HD
ENDBRANCH  14  19
BRANCH  18  21
ATOM     21  O   UNL     1      17.715  31.539  55.125  1.00  0.00    -0.508 OA
ATOM     22  H   UNL     1      17.210  31.883  55.933  1.00  0.00     0.293 HD
ENDBRANCH  18  21
ENDBRANCH  11  13
ENDBRANCH   2  11
TORSDOF 6
ENDMDL
