MODEL 1
REMARK VINA RESULT:    -4.464      0.000      0.000
REMARK INTER + INTRA:          -6.669
REMARK INTER:                  -6.029
REMARK INTRA:                  -0.640
REMARK UNBOUND:                -0.640
REMARK SMILES CCCCCCCC(=O)[O-]
REMARK SMILES IDX 5 1 6 2 7 3 8 4 9 5 10 6 4 7 3 8 2 9 1 10
REMARK H PARENT
REMARK Flexibility Score: inf
ROOT
ATOM      1  C   UNL     1     221.460  -8.044  24.307  1.00  0.00     0.000 C 
ENDROOT
BRANCH   1   2
ATOM      2  C   UNL     1     221.231  -9.311  23.467  1.00  0.00     0.006 C 
BRANCH   2   3
ATOM      3  C   UNL     1     220.157 -10.229  24.068  1.00  0.00     0.053 C 
BRANCH   3   4
ATOM      4  C   UNL     1     218.968 -10.301  23.163  1.00  0.00     0.041 C 
ATOM      5  O   UNL     1     218.954  -9.656  22.082  1.00  0.00    -0.550 OA
ATOM      6  O   UNL     1     217.854 -11.042  23.537  1.00  0.00    -0.550 OA
ENDBRANCH   3   4
ENDBRANCH   2   3
ENDBRANCH   1   2
BRANCH   1   7
ATOM      7  C   UNL     1     220.590  -6.863  23.842  1.00  0.00     0.000 C 
BRANCH   7   8
ATOM      8  C   UNL     1     219.547  -6.449  24.892  1.00  0.00    -0.000 C 
BRANCH   8   9
ATOM      9  C   UNL     1     218.159  -7.047  24.612  1.00  0.00    -0.003 C 
ATOM     10  C   UNL     1     217.667  -7.870  25.798  1.00  0.00     0.004 C 
ENDBRANCH   8   9
ENDBRANCH   7   8
ENDBRANCH   1   7
TORSDOF 6
ENDMDL
MODEL 2
REMARK VINA RESULT:    -4.439      1.678      2.597
REMARK INTER + INTRA:          -6.637
REMARK INTER:                  -6.242
REMARK INTRA:                  -0.395
REMARK UNBOUND:                -0.640
REMARK SMILES CCCCCCCC(=O)[O-]
REMARK SMILES IDX 5 1 6 2 7 3 8 4 9 5 10 6 4 7 3 8 2 9 1 10
REMARK H PARENT
REMARK Flexibility Score: inf
ROOT
ATOM      1  C   UNL     1     217.587  -7.257  23.908  1.00  0.00     0.000 C 
ENDROOT
BRANCH   1   2
ATOM      2  C   UNL     1     218.307  -8.080  22.829  1.00  0.00     0.006 C 
BRANCH   2   3
ATOM      3  C   UNL     1     219.831  -8.086  23.013  1.00  0.00     0.053 C 
BRANCH   3   4
ATOM      4  C   UNL     1     220.301  -9.446  23.420  1.00  0.00     0.041 C 
ATOM      5  O   UNL     1     221.524  -9.655  23.638  1.00  0.00    -0.550 OA
ATOM      6  O   UNL     1     219.397 -10.497  23.512  1.00  0.00    -0.550 OA
ENDBRANCH   3   4
ENDBRANCH   2   3
ENDBRANCH   1   2
BRANCH   1   7
ATOM      7  C   UNL     1     218.549  -6.719  24.982  1.00  0.00     0.000 C 
BRANCH   7   8
ATOM      8  C   UNL     1     218.293  -7.333  26.366  1.00  0.00    -0.000 C 
BRANCH   8   9
ATOM      9  C   UNL     1     217.819  -8.792  26.286  1.00  0.00    -0.003 C 
ATOM     10  C   UNL     1     217.034  -9.184  27.534  1.00  0.00     0.004 C 
ENDBRANCH   8   9
ENDBRANCH   7   8
ENDBRANCH   1   7
TORSDOF 6
ENDMDL
MODEL 3
REMARK VINA RESULT:    -4.427      1.538      2.566
REMARK INTER + INTRA:          -6.620
REMARK INTER:                  -6.237
REMARK INTRA:                  -0.383
REMARK UNBOUND:                -0.640
REMARK SMILES CCCCCCCC(=O)[O-]
REMARK SMILES IDX 5 1 6 2 7 3 8 4 9 5 10 6 4 7 3 8 2 9 1 10
REMARK H PARENT
REMARK Flexibility Score: inf
ROOT
ATOM      1  C   UNL     1     219.765  -6.678  24.990  1.00  0.00     0.000 C 
ENDROOT
BRANCH   1   2
ATOM      2  C   UNL     1     220.803  -6.846  23.870  1.00  0.00     0.006 C 
BRANCH   2   3
ATOM      3  C   UNL     1     220.411  -7.935  22.862  1.00  0.00     0.053 C 
BRANCH   3   4
ATOM      4  C   UNL     1     220.688  -9.292  23.427  1.00  0.00     0.041 C 
ATOM      5  O   UNL     1     219.793 -10.178  23.416  1.00  0.00    -0.550 OA
ATOM      6  O   UNL     1     221.919  -9.565  24.010  1.00  0.00    -0.550 OA
ENDBRANCH   3   4
ENDBRANCH   2   3
ENDBRANCH   1   2
BRANCH   1   7
ATOM      7  C   UNL     1     218.319  -6.820  24.482  1.00  0.00     0.000 C 
BRANCH   7   8
ATOM      8  C   UNL     1     217.535  -7.909  25.228  1.00  0.00    -0.000 C 
BRANCH   8   9
ATOM      9  C   UNL     1     217.892  -7.976  26.721  1.00  0.00    -0.003 C 
ATOM     10  C   UNL     1     217.123  -9.092  27.421  1.00  0.00     0.004 C 
ENDBRANCH   8   9
ENDBRANCH   7   8
ENDBRANCH   1   7
TORSDOF 6
ENDMDL
MODEL 4
REMARK VINA RESULT:    -4.413      1.834      3.530
REMARK INTER + INTRA:          -6.601
REMARK INTER:                  -6.043
REMARK INTRA:                  -0.558
REMARK UNBOUND:                -0.640
REMARK SMILES CCCCCCCC(=O)[O-]
REMARK SMILES IDX 5 1 6 2 7 3 8 4 9 5 10 6 4 7 3 8 2 9 1 10
REMARK H PARENT
REMARK Flexibility Score: inf
ROOT
ATOM      1  C   UNL     1     220.636  -6.516  24.055  1.00  0.00     0.000 C 
ENDROOT
BRANCH   1   2
ATOM      2  C   UNL     1     219.454  -6.345  25.023  1.00  0.00     0.006 C 
BRANCH   2   3
ATOM      3  C   UNL     1     218.181  -7.043  24.526  1.00  0.00     0.053 C 
BRANCH   3   4
ATOM      4  C   UNL     1     217.814  -8.170  25.439  1.00  0.00     0.041 C 
ATOM      5  O   UNL     1     217.353  -7.932  26.587  1.00  0.00    -0.550 OA
ATOM      6  O   UNL     1     218.027  -9.484  25.042  1.00  0.00    -0.550 OA
ENDBRANCH   3   4
ENDBRANCH   2   3
ENDBRANCH   1   2
BRANCH   1   7
ATOM      7  C   UNL     1     221.310  -7.894  24.184  1.00  0.00     0.000 C 
BRANCH   7   8
ATOM      8  C   UNL     1     221.619  -8.530  22.820  1.00  0.00    -0.000 C 
BRANCH   8   9
ATOM      9  C   UNL     1     220.560  -8.194  21.758  1.00  0.00    -0.003 C 
ATOM     10  C   UNL     1     219.446  -9.236  21.745  1.00  0.00     0.004 C 
ENDBRANCH   8   9
ENDBRANCH   7   8
ENDBRANCH   1   7
TORSDOF 6
ENDMDL
MODEL 5
REMARK VINA RESULT:    -4.410      1.787      3.136
REMARK INTER + INTRA:          -6.597
REMARK INTER:                  -6.208
REMARK INTRA:                  -0.389
REMARK UNBOUND:                -0.640
REMARK SMILES CCCCCCCC(=O)[O-]
REMARK SMILES IDX 5 1 6 2 7 3 8 4 9 5 10 6 4 7 3 8 2 9 1 10
REMARK H PARENT
REMARK Flexibility Score: inf
ROOT
ATOM      1  C   UNL     1     218.621  -6.885  24.971  1.00  0.00     0.000 C 
ENDROOT
BRANCH   1   2
ATOM      2  C   UNL     1     217.527  -7.442  24.048  1.00  0.00     0.006 C 
BRANCH   2   3
ATOM      3  C   UNL     1     218.100  -8.266  22.886  1.00  0.00     0.053 C 
BRANCH   3   4
ATOM      4  C   UNL     1     218.560  -9.603  23.373  1.00  0.00     0.041 C 
ATOM      5  O   UNL     1     217.730 -10.429  23.836  1.00  0.00    -0.550 OA
ATOM      6  O   UNL     1     219.913  -9.920  23.360  1.00  0.00    -0.550 OA
ENDBRANCH   3   4
ENDBRANCH   2   3
ENDBRANCH   1   2
BRANCH   1   7
ATOM      7  C   UNL     1     218.358  -7.199  26.455  1.00  0.00     0.000 C 
BRANCH   7   8
ATOM      8  C   UNL     1     217.372  -8.361  26.647  1.00  0.00    -0.000 C 
BRANCH   8   9
ATOM      9  C   UNL     1     217.516  -9.036  28.019  1.00  0.00    -0.003 C 
ATOM     10  C   UNL     1     218.245  -8.128  29.005  1.00  0.00     0.004 C 
ENDBRANCH   8   9
ENDBRANCH   7   8
ENDBRANCH   1   7
TORSDOF 6
ENDMDL
MODEL 6
REMARK VINA RESULT:    -4.342      1.029      3.109
REMARK INTER + INTRA:          -6.505
REMARK INTER:                  -5.872
REMARK INTRA:                  -0.633
REMARK UNBOUND:                -0.640
REMARK SMILES CCCCCCCC(=O)[O-]
REMARK SMILES IDX 5 1 6 2 7 3 8 4 9 5 10 6 4 7 3 8 2 9 1 10
REMARK H PARENT
REMARK Flexibility Score: inf
ROOT
ATOM      1  C   UNL     1     219.438  -6.395  24.725  1.00  0.00     0.000 C 
ENDROOT
BRANCH   1   2
ATOM      2  C   UNL     1     218.379  -7.507  24.764  1.00  0.00     0.006 C 
BRANCH   2   3
ATOM      3  C   UNL     1     217.884  -7.898  23.364  1.00  0.00     0.053 C 
BRANCH   3   4
ATOM      4  C   UNL     1     217.972  -9.378  23.174  1.00  0.00     0.041 C 
ATOM      5  O   UNL     1     217.894 -10.150  24.167  1.00  0.00    -0.550 OA
ATOM      6  O   UNL     1     218.190  -9.906  21.908  1.00  0.00    -0.550 OA
ENDBRANCH   3   4
ENDBRANCH   2   3
ENDBRANCH   1   2
BRANCH   1   7
ATOM      7  C   UNL     1     220.698  -6.806  23.943  1.00  0.00     0.000 C 
BRANCH   7   8
ATOM      8  C   UNL     1     221.385  -8.045  24.537  1.00  0.00    -0.000 C 
BRANCH   8   9
ATOM      9  C   UNL     1     221.792  -9.066  23.464  1.00  0.00    -0.003 C 
ATOM     10  C   UNL     1     221.521  -8.527  22.063  1.00  0.00     0.004 C 
ENDBRANCH   8   9
ENDBRANCH   7   8
ENDBRANCH   1   7
TORSDOF 6
ENDMDL
MODEL 7
REMARK VINA RESULT:    -4.299      1.921      3.148
REMARK INTER + INTRA:          -6.447
REMARK INTER:                  -5.823
REMARK INTRA:                  -0.624
REMARK UNBOUND:                -0.640
REMARK SMILES CCCCCCCC(=O)[O-]
REMARK SMILES IDX 5 1 6 2 7 3 8 4 9 5 10 6 4 7 3 8 2 9 1 10
REMARK H PARENT
REMARK Flexibility Score: inf
ROOT
ATOM      1  C   UNL     1     219.249  -6.401  25.204  1.00  0.00     0.000 C 
ENDROOT
BRANCH   1   2
ATOM      2  C   UNL     1     220.376  -6.424  24.159  1.00  0.00     0.006 C 
BRANCH   2   3
ATOM      3  C   UNL     1     221.222  -7.702  24.234  1.00  0.00     0.053 C 
BRANCH   3   4
ATOM      4  C   UNL     1     221.480  -8.238  22.861  1.00  0.00     0.041 C 
ATOM      5  O   UNL     1     222.481  -8.971  22.644  1.00  0.00    -0.550 OA
ATOM      6  O   UNL     1     220.642  -7.889  21.810  1.00  0.00    -0.550 OA
ENDBRANCH   3   4
ENDBRANCH   2   3
ENDBRANCH   1   2
BRANCH   1   7
ATOM      7  C   UNL     1     218.259  -7.566  25.029  1.00  0.00     0.000 C 
BRANCH   7   8
ATOM      8  C   UNL     1     217.448  -7.462  23.728  1.00  0.00    -0.000 C 
BRANCH   8   9
ATOM      9  C   UNL     1     217.508  -8.749  22.891  1.00  0.00    -0.003 C 
ATOM     10  C   UNL     1     217.983  -9.930  23.732  1.00  0.00     0.004 C 
ENDBRANCH   8   9
ENDBRANCH   7   8
ENDBRANCH   1   7
TORSDOF 6
ENDMDL
MODEL 8
REMARK VINA RESULT:    -4.262      2.436      3.280
REMARK INTER + INTRA:          -6.397
REMARK INTER:                  -5.833
REMARK INTRA:                  -0.565
REMARK UNBOUND:                -0.640
REMARK SMILES CCCCCCCC(=O)[O-]
REMARK SMILES IDX 5 1 6 2 7 3 8 4 9 5 10 6 4 7 3 8 2 9 1 10
REMARK H PARENT
REMARK Flexibility Score: inf
ROOT
ATOM      1  C   UNL     1     221.087  -8.407  21.843  1.00  0.00     0.000 C 
ENDROOT
BRANCH   1   2
ATOM      2  C   UNL     1     221.053  -7.655  23.183  1.00  0.00     0.006 C 
BRANCH   2   3
ATOM      3  C   UNL     1     221.737  -8.435  24.314  1.00  0.00     0.053 C 
BRANCH   3   4
ATOM      4  C   UNL     1     220.827  -9.499  24.838  1.00  0.00     0.041 C 
ATOM      5  O   UNL     1     220.972 -10.695  24.471  1.00  0.00    -0.550 OA
ATOM      6  O   UNL     1     219.786  -9.163  25.695  1.00  0.00    -0.550 OA
ENDBRANCH   3   4
ENDBRANCH   2   3
ENDBRANCH   1   2
BRANCH   1   7
ATOM      7  C   UNL     1     219.735  -8.368  21.110  1.00  0.00     0.000 C 
BRANCH   7   8
ATOM      8  C   UNL     1     218.938  -9.671  21.271  1.00  0.00    -0.000 C 
BRANCH   8   9
ATOM      9  C   UNL     1     217.949  -9.617  22.447  1.00  0.00    -0.003 C 
ATOM     10  C   UNL     1     217.751 -10.999  23.062  1.00  0.00     0.004 C 
ENDBRANCH   8   9
ENDBRANCH   7   8
ENDBRANCH   1   7
TORSDOF 6
ENDMDL
MODEL 9
REMARK VINA RESULT:    -4.238      2.366      3.690
REMARK INTER + INTRA:          -6.364
REMARK INTER:                  -5.848
REMARK INTRA:                  -0.516
REMARK UNBOUND:                -0.640
REMARK SMILES CCCCCCCC(=O)[O-]
REMARK SMILES IDX 5 1 6 2 7 3 8 4 9 5 10 6 4 7 3 8 2 9 1 10
REMARK H PARENT
REMARK Flexibility Score: inf
ROOT
ATOM      1  C   UNL     1     221.047  -9.155  23.060  1.00  0.00     0.000 C 
ENDROOT
BRANCH   1   2
ATOM      2  C   UNL     1     221.630  -8.064  23.972  1.00  0.00     0.006 C 
BRANCH   2   3
ATOM      3  C   UNL     1     220.833  -6.754  23.908  1.00  0.00     0.053 C 
BRANCH   3   4
ATOM      4  C   UNL     1     219.819  -6.706  25.007  1.00  0.00     0.041 C 
ATOM      5  O   UNL     1     218.600  -6.543  24.738  1.00  0.00    -0.550 OA
ATOM      6  O   UNL     1     220.226  -6.792  26.333  1.00  0.00    -0.550 OA
ENDBRANCH   3   4
ENDBRANCH   2   3
ENDBRANCH   1   2
BRANCH   1   7
ATOM      7  C   UNL     1     220.337  -8.574  21.825  1.00  0.00     0.000 C 
BRANCH   7   8
ATOM      8  C   UNL     1     218.886  -9.062  21.693  1.00  0.00    -0.000 C 
BRANCH   8   9
ATOM      9  C   UNL     1     218.342  -9.653  23.003  1.00  0.00    -0.003 C 
ATOM     10  C   UNL     1     217.822 -11.072  22.792  1.00  0.00     0.004 C 
ENDBRANCH   8   9
ENDBRANCH   7   8
ENDBRANCH   1   7
TORSDOF 6
ENDMDL
