MODEL 1
REMARK VINA RESULT:    -3.985      0.000      0.000
REMARK INTER + INTRA:          -6.177
REMARK INTER:                  -5.616
REMARK INTRA:                  -0.561
REMARK UNBOUND:                -0.561
REMARK SMILES CCCCCCCCC(=O)[O-]
REMARK SMILES IDX 6 1 7 2 8 3 9 4 10 5 11 6 5 7 4 8 3 9 2 10 1 11
REMARK H PARENT
REMARK Flexibility Score: inf
ROOT
ATOM      1  C   UNL     1      10.095 -11.519 -45.316  1.00  0.00     0.000 C 
ENDROOT
BRANCH   1   2
ATOM      2  C   UNL     1       8.788 -10.711 -45.414  1.00  0.00     0.006 C 
BRANCH   2   3
ATOM      3  C   UNL     1       7.909 -11.069 -46.624  1.00  0.00     0.053 C 
BRANCH   3   4
ATOM      4  C   UNL     1       7.516 -12.515 -46.623  1.00  0.00     0.041 C 
ATOM      5  O   UNL     1       7.898 -13.276 -47.551  1.00  0.00    -0.550 OA
ATOM      6  O   UNL     1       6.701 -13.013 -45.615  1.00  0.00    -0.550 OA
ENDBRANCH   3   4
ENDBRANCH   2   3
ENDBRANCH   1   2
BRANCH   1   7
ATOM      7  C   UNL     1      10.835 -11.293 -43.986  1.00  0.00     0.000 C 
BRANCH   7   8
ATOM      8  C   UNL     1      12.081 -10.408 -44.147  1.00  0.00    -0.000 C 
BRANCH   8   9
ATOM      9  C   UNL     1      11.740  -8.914 -44.258  1.00  0.00    -0.000 C 
BRANCH   9  10
ATOM     10  C   UNL     1      10.881  -8.459 -43.073  1.00  0.00    -0.003 C 
ATOM     11  C   UNL     1       9.732  -7.566 -43.534  1.00  0.00     0.004 C 
ENDBRANCH   9  10
ENDBRANCH   8   9
ENDBRANCH   7   8
ENDBRANCH   1   7
TORSDOF 7
ENDMDL
MODEL 2
REMARK VINA RESULT:    -3.825      1.390      2.038
REMARK INTER + INTRA:          -5.951
REMARK INTER:                  -5.325
REMARK INTRA:                  -0.626
REMARK UNBOUND:                -0.561
REMARK SMILES CCCCCCCCC(=O)[O-]
REMARK SMILES IDX 6 1 7 2 8 3 9 4 10 5 11 6 5 7 4 8 3 9 2 10 1 11
REMARK H PARENT
REMARK Flexibility Score: inf
ROOT
ATOM      1  C   UNL     1      11.197 -12.237 -43.283  1.00  0.00     0.000 C 
ENDROOT
BRANCH   1   2
ATOM      2  C   UNL     1      10.786 -12.638 -44.712  1.00  0.00     0.006 C 
BRANCH   2   3
ATOM      3  C   UNL     1       9.294 -12.971 -44.874  1.00  0.00     0.053 C 
BRANCH   3   4
ATOM      4  C   UNL     1       8.578 -11.950 -45.706  1.00  0.00     0.041 C 
ATOM      5  O   UNL     1       7.320 -11.936 -45.746  1.00  0.00    -0.550 OA
ATOM      6  O   UNL     1       9.303 -11.037 -46.460  1.00  0.00    -0.550 OA
ENDBRANCH   3   4
ENDBRANCH   2   3
ENDBRANCH   1   2
BRANCH   1   7
ATOM      7  C   UNL     1      11.257 -10.712 -43.087  1.00  0.00     0.000 C 
BRANCH   7   8
ATOM      8  C   UNL     1      11.968  -9.996 -44.246  1.00  0.00    -0.000 C 
BRANCH   8   9
ATOM      9  C   UNL     1      11.397  -8.597 -44.520  1.00  0.00    -0.000 C 
BRANCH   9  10
ATOM     10  C   UNL     1       9.930  -8.508 -44.086  1.00  0.00    -0.003 C 
ATOM     11  C   UNL     1       9.720  -7.383 -43.076  1.00  0.00     0.004 C 
ENDBRANCH   9  10
ENDBRANCH   8   9
ENDBRANCH   7   8
ENDBRANCH   1   7
TORSDOF 7
ENDMDL
MODEL 3
REMARK VINA RESULT:    -3.820      4.370      5.266
REMARK INTER + INTRA:          -5.944
REMARK INTER:                  -5.476
REMARK INTRA:                  -0.468
REMARK UNBOUND:                -0.561
REMARK SMILES CCCCCCCCC(=O)[O-]
REMARK SMILES IDX 6 1 7 2 8 3 9 4 10 5 11 6 5 7 4 8 3 9 2 10 1 11
REMARK H PARENT
REMARK Flexibility Score: inf
ROOT
ATOM      1  C   UNL     1      11.577 -12.268 -43.342  1.00  0.00     0.000 C 
ENDROOT
BRANCH   1   2
ATOM      2  C   UNL     1      12.608 -12.663 -44.415  1.00  0.00     0.006 C 
BRANCH   2   3
ATOM      3  C   UNL     1      13.920 -13.237 -43.856  1.00  0.00     0.053 C 
BRANCH   3   4
ATOM      4  C   UNL     1      15.014 -12.214 -43.832  1.00  0.00     0.041 C 
ATOM      5  O   UNL     1      15.428 -11.755 -42.735  1.00  0.00    -0.550 OA
ATOM      6  O   UNL     1      15.554 -11.745 -45.022  1.00  0.00    -0.550 OA
ENDBRANCH   3   4
ENDBRANCH   2   3
ENDBRANCH   1   2
BRANCH   1   7
ATOM      7  C   UNL     1      11.475 -10.745 -43.147  1.00  0.00     0.000 C 
BRANCH   7   8
ATOM      8  C   UNL     1      12.201  -9.960 -44.251  1.00  0.00    -0.000 C 
BRANCH   8   9
ATOM      9  C   UNL     1      11.529  -8.614 -44.563  1.00  0.00    -0.000 C 
BRANCH   9  10
ATOM     10  C   UNL     1      10.062  -8.619 -44.122  1.00  0.00    -0.003 C 
ATOM     11  C   UNL     1       9.766  -7.459 -43.174  1.00  0.00     0.004 C 
ENDBRANCH   9  10
ENDBRANCH   8   9
ENDBRANCH   7   8
ENDBRANCH   1   7
TORSDOF 7
ENDMDL
MODEL 4
REMARK VINA RESULT:    -3.762      3.666      5.176
REMARK INTER + INTRA:          -5.863
REMARK INTER:                  -5.465
REMARK INTRA:                  -0.398
REMARK UNBOUND:                -0.561
REMARK SMILES CCCCCCCCC(=O)[O-]
REMARK SMILES IDX 6 1 7 2 8 3 9 4 10 5 11 6 5 7 4 8 3 9 2 10 1 11
REMARK H PARENT
REMARK Flexibility Score: inf
ROOT
ATOM      1  C   UNL     1      11.033 -11.265 -44.628  1.00  0.00     0.000 C 
ENDROOT
BRANCH   1   2
ATOM      2  C   UNL     1      10.375  -9.873 -44.641  1.00  0.00     0.006 C 
BRANCH   2   3
ATOM      3  C   UNL     1      11.184  -8.782 -43.920  1.00  0.00     0.053 C 
BRANCH   3   4
ATOM      4  C   UNL     1      10.363  -8.062 -42.894  1.00  0.00     0.041 C 
ATOM      5  O   UNL     1      10.488  -8.342 -41.673  1.00  0.00    -0.550 OA
ATOM      6  O   UNL     1       9.438  -7.105 -43.289  1.00  0.00    -0.550 OA
ENDBRANCH   3   4
ENDBRANCH   2   3
ENDBRANCH   1   2
BRANCH   1   7
ATOM      7  C   UNL     1      11.363 -11.753 -43.207  1.00  0.00     0.000 C 
BRANCH   7   8
ATOM      8  C   UNL     1      12.742 -12.428 -43.121  1.00  0.00    -0.000 C 
BRANCH   8   9
ATOM      9  C   UNL     1      13.845 -11.619 -43.820  1.00  0.00    -0.000 C 
BRANCH   9  10
ATOM     10  C   UNL     1      15.201 -11.841 -43.143  1.00  0.00    -0.003 C 
ATOM     11  C   UNL     1      16.337 -11.831 -44.162  1.00  0.00     0.004 C 
ENDBRANCH   9  10
ENDBRANCH   8   9
ENDBRANCH   7   8
ENDBRANCH   1   7
TORSDOF 7
ENDMDL
MODEL 5
REMARK VINA RESULT:    -3.746      5.150      6.594
REMARK INTER + INTRA:          -5.840
REMARK INTER:                  -5.555
REMARK INTRA:                  -0.285
REMARK UNBOUND:                -0.561
REMARK SMILES CCCCCCCCC(=O)[O-]
REMARK SMILES IDX 6 1 7 2 8 3 9 4 10 5 11 6 5 7 4 8 3 9 2 10 1 11
REMARK H PARENT
REMARK Flexibility Score: inf
ROOT
ATOM      1  C   UNL     1      13.477 -12.376 -43.454  1.00  0.00     0.000 C 
ENDROOT
BRANCH   1   2
ATOM      2  C   UNL     1      14.706 -11.528 -43.829  1.00  0.00     0.006 C 
BRANCH   2   3
ATOM      3  C   UNL     1      15.910 -11.702 -42.888  1.00  0.00     0.053 C 
BRANCH   3   4
ATOM      4  C   UNL     1      17.154 -12.079 -43.633  1.00  0.00     0.041 C 
ATOM      5  O   UNL     1      17.094 -12.882 -44.601  1.00  0.00    -0.550 OA
ATOM      6  O   UNL     1      18.383 -11.567 -43.238  1.00  0.00    -0.550 OA
ENDBRANCH   3   4
ENDBRANCH   2   3
ENDBRANCH   1   2
BRANCH   1   7
ATOM      7  C   UNL     1      12.195 -11.537 -43.317  1.00  0.00     0.000 C 
BRANCH   7   8
ATOM      8  C   UNL     1      12.242 -10.248 -44.153  1.00  0.00    -0.000 C 
BRANCH   8   9
ATOM      9  C   UNL     1      10.844  -9.723 -44.515  1.00  0.00    -0.000 C 
BRANCH   9  10
ATOM     10  C   UNL     1      10.724  -8.226 -44.208  1.00  0.00    -0.003 C 
ATOM     11  C   UNL     1      10.304  -7.992 -42.759  1.00  0.00     0.004 C 
ENDBRANCH   9  10
ENDBRANCH   8   9
ENDBRANCH   7   8
ENDBRANCH   1   7
TORSDOF 7
ENDMDL
MODEL 6
REMARK VINA RESULT:    -3.739      3.874      4.871
REMARK INTER + INTRA:          -5.831
REMARK INTER:                  -5.454
REMARK INTRA:                  -0.377
REMARK UNBOUND:                -0.561
REMARK SMILES CCCCCCCCC(=O)[O-]
REMARK SMILES IDX 6 1 7 2 8 3 9 4 10 5 11 6 5 7 4 8 3 9 2 10 1 11
REMARK H PARENT
REMARK Flexibility Score: inf
ROOT
ATOM      1  C   UNL     1      11.756 -11.852 -44.503  1.00  0.00     0.000 C 
ENDROOT
BRANCH   1   2
ATOM      2  C   UNL     1      12.539 -12.033 -43.189  1.00  0.00     0.006 C 
BRANCH   2   3
ATOM      3  C   UNL     1      14.067 -11.955 -43.344  1.00  0.00     0.053 C 
BRANCH   3   4
ATOM      4  C   UNL     1      14.604 -13.080 -44.175  1.00  0.00     0.041 C 
ATOM      5  O   UNL     1      15.311 -12.837 -45.188  1.00  0.00    -0.550 OA
ATOM      6  O   UNL     1      14.297 -14.394 -43.849  1.00  0.00    -0.550 OA
ENDBRANCH   3   4
ENDBRANCH   2   3
ENDBRANCH   1   2
BRANCH   1   7
ATOM      7  C   UNL     1      10.961 -10.536 -44.544  1.00  0.00     0.000 C 
BRANCH   7   8
ATOM      8  C   UNL     1      11.870  -9.297 -44.516  1.00  0.00    -0.000 C 
BRANCH   8   9
ATOM      9  C   UNL     1      11.082  -7.980 -44.581  1.00  0.00    -0.000 C 
BRANCH   9  10
ATOM     10  C   UNL     1       9.796  -8.069 -43.753  1.00  0.00    -0.003 C 
ATOM     11  C   UNL     1      10.063  -7.760 -42.282  1.00  0.00     0.004 C 
ENDBRANCH   9  10
ENDBRANCH   8   9
ENDBRANCH   7   8
ENDBRANCH   1   7
TORSDOF 7
ENDMDL
MODEL 7
REMARK VINA RESULT:    -3.672      3.649      5.131
REMARK INTER + INTRA:          -5.736
REMARK INTER:                  -5.299
REMARK INTRA:                  -0.437
REMARK UNBOUND:                -0.561
REMARK SMILES CCCCCCCCC(=O)[O-]
REMARK SMILES IDX 6 1 7 2 8 3 9 4 10 5 11 6 5 7 4 8 3 9 2 10 1 11
REMARK H PARENT
REMARK Flexibility Score: inf
ROOT
ATOM      1  C   UNL     1      10.941 -11.549 -44.003  1.00  0.00     0.000 C 
ENDROOT
BRANCH   1   2
ATOM      2  C   UNL     1      10.537 -10.192 -44.610  1.00  0.00     0.006 C 
BRANCH   2   3
ATOM      3  C   UNL     1      11.288  -8.985 -44.024  1.00  0.00     0.053 C 
BRANCH   3   4
ATOM      4  C   UNL     1      10.422  -8.177 -43.107  1.00  0.00     0.041 C 
ATOM      5  O   UNL     1       9.628  -7.321 -43.578  1.00  0.00    -0.550 OA
ATOM      6  O   UNL     1      10.515  -8.348 -41.732  1.00  0.00    -0.550 OA
ENDBRANCH   3   4
ENDBRANCH   2   3
ENDBRANCH   1   2
BRANCH   1   7
ATOM      7  C   UNL     1      12.265 -11.480 -43.222  1.00  0.00     0.000 C 
BRANCH   7   8
ATOM      8  C   UNL     1      13.140 -12.726 -43.433  1.00  0.00    -0.000 C 
BRANCH   8   9
ATOM      9  C   UNL     1      14.162 -12.550 -44.566  1.00  0.00    -0.000 C 
BRANCH   9  10
ATOM     10  C   UNL     1      15.230 -11.519 -44.186  1.00  0.00    -0.003 C 
ATOM     11  C   UNL     1      15.894 -11.875 -42.858  1.00  0.00     0.004 C 
ENDBRANCH   9  10
ENDBRANCH   8   9
ENDBRANCH   7   8
ENDBRANCH   1   7
TORSDOF 7
ENDMDL
MODEL 8
REMARK VINA RESULT:    -3.637      3.264      5.004
REMARK INTER + INTRA:          -5.687
REMARK INTER:                  -5.101
REMARK INTRA:                  -0.586
REMARK UNBOUND:                -0.561
REMARK SMILES CCCCCCCCC(=O)[O-]
REMARK SMILES IDX 6 1 7 2 8 3 9 4 10 5 11 6 5 7 4 8 3 9 2 10 1 11
REMARK H PARENT
REMARK Flexibility Score: inf
ROOT
ATOM      1  C   UNL     1      10.882 -11.325 -43.814  1.00  0.00     0.000 C 
ENDROOT
BRANCH   1   2
ATOM      2  C   UNL     1      11.550  -9.943 -43.933  1.00  0.00     0.006 C 
BRANCH   2   3
ATOM      3  C   UNL     1      10.590  -8.804 -44.315  1.00  0.00     0.053 C 
BRANCH   3   4
ATOM      4  C   UNL     1      10.166  -8.003 -43.121  1.00  0.00     0.041 C 
ATOM      5  O   UNL     1       9.476  -6.962 -43.271  1.00  0.00    -0.550 OA
ATOM      6  O   UNL     1      10.562  -8.391 -41.848  1.00  0.00    -0.550 OA
ENDBRANCH   3   4
ENDBRANCH   2   3
ENDBRANCH   1   2
BRANCH   1   7
ATOM      7  C   UNL     1      11.238 -12.260 -44.982  1.00  0.00     0.000 C 
BRANCH   7   8
ATOM      8  C   UNL     1      10.086 -12.413 -45.988  1.00  0.00    -0.000 C 
BRANCH   8   9
ATOM      9  C   UNL     1       8.833 -13.046 -45.365  1.00  0.00    -0.000 C 
BRANCH   9  10
ATOM     10  C   UNL     1       7.567 -12.301 -45.802  1.00  0.00    -0.003 C 
ATOM     11  C   UNL     1       7.843 -10.814 -46.005  1.00  0.00     0.004 C 
ENDBRANCH   9  10
ENDBRANCH   8   9
ENDBRANCH   7   8
ENDBRANCH   1   7
TORSDOF 7
ENDMDL
MODEL 9
REMARK VINA RESULT:    -3.413     12.738     14.030
REMARK INTER + INTRA:          -5.370
REMARK INTER:                  -5.058
REMARK INTRA:                  -0.312
REMARK UNBOUND:                -0.561
REMARK SMILES CCCCCCCCC(=O)[O-]
REMARK SMILES IDX 6 1 7 2 8 3 9 4 10 5 11 6 5 7 4 8 3 9 2 10 1 11
REMARK H PARENT
REMARK Flexibility Score: inf
ROOT
ATOM      1  C   UNL     1       6.737 -18.466 -36.709  1.00  0.00     0.000 C 
ENDROOT
BRANCH   1   2
ATOM      2  C   UNL     1       5.426 -17.875 -36.159  1.00  0.00     0.006 C 
BRANCH   2   3
ATOM      3  C   UNL     1       5.555 -16.445 -35.608  1.00  0.00     0.053 C 
BRANCH   3   4
ATOM      4  C   UNL     1       5.390 -16.401 -34.119  1.00  0.00     0.041 C 
ATOM      5  O   UNL     1       5.132 -17.454 -33.479  1.00  0.00    -0.550 OA
ATOM      6  O   UNL     1       5.489 -15.192 -33.444  1.00  0.00    -0.550 OA
ENDBRANCH   3   4
ENDBRANCH   2   3
ENDBRANCH   1   2
BRANCH   1   7
ATOM      7  C   UNL     1       7.167 -19.747 -35.974  1.00  0.00     0.000 C 
BRANCH   7   8
ATOM      8  C   UNL     1       6.674 -21.023 -36.674  1.00  0.00    -0.000 C 
BRANCH   8   9
ATOM      9  C   UNL     1       7.394 -22.287 -36.182  1.00  0.00    -0.000 C 
BRANCH   9  10
ATOM     10  C   UNL     1       8.314 -21.969 -34.999  1.00  0.00    -0.003 C 
ATOM     11  C   UNL     1       9.499 -22.930 -34.946  1.00  0.00     0.004 C 
ENDBRANCH   9  10
ENDBRANCH   8   9
ENDBRANCH   7   8
ENDBRANCH   1   7
TORSDOF 7
ENDMDL
