MODEL 1
REMARK VINA RESULT:    -5.055      0.000      0.000
REMARK INTER + INTRA:          -5.680
REMARK INTER:                  -5.498
REMARK INTRA:                  -0.182
REMARK UNBOUND:                -0.182
REMARK SMILES Cc1ccc(C(C)C)c(O)c1
REMARK SMILES IDX 1 1 2 2 11 3 9 4 5 5 4 6 3 7 10 8 6 10 7 11 8 12
REMARK H PARENT 10 9
REMARK Flexibility Score: inf
ROOT
ATOM      1  C   UNL     1       7.550  10.878   7.493  1.00  0.00     0.044 C 
ATOM      2  C   UNL     1       6.154  10.907   8.040  1.00  0.00    -0.047 A 
ATOM      3  C   UNL     1       5.229   9.921   7.669  1.00  0.00     0.049 A 
ATOM      4  C   UNL     1       3.911   9.960   8.146  1.00  0.00     0.119 A 
ATOM      5  C   UNL     1       3.499  11.009   9.002  1.00  0.00    -0.004 A 
ATOM      6  C   UNL     1       4.433  12.003   9.351  1.00  0.00     0.008 A 
ATOM      7  C   UNL     1       5.743  11.956   8.870  1.00  0.00     0.004 A 
ENDROOT
BRANCH   4   8
ATOM      8  O   UNL     1       3.018   8.959   7.766  1.00  0.00    -0.508 OA
ATOM      9  H   UNL     1       2.307   8.610   8.397  1.00  0.00     0.293 HD
ENDBRANCH   4   8
BRANCH   5  10
ATOM     10  C   UNL     1       2.083  11.105   9.553  1.00  0.00     0.017 C 
ATOM     11  C   UNL     1       1.670  12.559   9.814  1.00  0.00     0.012 C 
ATOM     12  C   UNL     1       1.897  10.233  10.802  1.00  0.00     0.012 C 
ENDBRANCH   5  10
TORSDOF 2
ENDMDL
MODEL 2
REMARK VINA RESULT:    -5.011      1.400      4.200
REMARK INTER + INTRA:          -5.632
REMARK INTER:                  -5.480
REMARK INTRA:                  -0.152
REMARK UNBOUND:                -0.182
REMARK SMILES Cc1ccc(C(C)C)c(O)c1
REMARK SMILES IDX 1 1 2 2 11 3 9 4 5 5 4 6 3 7 10 8 6 10 7 11 8 12
REMARK H PARENT 10 9
REMARK Flexibility Score: inf
ROOT
ATOM      1  C   UNL     1       1.493  11.629  10.070  1.00  0.00     0.044 C 
ATOM      2  C   UNL     1       2.915  11.529   9.603  1.00  0.00    -0.047 A 
ATOM      3  C   UNL     1       3.572  10.291   9.601  1.00  0.00     0.049 A 
ATOM      4  C   UNL     1       4.913  10.193   9.202  1.00  0.00     0.119 A 
ATOM      5  C   UNL     1       5.620  11.353   8.806  1.00  0.00    -0.004 A 
ATOM      6  C   UNL     1       4.953  12.593   8.831  1.00  0.00     0.008 A 
ATOM      7  C   UNL     1       3.618  12.680   9.231  1.00  0.00     0.004 A 
ENDROOT
BRANCH   4   8
ATOM      8  O   UNL     1       5.535   8.945   9.202  1.00  0.00    -0.508 OA
ATOM      9  H   UNL     1       5.052   8.108   9.505  1.00  0.00     0.293 HD
ENDBRANCH   4   8
BRANCH   5  10
ATOM     10  C   UNL     1       7.075  11.311   8.361  1.00  0.00     0.017 C 
ATOM     11  C   UNL     1       7.771  12.664   8.554  1.00  0.00     0.012 C 
ATOM     12  C   UNL     1       7.216  10.805   6.919  1.00  0.00     0.012 C 
ENDBRANCH   5  10
TORSDOF 2
ENDMDL
MODEL 3
REMARK VINA RESULT:    -5.000      1.282      4.191
REMARK INTER + INTRA:          -5.620
REMARK INTER:                  -5.423
REMARK INTRA:                  -0.197
REMARK UNBOUND:                -0.182
REMARK SMILES Cc1ccc(C(C)C)c(O)c1
REMARK SMILES IDX 1 1 2 2 11 3 9 4 5 5 4 6 3 7 10 8 6 10 7 11 8 12
REMARK H PARENT 10 9
REMARK Flexibility Score: inf
ROOT
ATOM      1  C   UNL     1       1.510  11.630  10.040  1.00  0.00     0.044 C 
ATOM      2  C   UNL     1       2.791  11.597   9.262  1.00  0.00    -0.047 A 
ATOM      3  C   UNL     1       3.066  10.527   8.399  1.00  0.00     0.049 A 
ATOM      4  C   UNL     1       4.277  10.468   7.695  1.00  0.00     0.119 A 
ATOM      5  C   UNL     1       5.242  11.489   7.860  1.00  0.00    -0.004 A 
ATOM      6  C   UNL     1       4.962  12.548   8.745  1.00  0.00     0.008 A 
ATOM      7  C   UNL     1       3.753  12.598   9.441  1.00  0.00     0.004 A 
ENDROOT
BRANCH   4   8
ATOM      8  O   UNL     1       4.515   9.394   6.837  1.00  0.00    -0.508 OA
ATOM      9  H   UNL     1       3.904   8.587   6.810  1.00  0.00     0.293 HD
ENDBRANCH   4   8
BRANCH   5  10
ATOM     10  C   UNL     1       6.575  11.481   7.123  1.00  0.00     0.017 C 
ATOM     11  C   UNL     1       7.718  11.997   8.005  1.00  0.00     0.012 C 
ATOM     12  C   UNL     1       6.496  12.249   5.796  1.00  0.00     0.012 C 
ENDBRANCH   5  10
TORSDOF 2
ENDMDL
MODEL 4
REMARK VINA RESULT:    -4.996      2.575      3.720
REMARK INTER + INTRA:          -5.616
REMARK INTER:                  -5.457
REMARK INTRA:                  -0.159
REMARK UNBOUND:                -0.182
REMARK SMILES Cc1ccc(C(C)C)c(O)c1
REMARK SMILES IDX 1 1 2 2 11 3 9 4 5 5 4 6 3 7 10 8 6 10 7 11 8 12
REMARK H PARENT 10 9
REMARK Flexibility Score: inf
ROOT
ATOM      1  C   UNL     1       8.259  12.008   3.631  1.00  0.00     0.044 C 
ATOM      2  C   UNL     1       7.298  11.641   4.722  1.00  0.00    -0.047 A 
ATOM      3  C   UNL     1       7.774  11.171   5.953  1.00  0.00     0.049 A 
ATOM      4  C   UNL     1       6.883  10.790   6.967  1.00  0.00     0.119 A 
ATOM      5  C   UNL     1       5.487  10.868   6.748  1.00  0.00    -0.004 A 
ATOM      6  C   UNL     1       5.023  11.323   5.499  1.00  0.00     0.008 A 
ATOM      7  C   UNL     1       5.918  11.699   4.496  1.00  0.00     0.004 A 
ENDROOT
BRANCH   4   8
ATOM      8  O   UNL     1       7.389  10.336   8.185  1.00  0.00    -0.508 OA
ATOM      9  H   UNL     1       8.070  10.869   8.712  1.00  0.00     0.293 HD
ENDBRANCH   4   8
BRANCH   5  10
ATOM     10  C   UNL     1       4.470  10.470   7.810  1.00  0.00     0.017 C 
ATOM     11  C   UNL     1       3.132  10.052   7.189  1.00  0.00     0.012 C 
ATOM     12  C   UNL     1       4.284  11.572   8.862  1.00  0.00     0.012 C 
ENDBRANCH   5  10
TORSDOF 2
ENDMDL
MODEL 5
REMARK VINA RESULT:    -4.931      1.778      2.835
REMARK INTER + INTRA:          -5.545
REMARK INTER:                  -5.349
REMARK INTRA:                  -0.196
REMARK UNBOUND:                -0.182
REMARK SMILES Cc1ccc(C(C)C)c(O)c1
REMARK SMILES IDX 1 1 2 2 11 3 9 4 5 5 4 6 3 7 10 8 6 10 7 11 8 12
REMARK H PARENT 10 9
REMARK Flexibility Score: inf
ROOT
ATOM      1  C   UNL     1       9.455  11.437   5.953  1.00  0.00     0.044 C 
ATOM      2  C   UNL     1       8.063  11.148   6.430  1.00  0.00    -0.047 A 
ATOM      3  C   UNL     1       7.010  11.042   5.512  1.00  0.00     0.049 A 
ATOM      4  C   UNL     1       5.698  10.808   5.950  1.00  0.00     0.119 A 
ATOM      5  C   UNL     1       5.425  10.688   7.333  1.00  0.00    -0.004 A 
ATOM      6  C   UNL     1       6.490  10.816   8.246  1.00  0.00     0.008 A 
ATOM      7  C   UNL     1       7.792  11.049   7.799  1.00  0.00     0.004 A 
ENDROOT
BRANCH   4   8
ATOM      8  O   UNL     1       4.674  10.699   5.010  1.00  0.00    -0.508 OA
ATOM      9  H   UNL     1       3.810  10.210   5.215  1.00  0.00     0.293 HD
ENDBRANCH   4   8
BRANCH   5  10
ATOM     10  C   UNL     1       4.023  10.433   7.870  1.00  0.00     0.017 C 
ATOM     11  C   UNL     1       3.682  11.365   9.039  1.00  0.00     0.012 C 
ATOM     12  C   UNL     1       3.816   8.959   8.245  1.00  0.00     0.012 C 
ENDBRANCH   5  10
TORSDOF 2
ENDMDL
MODEL 6
REMARK VINA RESULT:    -4.698      2.273      4.760
REMARK INTER + INTRA:          -5.292
REMARK INTER:                  -5.101
REMARK INTRA:                  -0.190
REMARK UNBOUND:                -0.182
REMARK SMILES Cc1ccc(C(C)C)c(O)c1
REMARK SMILES IDX 1 1 2 2 11 3 9 4 5 5 4 6 3 7 10 8 6 10 7 11 8 12
REMARK H PARENT 10 9
REMARK Flexibility Score: inf
ROOT
ATOM      1  C   UNL     1       2.680  10.506   9.997  1.00  0.00     0.044 C 
ATOM      2  C   UNL     1       3.687  10.825   8.933  1.00  0.00    -0.047 A 
ATOM      3  C   UNL     1       4.688  11.776   9.170  1.00  0.00     0.049 A 
ATOM      4  C   UNL     1       5.612  12.109   8.169  1.00  0.00     0.119 A 
ATOM      5  C   UNL     1       5.533  11.489   6.899  1.00  0.00    -0.004 A 
ATOM      6  C   UNL     1       4.510  10.550   6.668  1.00  0.00     0.008 A 
ATOM      7  C   UNL     1       3.595  10.226   7.671  1.00  0.00     0.004 A 
ENDROOT
BRANCH   4   8
ATOM      8  O   UNL     1       6.602  13.052   8.440  1.00  0.00    -0.508 OA
ATOM      9  H   UNL     1       7.587  12.834   8.349  1.00  0.00     0.293 HD
ENDBRANCH   4   8
BRANCH   5  10
ATOM     10  C   UNL     1       6.507  11.807   5.772  1.00  0.00     0.017 C 
ATOM     11  C   UNL     1       5.845  11.683   4.394  1.00  0.00     0.012 C 
ATOM     12  C   UNL     1       7.781  10.958   5.864  1.00  0.00     0.012 C 
ENDBRANCH   5  10
TORSDOF 2
ENDMDL
MODEL 7
REMARK VINA RESULT:    -4.623      1.943      4.853
REMARK INTER + INTRA:          -5.209
REMARK INTER:                  -5.087
REMARK INTRA:                  -0.122
REMARK UNBOUND:                -0.182
REMARK SMILES Cc1ccc(C(C)C)c(O)c1
REMARK SMILES IDX 1 1 2 2 11 3 9 4 5 5 4 6 3 7 10 8 6 10 7 11 8 12
REMARK H PARENT 10 9
REMARK Flexibility Score: inf
ROOT
ATOM      1  C   UNL     1       3.377  10.192   9.460  1.00  0.00     0.044 C 
ATOM      2  C   UNL     1       4.443  10.492   8.449  1.00  0.00    -0.047 A 
ATOM      3  C   UNL     1       4.161  10.414   7.079  1.00  0.00     0.049 A 
ATOM      4  C   UNL     1       5.161  10.656   6.126  1.00  0.00     0.119 A 
ATOM      5  C   UNL     1       6.475  10.973   6.545  1.00  0.00    -0.004 A 
ATOM      6  C   UNL     1       6.750  11.029   7.925  1.00  0.00     0.008 A 
ATOM      7  C   UNL     1       5.747  10.786   8.865  1.00  0.00     0.004 A 
ENDROOT
BRANCH   4   8
ATOM      8  O   UNL     1       4.844  10.579   4.771  1.00  0.00    -0.508 OA
ATOM      9  H   UNL     1       4.334  11.316   4.299  1.00  0.00     0.293 HD
ENDBRANCH   4   8
BRANCH   5  10
ATOM     10  C   UNL     1       7.603  11.247   5.559  1.00  0.00     0.017 C 
ATOM     11  C   UNL     1       8.982  11.072   6.207  1.00  0.00     0.012 C 
ATOM     12  C   UNL     1       7.460  12.625   4.899  1.00  0.00     0.012 C 
ENDBRANCH   5  10
TORSDOF 2
ENDMDL
MODEL 8
REMARK VINA RESULT:    -4.556      1.746      2.196
REMARK INTER + INTRA:          -5.138
REMARK INTER:                  -5.348
REMARK INTRA:                   0.211
REMARK UNBOUND:                -0.182
REMARK SMILES Cc1ccc(C(C)C)c(O)c1
REMARK SMILES IDX 1 1 2 2 11 3 9 4 5 5 4 6 3 7 10 8 6 10 7 11 8 12
REMARK H PARENT 10 9
REMARK Flexibility Score: inf
ROOT
ATOM      1  C   UNL     1       6.217  11.180   4.319  1.00  0.00     0.044 C 
ATOM      2  C   UNL     1       5.614  11.241   5.691  1.00  0.00    -0.047 A 
ATOM      3  C   UNL     1       4.455  10.511   5.986  1.00  0.00     0.049 A 
ATOM      4  C   UNL     1       3.862  10.590   7.254  1.00  0.00     0.119 A 
ATOM      5  C   UNL     1       4.428  11.423   8.249  1.00  0.00    -0.004 A 
ATOM      6  C   UNL     1       5.581  12.166   7.933  1.00  0.00     0.008 A 
ATOM      7  C   UNL     1       6.163  12.080   6.667  1.00  0.00     0.004 A 
ENDROOT
BRANCH   4   8
ATOM      8  O   UNL     1       2.714   9.844   7.519  1.00  0.00    -0.508 OA
ATOM      9  H   UNL     1       2.503   9.501   8.448  1.00  0.00     0.293 HD
ENDBRANCH   4   8
BRANCH   5  10
ATOM     10  C   UNL     1       3.831  11.550   9.644  1.00  0.00     0.017 C 
ATOM     11  C   UNL     1       3.843  10.213  10.394  1.00  0.00     0.012 C 
ATOM     12  C   UNL     1       2.425  12.165   9.609  1.00  0.00     0.012 C 
ENDBRANCH   5  10
TORSDOF 2
ENDMDL
MODEL 9
REMARK VINA RESULT:    -4.013     18.143     19.170
REMARK INTER + INTRA:          -4.547
REMARK INTER:                  -4.409
REMARK INTRA:                  -0.138
REMARK UNBOUND:                -0.182
REMARK SMILES Cc1ccc(C(C)C)c(O)c1
REMARK SMILES IDX 1 1 2 2 11 3 9 4 5 5 4 6 3 7 10 8 6 10 7 11 8 12
REMARK H PARENT 10 9
REMARK Flexibility Score: inf
ROOT
ATOM      1  C   UNL     1      -8.694   8.619  -6.494  1.00  0.00     0.044 C 
ATOM      2  C   UNL     1      -7.462   9.425  -6.778  1.00  0.00    -0.047 A 
ATOM      3  C   UNL     1      -7.243  10.638  -6.111  1.00  0.00     0.049 A 
ATOM      4  C   UNL     1      -6.113  11.418  -6.397  1.00  0.00     0.119 A 
ATOM      5  C   UNL     1      -5.185  10.989  -7.375  1.00  0.00    -0.004 A 
ATOM      6  C   UNL     1      -5.428   9.778  -8.052  1.00  0.00     0.008 A 
ATOM      7  C   UNL     1      -6.556   9.009  -7.761  1.00  0.00     0.004 A 
ENDROOT
BRANCH   4   8
ATOM      8  O   UNL     1      -5.919  12.615  -5.708  1.00  0.00    -0.508 OA
ATOM      9  H   UNL     1      -5.779  12.638  -4.705  1.00  0.00     0.293 HD
ENDBRANCH   4   8
BRANCH   5  10
ATOM     10  C   UNL     1      -3.940  11.790  -7.728  1.00  0.00     0.017 C 
ATOM     11  C   UNL     1      -3.412  11.439  -9.125  1.00  0.00     0.012 C 
ATOM     12  C   UNL     1      -2.848  11.647  -6.660  1.00  0.00     0.012 C 
ENDBRANCH   5  10
TORSDOF 2
ENDMDL
