MODEL 1
REMARK VINA RESULT:     0.000      0.000      0.000
REMARK INTER + INTRA:          -0.321
REMARK INTER:                   0.000
REMARK INTRA:                  -0.321
REMARK UNBOUND:                -0.321
REMARK SMILES O=C1C[C@H](c2ccc(O)cc2)Oc2cc(O)cc(O)c21
REMARK SMILES IDX 3 1 4 2 12 3 13 4 14 5 15 6 17 7 18 8 20 9 2 10 1 11 5 12
REMARK SMILES IDX 6 13 11 14 7 15 10 16 8 17 9 18 19 20 16 22
REMARK H PARENT 9 19 19 21 16 23
REMARK Flexibility Score: inf
ROOT
ATOM      1  C   UNL     1      13.096  16.656  52.574  1.00  0.00     0.131 C 
ATOM      2  C   UNL     1      12.730  17.853  53.462  1.00  0.00     0.211 C 
ATOM      3  O   UNL     1      13.146  17.623  54.812  1.00  0.00    -0.484 OA
ATOM      4  C   UNL     1      13.040  16.371  55.433  1.00  0.00     0.138 A 
ATOM      5  C   UNL     1      13.203  16.287  56.817  1.00  0.00     0.093 A 
ATOM      6  C   UNL     1      13.087  15.056  57.468  1.00  0.00     0.123 A 
ATOM      7  C   UNL     1      12.837  13.900  56.725  1.00  0.00     0.093 A 
ATOM      8  C   UNL     1      12.711  13.954  55.331  1.00  0.00     0.133 A 
ATOM      9  C   UNL     1      12.780  15.211  54.673  1.00  0.00     0.102 A 
ATOM     10  C   UNL     1      12.590  15.396  53.213  1.00  0.00     0.174 C 
ATOM     11  O   UNL     1      11.972  14.553  52.511  1.00  0.00    -0.294 OA
ENDROOT
BRANCH   2  12
ATOM     12  C   UNL     1      13.357  19.119  52.936  1.00  0.00    -0.007 A 
ATOM     13  C   UNL     1      14.104  19.955  53.784  1.00  0.00     0.011 A 
ATOM     14  C   UNL     1      13.248  19.450  51.574  1.00  0.00     0.011 A 
ATOM     15  C   UNL     1      14.710  21.111  53.285  1.00  0.00     0.046 A 
ATOM     16  C   UNL     1      13.854  20.607  51.077  1.00  0.00     0.046 A 
ATOM     17  C   UNL     1      14.585  21.441  51.929  1.00  0.00     0.115 A 
BRANCH  17  18
ATOM     18  O   UNL     1      15.182  22.592  51.420  1.00  0.00    -0.508 OA
ATOM     19  H   UNL     1      15.493  22.647  50.456  1.00  0.00     0.293 HD
ENDBRANCH  17  18
ENDBRANCH   2  12
BRANCH   8  20
ATOM     20  O   UNL     1      12.556  12.744  54.653  1.00  0.00    -0.507 OA
ATOM     21  H   UNL     1      12.340  12.672  53.669  1.00  0.00     0.293 HD
ENDBRANCH   8  20
BRANCH   6  22
ATOM     22  O   UNL     1      13.227  14.966  58.852  1.00  0.00    -0.508 OA
ATOM     23  H   UNL     1      12.972  15.735  59.459  1.00  0.00     0.293 HD
ENDBRANCH   6  22
TORSDOF 4
ENDMDL
MODEL 2
REMARK VINA RESULT:     0.000      8.446     10.100
REMARK INTER + INTRA:          -0.321
REMARK INTER:                   0.000
REMARK INTRA:                  -0.321
REMARK UNBOUND:                -0.321
REMARK SMILES O=C1C[C@H](c2ccc(O)cc2)Oc2cc(O)cc(O)c21
REMARK SMILES IDX 3 1 4 2 12 3 13 4 14 5 15 6 17 7 18 8 20 9 2 10 1 11 5 12
REMARK SMILES IDX 6 13 11 14 7 15 10 16 8 17 9 18 19 20 16 22
REMARK H PARENT 9 19 19 21 16 23
REMARK Flexibility Score: inf
ROOT
ATOM      1  C   UNL     1      16.677  23.898  47.396  1.00  0.00     0.131 C 
ATOM      2  C   UNL     1      16.753  22.916  48.573  1.00  0.00     0.211 C 
ATOM      3  O   UNL     1      16.460  21.585  48.137  1.00  0.00    -0.484 OA
ATOM      4  C   UNL     1      15.462  21.301  47.194  1.00  0.00     0.138 A 
ATOM      5  C   UNL     1      15.046  19.979  47.026  1.00  0.00     0.093 A 
ATOM      6  C   UNL     1      14.043  19.666  46.105  1.00  0.00     0.123 A 
ATOM      7  C   UNL     1      13.476  20.678  45.327  1.00  0.00     0.093 A 
ATOM      8  C   UNL     1      13.906  22.005  45.450  1.00  0.00     0.133 A 
ATOM      9  C   UNL     1      14.891  22.334  46.419  1.00  0.00     0.102 A 
ATOM     10  C   UNL     1      15.370  23.713  46.684  1.00  0.00     0.174 C 
ATOM     11  O   UNL     1      14.685  24.724  46.378  1.00  0.00    -0.294 OA
ENDROOT
BRANCH   2  12
ATOM     12  C   UNL     1      18.117  22.960  49.217  1.00  0.00    -0.007 A 
ATOM     13  C   UNL     1      18.842  21.776  49.440  1.00  0.00     0.011 A 
ATOM     14  C   UNL     1      18.702  24.194  49.551  1.00  0.00     0.011 A 
ATOM     15  C   UNL     1      20.118  21.824  50.009  1.00  0.00     0.046 A 
ATOM     16  C   UNL     1      19.978  24.240  50.120  1.00  0.00     0.046 A 
ATOM     17  C   UNL     1      20.689  23.058  50.352  1.00  0.00     0.115 A 
BRANCH  17  18
ATOM     18  O   UNL     1      21.959  23.119  50.920  1.00  0.00    -0.508 OA
ATOM     19  H   UNL     1      22.785  22.838  50.404  1.00  0.00     0.293 HD
ENDBRANCH  17  18
ENDBRANCH   2  12
BRANCH   8  20
ATOM     20  O   UNL     1      13.356  22.942  44.572  1.00  0.00    -0.507 OA
ATOM     21  H   UNL     1      13.389  23.941  44.719  1.00  0.00     0.293 HD
ENDBRANCH   8  20
BRANCH   6  22
ATOM     22  O   UNL     1      13.607  18.352  45.947  1.00  0.00    -0.508 OA
ATOM     23  H   UNL     1      12.752  18.135  45.449  1.00  0.00     0.293 HD
ENDBRANCH   6  22
TORSDOF 4
ENDMDL
MODEL 3
REMARK VINA RESULT:     0.000      5.158      7.218
REMARK INTER + INTRA:          -0.321
REMARK INTER:                   0.000
REMARK INTRA:                  -0.321
REMARK UNBOUND:                -0.321
REMARK SMILES O=C1C[C@H](c2ccc(O)cc2)Oc2cc(O)cc(O)c21
REMARK SMILES IDX 3 1 4 2 12 3 13 4 14 5 15 6 17 7 18 8 20 9 2 10 1 11 5 12
REMARK SMILES IDX 6 13 11 14 7 15 10 16 8 17 9 18 19 20 16 22
REMARK H PARENT 9 19 19 21 16 23
REMARK Flexibility Score: inf
ROOT
ATOM      1  C   UNL     1      11.074  12.818  54.109  1.00  0.00     0.131 C 
ATOM      2  C   UNL     1      10.455  14.135  53.619  1.00  0.00     0.211 C 
ATOM      3  O   UNL     1       9.308  13.878  52.803  1.00  0.00    -0.484 OA
ATOM      4  C   UNL     1       9.255  12.821  51.884  1.00  0.00     0.138 A 
ATOM      5  C   UNL     1       8.228  12.798  50.937  1.00  0.00     0.093 A 
ATOM      6  C   UNL     1       8.158  11.766  49.997  1.00  0.00     0.123 A 
ATOM      7  C   UNL     1       9.102  10.737  50.025  1.00  0.00     0.093 A 
ATOM      8  C   UNL     1      10.116  10.718  50.992  1.00  0.00     0.133 A 
ATOM      9  C   UNL     1      10.219  11.790  51.917  1.00  0.00     0.102 A 
ATOM     10  C   UNL     1      11.291  11.910  52.935  1.00  0.00     0.174 C 
ATOM     11  O   UNL     1      12.394  11.314  52.812  1.00  0.00    -0.294 OA
ENDROOT
BRANCH   2  12
ATOM     12  C   UNL     1      10.074  15.012  54.785  1.00  0.00    -0.007 A 
ATOM     13  C   UNL     1       8.784  15.564  54.875  1.00  0.00     0.011 A 
ATOM     14  C   UNL     1      10.990  15.243  55.826  1.00  0.00     0.011 A 
ATOM     15  C   UNL     1       8.426  16.351  55.973  1.00  0.00     0.046 A 
ATOM     16  C   UNL     1      10.631  16.031  56.923  1.00  0.00     0.046 A 
ATOM     17  C   UNL     1       9.350  16.588  57.000  1.00  0.00     0.115 A 
BRANCH  17  18
ATOM     18  O   UNL     1       9.006  17.372  58.098  1.00  0.00    -0.508 OA
ATOM     19  H   UNL     1       8.074  17.345  58.497  1.00  0.00     0.293 HD
ENDBRANCH  17  18
ENDBRANCH   2  12
BRANCH   8  20
ATOM     20  O   UNL     1      10.962   9.608  51.011  1.00  0.00    -0.507 OA
ATOM     21  H   UNL     1      11.199   9.063  50.194  1.00  0.00     0.293 HD
ENDBRANCH   8  20
BRANCH   6  22
ATOM     22  O   UNL     1       7.150  11.748  49.036  1.00  0.00    -0.508 OA
ATOM     23  H   UNL     1       6.591  12.569  48.840  1.00  0.00     0.293 HD
ENDBRANCH   6  22
TORSDOF 4
ENDMDL
MODEL 4
REMARK VINA RESULT:     0.000      7.810      9.392
REMARK INTER + INTRA:          -0.321
REMARK INTER:                   0.000
REMARK INTRA:                  -0.321
REMARK UNBOUND:                -0.321
REMARK SMILES O=C1C[C@H](c2ccc(O)cc2)Oc2cc(O)cc(O)c21
REMARK SMILES IDX 3 1 4 2 12 3 13 4 14 5 15 6 17 7 18 8 20 9 2 10 1 11 5 12
REMARK SMILES IDX 6 13 11 14 7 15 10 16 8 17 9 18 19 20 16 22
REMARK H PARENT 9 19 19 21 16 23
REMARK Flexibility Score: inf
ROOT
ATOM      1  C   UNL     1      14.105  20.152  47.368  1.00  0.00     0.131 C 
ATOM      2  C   UNL     1      14.735  18.759  47.502  1.00  0.00     0.211 C 
ATOM      3  O   UNL     1      14.403  17.947  46.371  1.00  0.00    -0.484 OA
ATOM      4  C   UNL     1      13.136  17.968  45.770  1.00  0.00     0.138 A 
ATOM      5  C   UNL     1      12.802  16.962  44.861  1.00  0.00     0.093 A 
ATOM      6  C   UNL     1      11.541  16.947  44.258  1.00  0.00     0.123 A 
ATOM      7  C   UNL     1      10.624  17.960  44.544  1.00  0.00     0.093 A 
ATOM      8  C   UNL     1      10.953  19.002  45.421  1.00  0.00     0.133 A 
ATOM      9  C   UNL     1      12.215  18.993  46.073  1.00  0.00     0.102 A 
ATOM     10  C   UNL     1      12.642  20.004  47.072  1.00  0.00     0.174 C 
ATOM     11  O   UNL     1      11.808  20.697  47.713  1.00  0.00    -0.294 OA
ENDROOT
BRANCH   2  12
ATOM     12  C   UNL     1      16.233  18.862  47.641  1.00  0.00    -0.007 A 
ATOM     13  C   UNL     1      17.083  18.105  46.817  1.00  0.00     0.011 A 
ATOM     14  C   UNL     1      16.797  19.761  48.564  1.00  0.00     0.011 A 
ATOM     15  C   UNL     1      18.472  18.227  46.929  1.00  0.00     0.046 A 
ATOM     16  C   UNL     1      18.185  19.881  48.675  1.00  0.00     0.046 A 
ATOM     17  C   UNL     1      19.026  19.116  47.861  1.00  0.00     0.115 A 
BRANCH  17  18
ATOM     18  O   UNL     1      20.407  19.245  47.983  1.00  0.00    -0.508 OA
ATOM     19  H   UNL     1      20.900  20.046  47.606  1.00  0.00     0.293 HD
ENDBRANCH  17  18
ENDBRANCH   2  12
BRANCH   8  20
ATOM     20  O   UNL     1      10.017  20.026  45.581  1.00  0.00    -0.507 OA
ATOM     21  H   UNL     1       9.317  20.042  46.309  1.00  0.00     0.293 HD
ENDBRANCH   8  20
BRANCH   6  22
ATOM     22  O   UNL     1      11.191  15.935  43.367  1.00  0.00    -0.508 OA
ATOM     23  H   UNL     1      11.873  15.263  43.035  1.00  0.00     0.293 HD
ENDBRANCH   6  22
TORSDOF 4
ENDMDL
MODEL 5
REMARK VINA RESULT:     0.000      5.712      8.983
REMARK INTER + INTRA:          -0.321
REMARK INTER:                   0.000
REMARK INTRA:                  -0.321
REMARK UNBOUND:                -0.321
REMARK SMILES O=C1C[C@H](c2ccc(O)cc2)Oc2cc(O)cc(O)c21
REMARK SMILES IDX 3 1 4 2 12 3 13 4 14 5 15 6 17 7 18 8 20 9 2 10 1 11 5 12
REMARK SMILES IDX 6 13 11 14 7 15 10 16 8 17 9 18 19 20 16 22
REMARK H PARENT 9 19 19 21 16 23
REMARK Flexibility Score: inf
ROOT
ATOM      1  C   UNL     1      10.107  20.943  58.328  1.00  0.00     0.131 C 
ATOM      2  C   UNL     1      11.479  20.759  57.663  1.00  0.00     0.211 C 
ATOM      3  O   UNL     1      12.258  21.953  57.781  1.00  0.00    -0.484 OA
ATOM      4  C   UNL     1      11.704  23.234  57.649  1.00  0.00     0.138 A 
ATOM      5  C   UNL     1      12.558  24.328  57.499  1.00  0.00     0.093 A 
ATOM      6  C   UNL     1      12.035  25.616  57.350  1.00  0.00     0.123 A 
ATOM      7  C   UNL     1      10.653  25.811  57.380  1.00  0.00     0.093 A 
ATOM      8  C   UNL     1       9.779  24.733  57.570  1.00  0.00     0.133 A 
ATOM      9  C   UNL     1      10.304  23.418  57.674  1.00  0.00     0.102 A 
ATOM     10  C   UNL     1       9.472  22.197  57.805  1.00  0.00     0.174 C 
ATOM     11  O   UNL     1       8.266  22.172  57.441  1.00  0.00    -0.294 OA
ENDROOT
BRANCH   2  12
ATOM     12  C   UNL     1      12.218  19.597  58.278  1.00  0.00    -0.007 A 
ATOM     13  C   UNL     1      13.539  19.749  58.735  1.00  0.00     0.011 A 
ATOM     14  C   UNL     1      11.572  18.360  58.453  1.00  0.00     0.011 A 
ATOM     15  C   UNL     1      14.209  18.677  59.332  1.00  0.00     0.046 A 
ATOM     16  C   UNL     1      12.245  17.290  59.049  1.00  0.00     0.046 A 
ATOM     17  C   UNL     1      13.563  17.443  59.490  1.00  0.00     0.115 A 
BRANCH  17  18
ATOM     18  O   UNL     1      14.221  16.368  60.081  1.00  0.00    -0.508 OA
ATOM     19  H   UNL     1      14.892  15.808  59.567  1.00  0.00     0.293 HD
ENDBRANCH  17  18
ENDBRANCH   2  12
BRANCH   8  20
ATOM     20  O   UNL     1       8.417  25.022  57.682  1.00  0.00    -0.507 OA
ATOM     21  H   UNL     1       8.038  25.723  58.303  1.00  0.00     0.293 HD
ENDBRANCH   8  20
BRANCH   6  22
ATOM     22  O   UNL     1      12.880  26.711  57.178  1.00  0.00    -0.508 OA
ATOM     23  H   UNL     1      12.794  27.324  56.377  1.00  0.00     0.293 HD
ENDBRANCH   6  22
TORSDOF 4
ENDMDL
MODEL 6
REMARK VINA RESULT:     0.000      7.236      8.496
REMARK INTER + INTRA:          -0.321
REMARK INTER:                   0.000
REMARK INTRA:                  -0.321
REMARK UNBOUND:                -0.321
REMARK SMILES O=C1C[C@H](c2ccc(O)cc2)Oc2cc(O)cc(O)c21
REMARK SMILES IDX 3 1 4 2 12 3 13 4 14 5 15 6 17 7 18 8 20 9 2 10 1 11 5 12
REMARK SMILES IDX 6 13 11 14 7 15 10 16 8 17 9 18 19 20 16 22
REMARK H PARENT 9 19 19 21 16 23
REMARK Flexibility Score: inf
ROOT
ATOM      1  C   UNL     1      19.487  15.817  50.878  1.00  0.00     0.131 C 
ATOM      2  C   UNL     1      19.677  14.293  50.869  1.00  0.00     0.211 C 
ATOM      3  O   UNL     1      19.340  13.737  52.143  1.00  0.00    -0.484 OA
ATOM      4  C   UNL     1      19.666  14.366  53.353  1.00  0.00     0.138 A 
ATOM      5  C   UNL     1      19.556  13.644  54.543  1.00  0.00     0.093 A 
ATOM      6  C   UNL     1      19.888  14.239  55.763  1.00  0.00     0.123 A 
ATOM      7  C   UNL     1      20.303  15.572  55.794  1.00  0.00     0.093 A 
ATOM      8  C   UNL     1      20.381  16.328  54.618  1.00  0.00     0.133 A 
ATOM      9  C   UNL     1      20.091  15.712  53.371  1.00  0.00     0.102 A 
ATOM     10  C   UNL     1      20.209  16.395  52.059  1.00  0.00     0.174 C 
ATOM     11  O   UNL     1      20.938  17.410  51.901  1.00  0.00    -0.294 OA
ENDROOT
BRANCH   2  12
ATOM     12  C   UNL     1      18.837  13.657  49.789  1.00  0.00    -0.007 A 
ATOM     13  C   UNL     1      17.987  12.578  50.086  1.00  0.00     0.011 A 
ATOM     14  C   UNL     1      18.855  14.175  48.482  1.00  0.00     0.011 A 
ATOM     15  C   UNL     1      17.187  12.012  49.088  1.00  0.00     0.046 A 
ATOM     16  C   UNL     1      18.055  13.608  47.486  1.00  0.00     0.046 A 
ATOM     17  C   UNL     1      17.221  12.525  47.785  1.00  0.00     0.115 A 
BRANCH  17  18
ATOM     18  O   UNL     1      16.430  11.969  46.782  1.00  0.00    -0.508 OA
ATOM     19  H   UNL     1      15.421  12.064  46.789  1.00  0.00     0.293 HD
ENDBRANCH  17  18
ENDBRANCH   2  12
BRANCH   8  20
ATOM     20  O   UNL     1      20.714  17.678  54.744  1.00  0.00    -0.507 OA
ATOM     21  H   UNL     1      20.981  18.115  55.614  1.00  0.00     0.293 HD
ENDBRANCH   8  20
BRANCH   6  22
ATOM     22  O   UNL     1      19.802  13.518  56.952  1.00  0.00    -0.508 OA
ATOM     23  H   UNL     1      20.561  13.513  57.624  1.00  0.00     0.293 HD
ENDBRANCH   6  22
TORSDOF 4
ENDMDL
MODEL 7
REMARK VINA RESULT:     0.000      5.034      6.408
REMARK INTER + INTRA:          -0.321
REMARK INTER:                   0.000
REMARK INTRA:                  -0.321
REMARK UNBOUND:                -0.321
REMARK SMILES O=C1C[C@H](c2ccc(O)cc2)Oc2cc(O)cc(O)c21
REMARK SMILES IDX 3 1 4 2 12 3 13 4 14 5 15 6 17 7 18 8 20 9 2 10 1 11 5 12
REMARK SMILES IDX 6 13 11 14 7 15 10 16 8 17 9 18 19 20 16 22
REMARK H PARENT 9 19 19 21 16 23
REMARK Flexibility Score: inf
ROOT
ATOM      1  C   UNL     1      11.867  19.701  49.139  1.00  0.00     0.131 C 
ATOM      2  C   UNL     1      11.125  19.912  50.466  1.00  0.00     0.211 C 
ATOM      3  O   UNL     1      11.988  20.517  51.434  1.00  0.00    -0.484 OA
ATOM      4  C   UNL     1      13.340  20.170  51.562  1.00  0.00     0.138 A 
ATOM      5  C   UNL     1      14.042  20.590  52.694  1.00  0.00     0.093 A 
ATOM      6  C   UNL     1      15.387  20.248  52.857  1.00  0.00     0.123 A 
ATOM      7  C   UNL     1      16.039  19.507  51.869  1.00  0.00     0.093 A 
ATOM      8  C   UNL     1      15.366  19.110  50.706  1.00  0.00     0.133 A 
ATOM      9  C   UNL     1      13.987  19.415  50.560  1.00  0.00     0.102 A 
ATOM     10  C   UNL     1      13.158  18.985  49.407  1.00  0.00     0.174 C 
ATOM     11  O   UNL     1      13.481  18.005  48.685  1.00  0.00    -0.294 OA
ENDROOT
BRANCH   2  12
ATOM     12  C   UNL     1       9.899  20.768  50.261  1.00  0.00    -0.007 A 
ATOM     13  C   UNL     1       9.670  21.896  51.069  1.00  0.00     0.011 A 
ATOM     14  C   UNL     1       8.999  20.477  49.221  1.00  0.00     0.011 A 
ATOM     15  C   UNL     1       8.549  22.703  50.855  1.00  0.00     0.046 A 
ATOM     16  C   UNL     1       7.879  21.285  49.009  1.00  0.00     0.046 A 
ATOM     17  C   UNL     1       7.649  22.398  49.824  1.00  0.00     0.115 A 
BRANCH  17  18
ATOM     18  O   UNL     1       6.528  23.194  49.603  1.00  0.00    -0.508 OA
ATOM     19  H   UNL     1       6.357  23.631  48.704  1.00  0.00     0.293 HD
ENDBRANCH  17  18
ENDBRANCH   2  12
BRANCH   8  20
ATOM     20  O   UNL     1      16.112  18.455  49.725  1.00  0.00    -0.507 OA
ATOM     21  H   UNL     1      16.209  18.784  48.775  1.00  0.00     0.293 HD
ENDBRANCH   8  20
BRANCH   6  22
ATOM     22  O   UNL     1      16.089  20.644  53.994  1.00  0.00    -0.508 OA
ATOM     23  H   UNL     1      17.093  20.775  53.976  1.00  0.00     0.293 HD
ENDBRANCH   6  22
TORSDOF 4
ENDMDL
MODEL 8
REMARK VINA RESULT:     0.000      8.900     10.064
REMARK INTER + INTRA:          -0.321
REMARK INTER:                   0.000
REMARK INTRA:                  -0.321
REMARK UNBOUND:                -0.321
REMARK SMILES O=C1C[C@H](c2ccc(O)cc2)Oc2cc(O)cc(O)c21
REMARK SMILES IDX 3 1 4 2 12 3 13 4 14 5 15 6 17 7 18 8 20 9 2 10 1 11 5 12
REMARK SMILES IDX 6 13 11 14 7 15 10 16 8 17 9 18 19 20 16 22
REMARK H PARENT 9 19 19 21 16 23
REMARK Flexibility Score: inf
ROOT
ATOM      1  C   UNL     1      15.452  25.770  50.598  1.00  0.00     0.131 C 
ATOM      2  C   UNL     1      15.660  24.414  49.909  1.00  0.00     0.211 C 
ATOM      3  O   UNL     1      14.487  24.034  49.183  1.00  0.00    -0.484 OA
ATOM      4  C   UNL     1      13.191  24.257  49.669  1.00  0.00     0.138 A 
ATOM      5  C   UNL     1      12.116  23.619  49.047  1.00  0.00     0.093 A 
ATOM      6  C   UNL     1      10.814  23.809  49.519  1.00  0.00     0.123 A 
ATOM      7  C   UNL     1      10.586  24.664  50.598  1.00  0.00     0.093 A 
ATOM      8  C   UNL     1      11.644  25.347  51.211  1.00  0.00     0.133 A 
ATOM      9  C   UNL     1      12.973  25.118  50.766  1.00  0.00     0.102 A 
ATOM     10  C   UNL     1      14.175  25.730  51.385  1.00  0.00     0.174 C 
ATOM     11  O   UNL     1      14.165  26.165  52.567  1.00  0.00    -0.294 OA
ENDROOT
BRANCH   2  12
ATOM     12  C   UNL     1      16.848  24.465  48.981  1.00  0.00    -0.007 A 
ATOM     13  C   UNL     1      16.735  24.033  47.648  1.00  0.00     0.011 A 
ATOM     14  C   UNL     1      18.071  24.998  49.426  1.00  0.00     0.011 A 
ATOM     15  C   UNL     1      17.831  24.111  46.783  1.00  0.00     0.046 A 
ATOM     16  C   UNL     1      19.165  25.074  48.560  1.00  0.00     0.046 A 
ATOM     17  C   UNL     1      19.050  24.631  47.238  1.00  0.00     0.115 A 
BRANCH  17  18
ATOM     18  O   UNL     1      20.149  24.712  46.387  1.00  0.00    -0.508 OA
ATOM     19  H   UNL     1      20.267  24.071  45.610  1.00  0.00     0.293 HD
ENDBRANCH  17  18
ENDBRANCH   2  12
BRANCH   8  20
ATOM     20  O   UNL     1      11.323  26.255  52.222  1.00  0.00    -0.507 OA
ATOM     21  H   UNL     1      10.823  27.119  52.067  1.00  0.00     0.293 HD
ENDBRANCH   8  20
BRANCH   6  22
ATOM     22  O   UNL     1       9.738  23.159  48.918  1.00  0.00    -0.508 OA
ATOM     23  H   UNL     1       8.833  23.108  49.368  1.00  0.00     0.293 HD
ENDBRANCH   6  22
TORSDOF 4
ENDMDL
MODEL 9
REMARK VINA RESULT:     0.000      2.796      7.462
REMARK INTER + INTRA:          -0.321
REMARK INTER:                   0.000
REMARK INTRA:                  -0.321
REMARK UNBOUND:                -0.321
REMARK SMILES O=C1C[C@H](c2ccc(O)cc2)Oc2cc(O)cc(O)c21
REMARK SMILES IDX 3 1 4 2 12 3 13 4 14 5 15 6 17 7 18 8 20 9 2 10 1 11 5 12
REMARK SMILES IDX 6 13 11 14 7 15 10 16 8 17 9 18 19 20 16 22
REMARK H PARENT 9 19 19 21 16 23
REMARK Flexibility Score: inf
ROOT
ATOM      1  C   UNL     1      13.039  17.901  58.300  1.00  0.00     0.131 C 
ATOM      2  C   UNL     1      12.345  17.316  57.062  1.00  0.00     0.211 C 
ATOM      3  O   UNL     1      13.241  17.295  55.946  1.00  0.00    -0.484 OA
ATOM      4  C   UNL     1      14.144  18.335  55.682  1.00  0.00     0.138 A 
ATOM      5  C   UNL     1      14.781  18.379  54.441  1.00  0.00     0.093 A 
ATOM      6  C   UNL     1      15.675  19.411  54.142  1.00  0.00     0.123 A 
ATOM      7  C   UNL     1      15.953  20.386  55.102  1.00  0.00     0.093 A 
ATOM      8  C   UNL     1      15.357  20.339  56.369  1.00  0.00     0.133 A 
ATOM      9  C   UNL     1      14.412  19.319  56.658  1.00  0.00     0.102 A 
ATOM     10  C   UNL     1      13.667  19.214  57.937  1.00  0.00     0.174 C 
ATOM     11  O   UNL     1      13.505  20.206  58.695  1.00  0.00    -0.294 OA
ENDROOT
BRANCH   2  12
ATOM     12  C   UNL     1      11.837  15.923  57.342  1.00  0.00    -0.007 A 
ATOM     13  C   UNL     1      12.146  14.860  56.476  1.00  0.00     0.011 A 
ATOM     14  C   UNL     1      11.095  15.662  58.507  1.00  0.00     0.011 A 
ATOM     15  C   UNL     1      11.700  13.566  56.756  1.00  0.00     0.046 A 
ATOM     16  C   UNL     1      10.648  14.368  58.785  1.00  0.00     0.046 A 
ATOM     17  C   UNL     1      10.948  13.317  57.913  1.00  0.00     0.115 A 
BRANCH  17  18
ATOM     18  O   UNL     1      10.496  12.031  58.202  1.00  0.00    -0.508 OA
ATOM     19  H   UNL     1      10.361  11.340  57.473  1.00  0.00     0.293 HD
ENDBRANCH  17  18
ENDBRANCH   2  12
BRANCH   8  20
ATOM     20  O   UNL     1      15.758  21.296  57.303  1.00  0.00    -0.507 OA
ATOM     21  H   UNL     1      15.574  22.285  57.214  1.00  0.00     0.293 HD
ENDBRANCH   8  20
BRANCH   6  22
ATOM     22  O   UNL     1      16.298  19.474  52.898  1.00  0.00    -0.508 OA
ATOM     23  H   UNL     1      15.796  19.265  52.044  1.00  0.00     0.293 HD
ENDBRANCH   6  22
TORSDOF 4
ENDMDL
