MODEL 1
REMARK VINA RESULT:    -3.795      0.000      0.000
REMARK INTER + INTRA:          -8.849
REMARK INTER:                  -6.679
REMARK INTRA:                  -2.170
REMARK UNBOUND:                -2.170
REMARK SMILES CCCCCCC=CCCCCCCCC(=O)[O-]
REMARK SMILES IDX 10 1 11 2 12 3 13 4 14 5 15 6 16 7 17 8 18 9 9 10 8 11 7 12
REMARK SMILES IDX 6 13 5 14 4 15 3 16 2 17 1 18
REMARK H PARENT
REMARK Flexibility Score: inf
ROOT
ATOM      1  C   UNL     1     215.769 204.445 194.892  1.00  0.00     0.004 C 
ENDROOT
BRANCH   1   2
ATOM      2  C   UNL     1     217.124 204.976 195.383  1.00  0.00     0.000 C 
BRANCH   2   3
ATOM      3  C   UNL     1     216.977 206.103 196.418  1.00  0.00     0.000 C 
BRANCH   3   4
ATOM      4  C   UNL     1     217.125 207.501 195.795  1.00  0.00     0.000 C 
BRANCH   4   5
ATOM      5  C   UNL     1     215.802 208.058 195.241  1.00  0.00     0.006 C 
BRANCH   5   6
ATOM      6  C   UNL     1     214.567 207.678 196.078  1.00  0.00     0.053 C 
BRANCH   6   7
ATOM      7  C   UNL     1     214.142 208.774 197.007  1.00  0.00     0.041 C 
ATOM      8  O   UNL     1     213.161 208.606 197.778  1.00  0.00    -0.550 OA
ATOM      9  O   UNL     1     214.808 209.993 197.000  1.00  0.00    -0.550 OA
ENDBRANCH   6   7
ENDBRANCH   5   6
ENDBRANCH   4   5
ENDBRANCH   3   4
ENDBRANCH   2   3
ENDBRANCH   1   2
BRANCH   1  10
ATOM     10  C   UNL     1     215.840 204.046 193.413  1.00  0.00     0.027 C 
BRANCH  10  11
ATOM     11  C   UNL     1     216.723 204.990 192.639  1.00  0.00    -0.031 C 
ATOM     12  C   UNL     1     216.297 206.107 192.018  1.00  0.00    -0.031 C 
BRANCH  12  13
ATOM     13  C   UNL     1     214.861 206.569 191.948  1.00  0.00     0.027 C 
BRANCH  13  14
ATOM     14  C   UNL     1     214.287 206.404 190.536  1.00  0.00     0.004 C 
BRANCH  14  15
ATOM     15  C   UNL     1     212.924 205.690 190.544  1.00  0.00     0.000 C 
BRANCH  15  16
ATOM     16  C   UNL     1     212.994 204.308 191.228  1.00  0.00    -0.000 C 
BRANCH  16  17
ATOM     17  C   UNL     1     211.819 204.034 192.182  1.00  0.00    -0.003 C 
ATOM     18  C   UNL     1     211.987 204.704 193.544  1.00  0.00     0.004 C 
ENDBRANCH  16  17
ENDBRANCH  15  16
ENDBRANCH  14  15
ENDBRANCH  13  14
ENDBRANCH  12  13
ENDBRANCH  10  11
ENDBRANCH   1  10
TORSDOF 13
ENDMDL
MODEL 2
REMARK VINA RESULT:    -3.731      2.539      5.289
REMARK INTER + INTRA:          -8.737
REMARK INTER:                  -6.843
REMARK INTRA:                  -1.894
REMARK UNBOUND:                -2.170
REMARK SMILES CCCCCCC=CCCCCCCCC(=O)[O-]
REMARK SMILES IDX 10 1 11 2 12 3 13 4 14 5 15 6 16 7 17 8 18 9 9 10 8 11 7 12
REMARK SMILES IDX 6 13 5 14 4 15 3 16 2 17 1 18
REMARK H PARENT
REMARK Flexibility Score: inf
ROOT
ATOM      1  C   UNL     1     212.021 205.222 191.548  1.00  0.00     0.004 C 
ENDROOT
BRANCH   1   2
ATOM      2  C   UNL     1     211.603 204.094 192.503  1.00  0.00     0.000 C 
BRANCH   2   3
ATOM      3  C   UNL     1     211.213 204.614 193.896  1.00  0.00     0.000 C 
BRANCH   3   4
ATOM      4  C   UNL     1     212.172 205.700 194.413  1.00  0.00     0.000 C 
BRANCH   4   5
ATOM      5  C   UNL     1     212.687 205.424 195.836  1.00  0.00     0.006 C 
BRANCH   5   6
ATOM      6  C   UNL     1     211.866 204.370 196.601  1.00  0.00     0.053 C 
BRANCH   6   7
ATOM      7  C   UNL     1     212.657 203.134 196.904  1.00  0.00     0.041 C 
ATOM      8  O   UNL     1     212.360 202.418 197.897  1.00  0.00    -0.550 OA
ATOM      9  O   UNL     1     213.744 202.787 196.110  1.00  0.00    -0.550 OA
ENDBRANCH   6   7
ENDBRANCH   5   6
ENDBRANCH   4   5
ENDBRANCH   3   4
ENDBRANCH   2   3
ENDBRANCH   1   2
BRANCH   1  10
ATOM     10  C   UNL     1     213.362 204.901 190.876  1.00  0.00     0.027 C 
BRANCH  10  11
ATOM     11  C   UNL     1     214.415 205.908 191.258  1.00  0.00    -0.031 C 
ATOM     12  C   UNL     1     215.355 205.716 192.204  1.00  0.00    -0.031 C 
BRANCH  12  13
ATOM     13  C   UNL     1     215.477 204.487 193.073  1.00  0.00     0.027 C 
BRANCH  13  14
ATOM     14  C   UNL     1     216.629 204.622 194.075  1.00  0.00     0.004 C 
BRANCH  14  15
ATOM     15  C   UNL     1     216.136 205.029 195.475  1.00  0.00     0.000 C 
BRANCH  15  16
ATOM     16  C   UNL     1     217.124 205.975 196.189  1.00  0.00    -0.000 C 
BRANCH  16  17
ATOM     17  C   UNL     1     216.797 207.466 195.995  1.00  0.00    -0.003 C 
ATOM     18  C   UNL     1     215.401 207.702 195.424  1.00  0.00     0.004 C 
ENDBRANCH  16  17
ENDBRANCH  15  16
ENDBRANCH  14  15
ENDBRANCH  13  14
ENDBRANCH  12  13
ENDBRANCH  10  11
ENDBRANCH   1  10
TORSDOF 13
ENDMDL
MODEL 3
REMARK VINA RESULT:    -3.714     10.078     12.907
REMARK INTER + INTRA:          -8.706
REMARK INTER:                  -7.135
REMARK INTRA:                  -1.571
REMARK UNBOUND:                -2.170
REMARK SMILES CCCCCCC=CCCCCCCCC(=O)[O-]
REMARK SMILES IDX 10 1 11 2 12 3 13 4 14 5 15 6 16 7 17 8 18 9 9 10 8 11 7 12
REMARK SMILES IDX 6 13 5 14 4 15 3 16 2 17 1 18
REMARK H PARENT
REMARK Flexibility Score: inf
ROOT
ATOM      1  C   UNL     1     201.641 206.995 193.193  1.00  0.00     0.004 C 
ENDROOT
BRANCH   1   2
ATOM      2  C   UNL     1     201.831 208.509 193.022  1.00  0.00     0.000 C 
BRANCH   2   3
ATOM      3  C   UNL     1     202.473 209.167 194.254  1.00  0.00     0.000 C 
BRANCH   3   4
ATOM      4  C   UNL     1     202.919 208.140 195.309  1.00  0.00     0.000 C 
BRANCH   4   5
ATOM      5  C   UNL     1     204.444 208.101 195.507  1.00  0.00     0.006 C 
BRANCH   5   6
ATOM      6  C   UNL     1     205.117 206.846 194.923  1.00  0.00     0.053 C 
BRANCH   6   7
ATOM      7  C   UNL     1     205.819 206.032 195.967  1.00  0.00     0.041 C 
ATOM      8  O   UNL     1     207.017 205.682 195.798  1.00  0.00    -0.550 OA
ATOM      9  O   UNL     1     205.143 205.631 197.113  1.00  0.00    -0.550 OA
ENDBRANCH   6   7
ENDBRANCH   5   6
ENDBRANCH   4   5
ENDBRANCH   3   4
ENDBRANCH   2   3
ENDBRANCH   1   2
BRANCH   1  10
ATOM     10  C   UNL     1     200.155 206.643 193.335  1.00  0.00     0.027 C 
BRANCH  10  11
ATOM     11  C   UNL     1     199.853 205.304 192.714  1.00  0.00    -0.031 C 
ATOM     12  C   UNL     1     199.528 205.112 191.421  1.00  0.00    -0.031 C 
BRANCH  12  13
ATOM     13  C   UNL     1     199.359 206.207 190.395  1.00  0.00     0.027 C 
BRANCH  13  14
ATOM     14  C   UNL     1     200.123 205.887 189.104  1.00  0.00     0.004 C 
BRANCH  14  15
ATOM     15  C   UNL     1     201.504 205.269 189.385  1.00  0.00     0.000 C 
BRANCH  15  16
ATOM     16  C   UNL     1     202.586 206.343 189.623  1.00  0.00    -0.000 C 
BRANCH  16  17
ATOM     17  C   UNL     1     203.868 205.791 190.271  1.00  0.00    -0.003 C 
ATOM     18  C   UNL     1     205.059 205.771 189.316  1.00  0.00     0.004 C 
ENDBRANCH  16  17
ENDBRANCH  15  16
ENDBRANCH  14  15
ENDBRANCH  13  14
ENDBRANCH  12  13
ENDBRANCH  10  11
ENDBRANCH   1  10
TORSDOF 13
ENDMDL
MODEL 4
REMARK VINA RESULT:    -3.628      1.587      5.130
REMARK INTER + INTRA:          -8.554
REMARK INTER:                  -6.412
REMARK INTRA:                  -2.143
REMARK UNBOUND:                -2.170
REMARK SMILES CCCCCCC=CCCCCCCCC(=O)[O-]
REMARK SMILES IDX 10 1 11 2 12 3 13 4 14 5 15 6 16 7 17 8 18 9 9 10 8 11 7 12
REMARK SMILES IDX 6 13 5 14 4 15 3 16 2 17 1 18
REMARK H PARENT
REMARK Flexibility Score: inf
ROOT
ATOM      1  C   UNL     1     213.975 205.154 190.807  1.00  0.00     0.004 C 
ENDROOT
BRANCH   1   2
ATOM      2  C   UNL     1     212.570 205.743 190.614  1.00  0.00     0.000 C 
BRANCH   2   3
ATOM      3  C   UNL     1     211.735 205.713 191.904  1.00  0.00     0.000 C 
BRANCH   3   4
ATOM      4  C   UNL     1     211.572 204.292 192.470  1.00  0.00     0.000 C 
BRANCH   4   5
ATOM      5  C   UNL     1     211.550 204.254 194.009  1.00  0.00     0.006 C 
BRANCH   5   6
ATOM      6  C   UNL     1     212.226 205.469 194.671  1.00  0.00     0.053 C 
BRANCH   6   7
ATOM      7  C   UNL     1     212.151 205.423 196.167  1.00  0.00     0.041 C 
ATOM      8  O   UNL     1     212.353 204.342 196.779  1.00  0.00    -0.550 OA
ATOM      9  O   UNL     1     211.827 206.568 196.886  1.00  0.00    -0.550 OA
ENDBRANCH   6   7
ENDBRANCH   5   6
ENDBRANCH   4   5
ENDBRANCH   3   4
ENDBRANCH   2   3
ENDBRANCH   1   2
BRANCH   1  10
ATOM     10  C   UNL     1     214.764 205.951 191.853  1.00  0.00     0.027 C 
BRANCH  10  11
ATOM     11  C   UNL     1     216.143 205.376 192.046  1.00  0.00    -0.031 C 
ATOM     12  C   UNL     1     216.456 204.406 192.927  1.00  0.00    -0.031 C 
BRANCH  12  13
ATOM     13  C   UNL     1     215.493 203.774 193.903  1.00  0.00     0.027 C 
BRANCH  13  14
ATOM     14  C   UNL     1     215.617 204.398 195.298  1.00  0.00     0.004 C 
BRANCH  14  15
ATOM     15  C   UNL     1     217.053 204.864 195.598  1.00  0.00     0.000 C 
BRANCH  15  16
ATOM     16  C   UNL     1     217.122 206.372 195.919  1.00  0.00    -0.000 C 
BRANCH  16  17
ATOM     17  C   UNL     1     215.905 207.165 195.413  1.00  0.00    -0.003 C 
ATOM     18  C   UNL     1     215.254 208.017 196.499  1.00  0.00     0.004 C 
ENDBRANCH  16  17
ENDBRANCH  15  16
ENDBRANCH  14  15
ENDBRANCH  13  14
ENDBRANCH  12  13
ENDBRANCH  10  11
ENDBRANCH   1  10
TORSDOF 13
ENDMDL
MODEL 5
REMARK VINA RESULT:    -3.611      2.218      2.992
REMARK INTER + INTRA:          -8.524
REMARK INTER:                  -6.354
REMARK INTRA:                  -2.170
REMARK UNBOUND:                -2.170
REMARK SMILES CCCCCCC=CCCCCCCCC(=O)[O-]
REMARK SMILES IDX 10 1 11 2 12 3 13 4 14 5 15 6 16 7 17 8 18 9 9 10 8 11 7 12
REMARK SMILES IDX 6 13 5 14 4 15 3 16 2 17 1 18
REMARK H PARENT
REMARK Flexibility Score: inf
ROOT
ATOM      1  C   UNL     1     214.894 203.269 194.827  1.00  0.00     0.004 C 
ENDROOT
BRANCH   1   2
ATOM      2  C   UNL     1     213.581 203.800 195.421  1.00  0.00     0.000 C 
BRANCH   2   3
ATOM      3  C   UNL     1     213.609 205.319 195.652  1.00  0.00     0.000 C 
BRANCH   3   4
ATOM      4  C   UNL     1     212.265 205.993 195.328  1.00  0.00     0.000 C 
BRANCH   4   5
ATOM      5  C   UNL     1     211.141 205.596 196.302  1.00  0.00     0.006 C 
BRANCH   5   6
ATOM      6  C   UNL     1     211.479 205.855 197.781  1.00  0.00     0.053 C 
BRANCH   6   7
ATOM      7  C   UNL     1     210.937 207.162 198.275  1.00  0.00     0.041 C 
ATOM      8  O   UNL     1     210.103 207.804 197.583  1.00  0.00    -0.550 OA
ATOM      9  O   UNL     1     211.376 207.689 199.483  1.00  0.00    -0.550 OA
ENDBRANCH   6   7
ENDBRANCH   5   6
ENDBRANCH   4   5
ENDBRANCH   3   4
ENDBRANCH   2   3
ENDBRANCH   1   2
BRANCH   1  10
ATOM     10  C   UNL     1     215.883 204.413 194.577  1.00  0.00     0.027 C 
BRANCH  10  11
ATOM     11  C   UNL     1     216.488 204.315 193.200  1.00  0.00    -0.031 C 
ATOM     12  C   UNL     1     216.475 205.301 192.283  1.00  0.00    -0.031 C 
BRANCH  12  13
ATOM     13  C   UNL     1     215.808 206.645 192.459  1.00  0.00     0.027 C 
BRANCH  13  14
ATOM     14  C   UNL     1     214.297 206.557 192.212  1.00  0.00     0.004 C 
BRANCH  14  15
ATOM     15  C   UNL     1     213.963 206.367 190.722  1.00  0.00     0.000 C 
BRANCH  15  16
ATOM     16  C   UNL     1     213.206 205.049 190.458  1.00  0.00    -0.000 C 
BRANCH  16  17
ATOM     17  C   UNL     1     213.033 204.176 191.713  1.00  0.00    -0.003 C 
ATOM     18  C   UNL     1     211.582 204.076 192.176  1.00  0.00     0.004 C 
ENDBRANCH  16  17
ENDBRANCH  15  16
ENDBRANCH  14  15
ENDBRANCH  13  14
ENDBRANCH  12  13
ENDBRANCH  10  11
ENDBRANCH   1  10
TORSDOF 13
ENDMDL
MODEL 6
REMARK VINA RESULT:    -3.585      1.669      2.928
REMARK INTER + INTRA:          -8.479
REMARK INTER:                  -6.802
REMARK INTRA:                  -1.677
REMARK UNBOUND:                -2.170
REMARK SMILES CCCCCCC=CCCCCCCCC(=O)[O-]
REMARK SMILES IDX 10 1 11 2 12 3 13 4 14 5 15 6 16 7 17 8 18 9 9 10 8 11 7 12
REMARK SMILES IDX 6 13 5 14 4 15 3 16 2 17 1 18
REMARK H PARENT
REMARK Flexibility Score: inf
ROOT
ATOM      1  C   UNL     1     213.721 203.477 195.668  1.00  0.00     0.004 C 
ENDROOT
BRANCH   1   2
ATOM      2  C   UNL     1     213.320 204.944 195.880  1.00  0.00     0.000 C 
BRANCH   2   3
ATOM      3  C   UNL     1     211.947 205.090 196.555  1.00  0.00     0.000 C 
BRANCH   3   4
ATOM      4  C   UNL     1     211.799 206.418 197.316  1.00  0.00     0.000 C 
BRANCH   4   5
ATOM      5  C   UNL     1     212.430 207.611 196.575  1.00  0.00     0.006 C 
BRANCH   5   6
ATOM      6  C   UNL     1     213.172 208.595 197.497  1.00  0.00     0.053 C 
BRANCH   6   7
ATOM      7  C   UNL     1     214.533 208.951 196.983  1.00  0.00     0.041 C 
ATOM      8  O   UNL     1     214.862 210.158 196.842  1.00  0.00    -0.550 OA
ATOM      9  O   UNL     1     215.429 207.950 196.627  1.00  0.00    -0.550 OA
ENDBRANCH   6   7
ENDBRANCH   5   6
ENDBRANCH   4   5
ENDBRANCH   3   4
ENDBRANCH   2   3
ENDBRANCH   1   2
BRANCH   1  10
ATOM     10  C   UNL     1     215.028 203.376 194.871  1.00  0.00     0.027 C 
BRANCH  10  11
ATOM     11  C   UNL     1     215.952 204.521 195.198  1.00  0.00    -0.031 C 
ATOM     12  C   UNL     1     216.805 205.093 194.326  1.00  0.00    -0.031 C 
BRANCH  12  13
ATOM     13  C   UNL     1     217.017 204.651 192.898  1.00  0.00     0.027 C 
BRANCH  13  14
ATOM     14  C   UNL     1     216.617 205.749 191.906  1.00  0.00     0.004 C 
BRANCH  14  15
ATOM     15  C   UNL     1     215.090 205.857 191.745  1.00  0.00     0.000 C 
BRANCH  15  16
ATOM     16  C   UNL     1     214.426 204.478 191.546  1.00  0.00    -0.000 C 
BRANCH  16  17
ATOM     17  C   UNL     1     212.922 204.559 191.235  1.00  0.00    -0.003 C 
ATOM     18  C   UNL     1     212.045 204.176 192.425  1.00  0.00     0.004 C 
ENDBRANCH  16  17
ENDBRANCH  15  16
ENDBRANCH  14  15
ENDBRANCH  13  14
ENDBRANCH  12  13
ENDBRANCH  10  11
ENDBRANCH   1  10
TORSDOF 13
ENDMDL
MODEL 7
REMARK VINA RESULT:    -3.584      1.870      3.150
REMARK INTER + INTRA:          -8.478
REMARK INTER:                  -6.535
REMARK INTRA:                  -1.943
REMARK UNBOUND:                -2.170
REMARK SMILES CCCCCCC=CCCCCCCCC(=O)[O-]
REMARK SMILES IDX 10 1 11 2 12 3 13 4 14 5 15 6 16 7 17 8 18 9 9 10 8 11 7 12
REMARK SMILES IDX 6 13 5 14 4 15 3 16 2 17 1 18
REMARK H PARENT
REMARK Flexibility Score: inf
ROOT
ATOM      1  C   UNL     1     216.972 205.354 195.985  1.00  0.00     0.004 C 
ENDROOT
BRANCH   1   2
ATOM      2  C   UNL     1     216.952 206.870 196.228  1.00  0.00     0.000 C 
BRANCH   2   3
ATOM      3  C   UNL     1     215.687 207.541 195.669  1.00  0.00     0.000 C 
BRANCH   3   4
ATOM      4  C   UNL     1     214.886 208.287 196.749  1.00  0.00     0.000 C 
BRANCH   4   5
ATOM      5  C   UNL     1     213.394 208.433 196.401  1.00  0.00     0.006 C 
BRANCH   5   6
ATOM      6  C   UNL     1     212.444 207.943 197.509  1.00  0.00     0.053 C 
BRANCH   6   7
ATOM      7  C   UNL     1     211.001 208.104 197.142  1.00  0.00     0.041 C 
ATOM      8  O   UNL     1     210.496 207.397 196.231  1.00  0.00    -0.550 OA
ATOM      9  O   UNL     1     210.218 209.058 197.783  1.00  0.00    -0.550 OA
ENDBRANCH   6   7
ENDBRANCH   5   6
ENDBRANCH   4   5
ENDBRANCH   3   4
ENDBRANCH   2   3
ENDBRANCH   1   2
BRANCH   1  10
ATOM     10  C   UNL     1     216.157 204.989 194.738  1.00  0.00     0.027 C 
BRANCH  10  11
ATOM     11  C   UNL     1     215.410 203.696 194.938  1.00  0.00    -0.031 C 
ATOM     12  C   UNL     1     214.120 203.604 195.316  1.00  0.00    -0.031 C 
BRANCH  12  13
ATOM     13  C   UNL     1     213.226 204.774 195.653  1.00  0.00     0.027 C 
BRANCH  13  14
ATOM     14  C   UNL     1     212.581 205.367 194.395  1.00  0.00     0.004 C 
BRANCH  14  15
ATOM     15  C   UNL     1     211.523 204.428 193.788  1.00  0.00     0.000 C 
BRANCH  15  16
ATOM     16  C   UNL     1     211.818 204.093 192.311  1.00  0.00    -0.000 C 
BRANCH  16  17
ATOM     17  C   UNL     1     213.214 204.543 191.846  1.00  0.00    -0.003 C 
ATOM     18  C   UNL     1     213.219 205.101 190.425  1.00  0.00     0.004 C 
ENDBRANCH  16  17
ENDBRANCH  15  16
ENDBRANCH  14  15
ENDBRANCH  13  14
ENDBRANCH  12  13
ENDBRANCH  10  11
ENDBRANCH   1  10
TORSDOF 13
ENDMDL
MODEL 8
REMARK VINA RESULT:    -3.570     10.717     13.480
REMARK INTER + INTRA:          -8.452
REMARK INTER:                  -5.925
REMARK INTRA:                  -2.527
REMARK UNBOUND:                -2.170
REMARK SMILES CCCCCCC=CCCCCCCCC(=O)[O-]
REMARK SMILES IDX 10 1 11 2 12 3 13 4 14 5 15 6 16 7 17 8 18 9 9 10 8 11 7 12
REMARK SMILES IDX 6 13 5 14 4 15 3 16 2 17 1 18
REMARK H PARENT
REMARK Flexibility Score: inf
ROOT
ATOM      1  C   UNL     1     202.360 206.359 189.706  1.00  0.00     0.004 C 
ENDROOT
BRANCH   1   2
ATOM      2  C   UNL     1     203.134 206.482 191.027  1.00  0.00     0.000 C 
BRANCH   2   3
ATOM      3  C   UNL     1     204.022 207.735 191.076  1.00  0.00     0.000 C 
BRANCH   3   4
ATOM      4  C   UNL     1     204.556 208.028 192.489  1.00  0.00     0.000 C 
BRANCH   4   5
ATOM      5  C   UNL     1     203.845 207.211 193.583  1.00  0.00     0.006 C 
BRANCH   5   6
ATOM      6  C   UNL     1     204.685 207.016 194.858  1.00  0.00     0.053 C 
BRANCH   6   7
ATOM      7  C   UNL     1     204.090 207.703 196.049  1.00  0.00     0.041 C 
ATOM      8  O   UNL     1     203.809 207.046 197.085  1.00  0.00    -0.550 OA
ATOM      9  O   UNL     1     203.815 209.065 196.005  1.00  0.00    -0.550 OA
ENDBRANCH   6   7
ENDBRANCH   5   6
ENDBRANCH   4   5
ENDBRANCH   3   4
ENDBRANCH   2   3
ENDBRANCH   1   2
BRANCH   1  10
ATOM     10  C   UNL     1     201.382 205.179 189.752  1.00  0.00     0.027 C 
BRANCH  10  11
ATOM     11  C   UNL     1     199.964 205.657 189.930  1.00  0.00    -0.031 C 
ATOM     12  C   UNL     1     199.297 205.670 191.100  1.00  0.00    -0.031 C 
BRANCH  12  13
ATOM     13  C   UNL     1     199.838 205.160 192.415  1.00  0.00     0.027 C 
BRANCH  13  14
ATOM     14  C   UNL     1     200.235 206.314 193.343  1.00  0.00     0.004 C 
BRANCH  14  15
ATOM     15  C   UNL     1     199.638 207.657 192.887  1.00  0.00     0.000 C 
BRANCH  15  16
ATOM     16  C   UNL     1     200.520 208.856 193.295  1.00  0.00    -0.000 C 
BRANCH  16  17
ATOM     17  C   UNL     1     201.067 209.653 192.098  1.00  0.00    -0.003 C 
ATOM     18  C   UNL     1     200.371 209.309 190.783  1.00  0.00     0.004 C 
ENDBRANCH  16  17
ENDBRANCH  15  16
ENDBRANCH  14  15
ENDBRANCH  13  14
ENDBRANCH  12  13
ENDBRANCH  10  11
ENDBRANCH   1  10
TORSDOF 13
ENDMDL
MODEL 9
REMARK VINA RESULT:    -3.562      2.317      3.820
REMARK INTER + INTRA:          -8.438
REMARK INTER:                  -6.104
REMARK INTRA:                  -2.334
REMARK UNBOUND:                -2.170
REMARK SMILES CCCCCCC=CCCCCCCCC(=O)[O-]
REMARK SMILES IDX 10 1 11 2 12 3 13 4 14 5 15 6 16 7 17 8 18 9 9 10 8 11 7 12
REMARK SMILES IDX 6 13 5 14 4 15 3 16 2 17 1 18
REMARK H PARENT
REMARK Flexibility Score: inf
ROOT
ATOM      1  C   UNL     1     212.362 205.086 195.154  1.00  0.00     0.004 C 
ENDROOT
BRANCH   1   2
ATOM      2  C   UNL     1     212.732 206.569 195.012  1.00  0.00     0.000 C 
BRANCH   2   3
ATOM      3  C   UNL     1     213.836 206.998 195.992  1.00  0.00     0.000 C 
BRANCH   3   4
ATOM      4  C   UNL     1     213.409 208.174 196.887  1.00  0.00     0.000 C 
BRANCH   4   5
ATOM      5  C   UNL     1     211.882 208.349 196.966  1.00  0.00     0.006 C 
BRANCH   5   6
ATOM      6  C   UNL     1     211.270 207.879 198.298  1.00  0.00     0.053 C 
BRANCH   6   7
ATOM      7  C   UNL     1     210.670 206.509 198.204  1.00  0.00     0.041 C 
ATOM      8  O   UNL     1     209.511 206.356 197.735  1.00  0.00    -0.550 OA
ATOM      9  O   UNL     1     211.375 205.403 198.663  1.00  0.00    -0.550 OA
ENDBRANCH   6   7
ENDBRANCH   5   6
ENDBRANCH   4   5
ENDBRANCH   3   4
ENDBRANCH   2   3
ENDBRANCH   1   2
BRANCH   1  10
ATOM     10  C   UNL     1     213.386 204.346 196.023  1.00  0.00     0.027 C 
BRANCH  10  11
ATOM     11  C   UNL     1     214.087 203.269 195.238  1.00  0.00    -0.031 C 
ATOM     12  C   UNL     1     215.320 203.383 194.708  1.00  0.00    -0.031 C 
BRANCH  12  13
ATOM     13  C   UNL     1     216.181 204.623 194.764  1.00  0.00     0.027 C 
BRANCH  13  14
ATOM     14  C   UNL     1     216.474 205.166 193.361  1.00  0.00     0.004 C 
BRANCH  14  15
ATOM     15  C   UNL     1     215.637 204.461 192.280  1.00  0.00     0.000 C 
BRANCH  15  16
ATOM     16  C   UNL     1     214.443 205.320 191.813  1.00  0.00    -0.000 C 
BRANCH  16  17
ATOM     17  C   UNL     1     213.209 204.494 191.413  1.00  0.00    -0.003 C 
ATOM     18  C   UNL     1     211.905 205.281 191.513  1.00  0.00     0.004 C 
ENDBRANCH  16  17
ENDBRANCH  15  16
ENDBRANCH  14  15
ENDBRANCH  13  14
ENDBRANCH  12  13
ENDBRANCH  10  11
ENDBRANCH   1  10
TORSDOF 13
ENDMDL
