MODEL 1
REMARK VINA RESULT:    -4.324      0.000      0.000
REMARK INTER + INTRA:          -9.889
REMARK INTER:                  -8.116
REMARK INTRA:                  -1.773
REMARK UNBOUND:                -1.773
REMARK SMILES CCCCCC=CCC=CCCCCCCCC(=O)OC
REMARK SMILES IDX 11 1 10 2 9 3 8 4 7 5 6 6 5 7 4 8 3 9 2 10 1 11 12 12 13 13
REMARK SMILES IDX 14 14 15 15 16 16 17 17 18 18 19 19 20 20 21 21
REMARK H PARENT
REMARK Flexibility Score: inf
ROOT
ATOM      1  C   UNL     1      -0.639 -25.912  -9.001  1.00  0.00     0.027 C 
ENDROOT
BRANCH   1   2
ATOM      2  C   UNL     1      -0.686 -24.855 -10.070  1.00  0.00    -0.031 C 
ATOM      3  C   UNL     1      -1.577 -24.911 -11.073  1.00  0.00    -0.027 C 
BRANCH   3   4
ATOM      4  C   UNL     1      -1.639 -23.840 -12.125  1.00  0.00     0.054 C 
BRANCH   4   5
ATOM      5  C   UNL     1      -1.182 -22.514 -11.581  1.00  0.00    -0.027 C 
ATOM      6  C   UNL     1      -0.033 -21.964 -12.000  1.00  0.00    -0.031 C 
BRANCH   6   7
ATOM      7  C   UNL     1       0.441 -20.633 -11.478  1.00  0.00     0.027 C 
BRANCH   7   8
ATOM      8  C   UNL     1       1.653 -20.759 -10.538  1.00  0.00     0.004 C 
BRANCH   8   9
ATOM      9  C   UNL     1       1.325 -21.347  -9.151  1.00  0.00     0.000 C 
BRANCH   9  10
ATOM     10  C   UNL     1       0.118 -20.705  -8.447  1.00  0.00    -0.003 C 
ATOM     11  C   UNL     1      -0.958 -21.722  -8.066  1.00  0.00     0.004 C 
ENDBRANCH   9  10
ENDBRANCH   8   9
ENDBRANCH   7   8
ENDBRANCH   6   7
ENDBRANCH   4   5
ENDBRANCH   3   4
ENDBRANCH   1   2
BRANCH   1  12
ATOM     12  C   UNL     1      -1.978 -26.007  -8.254  1.00  0.00     0.004 C 
BRANCH  12  13
ATOM     13  C   UNL     1      -1.801 -26.296  -6.755  1.00  0.00     0.000 C 
BRANCH  13  14
ATOM     14  C   UNL     1      -1.967 -27.785  -6.411  1.00  0.00     0.000 C 
BRANCH  14  15
ATOM     15  C   UNL     1      -0.697 -28.604  -6.737  1.00  0.00     0.001 C 
BRANCH  15  16
ATOM     16  C   UNL     1      -0.984 -29.894  -7.529  1.00  0.00     0.012 C 
BRANCH  16  17
ATOM     17  C   UNL     1      -1.485 -29.650  -8.961  1.00  0.00     0.123 C 
BRANCH  17  18
ATOM     18  C   UNL     1      -0.361 -29.596  -9.951  1.00  0.00     0.305 C 
ATOM     19  O   UNL     1       0.775 -30.046  -9.635  1.00  0.00    -0.252 OA
BRANCH  18  20
ATOM     20  O   UNL     1      -0.581 -29.040 -11.214  1.00  0.00    -0.469 OA
ATOM     21  C   UNL     1      -1.025 -29.812 -12.323  1.00  0.00     0.282 C 
ENDBRANCH  18  20
ENDBRANCH  17  18
ENDBRANCH  16  17
ENDBRANCH  15  16
ENDBRANCH  14  15
ENDBRANCH  13  14
ENDBRANCH  12  13
ENDBRANCH   1  12
TORSDOF 15
ENDMDL
MODEL 2
REMARK VINA RESULT:    -4.316      2.688      7.921
REMARK INTER + INTRA:          -9.872
REMARK INTER:                  -8.122
REMARK INTRA:                  -1.750
REMARK UNBOUND:                -1.773
REMARK SMILES CCCCCC=CCC=CCCCCCCCC(=O)OC
REMARK SMILES IDX 11 1 10 2 9 3 8 4 7 5 6 6 5 7 4 8 3 9 2 10 1 11 12 12 13 13
REMARK SMILES IDX 14 14 15 15 16 16 17 17 18 18 19 19 20 20 21 21
REMARK H PARENT
REMARK Flexibility Score: inf
ROOT
ATOM      1  C   UNL     1      -0.367 -24.647 -10.126  1.00  0.00     0.027 C 
ENDROOT
BRANCH   1   2
ATOM      2  C   UNL     1      -0.606 -25.490  -8.904  1.00  0.00    -0.031 C 
ATOM      3  C   UNL     1      -1.628 -25.243  -8.070  1.00  0.00    -0.027 C 
BRANCH   3   4
ATOM      4  C   UNL     1      -1.880 -26.103  -6.864  1.00  0.00     0.054 C 
BRANCH   4   5
ATOM      5  C   UNL     1      -1.950 -27.559  -7.238  1.00  0.00    -0.027 C 
ATOM      6  C   UNL     1      -1.005 -28.415  -6.825  1.00  0.00    -0.031 C 
BRANCH   6   7
ATOM      7  C   UNL     1      -1.058 -29.879  -7.177  1.00  0.00     0.027 C 
BRANCH   7   8
ATOM      8  C   UNL     1      -1.829 -30.151  -8.480  1.00  0.00     0.004 C 
BRANCH   8   9
ATOM      9  C   UNL     1      -0.940 -30.551  -9.675  1.00  0.00     0.000 C 
BRANCH   9  10
ATOM     10  C   UNL     1       0.528 -30.107  -9.564  1.00  0.00    -0.003 C 
ATOM     11  C   UNL     1       0.789 -28.747 -10.212  1.00  0.00     0.004 C 
ENDBRANCH   9  10
ENDBRANCH   8   9
ENDBRANCH   7   8
ENDBRANCH   6   7
ENDBRANCH   4   5
ENDBRANCH   3   4
ENDBRANCH   1   2
BRANCH   1  12
ATOM     12  C   UNL     1      -1.395 -24.957 -11.224  1.00  0.00     0.004 C 
BRANCH  12  13
ATOM     13  C   UNL     1      -1.708 -23.735 -12.103  1.00  0.00     0.000 C 
BRANCH  13  14
ATOM     14  C   UNL     1      -1.672 -22.412 -11.319  1.00  0.00     0.000 C 
BRANCH  14  15
ATOM     15  C   UNL     1      -0.883 -21.314 -12.066  1.00  0.00     0.001 C 
BRANCH  15  16
ATOM     16  C   UNL     1       0.643 -21.430 -11.894  1.00  0.00     0.012 C 
BRANCH  16  17
ATOM     17  C   UNL     1       1.230 -20.466 -10.852  1.00  0.00     0.123 C 
BRANCH  17  18
ATOM     18  C   UNL     1       1.318 -21.090  -9.492  1.00  0.00     0.305 C 
ATOM     19  O   UNL     1       1.979 -22.154  -9.331  1.00  0.00    -0.252 OA
BRANCH  18  20
ATOM     20  O   UNL     1       0.660 -20.491  -8.414  1.00  0.00    -0.469 OA
ATOM     21  C   UNL     1      -0.437 -19.603  -8.585  1.00  0.00     0.282 C 
ENDBRANCH  18  20
ENDBRANCH  17  18
ENDBRANCH  16  17
ENDBRANCH  15  16
ENDBRANCH  14  15
ENDBRANCH  13  14
ENDBRANCH  12  13
ENDBRANCH   1  12
TORSDOF 15
ENDMDL
MODEL 3
REMARK VINA RESULT:    -4.272      2.946      7.916
REMARK INTER + INTRA:          -9.791
REMARK INTER:                  -7.878
REMARK INTRA:                  -1.913
REMARK UNBOUND:                -1.773
REMARK SMILES CCCCCC=CCC=CCCCCCCCC(=O)OC
REMARK SMILES IDX 11 1 10 2 9 3 8 4 7 5 6 6 5 7 4 8 3 9 2 10 1 11 12 12 13 13
REMARK SMILES IDX 14 14 15 15 16 16 17 17 18 18 19 19 20 20 21 21
REMARK H PARENT
REMARK Flexibility Score: inf
ROOT
ATOM      1  C   UNL     1       0.600 -26.033  -9.830  1.00  0.00     0.027 C 
ENDROOT
BRANCH   1   2
ATOM      2  C   UNL     1       0.005 -26.694  -8.617  1.00  0.00    -0.031 C 
ATOM      3  C   UNL     1      -1.187 -26.318  -8.128  1.00  0.00    -0.027 C 
BRANCH   3   4
ATOM      4  C   UNL     1      -1.791 -26.997  -6.931  1.00  0.00     0.054 C 
BRANCH   4   5
ATOM      5  C   UNL     1      -2.089 -28.443  -7.218  1.00  0.00    -0.027 C 
ATOM      6  C   UNL     1      -1.143 -29.380  -7.055  1.00  0.00    -0.031 C 
BRANCH   6   7
ATOM      7  C   UNL     1      -1.419 -30.836  -7.325  1.00  0.00     0.027 C 
BRANCH   7   8
ATOM      8  C   UNL     1      -1.195 -31.222  -8.797  1.00  0.00     0.004 C 
BRANCH   8   9
ATOM      9  C   UNL     1       0.055 -30.589  -9.440  1.00  0.00     0.000 C 
BRANCH   9  10
ATOM     10  C   UNL     1      -0.233 -29.643 -10.618  1.00  0.00    -0.003 C 
ATOM     11  C   UNL     1      -1.727 -29.407 -10.839  1.00  0.00     0.004 C 
ENDBRANCH   9  10
ENDBRANCH   8   9
ENDBRANCH   7   8
ENDBRANCH   6   7
ENDBRANCH   4   5
ENDBRANCH   3   4
ENDBRANCH   1   2
BRANCH   1  12
ATOM     12  C   UNL     1       0.623 -24.505  -9.676  1.00  0.00     0.004 C 
BRANCH  12  13
ATOM     13  C   UNL     1      -0.335 -23.798 -10.649  1.00  0.00     0.000 C 
BRANCH  13  14
ATOM     14  C   UNL     1      -1.498 -23.092  -9.932  1.00  0.00     0.000 C 
BRANCH  14  15
ATOM     15  C   UNL     1      -1.056 -22.449  -8.599  1.00  0.00     0.001 C 
BRANCH  15  16
ATOM     16  C   UNL     1      -1.301 -20.929  -8.540  1.00  0.00     0.012 C 
BRANCH  16  17
ATOM     17  C   UNL     1      -0.015 -20.090  -8.485  1.00  0.00     0.123 C 
BRANCH  17  18
ATOM     18  C   UNL     1       1.055 -20.641  -9.379  1.00  0.00     0.305 C 
ATOM     19  O   UNL     1       1.985 -21.340  -8.887  1.00  0.00    -0.252 OA
BRANCH  18  20
ATOM     20  O   UNL     1       1.017 -20.368 -10.749  1.00  0.00    -0.469 OA
ATOM     21  C   UNL     1       0.380 -19.214 -11.282  1.00  0.00     0.282 C 
ENDBRANCH  18  20
ENDBRANCH  17  18
ENDBRANCH  16  17
ENDBRANCH  15  16
ENDBRANCH  14  15
ENDBRANCH  13  14
ENDBRANCH  12  13
ENDBRANCH   1  12
TORSDOF 15
ENDMDL
MODEL 4
REMARK VINA RESULT:    -4.218      1.806      2.938
REMARK INTER + INTRA:          -9.689
REMARK INTER:                  -8.040
REMARK INTRA:                  -1.649
REMARK UNBOUND:                -1.773
REMARK SMILES CCCCCC=CCC=CCCCCCCCC(=O)OC
REMARK SMILES IDX 11 1 10 2 9 3 8 4 7 5 6 6 5 7 4 8 3 9 2 10 1 11 12 12 13 13
REMARK SMILES IDX 14 14 15 15 16 16 17 17 18 18 19 19 20 20 21 21
REMARK H PARENT
REMARK Flexibility Score: inf
ROOT
ATOM      1  C   UNL     1      -0.522 -24.943 -10.164  1.00  0.00     0.027 C 
ENDROOT
BRANCH   1   2
ATOM      2  C   UNL     1      -0.570 -23.782  -9.209  1.00  0.00    -0.031 C 
ATOM      3  C   UNL     1      -1.705 -23.437  -8.581  1.00  0.00    -0.027 C 
BRANCH   3   4
ATOM      4  C   UNL     1      -1.745 -22.294  -7.608  1.00  0.00     0.054 C 
BRANCH   4   5
ATOM      5  C   UNL     1      -1.630 -20.971  -8.315  1.00  0.00    -0.027 C 
ATOM      6  C   UNL     1      -0.445 -20.354  -8.420  1.00  0.00    -0.031 C 
BRANCH   6   7
ATOM      7  C   UNL     1      -0.302 -19.034  -9.132  1.00  0.00     0.027 C 
BRANCH   7   8
ATOM      8  C   UNL     1       0.352 -19.172 -10.517  1.00  0.00     0.004 C 
BRANCH   8   9
ATOM      9  C   UNL     1       1.165 -20.468 -10.712  1.00  0.00     0.000 C 
BRANCH   9  10
ATOM     10  C   UNL     1       0.711 -21.343 -11.893  1.00  0.00    -0.003 C 
ATOM     11  C   UNL     1      -0.804 -21.538 -11.940  1.00  0.00     0.004 C 
ENDBRANCH   9  10
ENDBRANCH   8   9
ENDBRANCH   7   8
ENDBRANCH   6   7
ENDBRANCH   4   5
ENDBRANCH   3   4
ENDBRANCH   1   2
BRANCH   1  12
ATOM     12  C   UNL     1       0.441 -26.031  -9.667  1.00  0.00     0.004 C 
BRANCH  12  13
ATOM     13  C   UNL     1      -0.193 -26.940  -8.602  1.00  0.00     0.000 C 
BRANCH  13  14
ATOM     14  C   UNL     1       0.632 -28.210  -8.334  1.00  0.00     0.000 C 
BRANCH  14  15
ATOM     15  C   UNL     1       0.150 -28.962  -7.073  1.00  0.00     0.001 C 
BRANCH  15  16
ATOM     16  C   UNL     1      -1.352 -29.304  -7.100  1.00  0.00     0.012 C 
BRANCH  16  17
ATOM     17  C   UNL     1      -1.650 -30.796  -7.316  1.00  0.00     0.123 C 
BRANCH  17  18
ATOM     18  C   UNL     1      -1.434 -31.214  -8.739  1.00  0.00     0.305 C 
ATOM     19  O   UNL     1      -2.124 -30.691  -9.658  1.00  0.00    -0.252 OA
BRANCH  18  20
ATOM     20  O   UNL     1      -0.474 -32.185  -9.035  1.00  0.00    -0.469 OA
ATOM     21  C   UNL     1       0.725 -31.887  -9.739  1.00  0.00     0.282 C 
ENDBRANCH  18  20
ENDBRANCH  17  18
ENDBRANCH  16  17
ENDBRANCH  15  16
ENDBRANCH  14  15
ENDBRANCH  13  14
ENDBRANCH  12  13
ENDBRANCH   1  12
TORSDOF 15
ENDMDL
MODEL 5
REMARK VINA RESULT:    -4.191      2.250      2.985
REMARK INTER + INTRA:          -9.639
REMARK INTER:                  -8.243
REMARK INTRA:                  -1.397
REMARK UNBOUND:                -1.773
REMARK SMILES CCCCCC=CCC=CCCCCCCCC(=O)OC
REMARK SMILES IDX 11 1 10 2 9 3 8 4 7 5 6 6 5 7 4 8 3 9 2 10 1 11 12 12 13 13
REMARK SMILES IDX 14 14 15 15 16 16 17 17 18 18 19 19 20 20 21 21
REMARK H PARENT
REMARK Flexibility Score: inf
ROOT
ATOM      1  C   UNL     1       1.000 -28.516  -9.349  1.00  0.00     0.027 C 
ENDROOT
BRANCH   1   2
ATOM      2  C   UNL     1       0.720 -27.042  -9.454  1.00  0.00    -0.031 C 
ATOM      3  C   UNL     1      -0.345 -26.576 -10.125  1.00  0.00    -0.027 C 
BRANCH   3   4
ATOM      4  C   UNL     1      -0.637 -25.105 -10.206  1.00  0.00     0.054 C 
BRANCH   4   5
ATOM      5  C   UNL     1       0.518 -24.291  -9.691  1.00  0.00    -0.027 C 
ATOM      6  C   UNL     1       0.861 -23.139 -10.286  1.00  0.00    -0.031 C 
BRANCH   6   7
ATOM      7  C   UNL     1       2.006 -22.300  -9.784  1.00  0.00     0.027 C 
BRANCH   7   8
ATOM      8  C   UNL     1       1.622 -20.824  -9.587  1.00  0.00     0.004 C 
BRANCH   8   9
ATOM      9  C   UNL     1       0.877 -20.528  -8.270  1.00  0.00     0.000 C 
BRANCH   9  10
ATOM     10  C   UNL     1      -0.647 -20.372  -8.412  1.00  0.00    -0.003 C 
ATOM     11  C   UNL     1      -1.419 -21.583  -7.889  1.00  0.00     0.004 C 
ENDBRANCH   9  10
ENDBRANCH   8   9
ENDBRANCH   7   8
ENDBRANCH   6   7
ENDBRANCH   4   5
ENDBRANCH   3   4
ENDBRANCH   1   2
BRANCH   1  12
ATOM     12  C   UNL     1       1.048 -28.969  -7.882  1.00  0.00     0.004 C 
BRANCH  12  13
ATOM     13  C   UNL     1      -0.214 -28.575  -7.099  1.00  0.00     0.000 C 
BRANCH  13  14
ATOM     14  C   UNL     1      -1.461 -29.355  -7.547  1.00  0.00     0.000 C 
BRANCH  14  15
ATOM     15  C   UNL     1      -1.142 -30.834  -7.860  1.00  0.00     0.001 C 
BRANCH  15  16
ATOM     16  C   UNL     1      -1.550 -31.263  -9.283  1.00  0.00     0.012 C 
BRANCH  16  17
ATOM     17  C   UNL     1      -1.650 -32.784  -9.472  1.00  0.00     0.123 C 
BRANCH  17  18
ATOM     18  C   UNL     1      -0.412 -33.493  -9.012  1.00  0.00     0.305 C 
ATOM     19  O   UNL     1      -0.453 -34.222  -7.982  1.00  0.00    -0.252 OA
BRANCH  18  20
ATOM     20  O   UNL     1       0.779 -33.335  -9.726  1.00  0.00    -0.469 OA
ATOM     21  C   UNL     1       0.913 -33.726 -11.087  1.00  0.00     0.282 C 
ENDBRANCH  18  20
ENDBRANCH  17  18
ENDBRANCH  16  17
ENDBRANCH  15  16
ENDBRANCH  14  15
ENDBRANCH  13  14
ENDBRANCH  12  13
ENDBRANCH   1  12
TORSDOF 15
ENDMDL
MODEL 6
REMARK VINA RESULT:    -4.187      2.138      3.246
REMARK INTER + INTRA:          -9.631
REMARK INTER:                  -8.063
REMARK INTRA:                  -1.569
REMARK UNBOUND:                -1.773
REMARK SMILES CCCCCC=CCC=CCCCCCCCC(=O)OC
REMARK SMILES IDX 11 1 10 2 9 3 8 4 7 5 6 6 5 7 4 8 3 9 2 10 1 11 12 12 13 13
REMARK SMILES IDX 14 14 15 15 16 16 17 17 18 18 19 19 20 20 21 21
REMARK H PARENT
REMARK Flexibility Score: inf
ROOT
ATOM      1  C   UNL     1       0.765 -26.893  -9.633  1.00  0.00     0.027 C 
ENDROOT
BRANCH   1   2
ATOM      2  C   UNL     1      -0.353 -26.241  -8.866  1.00  0.00    -0.031 C 
ATOM      3  C   UNL     1      -0.675 -24.952  -9.055  1.00  0.00    -0.027 C 
BRANCH   3   4
ATOM      4  C   UNL     1      -1.808 -24.310  -8.307  1.00  0.00     0.054 C 
BRANCH   4   5
ATOM      5  C   UNL     1      -1.969 -22.866  -8.694  1.00  0.00    -0.027 C 
ATOM      6  C   UNL     1      -1.431 -21.894  -7.943  1.00  0.00    -0.031 C 
BRANCH   6   7
ATOM      7  C   UNL     1      -1.570 -20.441  -8.315  1.00  0.00     0.027 C 
BRANCH   7   8
ATOM      8  C   UNL     1      -0.213 -19.756  -8.557  1.00  0.00     0.004 C 
BRANCH   8   9
ATOM      9  C   UNL     1       1.012 -20.640  -8.249  1.00  0.00     0.000 C 
BRANCH   9  10
ATOM     10  C   UNL     1       1.889 -20.975  -9.467  1.00  0.00    -0.003 C 
ATOM     11  C   UNL     1       1.896 -22.466  -9.803  1.00  0.00     0.004 C 
ENDBRANCH   9  10
ENDBRANCH   8   9
ENDBRANCH   7   8
ENDBRANCH   6   7
ENDBRANCH   4   5
ENDBRANCH   3   4
ENDBRANCH   1   2
BRANCH   1  12
ATOM     12  C   UNL     1       0.950 -28.357  -9.208  1.00  0.00     0.004 C 
BRANCH  12  13
ATOM     13  C   UNL     1       0.413 -28.635  -7.795  1.00  0.00     0.000 C 
BRANCH  13  14
ATOM     14  C   UNL     1      -0.620 -29.774  -7.763  1.00  0.00     0.000 C 
BRANCH  14  15
ATOM     15  C   UNL     1      -1.610 -29.697  -8.947  1.00  0.00     0.001 C 
BRANCH  15  16
ATOM     16  C   UNL     1      -1.781 -31.034  -9.692  1.00  0.00     0.012 C 
BRANCH  16  17
ATOM     17  C   UNL     1      -0.623 -31.372 -10.644  1.00  0.00     0.123 C 
BRANCH  17  18
ATOM     18  C   UNL     1       0.152 -32.572 -10.185  1.00  0.00     0.305 C 
ATOM     19  O   UNL     1      -0.389 -33.712 -10.203  1.00  0.00    -0.252 OA
BRANCH  18  20
ATOM     20  O   UNL     1       1.466 -32.413  -9.736  1.00  0.00    -0.469 OA
ATOM     21  C   UNL     1       2.450 -33.430  -9.876  1.00  0.00     0.282 C 
ENDBRANCH  18  20
ENDBRANCH  17  18
ENDBRANCH  16  17
ENDBRANCH  15  16
ENDBRANCH  14  15
ENDBRANCH  13  14
ENDBRANCH  12  13
ENDBRANCH   1  12
TORSDOF 15
ENDMDL
MODEL 7
REMARK VINA RESULT:    -4.159      1.701      2.838
REMARK INTER + INTRA:          -9.579
REMARK INTER:                  -8.130
REMARK INTRA:                  -1.449
REMARK UNBOUND:                -1.773
REMARK SMILES CCCCCC=CCC=CCCCCCCCC(=O)OC
REMARK SMILES IDX 11 1 10 2 9 3 8 4 7 5 6 6 5 7 4 8 3 9 2 10 1 11 12 12 13 13
REMARK SMILES IDX 14 14 15 15 16 16 17 17 18 18 19 19 20 20 21 21
REMARK H PARENT
REMARK Flexibility Score: inf
ROOT
ATOM      1  C   UNL     1      -0.269 -25.692  -9.995  1.00  0.00     0.027 C 
ENDROOT
BRANCH   1   2
ATOM      2  C   UNL     1       0.855 -24.746  -9.670  1.00  0.00    -0.031 C 
ATOM      3  C   UNL     1       0.882 -23.495 -10.155  1.00  0.00    -0.027 C 
BRANCH   3   4
ATOM      4  C   UNL     1       1.992 -22.545  -9.807  1.00  0.00     0.054 C 
BRANCH   4   5
ATOM      5  C   UNL     1       1.451 -21.236  -9.299  1.00  0.00    -0.027 C 
ATOM      6  C   UNL     1       0.280 -21.189  -8.647  1.00  0.00    -0.031 C 
BRANCH   6   7
ATOM      7  C   UNL     1      -0.278 -19.894  -8.119  1.00  0.00     0.027 C 
BRANCH   7   8
ATOM      8  C   UNL     1      -1.311 -19.260  -9.068  1.00  0.00     0.004 C 
BRANCH   8   9
ATOM      9  C   UNL     1      -0.704 -18.354 -10.158  1.00  0.00     0.000 C 
BRANCH   9  10
ATOM     10  C   UNL     1      -0.654 -18.980 -11.562  1.00  0.00    -0.003 C 
ATOM     11  C   UNL     1      -1.488 -20.256 -11.674  1.00  0.00     0.004 C 
ENDBRANCH   9  10
ENDBRANCH   8   9
ENDBRANCH   7   8
ENDBRANCH   6   7
ENDBRANCH   4   5
ENDBRANCH   3   4
ENDBRANCH   1   2
BRANCH   1  12
ATOM     12  C   UNL     1      -1.589 -25.223  -9.365  1.00  0.00     0.004 C 
BRANCH  12  13
ATOM     13  C   UNL     1      -1.427 -24.807  -7.894  1.00  0.00     0.000 C 
BRANCH  13  14
ATOM     14  C   UNL     1      -1.958 -25.865  -6.913  1.00  0.00     0.000 C 
BRANCH  14  15
ATOM     15  C   UNL     1      -1.941 -27.285  -7.522  1.00  0.00     0.001 C 
BRANCH  15  16
ATOM     16  C   UNL     1      -1.017 -28.263  -6.772  1.00  0.00     0.012 C 
BRANCH  16  17
ATOM     17  C   UNL     1      -0.959 -29.668  -7.392  1.00  0.00     0.123 C 
BRANCH  17  18
ATOM     18  C   UNL     1       0.094 -29.773  -8.454  1.00  0.00     0.305 C 
ATOM     19  O   UNL     1       1.187 -29.156  -8.318  1.00  0.00    -0.252 OA
BRANCH  18  20
ATOM     20  O   UNL     1      -0.149 -30.549  -9.591  1.00  0.00    -0.469 OA
ATOM     21  C   UNL     1       0.483 -31.804  -9.810  1.00  0.00     0.282 C 
ENDBRANCH  18  20
ENDBRANCH  17  18
ENDBRANCH  16  17
ENDBRANCH  15  16
ENDBRANCH  14  15
ENDBRANCH  13  14
ENDBRANCH  12  13
ENDBRANCH   1  12
TORSDOF 15
ENDMDL
MODEL 8
REMARK VINA RESULT:    -4.055      1.685      2.359
REMARK INTER + INTRA:          -9.384
REMARK INTER:                  -7.762
REMARK INTRA:                  -1.622
REMARK UNBOUND:                -1.773
REMARK SMILES CCCCCC=CCC=CCCCCCCCC(=O)OC
REMARK SMILES IDX 11 1 10 2 9 3 8 4 7 5 6 6 5 7 4 8 3 9 2 10 1 11 12 12 13 13
REMARK SMILES IDX 14 14 15 15 16 16 17 17 18 18 19 19 20 20 21 21
REMARK H PARENT
REMARK Flexibility Score: inf
ROOT
ATOM      1  C   UNL     1       0.764 -25.387  -9.400  1.00  0.00     0.027 C 
ENDROOT
BRANCH   1   2
ATOM      2  C   UNL     1       0.115 -24.256 -10.149  1.00  0.00    -0.031 C 
ATOM      3  C   UNL     1      -1.001 -24.441 -10.871  1.00  0.00    -0.027 C 
BRANCH   3   4
ATOM      4  C   UNL     1      -1.662 -23.304 -11.596  1.00  0.00     0.054 C 
BRANCH   4   5
ATOM      5  C   UNL     1      -0.702 -22.167 -11.818  1.00  0.00    -0.027 C 
ATOM      6  C   UNL     1      -1.016 -20.923 -11.428  1.00  0.00    -0.031 C 
BRANCH   6   7
ATOM      7  C   UNL     1      -0.068 -19.770 -11.629  1.00  0.00     0.027 C 
BRANCH   7   8
ATOM      8  C   UNL     1       0.511 -19.237 -10.306  1.00  0.00     0.004 C 
BRANCH   8   9
ATOM      9  C   UNL     1      -0.105 -19.866  -9.041  1.00  0.00     0.000 C 
BRANCH   9  10
ATOM     10  C   UNL     1       0.848 -20.769  -8.240  1.00  0.00    -0.003 C 
ATOM     11  C   UNL     1       1.934 -21.405  -9.108  1.00  0.00     0.004 C 
ENDBRANCH   9  10
ENDBRANCH   8   9
ENDBRANCH   7   8
ENDBRANCH   6   7
ENDBRANCH   4   5
ENDBRANCH   3   4
ENDBRANCH   1   2
BRANCH   1  12
ATOM     12  C   UNL     1       0.024 -26.711  -9.643  1.00  0.00     0.004 C 
BRANCH  12  13
ATOM     13  C   UNL     1       0.898 -27.940  -9.348  1.00  0.00     0.000 C 
BRANCH  13  14
ATOM     14  C   UNL     1       0.677 -28.503  -7.934  1.00  0.00     0.000 C 
BRANCH  14  15
ATOM     15  C   UNL     1      -0.685 -28.076  -7.343  1.00  0.00     0.001 C 
BRANCH  15  16
ATOM     16  C   UNL     1      -1.753 -29.185  -7.395  1.00  0.00     0.012 C 
BRANCH  16  17
ATOM     17  C   UNL     1      -1.186 -30.584  -7.682  1.00  0.00     0.123 C 
BRANCH  17  18
ATOM     18  C   UNL     1      -1.588 -31.089  -9.035  1.00  0.00     0.305 C 
ATOM     19  O   UNL     1      -1.886 -30.269  -9.947  1.00  0.00    -0.252 OA
BRANCH  18  20
ATOM     20  O   UNL     1      -1.633 -32.466  -9.272  1.00  0.00    -0.469 OA
ATOM     21  C   UNL     1      -0.600 -33.348  -8.855  1.00  0.00     0.282 C 
ENDBRANCH  18  20
ENDBRANCH  17  18
ENDBRANCH  16  17
ENDBRANCH  15  16
ENDBRANCH  14  15
ENDBRANCH  13  14
ENDBRANCH  12  13
ENDBRANCH   1  12
TORSDOF 15
ENDMDL
MODEL 9
REMARK VINA RESULT:    -3.988      2.314      4.531
REMARK INTER + INTRA:          -9.258
REMARK INTER:                  -7.583
REMARK INTRA:                  -1.675
REMARK UNBOUND:                -1.773
REMARK SMILES CCCCCC=CCC=CCCCCCCCC(=O)OC
REMARK SMILES IDX 11 1 10 2 9 3 8 4 7 5 6 6 5 7 4 8 3 9 2 10 1 11 12 12 13 13
REMARK SMILES IDX 14 14 15 15 16 16 17 17 18 18 19 19 20 20 21 21
REMARK H PARENT
REMARK Flexibility Score: inf
ROOT
ATOM      1  C   UNL     1       1.072 -29.058  -8.184  1.00  0.00     0.027 C 
ENDROOT
BRANCH   1   2
ATOM      2  C   UNL     1       0.013 -28.043  -7.850  1.00  0.00    -0.031 C 
ATOM      3  C   UNL     1      -0.983 -28.323  -6.996  1.00  0.00    -0.027 C 
BRANCH   3   4
ATOM      4  C   UNL     1      -2.024 -27.299  -6.645  1.00  0.00     0.054 C 
BRANCH   4   5
ATOM      5  C   UNL     1      -2.041 -26.174  -7.644  1.00  0.00    -0.027 C 
ATOM      6  C   UNL     1      -1.806 -24.913  -7.256  1.00  0.00    -0.031 C 
BRANCH   6   7
ATOM      7  C   UNL     1      -1.807 -23.771  -8.238  1.00  0.00     0.027 C 
BRANCH   7   8
ATOM      8  C   UNL     1      -0.807 -23.974  -9.389  1.00  0.00     0.004 C 
BRANCH   8   9
ATOM      9  C   UNL     1       0.336 -22.940  -9.431  1.00  0.00     0.000 C 
BRANCH   9  10
ATOM     10  C   UNL     1       0.744 -22.484 -10.843  1.00  0.00    -0.003 C 
ATOM     11  C   UNL     1      -0.455 -22.115 -11.717  1.00  0.00     0.004 C 
ENDBRANCH   9  10
ENDBRANCH   8   9
ENDBRANCH   7   8
ENDBRANCH   6   7
ENDBRANCH   4   5
ENDBRANCH   3   4
ENDBRANCH   1   2
BRANCH   1  12
ATOM     12  C   UNL     1       1.206 -29.244  -9.702  1.00  0.00     0.004 C 
BRANCH  12  13
ATOM     13  C   UNL     1       0.026 -28.637 -10.478  1.00  0.00     0.000 C 
BRANCH  13  14
ATOM     14  C   UNL     1      -0.876 -29.703 -11.122  1.00  0.00     0.000 C 
BRANCH  14  15
ATOM     15  C   UNL     1      -1.778 -30.407 -10.083  1.00  0.00     0.001 C 
BRANCH  15  16
ATOM     16  C   UNL     1      -1.349 -31.855  -9.779  1.00  0.00     0.012 C 
BRANCH  16  17
ATOM     17  C   UNL     1      -1.042 -32.692 -11.031  1.00  0.00     0.123 C 
BRANCH  17  18
ATOM     18  C   UNL     1       0.364 -33.212 -11.031  1.00  0.00     0.305 C 
ATOM     19  O   UNL     1       0.721 -34.056 -11.899  1.00  0.00    -0.252 OA
BRANCH  18  20
ATOM     20  O   UNL     1       1.266 -32.760 -10.064  1.00  0.00    -0.469 OA
ATOM     21  C   UNL     1       2.443 -33.479  -9.720  1.00  0.00     0.282 C 
ENDBRANCH  18  20
ENDBRANCH  17  18
ENDBRANCH  16  17
ENDBRANCH  15  16
ENDBRANCH  14  15
ENDBRANCH  13  14
ENDBRANCH  12  13
ENDBRANCH   1  12
TORSDOF 15
ENDMDL
