MODEL 1
REMARK VINA RESULT:    -3.775      0.000      0.000
REMARK INTER + INTRA:          -4.571
REMARK INTER:                  -4.438
REMARK INTRA:                  -0.134
REMARK UNBOUND:                -0.134
REMARK SMILES O=C([O-])CCC(=O)[O-]
REMARK SMILES IDX 4 1 2 2 1 3 3 4 5 5 6 6 7 7 8 8
REMARK H PARENT
REMARK Flexibility Score: inf
ROOT
ATOM      1  C   UNL     1      10.330  53.782  23.363  1.00  0.00     0.059 C 
ENDROOT
BRANCH   1   2
ATOM      2  C   UNL     1       9.674  52.444  23.514  1.00  0.00     0.042 C 
ATOM      3  O   UNL     1      10.361  51.390  23.452  1.00  0.00    -0.550 OA
ATOM      4  O   UNL     1       8.297  52.358  23.681  1.00  0.00    -0.550 OA
ENDBRANCH   1   2
BRANCH   1   5
ATOM      5  C   UNL     1       9.618  54.857  24.191  1.00  0.00     0.059 C 
BRANCH   5   6
ATOM      6  C   UNL     1       9.940  54.733  25.649  1.00  0.00     0.042 C 
ATOM      7  O   UNL     1       9.033  54.861  26.512  1.00  0.00    -0.550 OA
ATOM      8  O   UNL     1      11.236  54.436  26.051  1.00  0.00    -0.550 OA
ENDBRANCH   5   6
ENDBRANCH   1   5
TORSDOF 3
ENDMDL
MODEL 2
REMARK VINA RESULT:    -3.773      0.216      3.531
REMARK INTER + INTRA:          -4.568
REMARK INTER:                  -4.450
REMARK INTRA:                  -0.118
REMARK UNBOUND:                -0.134
REMARK SMILES O=C([O-])CCC(=O)[O-]
REMARK SMILES IDX 4 1 2 2 1 3 3 4 5 5 6 6 7 7 8 8
REMARK H PARENT
REMARK Flexibility Score: inf
ROOT
ATOM      1  C   UNL     1       9.812  54.751  24.310  1.00  0.00     0.059 C 
ENDROOT
BRANCH   1   2
ATOM      2  C   UNL     1      10.130  54.685  25.773  1.00  0.00     0.042 C 
ATOM      3  O   UNL     1      11.305  54.438  26.156  1.00  0.00    -0.550 OA
ATOM      4  O   UNL     1       9.122  54.857  26.713  1.00  0.00    -0.550 OA
ENDBRANCH   1   2
BRANCH   1   5
ATOM      5  C   UNL     1      10.472  53.603  23.537  1.00  0.00     0.059 C 
BRANCH   5   6
ATOM      6  C   UNL     1       9.666  52.344  23.627  1.00  0.00     0.042 C 
ATOM      7  O   UNL     1      10.230  51.222  23.533  1.00  0.00    -0.550 OA
ATOM      8  O   UNL     1       8.297  52.408  23.856  1.00  0.00    -0.550 OA
ENDBRANCH   5   6
ENDBRANCH   1   5
TORSDOF 3
ENDMDL
MODEL 3
REMARK VINA RESULT:    -3.577      2.976      4.102
REMARK INTER + INTRA:          -4.338
REMARK INTER:                  -4.283
REMARK INTRA:                  -0.055
REMARK UNBOUND:                -0.134
REMARK SMILES O=C([O-])CCC(=O)[O-]
REMARK SMILES IDX 4 1 2 2 1 3 3 4 5 5 6 6 7 7 8 8
REMARK H PARENT
REMARK Flexibility Score: inf
ROOT
ATOM      1  C   UNL     1       8.949  54.776  23.293  1.00  0.00     0.059 C 
ENDROOT
BRANCH   1   2
ATOM      2  C   UNL     1      10.126  53.935  23.682  1.00  0.00     0.042 C 
ATOM      3  O   UNL     1      10.606  53.102  22.868  1.00  0.00    -0.550 OA
ATOM      4  O   UNL     1      10.667  54.041  24.957  1.00  0.00    -0.550 OA
ENDBRANCH   1   2
BRANCH   1   5
ATOM      5  C   UNL     1       8.281  54.257  22.014  1.00  0.00     0.059 C 
BRANCH   5   6
ATOM      6  C   UNL     1       7.770  55.380  21.165  1.00  0.00     0.042 C 
ATOM      7  O   UNL     1       8.003  56.575  21.487  1.00  0.00    -0.550 OA
ATOM      8  O   UNL     1       7.071  55.106  19.997  1.00  0.00    -0.550 OA
ENDBRANCH   5   6
ENDBRANCH   1   5
TORSDOF 3
ENDMDL
MODEL 4
REMARK VINA RESULT:    -3.556      3.085      3.814
REMARK INTER + INTRA:          -4.314
REMARK INTER:                  -4.272
REMARK INTRA:                  -0.041
REMARK UNBOUND:                -0.134
REMARK SMILES O=C([O-])CCC(=O)[O-]
REMARK SMILES IDX 4 1 2 2 1 3 3 4 5 5 6 6 7 7 8 8
REMARK H PARENT
REMARK Flexibility Score: inf
ROOT
ATOM      1  C   UNL     1       8.150  54.135  21.821  1.00  0.00     0.059 C 
ENDROOT
BRANCH   1   2
ATOM      2  C   UNL     1       7.632  55.164  20.864  1.00  0.00     0.042 C 
ATOM      3  O   UNL     1       7.184  54.815  19.739  1.00  0.00    -0.550 OA
ATOM      4  O   UNL     1       7.682  56.512  21.195  1.00  0.00    -0.550 OA
ENDBRANCH   1   2
BRANCH   1   5
ATOM      5  C   UNL     1       9.066  54.759  22.880  1.00  0.00     0.059 C 
BRANCH   5   6
ATOM      6  C   UNL     1      10.041  53.760  23.423  1.00  0.00     0.042 C 
ATOM      7  O   UNL     1      10.414  52.788  22.714  1.00  0.00    -0.550 OA
ATOM      8  O   UNL     1      10.569  53.924  24.697  1.00  0.00    -0.550 OA
ENDBRANCH   5   6
ENDBRANCH   1   5
TORSDOF 3
ENDMDL
MODEL 5
REMARK VINA RESULT:    -3.550      3.095      3.836
REMARK INTER + INTRA:          -4.307
REMARK INTER:                  -4.267
REMARK INTRA:                  -0.040
REMARK UNBOUND:                -0.134
REMARK SMILES O=C([O-])CCC(=O)[O-]
REMARK SMILES IDX 4 1 2 2 1 3 3 4 5 5 6 6 7 7 8 8
REMARK H PARENT
REMARK Flexibility Score: inf
ROOT
ATOM      1  C   UNL     1       8.073  54.127  21.867  1.00  0.00     0.059 C 
ENDROOT
BRANCH   1   2
ATOM      2  C   UNL     1       7.597  55.089  20.822  1.00  0.00     0.042 C 
ATOM      3  O   UNL     1       7.515  56.319  21.082  1.00  0.00    -0.550 OA
ATOM      4  O   UNL     1       7.203  54.623  19.574  1.00  0.00    -0.550 OA
ENDBRANCH   1   2
BRANCH   1   5
ATOM      5  C   UNL     1       9.069  54.786  22.829  1.00  0.00     0.059 C 
BRANCH   5   6
ATOM      6  C   UNL     1      10.031  53.787  23.395  1.00  0.00     0.042 C 
ATOM      7  O   UNL     1      10.531  53.966  24.537  1.00  0.00    -0.550 OA
ATOM      8  O   UNL     1      10.343  52.639  22.679  1.00  0.00    -0.550 OA
ENDBRANCH   5   6
ENDBRANCH   1   5
TORSDOF 3
ENDMDL
MODEL 6
REMARK VINA RESULT:    -3.521      1.975      3.622
REMARK INTER + INTRA:          -4.272
REMARK INTER:                  -4.150
REMARK INTRA:                  -0.123
REMARK UNBOUND:                -0.134
REMARK SMILES O=C([O-])CCC(=O)[O-]
REMARK SMILES IDX 4 1 2 2 1 3 3 4 5 5 6 6 7 7 8 8
REMARK H PARENT
REMARK Flexibility Score: inf
ROOT
ATOM      1  C   UNL     1      10.232  54.013  23.892  1.00  0.00     0.059 C 
ENDROOT
BRANCH   1   2
ATOM      2  C   UNL     1      10.169  54.444  25.325  1.00  0.00     0.042 C 
ATOM      3  O   UNL     1      11.213  54.457  26.030  1.00  0.00    -0.550 OA
ATOM      4  O   UNL     1       8.950  54.791  25.895  1.00  0.00    -0.550 OA
ENDBRANCH   1   2
BRANCH   1   5
ATOM      5  C   UNL     1       8.853  53.599  23.365  1.00  0.00     0.059 C 
BRANCH   5   6
ATOM      6  C   UNL     1       8.324  54.587  22.372  1.00  0.00     0.042 C 
ATOM      7  O   UNL     1       8.113  54.237  21.180  1.00  0.00    -0.550 OA
ATOM      8  O   UNL     1       8.026  55.883  22.771  1.00  0.00    -0.550 OA
ENDBRANCH   5   6
ENDBRANCH   1   5
TORSDOF 3
ENDMDL
MODEL 7
REMARK VINA RESULT:    -3.516      3.501      4.270
REMARK INTER + INTRA:          -4.267
REMARK INTER:                  -4.168
REMARK INTRA:                  -0.099
REMARK UNBOUND:                -0.134
REMARK SMILES O=C([O-])CCC(=O)[O-]
REMARK SMILES IDX 4 1 2 2 1 3 3 4 5 5 6 6 7 7 8 8
REMARK H PARENT
REMARK Flexibility Score: inf
ROOT
ATOM      1  C   UNL     1       7.754  56.142  21.755  1.00  0.00     0.059 C 
ENDROOT
BRANCH   1   2
ATOM      2  C   UNL     1       6.332  56.275  22.207  1.00  0.00     0.042 C 
ATOM      3  O   UNL     1       5.743  57.387  22.128  1.00  0.00    -0.550 OA
ATOM      4  O   UNL     1       5.669  55.184  22.753  1.00  0.00    -0.550 OA
ENDBRANCH   1   2
BRANCH   1   5
ATOM      5  C   UNL     1       8.283  54.719  21.969  1.00  0.00     0.059 C 
BRANCH   5   6
ATOM      6  C   UNL     1       9.207  54.647  23.147  1.00  0.00     0.042 C 
ATOM      7  O   UNL     1       8.861  55.137  24.254  1.00  0.00    -0.550 OA
ATOM      8  O   UNL     1      10.433  54.005  23.031  1.00  0.00    -0.550 OA
ENDBRANCH   5   6
ENDBRANCH   1   5
TORSDOF 3
ENDMDL
MODEL 8
REMARK VINA RESULT:    -3.515      1.552      2.234
REMARK INTER + INTRA:          -4.266
REMARK INTER:                  -4.146
REMARK INTRA:                  -0.120
REMARK UNBOUND:                -0.134
REMARK SMILES O=C([O-])CCC(=O)[O-]
REMARK SMILES IDX 4 1 2 2 1 3 3 4 5 5 6 6 7 7 8 8
REMARK H PARENT
REMARK Flexibility Score: inf
ROOT
ATOM      1  C   UNL     1       9.481  54.706  22.968  1.00  0.00     0.059 C 
ENDROOT
BRANCH   1   2
ATOM      2  C   UNL     1       8.289  54.019  22.376  1.00  0.00     0.042 C 
ATOM      3  O   UNL     1       8.010  54.172  21.157  1.00  0.00    -0.550 OA
ATOM      4  O   UNL     1       7.462  53.243  23.178  1.00  0.00    -0.550 OA
ENDBRANCH   1   2
BRANCH   1   5
ATOM      5  C   UNL     1      10.199  53.814  23.987  1.00  0.00     0.059 C 
BRANCH   5   6
ATOM      6  C   UNL     1      10.181  54.419  25.357  1.00  0.00     0.042 C 
ATOM      7  O   UNL     1      11.242  54.493  26.032  1.00  0.00    -0.550 OA
ATOM      8  O   UNL     1       9.000  54.937  25.873  1.00  0.00    -0.550 OA
ENDBRANCH   5   6
ENDBRANCH   1   5
TORSDOF 3
ENDMDL
MODEL 9
REMARK VINA RESULT:    -3.452      3.382      4.292
REMARK INTER + INTRA:          -4.191
REMARK INTER:                  -4.081
REMARK INTRA:                  -0.109
REMARK UNBOUND:                -0.134
REMARK SMILES O=C([O-])CCC(=O)[O-]
REMARK SMILES IDX 4 1 2 2 1 3 3 4 5 5 6 6 7 7 8 8
REMARK H PARENT
REMARK Flexibility Score: inf
ROOT
ATOM      1  C   UNL     1       8.387  54.447  22.055  1.00  0.00     0.059 C 
ENDROOT
BRANCH   1   2
ATOM      2  C   UNL     1       9.354  54.428  23.199  1.00  0.00     0.042 C 
ATOM      3  O   UNL     1       9.027  54.919  24.313  1.00  0.00    -0.550 OA
ATOM      4  O   UNL     1      10.630  53.907  23.025  1.00  0.00    -0.550 OA
ENDBRANCH   1   2
BRANCH   1   5
ATOM      5  C   UNL     1       7.891  55.867  21.758  1.00  0.00     0.059 C 
BRANCH   5   6
ATOM      6  C   UNL     1       6.462  56.048  22.170  1.00  0.00     0.042 C 
ATOM      7  O   UNL     1       5.794  55.066  22.589  1.00  0.00    -0.550 OA
ATOM      8  O   UNL     1       5.881  57.309  22.130  1.00  0.00    -0.550 OA
ENDBRANCH   5   6
ENDBRANCH   1   5
TORSDOF 3
ENDMDL
