MODEL 1
REMARK VINA RESULT:    -6.757      0.000      0.000
REMARK INTER + INTRA:          -9.752
REMARK INTER:                  -8.534
REMARK INTRA:                  -1.217
REMARK UNBOUND:                -1.217
REMARK SMILES CC(C)[C@@H](C)C=C[C@@H](C)[C@@H]1CC[C@@H]2C3=CC=C4C[C@@H](O)CC[C@@]4(C)[C@H]3CC[C@@]21C
REMARK SMILES IDX 8 1 9 2 7 3 6 4 4 5 5 6 2 7 1 8 3 9 10 10 11 11 28 12 12 13
REMARK SMILES IDX 13 14 27 15 29 16 14 17 26 18 25 19 15 20 23 21 16 22 17 23
REMARK SMILES IDX 22 24 24 25 18 26 21 27 19 28 20 29
REMARK H PARENT 20 30
REMARK Flexibility Score: inf
ROOT
ATOM      1  C   UNL     1     144.951 135.947 143.797  1.00  0.00     0.012 C 
ATOM      2  C   UNL     1     145.515 135.003 144.871  1.00  0.00     0.012 C 
ENDROOT
BRANCH   1   3
ATOM      3  C   UNL     1     143.480 135.640 143.610  1.00  0.00    -0.028 C 
ATOM      4  C   UNL     1     142.539 136.567 143.860  1.00  0.00    -0.028 C 
BRANCH   4   5
ATOM      5  C   UNL     1     141.070 136.298 143.615  1.00  0.00     0.011 C 
ATOM      6  C   UNL     1     140.887 134.872 143.068  1.00  0.00     0.012 C 
BRANCH   5   7
ATOM      7  C   UNL     1     140.432 137.400 142.715  1.00  0.00    -0.011 C 
ATOM      8  C   UNL     1     141.395 138.551 142.381  1.00  0.00     0.008 C 
ATOM      9  C   UNL     1     139.829 136.818 141.427  1.00  0.00     0.008 C 
ENDBRANCH   5   7
ENDBRANCH   4   5
ENDBRANCH   1   3
BRANCH   1  10
ATOM     10  C   UNL     1     145.693 135.894 142.416  1.00  0.00     0.002 C 
ATOM     11  C   UNL     1     147.209 135.769 142.467  1.00  0.00     0.005 C 
ATOM     12  C   UNL     1     145.394 137.006 141.358  1.00  0.00    -0.023 C 
ATOM     13  C   UNL     1     147.650 135.975 141.025  1.00  0.00     0.009 C 
ATOM     14  C   UNL     1     146.617 136.922 140.379  1.00  0.00     0.021 C 
ATOM     15  C   UNL     1     145.172 138.459 141.946  1.00  0.00     0.008 C 
ATOM     16  C   UNL     1     144.100 136.622 140.590  1.00  0.00     0.012 C 
ATOM     17  C   UNL     1     147.199 138.290 140.120  1.00  0.00    -0.063 C 
ATOM     18  C   UNL     1     146.412 139.371 142.190  1.00  0.00     0.009 C 
ATOM     19  C   UNL     1     147.662 139.065 141.328  1.00  0.00     0.025 C 
ATOM     20  C   UNL     1     146.918 138.940 138.978  1.00  0.00    -0.000 C 
ATOM     21  C   UNL     1     148.538 140.310 140.917  1.00  0.00    -0.005 C 
ATOM     22  C   UNL     1     147.185 140.384 138.837  1.00  0.00    -0.000 C 
ATOM     23  C   UNL     1     147.861 141.070 139.775  1.00  0.00    -0.061 C 
ATOM     24  C   UNL     1     148.805 141.242 142.147  1.00  0.00     0.014 C 
ATOM     25  C   UNL     1     149.907 139.796 140.392  1.00  0.00     0.017 C 
ATOM     26  C   UNL     1     148.223 142.512 139.497  1.00  0.00     0.063 C 
ATOM     27  C   UNL     1     149.341 142.625 141.755  1.00  0.00     0.033 C 
ATOM     28  C   UNL     1     148.382 143.328 140.783  1.00  0.00     0.118 C 
BRANCH  28  29
ATOM     29  O   UNL     1     147.124 143.519 141.378  1.00  0.00    -0.393 OA
ATOM     30  H   UNL     1     146.739 144.340 140.975  1.00  0.00     0.210 HD
ENDBRANCH  28  29
ENDBRANCH   1  10
TORSDOF 5
ENDMDL
MODEL 2
REMARK VINA RESULT:    -6.757      2.294      7.270
REMARK INTER + INTRA:          -9.752
REMARK INTER:                  -8.583
REMARK INTRA:                  -1.169
REMARK UNBOUND:                -1.217
REMARK SMILES CC(C)[C@@H](C)C=C[C@@H](C)[C@@H]1CC[C@@H]2C3=CC=C4C[C@@H](O)CC[C@@]4(C)[C@H]3CC[C@@]21C
REMARK SMILES IDX 8 1 9 2 7 3 6 4 4 5 5 6 2 7 1 8 3 9 10 10 11 11 28 12 12 13
REMARK SMILES IDX 13 14 27 15 29 16 14 17 26 18 25 19 15 20 23 21 16 22 17 23
REMARK SMILES IDX 22 24 24 25 18 26 21 27 19 28 20 29
REMARK H PARENT 20 30
REMARK Flexibility Score: inf
ROOT
ATOM      1  C   UNL     1     147.165 140.870 137.112  1.00  0.00     0.012 C 
ATOM      2  C   UNL     1     148.434 140.039 136.863  1.00  0.00     0.012 C 
ENDROOT
BRANCH   1   3
ATOM      3  C   UNL     1     147.270 141.514 138.478  1.00  0.00    -0.028 C 
ATOM      4  C   UNL     1     148.410 141.455 139.189  1.00  0.00    -0.028 C 
BRANCH   4   5
ATOM      5  C   UNL     1     148.552 142.151 140.526  1.00  0.00     0.011 C 
ATOM      6  C   UNL     1     149.679 143.195 140.451  1.00  0.00     0.012 C 
BRANCH   5   7
ATOM      7  C   UNL     1     148.726 141.123 141.686  1.00  0.00    -0.011 C 
ATOM      8  C   UNL     1     147.444 140.900 142.504  1.00  0.00     0.008 C 
ATOM      9  C   UNL     1     149.284 139.781 141.190  1.00  0.00     0.008 C 
ENDBRANCH   5   7
ENDBRANCH   4   5
ENDBRANCH   1   3
BRANCH   1  10
ATOM     10  C   UNL     1     145.819 140.072 136.993  1.00  0.00     0.002 C 
ATOM     11  C   UNL     1     144.587 140.732 137.597  1.00  0.00     0.005 C 
ATOM     12  C   UNL     1     145.781 138.584 137.470  1.00  0.00    -0.023 C 
ATOM     13  C   UNL     1     143.518 139.651 137.539  1.00  0.00     0.009 C 
ATOM     14  C   UNL     1     144.252 138.298 137.666  1.00  0.00     0.021 C 
ATOM     15  C   UNL     1     146.639 138.265 138.762  1.00  0.00     0.008 C 
ATOM     16  C   UNL     1     146.325 137.684 136.327  1.00  0.00     0.012 C 
ATOM     17  C   UNL     1     143.988 137.643 138.999  1.00  0.00    -0.063 C 
ATOM     18  C   UNL     1     145.995 138.472 140.166  1.00  0.00     0.009 C 
ATOM     19  C   UNL     1     144.449 138.396 140.223  1.00  0.00     0.025 C 
ATOM     20  C   UNL     1     143.775 136.319 139.074  1.00  0.00    -0.000 C 
ATOM     21  C   UNL     1     143.836 137.789 141.543  1.00  0.00    -0.005 C 
ATOM     22  C   UNL     1     143.849 135.605 140.362  1.00  0.00    -0.000 C 
ATOM     23  C   UNL     1     143.971 136.265 141.527  1.00  0.00    -0.061 C 
ATOM     24  C   UNL     1     144.507 138.412 142.813  1.00  0.00     0.014 C 
ATOM     25  C   UNL     1     142.321 138.126 141.580  1.00  0.00     0.017 C 
ATOM     26  C   UNL     1     143.895 135.479 142.817  1.00  0.00     0.063 C 
ATOM     27  C   UNL     1     144.215 137.627 144.099  1.00  0.00     0.033 C 
ATOM     28  C   UNL     1     144.653 136.162 143.958  1.00  0.00     0.118 C 
BRANCH  28  29
ATOM     29  O   UNL     1     146.035 136.079 143.721  1.00  0.00    -0.393 OA
ATOM     30  H   UNL     1     146.425 136.950 143.992  1.00  0.00     0.210 HD
ENDBRANCH  28  29
ENDBRANCH   1  10
TORSDOF 5
ENDMDL
MODEL 3
REMARK VINA RESULT:    -6.732      1.860      3.705
REMARK INTER + INTRA:          -9.720
REMARK INTER:                  -8.505
REMARK INTRA:                  -1.216
REMARK UNBOUND:                -1.217
REMARK SMILES CC(C)[C@@H](C)C=C[C@@H](C)[C@@H]1CC[C@@H]2C3=CC=C4C[C@@H](O)CC[C@@]4(C)[C@H]3CC[C@@]21C
REMARK SMILES IDX 8 1 9 2 7 3 6 4 4 5 5 6 2 7 1 8 3 9 10 10 11 11 28 12 12 13
REMARK SMILES IDX 13 14 27 15 29 16 14 17 26 18 25 19 15 20 23 21 16 22 17 23
REMARK SMILES IDX 22 24 24 25 18 26 21 27 19 28 20 29
REMARK H PARENT 20 30
REMARK Flexibility Score: inf
ROOT
ATOM      1  C   UNL     1     143.705 136.688 137.917  1.00  0.00     0.012 C 
ATOM      2  C   UNL     1     142.843 137.364 136.839  1.00  0.00     0.012 C 
ENDROOT
BRANCH   1   3
ATOM      3  C   UNL     1     143.475 137.398 139.235  1.00  0.00    -0.028 C 
ATOM      4  C   UNL     1     143.407 136.715 140.391  1.00  0.00    -0.028 C 
BRANCH   4   5
ATOM      5  C   UNL     1     143.243 137.416 141.722  1.00  0.00     0.011 C 
ATOM      6  C   UNL     1     142.051 138.386 141.655  1.00  0.00     0.012 C 
BRANCH   5   7
ATOM      7  C   UNL     1     144.573 138.088 142.179  1.00  0.00    -0.011 C 
ATOM      8  C   UNL     1     144.452 138.840 143.514  1.00  0.00     0.008 C 
ATOM      9  C   UNL     1     145.738 137.088 142.233  1.00  0.00     0.008 C 
ENDBRANCH   5   7
ENDBRANCH   4   5
ENDBRANCH   1   3
BRANCH   1  10
ATOM     10  C   UNL     1     145.240 136.632 137.596  1.00  0.00     0.002 C 
ATOM     11  C   UNL     1     146.119 135.927 138.619  1.00  0.00     0.005 C 
ATOM     12  C   UNL     1     145.984 137.960 137.239  1.00  0.00    -0.023 C 
ATOM     13  C   UNL     1     147.539 136.231 138.164  1.00  0.00     0.009 C 
ATOM     14  C   UNL     1     147.494 137.611 137.473  1.00  0.00     0.021 C 
ATOM     15  C   UNL     1     145.513 139.238 138.047  1.00  0.00     0.008 C 
ATOM     16  C   UNL     1     145.758 138.264 135.733  1.00  0.00     0.012 C 
ATOM     17  C   UNL     1     148.175 138.672 138.301  1.00  0.00    -0.063 C 
ATOM     18  C   UNL     1     146.163 139.536 139.432  1.00  0.00     0.009 C 
ATOM     19  C   UNL     1     147.580 138.953 139.659  1.00  0.00     0.025 C 
ATOM     20  C   UNL     1     148.956 139.595 137.713  1.00  0.00    -0.000 C 
ATOM     21  C   UNL     1     148.549 139.821 140.549  1.00  0.00    -0.005 C 
ATOM     22  C   UNL     1     149.356 140.822 138.425  1.00  0.00    -0.000 C 
ATOM     23  C   UNL     1     149.096 140.995 139.733  1.00  0.00    -0.061 C 
ATOM     24  C   UNL     1     147.829 140.313 141.850  1.00  0.00     0.014 C 
ATOM     25  C   UNL     1     149.756 138.937 140.967  1.00  0.00     0.017 C 
ATOM     26  C   UNL     1     149.662 142.211 140.430  1.00  0.00     0.063 C 
ATOM     27  C   UNL     1     148.587 141.433 142.575  1.00  0.00     0.033 C 
ATOM     28  C   UNL     1     148.823 142.629 141.641  1.00  0.00     0.118 C 
BRANCH  28  29
ATOM     29  O   UNL     1     147.601 143.165 141.203  1.00  0.00    -0.393 OA
ATOM     30  H   UNL     1     147.800 144.060 140.824  1.00  0.00     0.210 HD
ENDBRANCH  28  29
ENDBRANCH   1  10
TORSDOF 5
ENDMDL
MODEL 4
REMARK VINA RESULT:    -6.513      3.041      6.149
REMARK INTER + INTRA:          -9.444
REMARK INTER:                  -8.452
REMARK INTRA:                  -0.992
REMARK UNBOUND:                -1.217
REMARK SMILES CC(C)[C@@H](C)C=C[C@@H](C)[C@@H]1CC[C@@H]2C3=CC=C4C[C@@H](O)CC[C@@]4(C)[C@H]3CC[C@@]21C
REMARK SMILES IDX 8 1 9 2 7 3 6 4 4 5 5 6 2 7 1 8 3 9 10 10 11 11 28 12 12 13
REMARK SMILES IDX 13 14 27 15 29 16 14 17 26 18 25 19 15 20 23 21 16 22 17 23
REMARK SMILES IDX 22 24 24 25 18 26 21 27 19 28 20 29
REMARK H PARENT 20 30
REMARK Flexibility Score: inf
ROOT
ATOM      1  C   UNL     1     149.214 139.698 141.310  1.00  0.00     0.012 C 
ATOM      2  C   UNL     1     150.125 138.490 141.036  1.00  0.00     0.012 C 
ENDROOT
BRANCH   1   3
ATOM      3  C   UNL     1     147.935 139.201 141.951  1.00  0.00    -0.028 C 
ATOM      4  C   UNL     1     147.621 137.894 141.955  1.00  0.00    -0.028 C 
BRANCH   4   5
ATOM      5  C   UNL     1     146.380 137.375 142.648  1.00  0.00     0.011 C 
ATOM      6  C   UNL     1     146.219 135.871 142.368  1.00  0.00     0.012 C 
BRANCH   5   7
ATOM      7  C   UNL     1     145.123 138.219 142.275  1.00  0.00    -0.011 C 
ATOM      8  C   UNL     1     144.083 137.439 141.454  1.00  0.00     0.008 C 
ATOM      9  C   UNL     1     144.464 138.852 143.509  1.00  0.00     0.008 C 
ENDBRANCH   5   7
ENDBRANCH   4   5
ENDBRANCH   1   3
BRANCH   1  10
ATOM     10  C   UNL     1     148.883 140.575 140.053  1.00  0.00     0.002 C 
ATOM     11  C   UNL     1     147.698 141.522 140.182  1.00  0.00     0.005 C 
ATOM     12  C   UNL     1     148.716 139.872 138.666  1.00  0.00    -0.023 C 
ATOM     13  C   UNL     1     147.485 142.048 138.770  1.00  0.00     0.009 C 
ATOM     14  C   UNL     1     147.935 140.927 137.809  1.00  0.00     0.021 C 
ATOM     15  C   UNL     1     148.003 138.459 138.706  1.00  0.00     0.008 C 
ATOM     16  C   UNL     1     150.124 139.656 138.049  1.00  0.00     0.012 C 
ATOM     17  C   UNL     1     146.762 140.293 137.103  1.00  0.00    -0.063 C 
ATOM     18  C   UNL     1     146.447 138.397 138.647  1.00  0.00     0.009 C 
ATOM     19  C   UNL     1     145.743 139.603 137.976  1.00  0.00     0.025 C 
ATOM     20  C   UNL     1     146.845 139.977 135.800  1.00  0.00    -0.000 C 
ATOM     21  C   UNL     1     144.423 139.275 137.179  1.00  0.00    -0.005 C 
ATOM     22  C   UNL     1     145.868 139.068 135.171  1.00  0.00    -0.000 C 
ATOM     23  C   UNL     1     144.772 138.649 135.827  1.00  0.00    -0.061 C 
ATOM     24  C   UNL     1     143.477 138.348 138.014  1.00  0.00     0.014 C 
ATOM     25  C   UNL     1     143.674 140.607 136.901  1.00  0.00     0.017 C 
ATOM     26  C   UNL     1     143.742 137.838 135.073  1.00  0.00     0.063 C 
ATOM     27  C   UNL     1     142.357 137.715 137.177  1.00  0.00     0.033 C 
ATOM     28  C   UNL     1     142.937 136.920 135.997  1.00  0.00     0.118 C 
BRANCH  28  29
ATOM     29  O   UNL     1     143.758 135.878 136.457  1.00  0.00    -0.393 OA
ATOM     30  H   UNL     1     144.420 135.698 135.741  1.00  0.00     0.210 HD
ENDBRANCH  28  29
ENDBRANCH   1  10
TORSDOF 5
ENDMDL
MODEL 5
REMARK VINA RESULT:    -6.297      2.225      3.611
REMARK INTER + INTRA:          -9.171
REMARK INTER:                  -8.310
REMARK INTRA:                  -0.860
REMARK UNBOUND:                -1.217
REMARK SMILES CC(C)[C@@H](C)C=C[C@@H](C)[C@@H]1CC[C@@H]2C3=CC=C4C[C@@H](O)CC[C@@]4(C)[C@H]3CC[C@@]21C
REMARK SMILES IDX 8 1 9 2 7 3 6 4 4 5 5 6 2 7 1 8 3 9 10 10 11 11 28 12 12 13
REMARK SMILES IDX 13 14 27 15 29 16 14 17 26 18 25 19 15 20 23 21 16 22 17 23
REMARK SMILES IDX 22 24 24 25 18 26 21 27 19 28 20 29
REMARK H PARENT 20 30
REMARK Flexibility Score: inf
ROOT
ATOM      1  C   UNL     1     141.947 136.979 141.480  1.00  0.00     0.012 C 
ATOM      2  C   UNL     1     141.554 138.214 140.654  1.00  0.00     0.012 C 
ENDROOT
BRANCH   1   3
ATOM      3  C   UNL     1     140.747 136.541 142.293  1.00  0.00    -0.028 C 
ATOM      4  C   UNL     1     139.806 137.421 142.674  1.00  0.00    -0.028 C 
BRANCH   4   5
ATOM      5  C   UNL     1     138.568 136.988 143.429  1.00  0.00     0.011 C 
ATOM      6  C   UNL     1     138.048 135.659 142.854  1.00  0.00     0.012 C 
BRANCH   5   7
ATOM      7  C   UNL     1     137.495 138.119 143.460  1.00  0.00    -0.011 C 
ATOM      8  C   UNL     1     136.246 137.801 142.622  1.00  0.00     0.008 C 
ATOM      9  C   UNL     1     137.094 138.496 144.894  1.00  0.00     0.008 C 
ENDBRANCH   5   7
ENDBRANCH   4   5
ENDBRANCH   1   3
BRANCH   1  10
ATOM     10  C   UNL     1     143.190 137.179 142.417  1.00  0.00     0.002 C 
ATOM     11  C   UNL     1     143.425 138.591 142.937  1.00  0.00     0.005 C 
ATOM     12  C   UNL     1     144.586 136.664 141.937  1.00  0.00    -0.023 C 
ATOM     13  C   UNL     1     144.790 138.520 143.604  1.00  0.00     0.009 C 
ATOM     14  C   UNL     1     145.599 137.448 142.842  1.00  0.00     0.021 C 
ATOM     15  C   UNL     1     144.876 136.839 140.390  1.00  0.00     0.008 C 
ATOM     16  C   UNL     1     144.689 135.148 142.252  1.00  0.00     0.012 C 
ATOM     17  C   UNL     1     146.702 138.062 142.017  1.00  0.00    -0.063 C 
ATOM     18  C   UNL     1     145.474 138.186 139.883  1.00  0.00     0.009 C 
ATOM     19  C   UNL     1     146.277 139.009 140.921  1.00  0.00     0.025 C 
ATOM     20  C   UNL     1     147.912 137.481 141.961  1.00  0.00    -0.000 C 
ATOM     21  C   UNL     1     147.499 139.829 140.356  1.00  0.00    -0.005 C 
ATOM     22  C   UNL     1     148.891 137.852 140.923  1.00  0.00    -0.000 C 
ATOM     23  C   UNL     1     148.680 138.892 140.096  1.00  0.00    -0.061 C 
ATOM     24  C   UNL     1     147.098 140.620 139.066  1.00  0.00     0.014 C 
ATOM     25  C   UNL     1     147.943 140.855 141.435  1.00  0.00     0.017 C 
ATOM     26  C   UNL     1     149.789 139.304 139.154  1.00  0.00     0.063 C 
ATOM     27  C   UNL     1     148.305 141.147 138.279  1.00  0.00     0.033 C 
ATOM     28  C   UNL     1     149.255 140.001 137.899  1.00  0.00     0.118 C 
BRANCH  28  29
ATOM     29  O   UNL     1     148.599 139.063 137.084  1.00  0.00    -0.393 OA
ATOM     30  H   UNL     1     148.322 138.315 137.674  1.00  0.00     0.210 HD
ENDBRANCH  28  29
ENDBRANCH   1  10
TORSDOF 5
ENDMDL
MODEL 6
REMARK VINA RESULT:    -6.250      2.627      7.179
REMARK INTER + INTRA:          -9.111
REMARK INTER:                  -8.203
REMARK INTRA:                  -0.908
REMARK UNBOUND:                -1.217
REMARK SMILES CC(C)[C@@H](C)C=C[C@@H](C)[C@@H]1CC[C@@H]2C3=CC=C4C[C@@H](O)CC[C@@]4(C)[C@H]3CC[C@@]21C
REMARK SMILES IDX 8 1 9 2 7 3 6 4 4 5 5 6 2 7 1 8 3 9 10 10 11 11 28 12 12 13
REMARK SMILES IDX 13 14 27 15 29 16 14 17 26 18 25 19 15 20 23 21 16 22 17 23
REMARK SMILES IDX 22 24 24 25 18 26 21 27 19 28 20 29
REMARK H PARENT 20 30
REMARK Flexibility Score: inf
ROOT
ATOM      1  C   UNL     1     149.742 139.494 138.362  1.00  0.00     0.012 C 
ATOM      2  C   UNL     1     148.624 140.017 137.446  1.00  0.00     0.012 C 
ENDROOT
BRANCH   1   3
ATOM      3  C   UNL     1     149.998 138.039 138.029  1.00  0.00    -0.028 C 
ATOM      4  C   UNL     1     148.982 137.191 137.795  1.00  0.00    -0.028 C 
BRANCH   4   5
ATOM      5  C   UNL     1     149.222 135.750 137.396  1.00  0.00     0.011 C 
ATOM      6  C   UNL     1     147.947 135.168 136.761  1.00  0.00     0.012 C 
BRANCH   5   7
ATOM      7  C   UNL     1     149.764 134.911 138.593  1.00  0.00    -0.011 C 
ATOM      8  C   UNL     1     148.873 134.982 139.844  1.00  0.00     0.008 C 
ATOM      9  C   UNL     1     150.022 133.448 138.204  1.00  0.00     0.008 C 
ENDBRANCH   5   7
ENDBRANCH   4   5
ENDBRANCH   1   3
BRANCH   1  10
ATOM     10  C   UNL     1     149.469 139.657 139.898  1.00  0.00     0.002 C 
ATOM     11  C   UNL     1     149.916 138.506 140.789  1.00  0.00     0.005 C 
ATOM     12  C   UNL     1     148.025 140.025 140.371  1.00  0.00    -0.023 C 
ATOM     13  C   UNL     1     149.323 138.837 142.151  1.00  0.00     0.009 C 
ATOM     14  C   UNL     1     148.019 139.620 141.886  1.00  0.00     0.021 C 
ATOM     15  C   UNL     1     146.851 139.355 139.548  1.00  0.00     0.008 C 
ATOM     16  C   UNL     1     147.844 141.563 140.255  1.00  0.00     0.012 C 
ATOM     17  C   UNL     1     146.798 138.800 142.224  1.00  0.00    -0.063 C 
ATOM     18  C   UNL     1     146.356 137.935 139.958  1.00  0.00     0.009 C 
ATOM     19  C   UNL     1     146.599 137.530 141.434  1.00  0.00     0.025 C 
ATOM     20  C   UNL     1     145.751 139.368 142.846  1.00  0.00    -0.000 C 
ATOM     21  C   UNL     1     145.500 136.607 142.086  1.00  0.00    -0.005 C 
ATOM     22  C   UNL     1     144.436 138.702 142.889  1.00  0.00    -0.000 C 
ATOM     23  C   UNL     1     144.270 137.441 142.453  1.00  0.00    -0.061 C 
ATOM     24  C   UNL     1     145.125 135.420 141.136  1.00  0.00     0.014 C 
ATOM     25  C   UNL     1     146.074 136.013 143.401  1.00  0.00     0.017 C 
ATOM     26  C   UNL     1     142.929 136.773 142.661  1.00  0.00     0.063 C 
ATOM     27  C   UNL     1     143.835 134.699 141.547  1.00  0.00     0.033 C 
ATOM     28  C   UNL     1     142.657 135.683 141.620  1.00  0.00     0.118 C 
BRANCH  28  29
ATOM     29  O   UNL     1     142.426 136.275 140.368  1.00  0.00    -0.393 OA
ATOM     30  H   UNL     1     141.443 136.305 140.243  1.00  0.00     0.210 HD
ENDBRANCH  28  29
ENDBRANCH   1  10
TORSDOF 5
ENDMDL
MODEL 7
REMARK VINA RESULT:    -6.225      2.790      5.059
REMARK INTER + INTRA:          -9.080
REMARK INTER:                  -7.950
REMARK INTRA:                  -1.130
REMARK UNBOUND:                -1.217
REMARK SMILES CC(C)[C@@H](C)C=C[C@@H](C)[C@@H]1CC[C@@H]2C3=CC=C4C[C@@H](O)CC[C@@]4(C)[C@H]3CC[C@@]21C
REMARK SMILES IDX 8 1 9 2 7 3 6 4 4 5 5 6 2 7 1 8 3 9 10 10 11 11 28 12 12 13
REMARK SMILES IDX 13 14 27 15 29 16 14 17 26 18 25 19 15 20 23 21 16 22 17 23
REMARK SMILES IDX 22 24 24 25 18 26 21 27 19 28 20 29
REMARK H PARENT 20 30
REMARK Flexibility Score: inf
ROOT
ATOM      1  C   UNL     1     144.223 137.397 143.310  1.00  0.00     0.012 C 
ATOM      2  C   UNL     1     143.159 138.504 143.258  1.00  0.00     0.012 C 
ENDROOT
BRANCH   1   3
ATOM      3  C   UNL     1     144.407 136.971 144.752  1.00  0.00    -0.028 C 
ATOM      4  C   UNL     1     144.600 135.682 145.078  1.00  0.00    -0.028 C 
BRANCH   4   5
ATOM      5  C   UNL     1     144.852 135.249 146.506  1.00  0.00     0.011 C 
ATOM      6  C   UNL     1     145.123 136.485 147.382  1.00  0.00     0.012 C 
BRANCH   5   7
ATOM      7  C   UNL     1     145.972 134.168 146.585  1.00  0.00    -0.011 C 
ATOM      8  C   UNL     1     146.774 134.021 145.281  1.00  0.00     0.008 C 
ATOM      9  C   UNL     1     146.920 134.402 147.771  1.00  0.00     0.008 C 
ENDBRANCH   5   7
ENDBRANCH   4   5
ENDBRANCH   1   3
BRANCH   1  10
ATOM     10  C   UNL     1     145.608 137.780 142.680  1.00  0.00     0.002 C 
ATOM     11  C   UNL     1     145.904 139.268 142.554  1.00  0.00     0.005 C 
ATOM     12  C   UNL     1     146.011 137.149 141.308  1.00  0.00    -0.023 C 
ATOM     13  C   UNL     1     147.175 139.326 141.719  1.00  0.00     0.009 C 
ATOM     14  C   UNL     1     147.145 138.098 140.784  1.00  0.00     0.021 C 
ATOM     15  C   UNL     1     144.828 136.969 140.271  1.00  0.00     0.008 C 
ATOM     16  C   UNL     1     146.608 135.739 141.568  1.00  0.00     0.012 C 
ATOM     17  C   UNL     1     146.901 138.494 139.349  1.00  0.00    -0.063 C 
ATOM     18  C   UNL     1     144.459 138.159 139.334  1.00  0.00     0.009 C 
ATOM     19  C   UNL     1     145.590 139.179 139.052  1.00  0.00     0.025 C 
ATOM     20  C   UNL     1     147.579 137.895 138.355  1.00  0.00    -0.000 C 
ATOM     21  C   UNL     1     145.588 139.832 137.617  1.00  0.00    -0.005 C 
ATOM     22  C   UNL     1     147.138 138.010 136.953  1.00  0.00    -0.000 C 
ATOM     23  C   UNL     1     146.144 138.841 136.593  1.00  0.00    -0.061 C 
ATOM     24  C   UNL     1     144.154 140.321 137.223  1.00  0.00     0.014 C 
ATOM     25  C   UNL     1     146.532 141.066 137.638  1.00  0.00     0.017 C 
ATOM     26  C   UNL     1     145.843 139.015 135.121  1.00  0.00     0.063 C 
ATOM     27  C   UNL     1     144.012 140.640 135.729  1.00  0.00     0.033 C 
ATOM     28  C   UNL     1     144.388 139.422 134.871  1.00  0.00     0.118 C 
BRANCH  28  29
ATOM     29  O   UNL     1     143.542 138.337 135.151  1.00  0.00    -0.393 OA
ATOM     30  H   UNL     1     142.612 138.660 135.026  1.00  0.00     0.210 HD
ENDBRANCH  28  29
ENDBRANCH   1  10
TORSDOF 5
ENDMDL
MODEL 8
REMARK VINA RESULT:    -6.169      3.681      5.763
REMARK INTER + INTRA:          -9.010
REMARK INTER:                  -7.966
REMARK INTRA:                  -1.044
REMARK UNBOUND:                -1.217
REMARK SMILES CC(C)[C@@H](C)C=C[C@@H](C)[C@@H]1CC[C@@H]2C3=CC=C4C[C@@H](O)CC[C@@]4(C)[C@H]3CC[C@@]21C
REMARK SMILES IDX 8 1 9 2 7 3 6 4 4 5 5 6 2 7 1 8 3 9 10 10 11 11 28 12 12 13
REMARK SMILES IDX 13 14 27 15 29 16 14 17 26 18 25 19 15 20 23 21 16 22 17 23
REMARK SMILES IDX 22 24 24 25 18 26 21 27 19 28 20 29
REMARK H PARENT 20 30
REMARK Flexibility Score: inf
ROOT
ATOM      1  C   UNL     1     143.213 136.957 136.290  1.00  0.00     0.012 C 
ATOM      2  C   UNL     1     141.849 137.267 136.927  1.00  0.00     0.012 C 
ENDROOT
BRANCH   1   3
ATOM      3  C   UNL     1     143.999 136.074 137.237  1.00  0.00    -0.028 C 
ATOM      4  C   UNL     1     144.713 135.030 136.784  1.00  0.00    -0.028 C 
BRANCH   4   5
ATOM      5  C   UNL     1     145.556 134.179 137.709  1.00  0.00     0.011 C 
ATOM      6  C   UNL     1     145.219 134.513 139.172  1.00  0.00     0.012 C 
BRANCH   5   7
ATOM      7  C   UNL     1     147.073 134.303 137.372  1.00  0.00    -0.011 C 
ATOM      8  C   UNL     1     147.344 134.839 135.957  1.00  0.00     0.008 C 
ATOM      9  C   UNL     1     147.831 135.140 138.414  1.00  0.00     0.008 C 
ENDBRANCH   5   7
ENDBRANCH   4   5
ENDBRANCH   1   3
BRANCH   1  10
ATOM     10  C   UNL     1     144.061 138.218 135.899  1.00  0.00     0.002 C 
ATOM     11  C   UNL     1     145.422 137.949 135.271  1.00  0.00     0.005 C 
ATOM     12  C   UNL     1     144.300 139.328 136.974  1.00  0.00    -0.023 C 
ATOM     13  C   UNL     1     146.086 139.317 135.220  1.00  0.00     0.009 C 
ATOM     14  C   UNL     1     145.533 140.121 136.417  1.00  0.00     0.021 C 
ATOM     15  C   UNL     1     144.520 138.803 138.451  1.00  0.00     0.008 C 
ATOM     16  C   UNL     1     143.062 140.264 137.001  1.00  0.00     0.012 C 
ATOM     17  C   UNL     1     146.579 140.320 137.486  1.00  0.00    -0.063 C 
ATOM     18  C   UNL     1     145.956 138.401 138.904  1.00  0.00     0.009 C 
ATOM     19  C   UNL     1     147.124 139.072 138.137  1.00  0.00     0.025 C 
ATOM     20  C   UNL     1     146.687 141.501 138.117  1.00  0.00    -0.000 C 
ATOM     21  C   UNL     1     148.419 139.376 138.981  1.00  0.00    -0.005 C 
ATOM     22  C   UNL     1     147.451 141.629 139.373  1.00  0.00    -0.000 C 
ATOM     23  C   UNL     1     148.197 140.616 139.849  1.00  0.00    -0.061 C 
ATOM     24  C   UNL     1     148.832 138.138 139.846  1.00  0.00     0.014 C 
ATOM     25  C   UNL     1     149.582 139.692 138.001  1.00  0.00     0.017 C 
ATOM     26  C   UNL     1     149.066 140.866 141.062  1.00  0.00     0.063 C 
ATOM     27  C   UNL     1     149.857 138.474 140.937  1.00  0.00     0.033 C 
ATOM     28  C   UNL     1     149.331 139.585 141.858  1.00  0.00     0.118 C 
BRANCH  28  29
ATOM     29  O   UNL     1     148.151 139.179 142.502  1.00  0.00    -0.393 OA
ATOM     30  H   UNL     1     147.840 139.950 143.043  1.00  0.00     0.210 HD
ENDBRANCH  28  29
ENDBRANCH   1  10
TORSDOF 5
ENDMDL
MODEL 9
REMARK VINA RESULT:    -6.058      2.351      6.927
REMARK INTER + INTRA:          -8.870
REMARK INTER:                  -7.771
REMARK INTRA:                  -1.099
REMARK UNBOUND:                -1.217
REMARK SMILES CC(C)[C@@H](C)C=C[C@@H](C)[C@@H]1CC[C@@H]2C3=CC=C4C[C@@H](O)CC[C@@]4(C)[C@H]3CC[C@@]21C
REMARK SMILES IDX 8 1 9 2 7 3 6 4 4 5 5 6 2 7 1 8 3 9 10 10 11 11 28 12 12 13
REMARK SMILES IDX 13 14 27 15 29 16 14 17 26 18 25 19 15 20 23 21 16 22 17 23
REMARK SMILES IDX 22 24 24 25 18 26 21 27 19 28 20 29
REMARK H PARENT 20 30
REMARK Flexibility Score: inf
ROOT
ATOM      1  C   UNL     1     149.596 140.043 138.912  1.00  0.00     0.012 C 
ATOM      2  C   UNL     1     150.002 141.189 139.852  1.00  0.00     0.012 C 
ENDROOT
BRANCH   1   3
ATOM      3  C   UNL     1     148.286 140.406 138.245  1.00  0.00    -0.028 C 
ATOM      4  C   UNL     1     148.082 140.168 136.938  1.00  0.00    -0.028 C 
BRANCH   4   5
ATOM      5  C   UNL     1     146.755 140.464 136.271  1.00  0.00     0.011 C 
ATOM      6  C   UNL     1     145.793 141.100 137.290  1.00  0.00     0.012 C 
BRANCH   5   7
ATOM      7  C   UNL     1     146.176 139.199 135.568  1.00  0.00    -0.011 C 
ATOM      8  C   UNL     1     146.137 137.958 136.475  1.00  0.00     0.008 C 
ATOM      9  C   UNL     1     144.790 139.460 134.959  1.00  0.00     0.008 C 
ENDBRANCH   5   7
ENDBRANCH   4   5
ENDBRANCH   1   3
BRANCH   1  10
ATOM     10  C   UNL     1     149.480 138.636 139.597  1.00  0.00     0.002 C 
ATOM     11  C   UNL     1     149.145 137.465 138.684  1.00  0.00     0.005 C 
ATOM     12  C   UNL     1     148.552 138.481 140.846  1.00  0.00    -0.023 C 
ATOM     13  C   UNL     1     148.875 136.312 139.640  1.00  0.00     0.009 C 
ATOM     14  C   UNL     1     148.306 136.935 140.933  1.00  0.00     0.021 C 
ATOM     15  C   UNL     1     147.209 139.318 140.799  1.00  0.00     0.008 C 
ATOM     16  C   UNL     1     149.335 138.944 142.105  1.00  0.00     0.012 C 
ATOM     17  C   UNL     1     146.839 136.626 141.102  1.00  0.00    -0.063 C 
ATOM     18  C   UNL     1     145.959 138.701 140.102  1.00  0.00     0.009 C 
ATOM     19  C   UNL     1     145.913 137.154 140.034  1.00  0.00     0.025 C 
ATOM     20  C   UNL     1     146.348 136.307 142.311  1.00  0.00    -0.000 C 
ATOM     21  C   UNL     1     144.481 136.502 140.135  1.00  0.00    -0.005 C 
ATOM     22  C   UNL     1     144.898 136.331 142.577  1.00  0.00    -0.000 C 
ATOM     23  C   UNL     1     144.004 136.513 141.589  1.00  0.00    -0.061 C 
ATOM     24  C   UNL     1     143.464 137.228 139.191  1.00  0.00     0.014 C 
ATOM     25  C   UNL     1     144.584 135.018 139.686  1.00  0.00     0.017 C 
ATOM     26  C   UNL     1     142.532 136.381 141.910  1.00  0.00     0.063 C 
ATOM     27  C   UNL     1     142.000 136.880 139.496  1.00  0.00     0.033 C 
ATOM     28  C   UNL     1     141.655 137.198 140.958  1.00  0.00     0.118 C 
BRANCH  28  29
ATOM     29  O   UNL     1     141.824 138.568 141.221  1.00  0.00    -0.393 OA
ATOM     30  H   UNL     1     141.070 139.039 140.782  1.00  0.00     0.210 HD
ENDBRANCH  28  29
ENDBRANCH   1  10
TORSDOF 5
ENDMDL
