MODEL 1
REMARK VINA RESULT:    -4.153      0.000      0.000
REMARK INTER + INTRA:          -4.356
REMARK INTER:                  -5.124
REMARK INTRA:                   0.769
REMARK UNBOUND:                 0.769
REMARK SMILES CC1=CC=CC(C)(C)CC1=O
REMARK SMILES IDX 1 1 2 2 3 3 10 4 11 5 9 6 4 8 5 9 6 10 7 11 8 12
REMARK H PARENT
REMARK Flexibility Score: 80.00
ROOT
ATOM      1  C   UNL     1     -11.025  73.668  33.005  1.00  0.00     0.048 C 
ATOM      2  C   UNL     1     -10.951  73.522  31.503  1.00  0.00    -0.008 C 
ATOM      3  C   UNL     1     -11.844  72.701  30.910  1.00  0.00     0.007 C 
ENDROOT
BRANCH   2   4
ATOM      4  C   UNL     1      -9.850  74.236  30.809  1.00  0.00     0.159 C 
ATOM      5  O   UNL     1      -8.943  74.774  31.501  1.00  0.00    -0.295 OA
BRANCH   4   6
ATOM      6  C   UNL     1      -9.762  74.368  29.320  1.00  0.00     0.091 CG0
ATOM      7  G   UNL     1      -9.715  73.007  28.589  1.00  0.00     0.000 G0
ENDBRANCH   4   6
ENDBRANCH   2   4
BRANCH   3   8
ATOM      8  C   UNL     1     -12.001  72.341  29.481  1.00  0.00    -0.003 C 
ATOM      9  C   UNL     1     -11.118  72.449  28.481  1.00  0.00    -0.020 C 
BRANCH   9  10
ATOM     10  C   UNL     1      -9.718  73.008  28.576  1.00  0.00    -0.010 CG0
ATOM     11  C   UNL     1      -9.194  73.252  27.143  1.00  0.00     0.016 C 
ATOM     12  C   UNL     1      -8.785  71.980  29.257  1.00  0.00     0.016 C 
ATOM     13  G   UNL     1      -9.749  74.366  29.315  1.00  0.00     0.000 G0
ENDBRANCH   9  10
ENDBRANCH   3   8
TORSDOF 0
ENDMDL
MODEL 2
REMARK VINA RESULT:    -4.143      2.169      3.881
REMARK INTER + INTRA:          -4.343
REMARK INTER:                  -5.115
REMARK INTRA:                   0.772
REMARK UNBOUND:                 0.769
REMARK SMILES CC1=CC=CC(C)(C)CC1=O
REMARK SMILES IDX 1 1 2 2 3 3 10 4 11 5 9 6 4 8 5 9 6 10 7 11 8 12
REMARK H PARENT
REMARK Flexibility Score: 80.00
ROOT
ATOM      1  C   UNL     1     -10.983  73.953  27.381  1.00  0.00     0.048 C 
ATOM      2  C   UNL     1     -10.835  73.868  28.882  1.00  0.00    -0.008 C 
ATOM      3  C   UNL     1     -10.025  74.766  29.482  1.00  0.00     0.007 C 
ENDROOT
BRANCH   2   4
ATOM      4  C   UNL     1     -11.536  72.754  29.568  1.00  0.00     0.159 C 
ATOM      5  O   UNL     1     -12.036  71.829  28.870  1.00  0.00    -0.295 OA
BRANCH   4   6
ATOM      6  C   UNL     1     -11.697  72.670  31.054  1.00  0.00     0.091 CG0
ATOM      7  G   UNL     1     -10.350  72.637  31.812  1.00  0.00     0.000 G0
ENDBRANCH   4   6
ENDBRANCH   2   4
BRANCH   3   8
ATOM      8  C   UNL     1      -9.665  74.915  30.912  1.00  0.00    -0.003 C 
ATOM      9  C   UNL     1      -9.781  74.029  31.909  1.00  0.00    -0.020 C 
BRANCH   9  10
ATOM     10  C   UNL     1     -10.349  72.634  31.807  1.00  0.00    -0.010 CG0
ATOM     11  C   UNL     1     -10.603  72.108  33.238  1.00  0.00     0.016 C 
ATOM     12  C   UNL     1      -9.324  71.694  31.129  1.00  0.00     0.016 C 
ATOM     13  G   UNL     1     -11.703  72.675  31.063  1.00  0.00     0.000 G0
ENDBRANCH   9  10
ENDBRANCH   3   8
TORSDOF 0
ENDMDL
MODEL 3
REMARK VINA RESULT:    -4.101      1.875      3.819
REMARK INTER + INTRA:          -4.291
REMARK INTER:                  -5.329
REMARK INTRA:                   1.038
REMARK UNBOUND:                 0.769
REMARK SMILES CC1=CC=CC(C)(C)CC1=O
REMARK SMILES IDX 1 1 2 2 3 3 10 4 11 5 9 6 4 8 5 9 6 10 7 11 8 12
REMARK H PARENT
REMARK Flexibility Score: 80.00
ROOT
ATOM      1  C   UNL     1      -9.521  73.271  26.729  1.00  0.00     0.048 C 
ATOM      2  C   UNL     1      -9.870  72.914  28.155  1.00  0.00    -0.008 C 
ATOM      3  C   UNL     1      -8.908  72.341  28.909  1.00  0.00     0.007 C 
ENDROOT
BRANCH   2   4
ATOM      4  C   UNL     1     -11.269  73.156  28.588  1.00  0.00     0.159 C 
ATOM      5  O   UNL     1     -11.998  73.917  27.896  1.00  0.00    -0.295 OA
BRANCH   4   6
ATOM      6  C   UNL     1     -11.867  72.552  29.822  1.00  0.00     0.091 CG0
ATOM      7  G   UNL     1     -11.118  72.942  31.116  1.00  0.00     0.000 G0
ENDBRANCH   4   6
ENDBRANCH   2   4
BRANCH   3   8
ATOM      8  C   UNL     1      -8.958  71.864  30.311  1.00  0.00    -0.003 C 
ATOM      9  C   UNL     1      -9.883  72.097  31.251  1.00  0.00    -0.020 C 
BRANCH   9  10
ATOM     10  C   UNL     1     -11.118  72.953  31.100  1.00  0.00    -0.010 CG0
ATOM     11  C   UNL     1     -10.674  74.428  30.976  1.00  0.00     0.016 C 
ATOM     12  C   UNL     1     -12.005  72.826  32.361  1.00  0.00     0.016 C 
ATOM     13  G   UNL     1     -11.866  72.566  29.804  1.00  0.00     0.000 G0
ENDBRANCH   9  10
ENDBRANCH   3   8
TORSDOF 0
ENDMDL
MODEL 4
REMARK VINA RESULT:    -4.034      1.364      2.147
REMARK INTER + INTRA:          -4.209
REMARK INTER:                  -5.261
REMARK INTRA:                   1.053
REMARK UNBOUND:                 0.769
REMARK SMILES CC1=CC=CC(C)(C)CC1=O
REMARK SMILES IDX 1 1 2 2 3 3 10 4 11 5 9 6 4 8 5 9 6 10 7 11 8 12
REMARK H PARENT
REMARK Flexibility Score: 80.00
ROOT
ATOM      1  C   UNL     1     -10.522  72.000  33.115  1.00  0.00     0.048 C 
ATOM      2  C   UNL     1     -10.181  72.458  31.716  1.00  0.00    -0.008 C 
ATOM      3  C   UNL     1      -9.382  71.661  30.975  1.00  0.00     0.007 C 
ENDROOT
BRANCH   2   4
ATOM      4  C   UNL     1     -10.692  73.786  31.296  1.00  0.00     0.159 C 
ATOM      5  O   UNL     1     -11.609  74.327  31.973  1.00  0.00    -0.295 OA
BRANCH   4   6
ATOM      6  C   UNL     1     -10.188  74.523  30.094  1.00  0.00     0.091 CG0
ATOM      7  G   UNL     1     -10.368  73.736  28.776  1.00  0.00     0.000 G0
ENDBRANCH   4   6
ENDBRANCH   2   4
BRANCH   3   8
ATOM      8  C   UNL     1      -8.860  71.850  29.600  1.00  0.00    -0.003 C 
ATOM      9  C   UNL     1      -9.249  72.724  28.663  1.00  0.00    -0.020 C 
BRANCH   9  10
ATOM     10  C   UNL     1     -10.364  73.734  28.785  1.00  0.00    -0.010 CG0
ATOM     11  C   UNL     1     -11.706  72.969  28.845  1.00  0.00     0.016 C 
ATOM     12  C   UNL     1     -10.391  74.645  27.536  1.00  0.00     0.016 C 
ATOM     13  G   UNL     1     -10.205  74.530  30.100  1.00  0.00     0.000 G0
ENDBRANCH   9  10
ENDBRANCH   3   8
TORSDOF 0
ENDMDL
MODEL 5
REMARK VINA RESULT:    -3.908      1.641      2.414
REMARK INTER + INTRA:          -4.053
REMARK INTER:                  -4.803
REMARK INTRA:                   0.750
REMARK UNBOUND:                 0.769
REMARK SMILES CC1=CC=CC(C)(C)CC1=O
REMARK SMILES IDX 1 1 2 2 3 3 10 4 11 5 9 6 4 8 5 9 6 10 7 11 8 12
REMARK H PARENT
REMARK Flexibility Score: 80.00
ROOT
ATOM      1  C   UNL     1     -11.452  73.199  34.066  1.00  0.00     0.048 C 
ATOM      2  C   UNL     1     -10.849  73.447  32.703  1.00  0.00    -0.008 C 
ATOM      3  C   UNL     1     -10.946  74.694  32.194  1.00  0.00     0.007 C 
ENDROOT
BRANCH   2   4
ATOM      4  C   UNL     1     -10.264  72.279  32.000  1.00  0.00     0.159 C 
ATOM      5  O   UNL     1     -10.464  71.125  32.468  1.00  0.00    -0.295 OA
BRANCH   4   6
ATOM      6  C   UNL     1      -9.429  72.393  30.762  1.00  0.00     0.091 CG0
ATOM      7  G   UNL     1     -10.165  73.083  29.592  1.00  0.00     0.000 G0
ENDBRANCH   4   6
ENDBRANCH   2   4
BRANCH   3   8
ATOM      8  C   UNL     1     -10.482  75.229  30.892  1.00  0.00    -0.003 C 
ATOM      9  C   UNL     1     -10.158  74.567  29.775  1.00  0.00    -0.020 C 
BRANCH   9  10
ATOM     10  C   UNL     1     -10.163  73.069  29.586  1.00  0.00    -0.010 CG0
ATOM     11  C   UNL     1      -9.380  72.739  28.295  1.00  0.00     0.016 C 
ATOM     12  C   UNL     1     -11.614  72.565  29.405  1.00  0.00     0.016 C 
ATOM     13  G   UNL     1      -9.441  72.391  30.773  1.00  0.00     0.000 G0
ENDBRANCH   9  10
ENDBRANCH   3   8
TORSDOF 0
ENDMDL
MODEL 6
REMARK VINA RESULT:    -3.717      1.837      3.491
REMARK INTER + INTRA:          -3.818
REMARK INTER:                  -4.574
REMARK INTRA:                   0.756
REMARK UNBOUND:                 0.769
REMARK SMILES CC1=CC=CC(C)(C)CC1=O
REMARK SMILES IDX 1 1 2 2 3 3 10 4 11 5 9 6 4 8 5 9 6 10 7 11 8 12
REMARK H PARENT
REMARK Flexibility Score: 80.00
ROOT
ATOM      1  C   UNL     1     -10.589  74.679  25.882  1.00  0.00     0.048 C 
ATOM      2  C   UNL     1     -10.729  73.904  27.172  1.00  0.00    -0.008 C 
ATOM      3  C   UNL     1     -11.949  73.869  27.750  1.00  0.00     0.007 C 
ENDROOT
BRANCH   2   4
ATOM      4  C   UNL     1      -9.495  73.305  27.738  1.00  0.00     0.159 C 
ATOM      5  O   UNL     1      -8.383  73.602  27.221  1.00  0.00    -0.295 OA
BRANCH   4   6
ATOM      6  C   UNL     1      -9.494  72.349  28.890  1.00  0.00     0.091 CG0
ATOM      7  G   UNL     1     -10.153  72.928  30.162  1.00  0.00     0.000 G0
ENDBRANCH   4   6
ENDBRANCH   2   4
BRANCH   3   8
ATOM      8  C   UNL     1     -12.385  73.223  29.011  1.00  0.00    -0.003 C 
ATOM      9  C   UNL     1     -11.647  72.822  30.053  1.00  0.00    -0.020 C 
BRANCH   9  10
ATOM     10  C   UNL     1     -10.145  72.912  30.176  1.00  0.00    -0.010 CG0
ATOM     11  C   UNL     1      -9.701  72.029  31.365  1.00  0.00     0.016 C 
ATOM     12  C   UNL     1      -9.727  74.369  30.483  1.00  0.00     0.016 C 
ATOM     13  G   UNL     1      -9.482  72.360  28.894  1.00  0.00     0.000 G0
ENDBRANCH   9  10
ENDBRANCH   3   8
TORSDOF 0
ENDMDL
MODEL 7
REMARK VINA RESULT:    -3.514      1.555      3.081
REMARK INTER + INTRA:          -3.567
REMARK INTER:                  -4.641
REMARK INTRA:                   1.074
REMARK UNBOUND:                 0.769
REMARK SMILES CC1=CC=CC(C)(C)CC1=O
REMARK SMILES IDX 1 1 2 2 3 3 10 4 11 5 9 6 4 8 5 9 6 10 7 11 8 12
REMARK H PARENT
REMARK Flexibility Score: 80.00
ROOT
ATOM      1  C   UNL     1      -9.924  74.827  27.437  1.00  0.00     0.048 C 
ATOM      2  C   UNL     1     -10.509  74.025  28.576  1.00  0.00    -0.008 C 
ATOM      3  C   UNL     1     -11.265  72.952  28.261  1.00  0.00     0.007 C 
ENDROOT
BRANCH   2   4
ATOM      4  C   UNL     1     -10.266  74.529  29.951  1.00  0.00     0.159 C 
ATOM      5  O   UNL     1      -9.350  75.376  30.135  1.00  0.00    -0.295 OA
BRANCH   4   6
ATOM      6  C   UNL     1     -11.045  74.074  31.147  1.00  0.00     0.091 CG0
ATOM      7  G   UNL     1     -10.923  72.556  31.411  1.00  0.00     0.000 G0
ENDBRANCH   4   6
ENDBRANCH   2   4
BRANCH   3   8
ATOM      8  C   UNL     1     -11.982  72.002  29.145  1.00  0.00    -0.003 C 
ATOM      9  C   UNL     1     -11.866  71.827  30.467  1.00  0.00    -0.020 C 
BRANCH   9  10
ATOM     10  C   UNL     1     -10.925  72.563  31.391  1.00  0.00    -0.010 CG0
ATOM     11  C   UNL     1      -9.479  72.135  31.052  1.00  0.00     0.016 C 
ATOM     12  C   UNL     1     -11.209  72.167  32.858  1.00  0.00     0.016 C 
ATOM     13  G   UNL     1     -11.045  74.085  31.151  1.00  0.00     0.000 G0
ENDBRANCH   9  10
ENDBRANCH   3   8
TORSDOF 0
ENDMDL
MODEL 8
REMARK VINA RESULT:    -3.437      1.690      2.516
REMARK INTER + INTRA:          -3.472
REMARK INTER:                  -4.220
REMARK INTRA:                   0.748
REMARK UNBOUND:                 0.769
REMARK SMILES CC1=CC=CC(C)(C)CC1=O
REMARK SMILES IDX 1 1 2 2 3 3 10 4 11 5 9 6 4 8 5 9 6 10 7 11 8 12
REMARK H PARENT
REMARK Flexibility Score: 80.00
ROOT
ATOM      1  C   UNL     1     -12.036  72.749  32.066  1.00  0.00     0.048 C 
ATOM      2  C   UNL     1     -11.094  73.130  30.948  1.00  0.00    -0.008 C 
ATOM      3  C   UNL     1     -10.586  74.381  30.958  1.00  0.00     0.007 C 
ENDROOT
BRANCH   2   4
ATOM      4  C   UNL     1     -10.864  72.120  29.885  1.00  0.00     0.159 C 
ATOM      5  O   UNL     1     -11.601  71.097  29.848  1.00  0.00    -0.295 OA
BRANCH   4   6
ATOM      6  C   UNL     1      -9.786  72.239  28.852  1.00  0.00     0.091 CG0
ATOM      7  G   UNL     1      -9.905  73.518  27.992  1.00  0.00     0.000 G0
ENDBRANCH   4   6
ENDBRANCH   2   4
BRANCH   3   8
ATOM      8  C   UNL     1      -9.672  75.044  29.997  1.00  0.00    -0.003 C 
ATOM      9  C   UNL     1      -9.381  74.702  28.735  1.00  0.00    -0.020 C 
BRANCH   9  10
ATOM     10  C   UNL     1      -9.915  73.506  27.984  1.00  0.00    -0.010 CG0
ATOM     11  C   UNL     1      -9.040  73.293  26.727  1.00  0.00     0.016 C 
ATOM     12  C   UNL     1     -11.363  73.779  27.516  1.00  0.00     0.016 C 
ATOM     13  G   UNL     1      -9.802  72.243  28.867  1.00  0.00     0.000 G0
ENDBRANCH   9  10
ENDBRANCH   3   8
TORSDOF 0
ENDMDL
MODEL 9
REMARK VINA RESULT:    -3.128      6.244      7.654
REMARK INTER + INTRA:          -3.091
REMARK INTER:                  -3.850
REMARK INTRA:                   0.760
REMARK UNBOUND:                 0.769
REMARK SMILES CC1=CC=CC(C)(C)CC1=O
REMARK SMILES IDX 1 1 2 2 3 3 10 4 11 5 9 6 4 8 5 9 6 10 7 11 8 12
REMARK H PARENT
REMARK Flexibility Score: 80.00
ROOT
ATOM      1  C   UNL     1      -9.024  73.878  22.385  1.00  0.00     0.048 C 
ATOM      2  C   UNL     1      -7.830  73.198  23.015  1.00  0.00    -0.008 C 
ATOM      3  C   UNL     1      -6.644  73.304  22.380  1.00  0.00     0.007 C 
ENDROOT
BRANCH   2   4
ATOM      4  C   UNL     1      -8.076  72.405  24.245  1.00  0.00     0.159 C 
ATOM      5  O   UNL     1      -9.267  72.189  24.601  1.00  0.00    -0.295 OA
BRANCH   4   6
ATOM      6  C   UNL     1      -6.981  71.852  25.104  1.00  0.00     0.091 CG0
ATOM      7  G   UNL     1      -6.026  70.907  24.340  1.00  0.00     0.000 G0
ENDBRANCH   4   6
ENDBRANCH   2   4
BRANCH   3   8
ATOM      8  C   UNL     1      -5.322  72.734  22.733  1.00  0.00    -0.003 C 
ATOM      9  C   UNL     1      -5.034  71.715  23.553  1.00  0.00    -0.020 C 
BRANCH   9  10
ATOM     10  C   UNL     1      -6.021  70.902  24.355  1.00  0.00    -0.010 CG0
ATOM     11  C   UNL     1      -5.237  70.091  25.411  1.00  0.00     0.016 C 
ATOM     12  C   UNL     1      -6.753  69.900  23.432  1.00  0.00     0.016 C 
ATOM     13  G   UNL     1      -6.992  71.847  25.098  1.00  0.00     0.000 G0
ENDBRANCH   9  10
ENDBRANCH   3   8
TORSDOF 0
ENDMDL
