MODEL 1
REMARK VINA RESULT:    -4.564      0.000      0.000
REMARK INTER + INTRA:          -4.831
REMARK INTER:                  -4.831
REMARK INTRA:                   0.000
REMARK UNBOUND:                 0.000
REMARK SMILES O=c1ccc2cc(O)c(O)cc2o1
REMARK SMILES IDX 4 1 3 2 2 3 1 4 13 5 12 6 11 7 9 8 7 9 6 10 5 11 8 12 10 14
REMARK H PARENT 8 13 10 15
REMARK Flexibility Score: inf
ROOT
ATOM      1  C   UNL     1       7.298 -17.538   8.727  1.00  0.00     0.019 A 
ATOM      2  C   UNL     1       6.092 -18.236   8.777  1.00  0.00     0.094 A 
ATOM      3  C   UNL     1       6.001 -19.477   8.138  1.00  0.00     0.336 A 
ATOM      4  O   UNL     1       4.920 -20.123   8.171  1.00  0.00    -0.246 OA
ATOM      5  O   UNL     1       7.050 -19.982   7.493  1.00  0.00    -0.423 OA
ATOM      6  C   UNL     1       8.218 -19.348   7.423  1.00  0.00     0.142 A 
ATOM      7  C   UNL     1       9.286 -19.928   6.731  1.00  0.00     0.098 A 
ATOM      8  C   UNL     1      10.520 -19.265   6.653  1.00  0.00     0.161 A 
ATOM      9  C   UNL     1      10.685 -18.016   7.270  1.00  0.00     0.158 A 
ATOM     10  C   UNL     1       9.617 -17.430   7.965  1.00  0.00     0.062 A 
ATOM     11  C   UNL     1       8.384 -18.092   8.043  1.00  0.00     0.022 A 
ENDROOT
BRANCH   9  12
ATOM     12  O   UNL     1      11.915 -17.364   7.187  1.00  0.00    -0.504 OA
ATOM     13  H   UNL     1      11.999 -16.445   6.767  1.00  0.00     0.293 HD
ENDBRANCH   9  12
BRANCH   8  14
ATOM     14  O   UNL     1      11.586 -19.840   5.965  1.00  0.00    -0.504 OA
ATOM     15  H   UNL     1      11.687 -19.737   4.961  1.00  0.00     0.293 HD
ENDBRANCH   8  14
TORSDOF 2
ENDMDL
MODEL 2
REMARK VINA RESULT:    -4.262      1.972      3.115
REMARK INTER + INTRA:          -4.511
REMARK INTER:                  -4.511
REMARK INTRA:                   0.000
REMARK UNBOUND:                 0.000
REMARK SMILES O=c1ccc2cc(O)c(O)cc2o1
REMARK SMILES IDX 4 1 3 2 2 3 1 4 13 5 12 6 11 7 9 8 7 9 6 10 5 11 8 12 10 14
REMARK H PARENT 8 13 10 15
REMARK Flexibility Score: inf
ROOT
ATOM      1  C   UNL     1       9.913 -19.915   8.893  1.00  0.00     0.019 A 
ATOM      2  C   UNL     1       8.677 -20.125   8.281  1.00  0.00     0.094 A 
ATOM      3  C   UNL     1       8.221 -19.196   7.339  1.00  0.00     0.336 A 
ATOM      4  O   UNL     1       7.108 -19.367   6.777  1.00  0.00    -0.246 OA
ATOM      5  O   UNL     1       8.957 -18.130   7.033  1.00  0.00    -0.423 OA
ATOM      6  C   UNL     1      10.141 -17.894   7.592  1.00  0.00     0.142 A 
ATOM      7  C   UNL     1      10.870 -16.757   7.231  1.00  0.00     0.098 A 
ATOM      8  C   UNL     1      12.119 -16.503   7.817  1.00  0.00     0.161 A 
ATOM      9  C   UNL     1      12.641 -17.391   8.770  1.00  0.00     0.158 A 
ATOM     10  C   UNL     1      11.913 -18.533   9.137  1.00  0.00     0.062 A 
ATOM     11  C   UNL     1      10.665 -18.788   8.551  1.00  0.00     0.022 A 
ENDROOT
BRANCH   9  12
ATOM     12  O   UNL     1      13.882 -17.130   9.348  1.00  0.00    -0.504 OA
ATOM     13  H   UNL     1      14.071 -16.254   9.823  1.00  0.00     0.293 HD
ENDBRANCH   9  12
BRANCH   8  14
ATOM     14  O   UNL     1      12.848 -15.371   7.459  1.00  0.00    -0.504 OA
ATOM     15  H   UNL     1      13.133 -15.205   6.500  1.00  0.00     0.293 HD
ENDBRANCH   8  14
TORSDOF 2
ENDMDL
MODEL 3
REMARK VINA RESULT:    -4.210      2.354      5.409
REMARK INTER + INTRA:          -4.457
REMARK INTER:                  -4.457
REMARK INTRA:                   0.000
REMARK UNBOUND:                 0.000
REMARK SMILES O=c1ccc2cc(O)c(O)cc2o1
REMARK SMILES IDX 4 1 3 2 2 3 1 4 13 5 12 6 11 7 9 8 7 9 6 10 5 11 8 12 10 14
REMARK H PARENT 8 13 10 15
REMARK Flexibility Score: inf
ROOT
ATOM      1  C   UNL     1      12.595 -17.788   9.352  1.00  0.00     0.019 A 
ATOM      2  C   UNL     1      13.513 -16.805   8.984  1.00  0.00     0.094 A 
ATOM      3  C   UNL     1      13.219 -15.978   7.894  1.00  0.00     0.336 A 
ATOM      4  O   UNL     1      14.036 -15.085   7.546  1.00  0.00    -0.246 OA
ATOM      5  O   UNL     1      12.081 -16.128   7.222  1.00  0.00    -0.423 OA
ATOM      6  C   UNL     1      11.178 -17.052   7.541  1.00  0.00     0.142 A 
ATOM      7  C   UNL     1       9.999 -17.163   6.798  1.00  0.00     0.098 A 
ATOM      8  C   UNL     1       9.044 -18.135   7.130  1.00  0.00     0.161 A 
ATOM      9  C   UNL     1       9.270 -19.001   8.211  1.00  0.00     0.158 A 
ATOM     10  C   UNL     1      10.452 -18.894   8.960  1.00  0.00     0.062 A 
ATOM     11  C   UNL     1      11.407 -17.923   8.628  1.00  0.00     0.022 A 
ENDROOT
BRANCH   9  12
ATOM     12  O   UNL     1       8.316 -19.965   8.533  1.00  0.00    -0.504 OA
ATOM     13  H   UNL     1       8.162 -20.257   9.491  1.00  0.00     0.293 HD
ENDBRANCH   9  12
BRANCH   8  14
ATOM     14  O   UNL     1       7.868 -18.248   6.392  1.00  0.00    -0.504 OA
ATOM     15  H   UNL     1       7.013 -17.785   6.682  1.00  0.00     0.293 HD
ENDBRANCH   8  14
TORSDOF 2
ENDMDL
MODEL 4
REMARK VINA RESULT:    -3.924      1.154      2.261
REMARK INTER + INTRA:          -4.153
REMARK INTER:                  -4.153
REMARK INTRA:                   0.000
REMARK UNBOUND:                 0.000
REMARK SMILES O=c1ccc2cc(O)c(O)cc2o1
REMARK SMILES IDX 4 1 3 2 2 3 1 4 13 5 12 6 11 7 9 8 7 9 6 10 5 11 8 12 10 14
REMARK H PARENT 8 13 10 15
REMARK Flexibility Score: inf
ROOT
ATOM      1  C   UNL     1       7.589 -20.125   7.162  1.00  0.00     0.019 A 
ATOM      2  C   UNL     1       6.353 -19.884   7.763  1.00  0.00     0.094 A 
ATOM      3  C   UNL     1       6.186 -18.723   8.526  1.00  0.00     0.336 A 
ATOM      4  O   UNL     1       5.079 -18.488   9.077  1.00  0.00    -0.246 OA
ATOM      5  O   UNL     1       7.192 -17.864   8.675  1.00  0.00    -0.423 OA
ATOM      6  C   UNL     1       8.385 -18.056   8.118  1.00  0.00     0.142 A 
ATOM      7  C   UNL     1       9.405 -17.119   8.309  1.00  0.00     0.098 A 
ATOM      8  C   UNL     1      10.664 -17.316   7.725  1.00  0.00     0.161 A 
ATOM      9  C   UNL     1      10.905 -18.457   6.945  1.00  0.00     0.158 A 
ATOM     10  C   UNL     1       9.886 -19.401   6.751  1.00  0.00     0.062 A 
ATOM     11  C   UNL     1       8.627 -19.205   7.335  1.00  0.00     0.022 A 
ENDROOT
BRANCH   9  12
ATOM     12  O   UNL     1      12.160 -18.646   6.369  1.00  0.00    -0.504 OA
ATOM     13  H   UNL     1      12.815 -19.326   6.737  1.00  0.00     0.293 HD
ENDBRANCH   9  12
BRANCH   8  14
ATOM     14  O   UNL     1      11.682 -16.383   7.913  1.00  0.00    -0.504 OA
ATOM     15  H   UNL     1      12.640 -16.581   7.643  1.00  0.00     0.293 HD
ENDBRANCH   8  14
TORSDOF 2
ENDMDL
MODEL 5
REMARK VINA RESULT:    -3.875      2.078      2.691
REMARK INTER + INTRA:          -4.101
REMARK INTER:                  -4.101
REMARK INTRA:                   0.000
REMARK UNBOUND:                 0.000
REMARK SMILES O=c1ccc2cc(O)c(O)cc2o1
REMARK SMILES IDX 4 1 3 2 2 3 1 4 13 5 12 6 11 7 9 8 7 9 6 10 5 11 8 12 10 14
REMARK H PARENT 8 13 10 15
REMARK Flexibility Score: inf
ROOT
ATOM      1  C   UNL     1       5.511 -20.067   7.631  1.00  0.00     0.019 A 
ATOM      2  C   UNL     1       5.075 -20.081   8.956  1.00  0.00     0.094 A 
ATOM      3  C   UNL     1       6.026 -20.109   9.982  1.00  0.00     0.336 A 
ATOM      4  O   UNL     1       5.653 -20.123  11.184  1.00  0.00    -0.246 OA
ATOM      5  O   UNL     1       7.326 -20.123   9.696  1.00  0.00    -0.423 OA
ATOM      6  C   UNL     1       7.783 -20.109   8.446  1.00  0.00     0.142 A 
ATOM      7  C   UNL     1       9.161 -20.124   8.206  1.00  0.00     0.098 A 
ATOM      8  C   UNL     1       9.649 -20.110   6.891  1.00  0.00     0.161 A 
ATOM      9  C   UNL     1       8.754 -20.082   5.811  1.00  0.00     0.158 A 
ATOM     10  C   UNL     1       7.371 -20.067   6.046  1.00  0.00     0.062 A 
ATOM     11  C   UNL     1       6.883 -20.081   7.360  1.00  0.00     0.022 A 
ENDROOT
BRANCH   9  12
ATOM     12  O   UNL     1       9.248 -20.069   4.508  1.00  0.00    -0.504 OA
ATOM     13  H   UNL     1       9.735 -19.263   4.134  1.00  0.00     0.293 HD
ENDBRANCH   9  12
BRANCH   8  14
ATOM     14  O   UNL     1      11.021 -20.125   6.649  1.00  0.00    -0.504 OA
ATOM     15  H   UNL     1      11.491 -19.338   6.216  1.00  0.00     0.293 HD
ENDBRANCH   8  14
TORSDOF 2
ENDMDL
MODEL 6
REMARK VINA RESULT:    -3.864      2.338      5.165
REMARK INTER + INTRA:          -4.090
REMARK INTER:                  -4.090
REMARK INTRA:                   0.000
REMARK UNBOUND:                 0.000
REMARK SMILES O=c1ccc2cc(O)c(O)cc2o1
REMARK SMILES IDX 4 1 3 2 2 3 1 4 13 5 12 6 11 7 9 8 7 9 6 10 5 11 8 12 10 14
REMARK H PARENT 8 13 10 15
REMARK Flexibility Score: inf
ROOT
ATOM      1  C   UNL     1      12.077 -16.200   7.436  1.00  0.00     0.019 A 
ATOM      2  C   UNL     1      13.207 -16.217   8.253  1.00  0.00     0.094 A 
ATOM      3  C   UNL     1      13.318 -17.210   9.233  1.00  0.00     0.336 A 
ATOM      4  O   UNL     1      14.330 -17.242   9.981  1.00  0.00    -0.246 OA
ATOM      5  O   UNL     1      12.360 -18.121   9.381  1.00  0.00    -0.423 OA
ATOM      6  C   UNL     1      11.267 -18.140   8.622  1.00  0.00     0.142 A 
ATOM      7  C   UNL     1      10.293 -19.122   8.824  1.00  0.00     0.098 A 
ATOM      8  C   UNL     1       9.139 -19.147   8.027  1.00  0.00     0.161 A 
ATOM      9  C   UNL     1       8.959 -18.183   7.024  1.00  0.00     0.158 A 
ATOM     10  C   UNL     1       9.932 -17.195   6.817  1.00  0.00     0.062 A 
ATOM     11  C   UNL     1      11.086 -17.170   7.613  1.00  0.00     0.022 A 
ENDROOT
BRANCH   9  12
ATOM     12  O   UNL     1       7.808 -18.215   6.237  1.00  0.00    -0.504 OA
ATOM     13  H   UNL     1       7.038 -18.839   6.450  1.00  0.00     0.293 HD
ENDBRANCH   9  12
BRANCH   8  14
ATOM     14  O   UNL     1       8.166 -20.125   8.226  1.00  0.00    -0.504 OA
ATOM     15  H   UNL     1       8.383 -21.112   8.145  1.00  0.00     0.293 HD
ENDBRANCH   8  14
TORSDOF 2
ENDMDL
MODEL 7
REMARK VINA RESULT:    -3.266      1.114      4.491
REMARK INTER + INTRA:          -3.457
REMARK INTER:                  -3.457
REMARK INTRA:                   0.000
REMARK UNBOUND:                 0.000
REMARK SMILES O=c1ccc2cc(O)c(O)cc2o1
REMARK SMILES IDX 4 1 3 2 2 3 1 4 13 5 12 6 11 7 9 8 7 9 6 10 5 11 8 12 10 14
REMARK H PARENT 8 13 10 15
REMARK Flexibility Score: inf
ROOT
ATOM      1  C   UNL     1      10.167 -17.553   7.825  1.00  0.00     0.019 A 
ATOM      2  C   UNL     1      11.245 -18.225   7.249  1.00  0.00     0.094 A 
ATOM      3  C   UNL     1      11.040 -19.502   6.715  1.00  0.00     0.336 A 
ATOM      4  O   UNL     1      12.000 -20.125   6.191  1.00  0.00    -0.246 OA
ATOM      5  O   UNL     1       9.835 -20.065   6.758  1.00  0.00    -0.423 OA
ATOM      6  C   UNL     1       8.781 -19.458   7.298  1.00  0.00     0.142 A 
ATOM      7  C   UNL     1       7.538 -20.099   7.315  1.00  0.00     0.098 A 
ATOM      8  C   UNL     1       6.424 -19.464   7.882  1.00  0.00     0.161 A 
ATOM      9  C   UNL     1       6.554 -18.181   8.437  1.00  0.00     0.158 A 
ATOM     10  C   UNL     1       7.798 -17.534   8.423  1.00  0.00     0.062 A 
ATOM     11  C   UNL     1       8.912 -18.168   7.856  1.00  0.00     0.022 A 
ENDROOT
BRANCH   9  12
ATOM     12  O   UNL     1       5.441 -17.558   9.000  1.00  0.00    -0.504 OA
ATOM     13  H   UNL     1       5.487 -16.608   9.350  1.00  0.00     0.293 HD
ENDBRANCH   9  12
BRANCH   8  14
ATOM     14  O   UNL     1       5.184 -20.099   7.900  1.00  0.00    -0.504 OA
ATOM     15  H   UNL     1       4.925 -20.777   7.192  1.00  0.00     0.293 HD
ENDBRANCH   8  14
TORSDOF 2
ENDMDL
MODEL 8
REMARK VINA RESULT:    -3.171      1.350      5.040
REMARK INTER + INTRA:          -3.356
REMARK INTER:                  -3.356
REMARK INTRA:                   0.000
REMARK UNBOUND:                 0.000
REMARK SMILES O=c1ccc2cc(O)c(O)cc2o1
REMARK SMILES IDX 4 1 3 2 2 3 1 4 13 5 12 6 11 7 9 8 7 9 6 10 5 11 8 12 10 14
REMARK H PARENT 8 13 10 15
REMARK Flexibility Score: inf
ROOT
ATOM      1  C   UNL     1      10.424 -19.526   6.975  1.00  0.00     0.019 A 
ATOM      2  C   UNL     1      11.557 -18.728   7.130  1.00  0.00     0.094 A 
ATOM      3  C   UNL     1      11.434 -17.498   7.785  1.00  0.00     0.336 A 
ATOM      4  O   UNL     1      12.445 -16.762   7.935  1.00  0.00    -0.246 OA
ATOM      5  O   UNL     1      10.254 -17.098   8.252  1.00  0.00    -0.423 OA
ATOM      6  C   UNL     1       9.150 -17.830   8.126  1.00  0.00     0.142 A 
ATOM      7  C   UNL     1       7.937 -17.358   8.637  1.00  0.00     0.098 A 
ATOM      8  C   UNL     1       6.769 -18.125   8.506  1.00  0.00     0.161 A 
ATOM      9  C   UNL     1       6.816 -19.370   7.861  1.00  0.00     0.158 A 
ATOM     10  C   UNL     1       8.030 -19.848   7.346  1.00  0.00     0.062 A 
ATOM     11  C   UNL     1       9.197 -19.082   7.476  1.00  0.00     0.022 A 
ENDROOT
BRANCH   9  12
ATOM     12  O   UNL     1       5.651 -20.125   7.735  1.00  0.00    -0.504 OA
ATOM     13  H   UNL     1       5.588 -21.066   8.106  1.00  0.00     0.293 HD
ENDBRANCH   9  12
BRANCH   8  14
ATOM     14  O   UNL     1       5.559 -17.658   9.014  1.00  0.00    -0.504 OA
ATOM     15  H   UNL     1       4.943 -17.071   8.462  1.00  0.00     0.293 HD
ENDBRANCH   8  14
TORSDOF 2
ENDMDL
