MODEL 1
REMARK VINA RESULT:    -4.548      0.000      0.000
REMARK INTER + INTRA:          -6.433
REMARK INTER:                  -5.877
REMARK INTRA:                  -0.556
REMARK UNBOUND:                -0.556
REMARK SMILES C=CC(=O)CCCCC
REMARK SMILES IDX 6 1 7 2 8 3 9 4 5 5 3 6 4 7 2 8 1 9
REMARK H PARENT
REMARK Flexibility Score: inf
ROOT
ATOM      1  C   UNL     1     -10.845   3.991 -17.728  1.00  0.00     0.008 C 
ENDROOT
BRANCH   1   2
ATOM      2  C   UNL     1      -9.520   3.650 -17.038  1.00  0.00     0.000 C 
BRANCH   2   3
ATOM      3  C   UNL     1      -8.348   3.742 -18.023  1.00  0.00    -0.003 C 
ATOM      4  C   UNL     1      -7.851   2.355 -18.418  1.00  0.00     0.004 C 
ENDBRANCH   2   3
ENDBRANCH   1   2
BRANCH   1   5
ATOM      5  C   UNL     1     -11.914   2.937 -17.419  1.00  0.00     0.080 C 
BRANCH   5   6
ATOM      6  C   UNL     1     -11.554   1.623 -18.045  1.00  0.00     0.155 C 
ATOM      7  O   UNL     1     -11.444   0.600 -17.314  1.00  0.00    -0.295 OA
BRANCH   6   8
ATOM      8  C   UNL     1     -11.286   1.542 -19.494  1.00  0.00     0.039 C 
ATOM      9  C   UNL     1     -10.690   0.491 -20.054  1.00  0.00     0.012 C 
ENDBRANCH   6   8
ENDBRANCH   5   6
ENDBRANCH   1   5
TORSDOF 5
ENDMDL
MODEL 2
REMARK VINA RESULT:    -4.456      1.660      2.596
REMARK INTER + INTRA:          -6.314
REMARK INTER:                  -5.734
REMARK INTRA:                  -0.580
REMARK UNBOUND:                -0.556
REMARK SMILES C=CC(=O)CCCCC
REMARK SMILES IDX 6 1 7 2 8 3 9 4 5 5 3 6 4 7 2 8 1 9
REMARK H PARENT
REMARK Flexibility Score: inf
ROOT
ATOM      1  C   UNL     1      -9.073   4.185 -17.468  1.00  0.00     0.008 C 
ENDROOT
BRANCH   1   2
ATOM      2  C   UNL     1      -8.305   2.888 -17.748  1.00  0.00     0.000 C 
BRANCH   2   3
ATOM      3  C   UNL     1      -8.350   2.535 -19.240  1.00  0.00    -0.003 C 
ATOM      4  C   UNL     1      -9.330   1.396 -19.507  1.00  0.00     0.004 C 
ENDBRANCH   2   3
ENDBRANCH   1   2
BRANCH   1   5
ATOM      5  C   UNL     1     -10.428   3.891 -16.816  1.00  0.00     0.080 C 
BRANCH   5   6
ATOM      6  C   UNL     1     -11.533   3.994 -17.825  1.00  0.00     0.155 C 
ATOM      7  O   UNL     1     -12.496   3.181 -17.773  1.00  0.00    -0.295 OA
BRANCH   6   8
ATOM      8  C   UNL     1     -11.464   5.009 -18.895  1.00  0.00     0.039 C 
ATOM      9  C   UNL     1     -11.383   4.685 -20.184  1.00  0.00     0.012 C 
ENDBRANCH   6   8
ENDBRANCH   5   6
ENDBRANCH   1   5
TORSDOF 5
ENDMDL
MODEL 3
REMARK VINA RESULT:    -4.413      1.546      2.702
REMARK INTER + INTRA:          -6.259
REMARK INTER:                  -5.705
REMARK INTRA:                  -0.553
REMARK UNBOUND:                -0.556
REMARK SMILES C=CC(=O)CCCCC
REMARK SMILES IDX 6 1 7 2 8 3 9 4 5 5 3 6 4 7 2 8 1 9
REMARK H PARENT
REMARK Flexibility Score: inf
ROOT
ATOM      1  C   UNL     1      -8.529   2.631 -19.161  1.00  0.00     0.008 C 
ENDROOT
BRANCH   1   2
ATOM      2  C   UNL     1      -8.351   3.111 -17.716  1.00  0.00     0.000 C 
BRANCH   2   3
ATOM      3  C   UNL     1      -9.383   4.189 -17.365  1.00  0.00    -0.003 C 
ATOM      4  C   UNL     1      -9.960   4.830 -18.624  1.00  0.00     0.004 C 
ENDBRANCH   2   3
ENDBRANCH   1   2
BRANCH   1   5
ATOM      5  C   UNL     1      -8.702   1.109 -19.217  1.00  0.00     0.080 C 
BRANCH   5   6
ATOM      6  C   UNL     1     -10.062   0.752 -19.738  1.00  0.00     0.155 C 
ATOM      7  O   UNL     1     -10.168  -0.115 -20.648  1.00  0.00    -0.295 OA
BRANCH   6   8
ATOM      8  C   UNL     1     -11.258   1.447 -19.220  1.00  0.00     0.039 C 
ATOM      9  C   UNL     1     -11.711   1.262 -17.982  1.00  0.00     0.012 C 
ENDBRANCH   6   8
ENDBRANCH   5   6
ENDBRANCH   1   5
TORSDOF 5
ENDMDL
MODEL 4
REMARK VINA RESULT:    -4.383      1.828      3.483
REMARK INTER + INTRA:          -6.219
REMARK INTER:                  -5.661
REMARK INTRA:                  -0.558
REMARK UNBOUND:                -0.556
REMARK SMILES C=CC(=O)CCCCC
REMARK SMILES IDX 6 1 7 2 8 3 9 4 5 5 3 6 4 7 2 8 1 9
REMARK H PARENT
REMARK Flexibility Score: inf
ROOT
ATOM      1  C   UNL     1     -11.863   3.026 -17.749  1.00  0.00     0.008 C 
ENDROOT
BRANCH   1   2
ATOM      2  C   UNL     1     -11.471   1.584 -18.088  1.00  0.00     0.000 C 
BRANCH   2   3
ATOM      3  C   UNL     1     -11.320   1.398 -19.603  1.00  0.00    -0.003 C 
ATOM      4  C   UNL     1     -10.095   0.550 -19.934  1.00  0.00     0.004 C 
ENDBRANCH   2   3
ENDBRANCH   1   2
BRANCH   1   5
ATOM      5  C   UNL     1     -10.670   3.801 -17.180  1.00  0.00     0.080 C 
BRANCH   5   6
ATOM      6  C   UNL     1      -9.879   4.437 -18.284  1.00  0.00     0.155 C 
ATOM      7  O   UNL     1     -10.376   5.406 -18.921  1.00  0.00    -0.295 OA
BRANCH   6   8
ATOM      8  C   UNL     1      -8.553   3.900 -18.647  1.00  0.00     0.039 C 
ATOM      9  C   UNL     1      -8.007   2.860 -18.021  1.00  0.00     0.012 C 
ENDBRANCH   6   8
ENDBRANCH   5   6
ENDBRANCH   1   5
TORSDOF 5
ENDMDL
MODEL 5
REMARK VINA RESULT:    -4.342      2.537      2.958
REMARK INTER + INTRA:          -6.166
REMARK INTER:                  -5.770
REMARK INTRA:                  -0.396
REMARK UNBOUND:                -0.556
REMARK SMILES C=CC(=O)CCCCC
REMARK SMILES IDX 6 1 7 2 8 3 9 4 5 5 3 6 4 7 2 8 1 9
REMARK H PARENT
REMARK Flexibility Score: inf
ROOT
ATOM      1  C   UNL     1     -10.760   3.116 -17.622  1.00  0.00     0.008 C 
ENDROOT
BRANCH   1   2
ATOM      2  C   UNL     1      -9.464   3.488 -16.893  1.00  0.00     0.000 C 
BRANCH   2   3
ATOM      3  C   UNL     1      -8.283   3.551 -17.869  1.00  0.00    -0.003 C 
ATOM      4  C   UNL     1      -8.209   2.290 -18.726  1.00  0.00     0.004 C 
ENDBRANCH   2   3
ENDBRANCH   1   2
BRANCH   1   5
ATOM      5  C   UNL     1     -11.813   4.218 -17.467  1.00  0.00     0.080 C 
BRANCH   5   6
ATOM      6  C   UNL     1     -11.945   5.005 -18.736  1.00  0.00     0.155 C 
ATOM      7  O   UNL     1     -12.622   6.070 -18.737  1.00  0.00    -0.295 OA
BRANCH   6   8
ATOM      8  C   UNL     1     -11.326   4.509 -19.981  1.00  0.00     0.039 C 
ATOM      9  C   UNL     1     -11.769   4.857 -21.188  1.00  0.00     0.012 C 
ENDBRANCH   6   8
ENDBRANCH   5   6
ENDBRANCH   1   5
TORSDOF 5
ENDMDL
MODEL 6
REMARK VINA RESULT:    -4.273      1.413      1.594
REMARK INTER + INTRA:          -6.077
REMARK INTER:                  -5.844
REMARK INTRA:                  -0.234
REMARK UNBOUND:                -0.556
REMARK SMILES C=CC(=O)CCCCC
REMARK SMILES IDX 6 1 7 2 8 3 9 4 5 5 3 6 4 7 2 8 1 9
REMARK H PARENT
REMARK Flexibility Score: inf
ROOT
ATOM      1  C   UNL     1     -10.771   2.443 -18.517  1.00  0.00     0.008 C 
ENDROOT
BRANCH   1   2
ATOM      2  C   UNL     1     -10.045   3.303 -17.476  1.00  0.00     0.000 C 
BRANCH   2   3
ATOM      3  C   UNL     1      -8.524   3.195 -17.638  1.00  0.00    -0.003 C 
ATOM      4  C   UNL     1      -8.158   2.249 -18.778  1.00  0.00     0.004 C 
ENDBRANCH   2   3
ENDBRANCH   1   2
BRANCH   1   5
ATOM      5  C   UNL     1     -11.726   1.452 -17.844  1.00  0.00     0.080 C 
BRANCH   5   6
ATOM      6  C   UNL     1     -11.662   0.115 -18.520  1.00  0.00     0.155 C 
ATOM      7  O   UNL     1     -11.203  -0.876 -17.889  1.00  0.00    -0.295 OA
BRANCH   6   8
ATOM      8  C   UNL     1     -12.090  -0.023 -19.926  1.00  0.00     0.039 C 
ATOM      9  C   UNL     1     -13.256  -0.566 -20.269  1.00  0.00     0.012 C 
ENDBRANCH   6   8
ENDBRANCH   5   6
ENDBRANCH   1   5
TORSDOF 5
ENDMDL
MODEL 7
REMARK VINA RESULT:    -3.992      2.052      3.704
REMARK INTER + INTRA:          -5.714
REMARK INTER:                  -5.118
REMARK INTRA:                  -0.596
REMARK UNBOUND:                -0.556
REMARK SMILES C=CC(=O)CCCCC
REMARK SMILES IDX 6 1 7 2 8 3 9 4 5 5 3 6 4 7 2 8 1 9
REMARK H PARENT
REMARK Flexibility Score: inf
ROOT
ATOM      1  C   UNL     1      -8.351   2.928 -19.238  1.00  0.00     0.008 C 
ENDROOT
BRANCH   1   2
ATOM      2  C   UNL     1      -8.820   1.513 -18.882  1.00  0.00     0.000 C 
BRANCH   2   3
ATOM      3  C   UNL     1      -9.648   0.906 -20.021  1.00  0.00    -0.003 C 
ATOM      4  C   UNL     1     -11.109   0.738 -19.611  1.00  0.00     0.004 C 
ENDBRANCH   2   3
ENDBRANCH   1   2
BRANCH   1   5
ATOM      5  C   UNL     1      -8.980   3.967 -18.304  1.00  0.00     0.080 C 
BRANCH   5   6
ATOM      6  C   UNL     1     -10.274   4.471 -18.872  1.00  0.00     0.155 C 
ATOM      7  O   UNL     1     -10.271   5.067 -19.984  1.00  0.00    -0.295 OA
BRANCH   6   8
ATOM      8  C   UNL     1     -11.528   4.310 -18.109  1.00  0.00     0.039 C 
ATOM      9  C   UNL     1     -11.661   3.414 -17.133  1.00  0.00     0.012 C 
ENDBRANCH   6   8
ENDBRANCH   5   6
ENDBRANCH   1   5
TORSDOF 5
ENDMDL
MODEL 8
REMARK VINA RESULT:    -3.939      1.819      4.292
REMARK INTER + INTRA:          -5.646
REMARK INTER:                  -5.426
REMARK INTRA:                  -0.220
REMARK UNBOUND:                -0.556
REMARK SMILES C=CC(=O)CCCCC
REMARK SMILES IDX 6 1 7 2 8 3 9 4 5 5 3 6 4 7 2 8 1 9
REMARK H PARENT
REMARK Flexibility Score: inf
ROOT
ATOM      1  C   UNL     1     -11.509   1.539 -18.325  1.00  0.00     0.008 C 
ENDROOT
BRANCH   1   2
ATOM      2  C   UNL     1     -11.816   0.075 -18.661  1.00  0.00     0.000 C 
BRANCH   2   3
ATOM      3  C   UNL     1     -12.094  -0.098 -20.159  1.00  0.00    -0.003 C 
ATOM      4  C   UNL     1     -13.408  -0.836 -20.394  1.00  0.00     0.004 C 
ENDBRANCH   2   3
ENDBRANCH   1   2
BRANCH   1   5
ATOM      5  C   UNL     1     -10.557   2.151 -19.358  1.00  0.00     0.080 C 
BRANCH   5   6
ATOM      6  C   UNL     1      -9.153   2.180 -18.830  1.00  0.00     0.155 C 
ATOM      7  O   UNL     1      -8.432   1.150 -18.936  1.00  0.00    -0.295 OA
BRANCH   6   8
ATOM      8  C   UNL     1      -8.643   3.388 -18.152  1.00  0.00     0.039 C 
ATOM      9  C   UNL     1      -9.115   3.801 -16.978  1.00  0.00     0.012 C 
ENDBRANCH   6   8
ENDBRANCH   5   6
ENDBRANCH   1   5
TORSDOF 5
ENDMDL
MODEL 9
REMARK VINA RESULT:    -3.938      1.718      4.231
REMARK INTER + INTRA:          -5.644
REMARK INTER:                  -5.396
REMARK INTRA:                  -0.249
REMARK UNBOUND:                -0.556
REMARK SMILES C=CC(=O)CCCCC
REMARK SMILES IDX 6 1 7 2 8 3 9 4 5 5 3 6 4 7 2 8 1 9
REMARK H PARENT
REMARK Flexibility Score: inf
ROOT
ATOM      1  C   UNL     1     -10.316   1.300 -19.216  1.00  0.00     0.008 C 
ENDROOT
BRANCH   1   2
ATOM      2  C   UNL     1     -11.112   0.254 -20.006  1.00  0.00     0.000 C 
BRANCH   2   3
ATOM      3  C   UNL     1     -12.503   0.046 -19.394  1.00  0.00    -0.003 C 
ATOM      4  C   UNL     1     -13.384  -0.804 -20.306  1.00  0.00     0.004 C 
ENDBRANCH   2   3
ENDBRANCH   1   2
BRANCH   1   5
ATOM      5  C   UNL     1     -11.006   2.667 -19.264  1.00  0.00     0.080 C 
BRANCH   5   6
ATOM      6  C   UNL     1     -11.249   3.184 -17.878  1.00  0.00     0.155 C 
ATOM      7  O   UNL     1     -12.418   3.516 -17.537  1.00  0.00    -0.295 OA
BRANCH   6   8
ATOM      8  C   UNL     1     -10.120   3.346 -16.941  1.00  0.00     0.039 C 
ATOM      9  C   UNL     1      -9.084   4.142 -17.200  1.00  0.00     0.012 C 
ENDBRANCH   6   8
ENDBRANCH   5   6
ENDBRANCH   1   5
TORSDOF 5
ENDMDL
