MODEL 1
REMARK VINA RESULT:    10.954      0.000      0.000
REMARK INTER + INTRA:          26.464
REMARK INTER:                  27.603
REMARK INTRA:                  -1.139
REMARK UNBOUND:                -1.139
REMARK SMILES CCCCCCCCCCCCCCCCCCCCCCCCCCCC(=O)[O-]
REMARK SMILES IDX 15 1 16 2 17 3 18 4 19 5 20 6 21 7 22 8 23 9 24 10 25 11
REMARK SMILES IDX 26 12 27 13 28 14 29 15 30 16 14 17 13 18 12 19 11 20 10 21
REMARK SMILES IDX 9 22 8 23 7 24 6 25 5 26 4 27 3 28 2 29 1 30
REMARK H PARENT
REMARK Flexibility Score: inf
ROOT
ATOM      1  C   UNL     1      35.572 105.926 270.176  1.00  0.00     0.000 C 
ENDROOT
BRANCH   1   2
ATOM      2  C   UNL     1      37.102 106.095 270.109  1.00  0.00     0.000 C 
BRANCH   2   3
ATOM      3  C   UNL     1      37.858 105.705 271.394  1.00  0.00     0.000 C 
BRANCH   3   4
ATOM      4  C   UNL     1      38.278 104.223 271.476  1.00  0.00     0.000 C 
BRANCH   4   5
ATOM      5  C   UNL     1      39.063 103.838 272.744  1.00  0.00     0.000 C 
BRANCH   5   6
ATOM      6  C   UNL     1      39.013 102.332 273.044  1.00  0.00     0.000 C 
BRANCH   6   7
ATOM      7  C   UNL     1      40.072 101.945 274.088  1.00  0.00     0.000 C 
BRANCH   7   8
ATOM      8  C   UNL     1      41.374 101.437 273.448  1.00  0.00     0.000 C 
BRANCH   8   9
ATOM      9  C   UNL     1      42.352 100.854 274.483  1.00  0.00     0.000 C 
BRANCH   9  10
ATOM     10  C   UNL     1      43.793 100.751 273.953  1.00  0.00     0.000 C 
BRANCH  10  11
ATOM     11  C   UNL     1      44.594 102.069 273.988  1.00  0.00     0.000 C 
BRANCH  11  12
ATOM     12  C   UNL     1      44.167 103.123 272.950  1.00  0.00     0.006 C 
BRANCH  12  13
ATOM     13  C   UNL     1      45.341 103.653 272.118  1.00  0.00     0.053 C 
BRANCH  13  14
ATOM     14  C   UNL     1      44.985 104.958 271.475  1.00  0.00     0.041 C 
ATOM     15  O   UNL     1      45.496 106.031 271.895  1.00  0.00    -0.550 OA
ATOM     16  O   UNL     1      44.074 104.993 270.426  1.00  0.00    -0.550 OA
ENDBRANCH  13  14
ENDBRANCH  12  13
ENDBRANCH  11  12
ENDBRANCH  10  11
ENDBRANCH   9  10
ENDBRANCH   8   9
ENDBRANCH   7   8
ENDBRANCH   6   7
ENDBRANCH   5   6
ENDBRANCH   4   5
ENDBRANCH   3   4
ENDBRANCH   2   3
ENDBRANCH   1   2
BRANCH   1  17
ATOM     17  C   UNL     1      34.883 105.632 268.830  1.00  0.00     0.000 C 
BRANCH  17  18
ATOM     18  C   UNL     1      34.988 106.800 267.836  1.00  0.00     0.000 C 
BRANCH  18  19
ATOM     19  C   UNL     1      35.075 106.335 266.371  1.00  0.00     0.000 C 
BRANCH  19  20
ATOM     20  C   UNL     1      34.881 104.821 266.151  1.00  0.00     0.000 C 
BRANCH  20  21
ATOM     21  C   UNL     1      35.672 104.224 264.969  1.00  0.00     0.000 C 
BRANCH  21  22
ATOM     22  C   UNL     1      35.101 104.546 263.573  1.00  0.00    -0.000 C 
BRANCH  22  23
ATOM     23  C   UNL     1      35.441 105.947 263.034  1.00  0.00    -0.000 C 
BRANCH  23  24
ATOM     24  C   UNL     1      36.947 106.143 262.790  1.00  0.00    -0.000 C 
BRANCH  24  25
ATOM     25  C   UNL     1      37.280 106.392 261.309  1.00  0.00    -0.000 C 
BRANCH  25  26
ATOM     26  C   UNL     1      38.454 105.527 260.815  1.00  0.00    -0.000 C 
BRANCH  26  27
ATOM     27  C   UNL     1      38.040 104.544 259.707  1.00  0.00    -0.000 C 
BRANCH  27  28
ATOM     28  C   UNL     1      36.634 104.834 259.152  1.00  0.00    -0.000 C 
BRANCH  28  29
ATOM     29  C   UNL     1      36.668 105.739 257.910  1.00  0.00    -0.003 C 
ATOM     30  C   UNL     1      35.955 107.073 258.131  1.00  0.00     0.004 C 
ENDBRANCH  28  29
ENDBRANCH  27  28
ENDBRANCH  26  27
ENDBRANCH  25  26
ENDBRANCH  24  25
ENDBRANCH  23  24
ENDBRANCH  22  23
ENDBRANCH  21  22
ENDBRANCH  20  21
ENDBRANCH  19  20
ENDBRANCH  18  19
ENDBRANCH  17  18
ENDBRANCH   1  17
TORSDOF 26
ENDMDL
MODEL 2
REMARK VINA RESULT:    11.016      2.559      3.154
REMARK INTER + INTRA:          26.621
REMARK INTER:                  27.374
REMARK INTRA:                  -0.753
REMARK UNBOUND:                -1.139
REMARK SMILES CCCCCCCCCCCCCCCCCCCCCCCCCCCC(=O)[O-]
REMARK SMILES IDX 15 1 16 2 17 3 18 4 19 5 20 6 21 7 22 8 23 9 24 10 25 11
REMARK SMILES IDX 26 12 27 13 28 14 29 15 30 16 14 17 13 18 12 19 11 20 10 21
REMARK SMILES IDX 9 22 8 23 7 24 6 25 5 26 4 27 3 28 2 29 1 30
REMARK H PARENT
REMARK Flexibility Score: inf
ROOT
ATOM      1  C   UNL     1      35.566 105.528 270.151  1.00  0.00     0.000 C 
ENDROOT
BRANCH   1   2
ATOM      2  C   UNL     1      36.782 106.475 270.165  1.00  0.00     0.000 C 
BRANCH   2   3
ATOM      3  C   UNL     1      38.036 105.917 270.866  1.00  0.00     0.000 C 
BRANCH   3   4
ATOM      4  C   UNL     1      37.890 104.482 271.412  1.00  0.00     0.000 C 
BRANCH   4   5
ATOM      5  C   UNL     1      38.727 104.175 272.668  1.00  0.00     0.000 C 
BRANCH   5   6
ATOM      6  C   UNL     1      38.084 103.110 273.569  1.00  0.00     0.000 C 
BRANCH   6   7
ATOM      7  C   UNL     1      39.095 102.008 273.924  1.00  0.00     0.000 C 
BRANCH   7   8
ATOM      8  C   UNL     1      40.495 102.286 273.353  1.00  0.00     0.000 C 
BRANCH   8   9
ATOM      9  C   UNL     1      41.402 101.042 273.383  1.00  0.00     0.000 C 
BRANCH   9  10
ATOM     10  C   UNL     1      42.891 101.392 273.546  1.00  0.00     0.000 C 
BRANCH  10  11
ATOM     11  C   UNL     1      43.668 100.489 274.527  1.00  0.00     0.000 C 
BRANCH  11  12
ATOM     12  C   UNL     1      43.922  99.053 274.033  1.00  0.00     0.006 C 
BRANCH  12  13
ATOM     13  C   UNL     1      42.748  98.478 273.232  1.00  0.00     0.053 C 
BRANCH  13  14
ATOM     14  C   UNL     1      43.171  97.254 272.481  1.00  0.00     0.041 C 
ATOM     15  O   UNL     1      44.341  97.166 272.021  1.00  0.00    -0.550 OA
ATOM     16  O   UNL     1      42.268  96.218 272.272  1.00  0.00    -0.550 OA
ENDBRANCH  13  14
ENDBRANCH  12  13
ENDBRANCH  11  12
ENDBRANCH  10  11
ENDBRANCH   9  10
ENDBRANCH   8   9
ENDBRANCH   7   8
ENDBRANCH   6   7
ENDBRANCH   5   6
ENDBRANCH   4   5
ENDBRANCH   3   4
ENDBRANCH   2   3
ENDBRANCH   1   2
BRANCH   1  17
ATOM     17  C   UNL     1      35.024 105.173 268.753  1.00  0.00     0.000 C 
BRANCH  17  18
ATOM     18  C   UNL     1      35.217 106.305 267.732  1.00  0.00     0.000 C 
BRANCH  18  19
ATOM     19  C   UNL     1      34.922 105.865 266.286  1.00  0.00     0.000 C 
BRANCH  19  20
ATOM     20  C   UNL     1      34.926 104.341 266.051  1.00  0.00     0.000 C 
BRANCH  20  21
ATOM     21  C   UNL     1      35.553 103.886 264.718  1.00  0.00     0.000 C 
BRANCH  21  22
ATOM     22  C   UNL     1      34.943 104.529 263.456  1.00  0.00    -0.000 C 
BRANCH  22  23
ATOM     23  C   UNL     1      35.448 105.948 263.135  1.00  0.00    -0.000 C 
BRANCH  23  24
ATOM     24  C   UNL     1      36.982 106.030 263.052  1.00  0.00    -0.000 C 
BRANCH  24  25
ATOM     25  C   UNL     1      37.484 106.329 261.630  1.00  0.00    -0.000 C 
BRANCH  25  26
ATOM     26  C   UNL     1      38.079 105.088 260.940  1.00  0.00    -0.000 C 
BRANCH  26  27
ATOM     27  C   UNL     1      37.296 104.676 259.682  1.00  0.00    -0.000 C 
BRANCH  27  28
ATOM     28  C   UNL     1      37.151 105.828 258.671  1.00  0.00    -0.000 C 
BRANCH  28  29
ATOM     29  C   UNL     1      35.685 106.233 258.447  1.00  0.00    -0.003 C 
ATOM     30  C   UNL     1      35.542 107.643 257.875  1.00  0.00     0.004 C 
ENDBRANCH  28  29
ENDBRANCH  27  28
ENDBRANCH  26  27
ENDBRANCH  25  26
ENDBRANCH  24  25
ENDBRANCH  23  24
ENDBRANCH  22  23
ENDBRANCH  21  22
ENDBRANCH  20  21
ENDBRANCH  19  20
ENDBRANCH  18  19
ENDBRANCH  17  18
ENDBRANCH   1  17
TORSDOF 26
ENDMDL
MODEL 3
REMARK VINA RESULT:    11.360      3.297      5.843
REMARK INTER + INTRA:          27.487
REMARK INTER:                  22.671
REMARK INTRA:                   4.816
REMARK UNBOUND:                -1.139
REMARK SMILES CCCCCCCCCCCCCCCCCCCCCCCCCCCC(=O)[O-]
REMARK SMILES IDX 15 1 16 2 17 3 18 4 19 5 20 6 21 7 22 8 23 9 24 10 25 11
REMARK SMILES IDX 26 12 27 13 28 14 29 15 30 16 14 17 13 18 12 19 11 20 10 21
REMARK SMILES IDX 9 22 8 23 7 24 6 25 5 26 4 27 3 28 2 29 1 30
REMARK H PARENT
REMARK Flexibility Score: inf
ROOT
ATOM      1  C   UNL     1      35.619 105.701 266.467  1.00  0.00     0.000 C 
ENDROOT
BRANCH   1   2
ATOM      2  C   UNL     1      34.877 106.167 265.199  1.00  0.00     0.000 C 
BRANCH   2   3
ATOM      3  C   UNL     1      35.117 107.637 264.806  1.00  0.00     0.000 C 
BRANCH   3   4
ATOM      4  C   UNL     1      34.944 108.653 265.953  1.00  0.00     0.000 C 
BRANCH   4   5
ATOM      5  C   UNL     1      35.973 108.532 267.092  1.00  0.00     0.000 C 
BRANCH   5   6
ATOM      6  C   UNL     1      35.623 107.426 268.099  1.00  0.00     0.000 C 
BRANCH   6   7
ATOM      7  C   UNL     1      35.108 108.026 269.416  1.00  0.00     0.000 C 
BRANCH   7   8
ATOM      8  C   UNL     1      34.877 106.960 270.500  1.00  0.00     0.000 C 
BRANCH   8   9
ATOM      9  C   UNL     1      35.184 105.537 270.001  1.00  0.00     0.000 C 
BRANCH   9  10
ATOM     10  C   UNL     1      36.634 105.105 270.279  1.00  0.00     0.000 C 
BRANCH  10  11
ATOM     11  C   UNL     1      37.406 106.012 271.259  1.00  0.00     0.000 C 
BRANCH  11  12
ATOM     12  C   UNL     1      38.746 105.443 271.760  1.00  0.00     0.006 C 
BRANCH  12  13
ATOM     13  C   UNL     1      38.776 103.910 271.781  1.00  0.00     0.053 C 
BRANCH  13  14
ATOM     14  C   UNL     1      38.569 103.397 273.171  1.00  0.00     0.041 C 
ATOM     15  O   UNL     1      39.551 103.269 273.952  1.00  0.00    -0.550 OA
ATOM     16  O   UNL     1      37.296 103.040 273.601  1.00  0.00    -0.550 OA
ENDBRANCH  13  14
ENDBRANCH  12  13
ENDBRANCH  11  12
ENDBRANCH  10  11
ENDBRANCH   9  10
ENDBRANCH   8   9
ENDBRANCH   7   8
ENDBRANCH   6   7
ENDBRANCH   5   6
ENDBRANCH   4   5
ENDBRANCH   3   4
ENDBRANCH   2   3
ENDBRANCH   1   2
BRANCH   1  17
ATOM     17  C   UNL     1      35.496 104.199 266.787  1.00  0.00     0.000 C 
BRANCH  17  18
ATOM     18  C   UNL     1      35.464 103.320 265.527  1.00  0.00     0.000 C 
BRANCH  18  19
ATOM     19  C   UNL     1      34.928 104.065 264.290  1.00  0.00     0.000 C 
BRANCH  19  20
ATOM     20  C   UNL     1      35.964 104.314 263.176  1.00  0.00     0.000 C 
BRANCH  20  21
ATOM     21  C   UNL     1      36.470 105.766 263.064  1.00  0.00     0.000 C 
BRANCH  21  22
ATOM     22  C   UNL     1      36.308 106.408 261.671  1.00  0.00    -0.000 C 
BRANCH  22  23
ATOM     23  C   UNL     1      37.624 106.707 260.930  1.00  0.00    -0.000 C 
BRANCH  23  24
ATOM     24  C   UNL     1      38.867 106.246 261.712  1.00  0.00    -0.000 C 
BRANCH  24  25
ATOM     25  C   UNL     1      39.552 105.028 261.071  1.00  0.00    -0.000 C 
BRANCH  25  26
ATOM     26  C   UNL     1      38.645 104.305 260.059  1.00  0.00    -0.000 C 
BRANCH  26  27
ATOM     27  C   UNL     1      39.029 104.603 258.600  1.00  0.00    -0.000 C 
BRANCH  27  28
ATOM     28  C   UNL     1      37.984 105.472 257.878  1.00  0.00    -0.000 C 
BRANCH  28  29
ATOM     29  C   UNL     1      36.544 105.117 258.282  1.00  0.00    -0.003 C 
ATOM     30  C   UNL     1      35.650 106.347 258.428  1.00  0.00     0.004 C 
ENDBRANCH  28  29
ENDBRANCH  27  28
ENDBRANCH  26  27
ENDBRANCH  25  26
ENDBRANCH  24  25
ENDBRANCH  23  24
ENDBRANCH  22  23
ENDBRANCH  21  22
ENDBRANCH  20  21
ENDBRANCH  19  20
ENDBRANCH  18  19
ENDBRANCH  17  18
ENDBRANCH   1  17
TORSDOF 26
ENDMDL
MODEL 4
REMARK VINA RESULT:    11.436      3.224      5.997
REMARK INTER + INTRA:          27.680
REMARK INTER:                  25.772
REMARK INTRA:                   1.908
REMARK UNBOUND:                -1.139
REMARK SMILES CCCCCCCCCCCCCCCCCCCCCCCCCCCC(=O)[O-]
REMARK SMILES IDX 15 1 16 2 17 3 18 4 19 5 20 6 21 7 22 8 23 9 24 10 25 11
REMARK SMILES IDX 26 12 27 13 28 14 29 15 30 16 14 17 13 18 12 19 11 20 10 21
REMARK SMILES IDX 9 22 8 23 7 24 6 25 5 26 4 27 3 28 2 29 1 30
REMARK H PARENT
REMARK Flexibility Score: inf
ROOT
ATOM      1  C   UNL     1      35.557 105.927 266.261  1.00  0.00     0.000 C 
ENDROOT
BRANCH   1   2
ATOM      2  C   UNL     1      34.889 107.018 265.401  1.00  0.00     0.000 C 
BRANCH   2   3
ATOM      3  C   UNL     1      35.522 108.418 265.517  1.00  0.00     0.000 C 
BRANCH   3   4
ATOM      4  C   UNL     1      34.875 109.338 266.573  1.00  0.00     0.000 C 
BRANCH   4   5
ATOM      5  C   UNL     1      35.344 109.099 268.020  1.00  0.00     0.000 C 
BRANCH   5   6
ATOM      6  C   UNL     1      35.519 107.610 268.354  1.00  0.00     0.000 C 
BRANCH   6   7
ATOM      7  C   UNL     1      35.023 107.304 269.776  1.00  0.00     0.000 C 
BRANCH   7   8
ATOM      8  C   UNL     1      35.315 105.857 270.204  1.00  0.00     0.000 C 
BRANCH   8   9
ATOM      9  C   UNL     1      36.765 105.434 269.907  1.00  0.00     0.000 C 
BRANCH   9  10
ATOM     10  C   UNL     1      37.800 106.259 270.692  1.00  0.00     0.000 C 
BRANCH  10  11
ATOM     11  C   UNL     1      38.512 105.497 271.829  1.00  0.00     0.000 C 
BRANCH  11  12
ATOM     12  C   UNL     1      38.417 103.962 271.748  1.00  0.00     0.006 C 
BRANCH  12  13
ATOM     13  C   UNL     1      37.770 103.337 272.990  1.00  0.00     0.053 C 
BRANCH  13  14
ATOM     14  C   UNL     1      38.759 103.243 274.109  1.00  0.00     0.041 C 
ATOM     15  O   UNL     1      38.400 102.808 275.237  1.00  0.00    -0.550 OA
ATOM     16  O   UNL     1      40.073 103.653 273.915  1.00  0.00    -0.550 OA
ENDBRANCH  13  14
ENDBRANCH  12  13
ENDBRANCH  11  12
ENDBRANCH  10  11
ENDBRANCH   9  10
ENDBRANCH   8   9
ENDBRANCH   7   8
ENDBRANCH   6   7
ENDBRANCH   5   6
ENDBRANCH   4   5
ENDBRANCH   3   4
ENDBRANCH   2   3
ENDBRANCH   1   2
BRANCH   1  17
ATOM     17  C   UNL     1      35.096 104.486 265.971  1.00  0.00     0.000 C 
BRANCH  17  18
ATOM     18  C   UNL     1      34.948 104.197 264.469  1.00  0.00     0.000 C 
BRANCH  18  19
ATOM     19  C   UNL     1      35.155 105.448 263.594  1.00  0.00     0.000 C 
BRANCH  19  20
ATOM     20  C   UNL     1      36.015 105.230 262.333  1.00  0.00     0.000 C 
BRANCH  20  21
ATOM     21  C   UNL     1      35.291 104.543 261.157  1.00  0.00     0.000 C 
BRANCH  21  22
ATOM     22  C   UNL     1      36.158 104.312 259.903  1.00  0.00    -0.000 C 
BRANCH  22  23
ATOM     23  C   UNL     1      36.090 105.429 258.845  1.00  0.00    -0.000 C 
BRANCH  23  24
ATOM     24  C   UNL     1      37.461 106.063 258.558  1.00  0.00    -0.000 C 
BRANCH  24  25
ATOM     25  C   UNL     1      38.619 105.062 258.708  1.00  0.00    -0.000 C 
BRANCH  25  26
ATOM     26  C   UNL     1      38.815 104.599 260.163  1.00  0.00    -0.000 C 
BRANCH  26  27
ATOM     27  C   UNL     1      39.932 105.372 260.885  1.00  0.00    -0.000 C 
BRANCH  27  28
ATOM     28  C   UNL     1      39.542 105.777 262.317  1.00  0.00    -0.000 C 
BRANCH  28  29
ATOM     29  C   UNL     1      38.339 106.734 262.350  1.00  0.00    -0.003 C 
ATOM     30  C   UNL     1      38.381 107.696 263.537  1.00  0.00     0.004 C 
ENDBRANCH  28  29
ENDBRANCH  27  28
ENDBRANCH  26  27
ENDBRANCH  25  26
ENDBRANCH  24  25
ENDBRANCH  23  24
ENDBRANCH  22  23
ENDBRANCH  21  22
ENDBRANCH  20  21
ENDBRANCH  19  20
ENDBRANCH  18  19
ENDBRANCH  17  18
ENDBRANCH   1  17
TORSDOF 26
ENDMDL
MODEL 5
REMARK VINA RESULT:    11.656      3.939     12.036
REMARK INTER + INTRA:          28.233
REMARK INTER:                  29.109
REMARK INTRA:                  -0.876
REMARK UNBOUND:                -1.139
REMARK SMILES CCCCCCCCCCCCCCCCCCCCCCCCCCCC(=O)[O-]
REMARK SMILES IDX 15 1 16 2 17 3 18 4 19 5 20 6 21 7 22 8 23 9 24 10 25 11
REMARK SMILES IDX 26 12 27 13 28 14 29 15 30 16 14 17 13 18 12 19 11 20 10 21
REMARK SMILES IDX 9 22 8 23 7 24 6 25 5 26 4 27 3 28 2 29 1 30
REMARK H PARENT
REMARK Flexibility Score: inf
ROOT
ATOM      1  C   UNL     1      35.562 106.150 270.196  1.00  0.00     0.000 C 
ENDROOT
BRANCH   1   2
ATOM      2  C   UNL     1      34.875 105.851 268.849  1.00  0.00     0.000 C 
BRANCH   2   3
ATOM      3  C   UNL     1      35.665 106.293 267.602  1.00  0.00     0.000 C 
BRANCH   3   4
ATOM      4  C   UNL     1      34.875 107.170 266.609  1.00  0.00     0.000 C 
BRANCH   4   5
ATOM      5  C   UNL     1      35.146 106.878 265.122  1.00  0.00     0.000 C 
BRANCH   5   6
ATOM      6  C   UNL     1      34.980 105.393 264.764  1.00  0.00     0.000 C 
BRANCH   6   7
ATOM      7  C   UNL     1      35.886 105.008 263.584  1.00  0.00     0.000 C 
BRANCH   7   8
ATOM      8  C   UNL     1      36.241 106.212 262.696  1.00  0.00     0.000 C 
BRANCH   8   9
ATOM      9  C   UNL     1      37.601 106.833 263.062  1.00  0.00     0.000 C 
BRANCH   9  10
ATOM     10  C   UNL     1      38.792 106.036 262.504  1.00  0.00     0.000 C 
BRANCH  10  11
ATOM     11  C   UNL     1      39.003 106.161 260.980  1.00  0.00     0.000 C 
BRANCH  11  12
ATOM     12  C   UNL     1      38.526 104.954 260.152  1.00  0.00     0.006 C 
BRANCH  12  13
ATOM     13  C   UNL     1      38.050 105.342 258.747  1.00  0.00     0.053 C 
BRANCH  13  14
ATOM     14  C   UNL     1      36.587 105.655 258.753  1.00  0.00     0.041 C 
ATOM     15  O   UNL     1      36.108 106.462 257.912  1.00  0.00    -0.550 OA
ATOM     16  O   UNL     1      35.753 105.071 259.700  1.00  0.00    -0.550 OA
ENDBRANCH  13  14
ENDBRANCH  12  13
ENDBRANCH  11  12
ENDBRANCH  10  11
ENDBRANCH   9  10
ENDBRANCH   8   9
ENDBRANCH   7   8
ENDBRANCH   6   7
ENDBRANCH   5   6
ENDBRANCH   4   5
ENDBRANCH   3   4
ENDBRANCH   2   3
ENDBRANCH   1   2
BRANCH   1  17
ATOM     17  C   UNL     1      36.981 106.740 270.094  1.00  0.00     0.000 C 
BRANCH  17  18
ATOM     18  C   UNL     1      38.052 105.833 270.718  1.00  0.00     0.000 C 
BRANCH  18  19
ATOM     19  C   UNL     1      37.473 104.840 271.744  1.00  0.00     0.000 C 
BRANCH  19  20
ATOM     20  C   UNL     1      38.356 103.610 272.036  1.00  0.00     0.000 C 
BRANCH  20  21
ATOM     21  C   UNL     1      38.294 103.088 273.486  1.00  0.00     0.000 C 
BRANCH  21  22
ATOM     22  C   UNL     1      39.647 103.051 274.225  1.00  0.00    -0.000 C 
BRANCH  22  23
ATOM     23  C   UNL     1      40.865 102.718 273.344  1.00  0.00    -0.000 C 
BRANCH  23  24
ATOM     24  C   UNL     1      42.196 102.800 274.111  1.00  0.00    -0.000 C 
BRANCH  24  25
ATOM     25  C   UNL     1      43.391 103.103 273.192  1.00  0.00    -0.000 C 
BRANCH  25  26
ATOM     26  C   UNL     1      44.744 102.934 273.907  1.00  0.00    -0.000 C 
BRANCH  26  27
ATOM     27  C   UNL     1      45.848 102.417 272.970  1.00  0.00    -0.000 C 
BRANCH  27  28
ATOM     28  C   UNL     1      46.514 103.544 272.161  1.00  0.00    -0.000 C 
BRANCH  28  29
ATOM     29  C   UNL     1      45.612 104.071 271.033  1.00  0.00    -0.003 C 
ATOM     30  C   UNL     1      44.983 105.424 271.362  1.00  0.00     0.004 C 
ENDBRANCH  28  29
ENDBRANCH  27  28
ENDBRANCH  26  27
ENDBRANCH  25  26
ENDBRANCH  24  25
ENDBRANCH  23  24
ENDBRANCH  22  23
ENDBRANCH  21  22
ENDBRANCH  20  21
ENDBRANCH  19  20
ENDBRANCH  18  19
ENDBRANCH  17  18
ENDBRANCH   1  17
TORSDOF 26
ENDMDL
MODEL 6
REMARK VINA RESULT:    11.973      3.953     12.067
REMARK INTER + INTRA:          29.033
REMARK INTER:                  29.573
REMARK INTRA:                  -0.540
REMARK UNBOUND:                -1.139
REMARK SMILES CCCCCCCCCCCCCCCCCCCCCCCCCCCC(=O)[O-]
REMARK SMILES IDX 15 1 16 2 17 3 18 4 19 5 20 6 21 7 22 8 23 9 24 10 25 11
REMARK SMILES IDX 26 12 27 13 28 14 29 15 30 16 14 17 13 18 12 19 11 20 10 21
REMARK SMILES IDX 9 22 8 23 7 24 6 25 5 26 4 27 3 28 2 29 1 30
REMARK H PARENT
REMARK Flexibility Score: inf
ROOT
ATOM      1  C   UNL     1      35.163 106.429 269.278  1.00  0.00     0.000 C 
ENDROOT
BRANCH   1   2
ATOM      2  C   UNL     1      35.090 104.947 268.859  1.00  0.00     0.000 C 
BRANCH   2   3
ATOM      3  C   UNL     1      34.877 104.705 267.352  1.00  0.00     0.000 C 
BRANCH   3   4
ATOM      4  C   UNL     1      35.572 103.448 266.791  1.00  0.00     0.000 C 
BRANCH   4   5
ATOM      5  C   UNL     1      35.104 103.015 265.389  1.00  0.00     0.000 C 
BRANCH   5   6
ATOM      6  C   UNL     1      34.931 104.198 264.425  1.00  0.00     0.000 C 
BRANCH   6   7
ATOM      7  C   UNL     1      34.875 103.715 262.967  1.00  0.00     0.000 C 
BRANCH   7   8
ATOM      8  C   UNL     1      35.461 104.741 261.983  1.00  0.00     0.000 C 
BRANCH   8   9
ATOM      9  C   UNL     1      35.816 106.075 262.662  1.00  0.00     0.000 C 
BRANCH   9  10
ATOM     10  C   UNL     1      37.323 106.226 262.933  1.00  0.00     0.000 C 
BRANCH  10  11
ATOM     11  C   UNL     1      38.170 106.606 261.701  1.00  0.00     0.000 C 
BRANCH  11  12
ATOM     12  C   UNL     1      38.978 105.451 261.081  1.00  0.00     0.006 C 
BRANCH  12  13
ATOM     13  C   UNL     1      38.717 105.276 259.580  1.00  0.00     0.053 C 
BRANCH  13  14
ATOM     14  C   UNL     1      37.272 105.506 259.265  1.00  0.00     0.041 C 
ATOM     15  O   UNL     1      36.855 106.669 259.015  1.00  0.00    -0.550 OA
ATOM     16  O   UNL     1      36.380 104.440 259.268  1.00  0.00    -0.550 OA
ENDBRANCH  13  14
ENDBRANCH  12  13
ENDBRANCH  11  12
ENDBRANCH  10  11
ENDBRANCH   9  10
ENDBRANCH   8   9
ENDBRANCH   7   8
ENDBRANCH   6   7
ENDBRANCH   5   6
ENDBRANCH   4   5
ENDBRANCH   3   4
ENDBRANCH   2   3
ENDBRANCH   1   2
BRANCH   1  17
ATOM     17  C   UNL     1      36.178 106.748 270.392  1.00  0.00     0.000 C 
BRANCH  17  18
ATOM     18  C   UNL     1      37.533 106.053 270.185  1.00  0.00     0.000 C 
BRANCH  18  19
ATOM     19  C   UNL     1      38.368 105.970 271.476  1.00  0.00     0.000 C 
BRANCH  19  20
ATOM     20  C   UNL     1      38.921 104.570 271.810  1.00  0.00     0.000 C 
BRANCH  20  21
ATOM     21  C   UNL     1      37.913 103.607 272.469  1.00  0.00     0.000 C 
BRANCH  21  22
ATOM     22  C   UNL     1      38.123 103.378 273.980  1.00  0.00    -0.000 C 
BRANCH  22  23
ATOM     23  C   UNL     1      39.578 103.114 274.406  1.00  0.00    -0.000 C 
BRANCH  23  24
ATOM     24  C   UNL     1      40.431 102.513 273.276  1.00  0.00    -0.000 C 
BRANCH  24  25
ATOM     25  C   UNL     1      40.566 100.985 273.386  1.00  0.00    -0.000 C 
BRANCH  25  26
ATOM     26  C   UNL     1      42.015 100.504 273.185  1.00  0.00    -0.000 C 
BRANCH  26  27
ATOM     27  C   UNL     1      42.690 100.090 274.504  1.00  0.00    -0.000 C 
BRANCH  27  28
ATOM     28  C   UNL     1      43.862 101.012 274.884  1.00  0.00    -0.000 C 
BRANCH  28  29
ATOM     29  C   UNL     1      44.473 101.719 273.663  1.00  0.00    -0.003 C 
ATOM     30  C   UNL     1      44.417 103.243 273.774  1.00  0.00     0.004 C 
ENDBRANCH  28  29
ENDBRANCH  27  28
ENDBRANCH  26  27
ENDBRANCH  25  26
ENDBRANCH  24  25
ENDBRANCH  23  24
ENDBRANCH  22  23
ENDBRANCH  21  22
ENDBRANCH  20  21
ENDBRANCH  19  20
ENDBRANCH  18  19
ENDBRANCH  17  18
ENDBRANCH   1  17
TORSDOF 26
ENDMDL
MODEL 7
REMARK VINA RESULT:    12.144      4.268     12.914
REMARK INTER + INTRA:          29.462
REMARK INTER:                  30.013
REMARK INTRA:                  -0.551
REMARK UNBOUND:                -1.139
REMARK SMILES CCCCCCCCCCCCCCCCCCCCCCCCCCCC(=O)[O-]
REMARK SMILES IDX 15 1 16 2 17 3 18 4 19 5 20 6 21 7 22 8 23 9 24 10 25 11
REMARK SMILES IDX 26 12 27 13 28 14 29 15 30 16 14 17 13 18 12 19 11 20 10 21
REMARK SMILES IDX 9 22 8 23 7 24 6 25 5 26 4 27 3 28 2 29 1 30
REMARK H PARENT
REMARK Flexibility Score: inf
ROOT
ATOM      1  C   UNL     1      36.738 105.565 270.262  1.00  0.00     0.000 C 
ENDROOT
BRANCH   1   2
ATOM      2  C   UNL     1      36.145 106.692 269.394  1.00  0.00     0.000 C 
BRANCH   2   3
ATOM      3  C   UNL     1      34.982 106.266 268.477  1.00  0.00     0.000 C 
BRANCH   3   4
ATOM      4  C   UNL     1      35.090 106.757 267.019  1.00  0.00     0.000 C 
BRANCH   4   5
ATOM      5  C   UNL     1      35.081 105.645 265.954  1.00  0.00     0.000 C 
BRANCH   5   6
ATOM      6  C   UNL     1      34.876 106.182 264.530  1.00  0.00     0.000 C 
BRANCH   6   7
ATOM      7  C   UNL     1      35.513 105.245 263.492  1.00  0.00     0.000 C 
BRANCH   7   8
ATOM      8  C   UNL     1      36.026 105.998 262.253  1.00  0.00     0.000 C 
BRANCH   8   9
ATOM      9  C   UNL     1      37.562 106.052 262.189  1.00  0.00     0.000 C 
BRANCH   9  10
ATOM     10  C   UNL     1      38.103 106.004 260.750  1.00  0.00     0.000 C 
BRANCH  10  11
ATOM     11  C   UNL     1      37.996 104.628 260.061  1.00  0.00     0.000 C 
BRANCH  11  12
ATOM     12  C   UNL     1      38.057 104.659 258.523  1.00  0.00     0.006 C 
BRANCH  12  13
ATOM     13  C   UNL     1      37.698 106.030 257.937  1.00  0.00     0.053 C 
BRANCH  13  14
ATOM     14  C   UNL     1      36.244 106.324 258.135  1.00  0.00     0.041 C 
ATOM     15  O   UNL     1      35.868 107.492 258.423  1.00  0.00    -0.550 OA
ATOM     16  O   UNL     1      35.305 105.306 258.023  1.00  0.00    -0.550 OA
ENDBRANCH  13  14
ENDBRANCH  12  13
ENDBRANCH  11  12
ENDBRANCH  10  11
ENDBRANCH   9  10
ENDBRANCH   8   9
ENDBRANCH   7   8
ENDBRANCH   6   7
ENDBRANCH   5   6
ENDBRANCH   4   5
ENDBRANCH   3   4
ENDBRANCH   2   3
ENDBRANCH   1   2
BRANCH   1  17
ATOM     17  C   UNL     1      37.888 105.988 271.194  1.00  0.00     0.000 C 
BRANCH  17  18
ATOM     18  C   UNL     1      38.882 104.850 271.473  1.00  0.00     0.000 C 
BRANCH  18  19
ATOM     19  C   UNL     1      38.215 103.610 272.096  1.00  0.00     0.000 C 
BRANCH  19  20
ATOM     20  C   UNL     1      38.344 103.496 273.628  1.00  0.00     0.000 C 
BRANCH  20  21
ATOM     21  C   UNL     1      39.732 103.059 274.137  1.00  0.00     0.000 C 
BRANCH  21  22
ATOM     22  C   UNL     1      40.614 102.344 273.094  1.00  0.00    -0.000 C 
BRANCH  22  23
ATOM     23  C   UNL     1      41.742 101.473 273.676  1.00  0.00    -0.000 C 
BRANCH  23  24
ATOM     24  C   UNL     1      43.080 102.224 273.784  1.00  0.00    -0.000 C 
BRANCH  24  25
ATOM     25  C   UNL     1      44.241 101.308 274.209  1.00  0.00    -0.000 C 
BRANCH  25  26
ATOM     26  C   UNL     1      44.194  99.934 273.514  1.00  0.00    -0.000 C 
BRANCH  26  27
ATOM     27  C   UNL     1      43.606  98.835 274.415  1.00  0.00    -0.000 C 
BRANCH  27  28
ATOM     28  C   UNL     1      44.192  97.445 274.111  1.00  0.00    -0.000 C 
BRANCH  28  29
ATOM     29  C   UNL     1      44.054  97.060 272.629  1.00  0.00    -0.003 C 
ATOM     30  C   UNL     1      42.671  97.377 272.062  1.00  0.00     0.004 C 
ENDBRANCH  28  29
ENDBRANCH  27  28
ENDBRANCH  26  27
ENDBRANCH  25  26
ENDBRANCH  24  25
ENDBRANCH  23  24
ENDBRANCH  22  23
ENDBRANCH  21  22
ENDBRANCH  20  21
ENDBRANCH  19  20
ENDBRANCH  18  19
ENDBRANCH  17  18
ENDBRANCH   1  17
TORSDOF 26
ENDMDL
MODEL 8
REMARK VINA RESULT:    12.191      3.428     12.256
REMARK INTER + INTRA:          29.583
REMARK INTER:                  25.525
REMARK INTRA:                   4.058
REMARK UNBOUND:                -1.139
REMARK SMILES CCCCCCCCCCCCCCCCCCCCCCCCCCCC(=O)[O-]
REMARK SMILES IDX 15 1 16 2 17 3 18 4 19 5 20 6 21 7 22 8 23 9 24 10 25 11
REMARK SMILES IDX 26 12 27 13 28 14 29 15 30 16 14 17 13 18 12 19 11 20 10 21
REMARK SMILES IDX 9 22 8 23 7 24 6 25 5 26 4 27 3 28 2 29 1 30
REMARK H PARENT
REMARK Flexibility Score: inf
ROOT
ATOM      1  C   UNL     1      35.375 106.570 267.629  1.00  0.00     0.000 C 
ENDROOT
BRANCH   1   2
ATOM      2  C   UNL     1      35.916 107.792 266.860  1.00  0.00     0.000 C 
BRANCH   2   3
ATOM      3  C   UNL     1      35.332 107.985 265.448  1.00  0.00     0.000 C 
BRANCH   3   4
ATOM      4  C   UNL     1      34.881 106.687 264.748  1.00  0.00     0.000 C 
BRANCH   4   5
ATOM      5  C   UNL     1      35.185 105.391 265.521  1.00  0.00     0.000 C 
BRANCH   5   6
ATOM      6  C   UNL     1      35.079 104.133 264.645  1.00  0.00     0.000 C 
BRANCH   6   7
ATOM      7  C   UNL     1      34.882 104.507 263.168  1.00  0.00     0.000 C 
BRANCH   7   8
ATOM      8  C   UNL     1      35.765 105.690 262.736  1.00  0.00     0.000 C 
BRANCH   8   9
ATOM      9  C   UNL     1      36.646 105.354 261.519  1.00  0.00     0.000 C 
BRANCH   9  10
ATOM     10  C   UNL     1      36.759 106.520 260.523  1.00  0.00     0.000 C 
BRANCH  10  11
ATOM     11  C   UNL     1      36.256 106.210 259.098  1.00  0.00     0.000 C 
BRANCH  11  12
ATOM     12  C   UNL     1      36.989 105.061 258.381  1.00  0.00     0.006 C 
BRANCH  12  13
ATOM     13  C   UNL     1      38.515 105.183 258.459  1.00  0.00     0.053 C 
BRANCH  13  14
ATOM     14  C   UNL     1      39.007 104.781 259.815  1.00  0.00     0.041 C 
ATOM     15  O   UNL     1      39.150 103.562 260.102  1.00  0.00    -0.550 OA
ATOM     16  O   UNL     1      39.290 105.751 260.769  1.00  0.00    -0.550 OA
ENDBRANCH  13  14
ENDBRANCH  12  13
ENDBRANCH  11  12
ENDBRANCH  10  11
ENDBRANCH   9  10
ENDBRANCH   8   9
ENDBRANCH   7   8
ENDBRANCH   6   7
ENDBRANCH   5   6
ENDBRANCH   4   5
ENDBRANCH   3   4
ENDBRANCH   2   3
ENDBRANCH   1   2
BRANCH   1  17
ATOM     17  C   UNL     1      34.959 106.842 269.087  1.00  0.00     0.000 C 
BRANCH  17  18
ATOM     18  C   UNL     1      35.830 106.092 270.107  1.00  0.00     0.000 C 
BRANCH  18  19
ATOM     19  C   UNL     1      37.139 106.834 270.437  1.00  0.00     0.000 C 
BRANCH  19  20
ATOM     20  C   UNL     1      37.996 106.189 271.544  1.00  0.00     0.000 C 
BRANCH  20  21
ATOM     21  C   UNL     1      38.675 104.859 271.157  1.00  0.00     0.000 C 
BRANCH  21  22
ATOM     22  C   UNL     1      38.252 103.640 272.002  1.00  0.00    -0.000 C 
BRANCH  22  23
ATOM     23  C   UNL     1      38.578 103.740 273.504  1.00  0.00    -0.000 C 
BRANCH  23  24
ATOM     24  C   UNL     1      39.200 102.451 274.066  1.00  0.00    -0.000 C 
BRANCH  24  25
ATOM     25  C   UNL     1      40.734 102.433 273.948  1.00  0.00    -0.000 C 
BRANCH  25  26
ATOM     26  C   UNL     1      41.271 101.083 273.437  1.00  0.00    -0.000 C 
BRANCH  26  27
ATOM     27  C   UNL     1      42.794 100.950 273.605  1.00  0.00    -0.000 C 
BRANCH  27  28
ATOM     28  C   UNL     1      43.196  99.679 274.375  1.00  0.00    -0.000 C 
BRANCH  28  29
ATOM     29  C   UNL     1      43.791  98.600 273.456  1.00  0.00    -0.003 C 
ATOM     30  C   UNL     1      43.743  97.204 274.075  1.00  0.00     0.004 C 
ENDBRANCH  28  29
ENDBRANCH  27  28
ENDBRANCH  26  27
ENDBRANCH  25  26
ENDBRANCH  24  25
ENDBRANCH  23  24
ENDBRANCH  22  23
ENDBRANCH  21  22
ENDBRANCH  20  21
ENDBRANCH  19  20
ENDBRANCH  18  19
ENDBRANCH  17  18
ENDBRANCH   1  17
TORSDOF 26
ENDMDL
MODEL 9
REMARK VINA RESULT:    12.938      1.335      2.194
REMARK INTER + INTRA:          31.464
REMARK INTER:                  30.767
REMARK INTRA:                   0.697
REMARK UNBOUND:                -1.139
REMARK SMILES CCCCCCCCCCCCCCCCCCCCCCCCCCCC(=O)[O-]
REMARK SMILES IDX 15 1 16 2 17 3 18 4 19 5 20 6 21 7 22 8 23 9 24 10 25 11
REMARK SMILES IDX 26 12 27 13 28 14 29 15 30 16 14 17 13 18 12 19 11 20 10 21
REMARK SMILES IDX 9 22 8 23 7 24 6 25 5 26 4 27 3 28 2 29 1 30
REMARK H PARENT
REMARK Flexibility Score: inf
ROOT
ATOM      1  C   UNL     1      35.254 105.271 267.811  1.00  0.00     0.000 C 
ENDROOT
BRANCH   1   2
ATOM      2  C   UNL     1      35.483 105.782 269.247  1.00  0.00     0.000 C 
BRANCH   2   3
ATOM      3  C   UNL     1      36.910 106.283 269.541  1.00  0.00     0.000 C 
BRANCH   3   4
ATOM      4  C   UNL     1      37.433 105.961 270.956  1.00  0.00     0.000 C 
BRANCH   4   5
ATOM      5  C   UNL     1      37.647 104.464 271.246  1.00  0.00     0.000 C 
BRANCH   5   6
ATOM      6  C   UNL     1      38.712 104.209 272.323  1.00  0.00     0.000 C 
BRANCH   6   7
ATOM      7  C   UNL     1      38.301 103.045 273.237  1.00  0.00     0.000 C 
BRANCH   7   8
ATOM      8  C   UNL     1      39.477 102.503 274.066  1.00  0.00     0.000 C 
BRANCH   8   9
ATOM      9  C   UNL     1      40.821 102.608 273.323  1.00  0.00     0.000 C 
BRANCH   9  10
ATOM     10  C   UNL     1      41.659 101.322 273.419  1.00  0.00     0.000 C 
BRANCH  10  11
ATOM     11  C   UNL     1      43.147 101.539 273.765  1.00  0.00     0.000 C 
BRANCH  11  12
ATOM     12  C   UNL     1      43.547 102.998 274.049  1.00  0.00     0.006 C 
BRANCH  12  13
ATOM     13  C   UNL     1      45.060 103.231 273.967  1.00  0.00     0.053 C 
BRANCH  13  14
ATOM     14  C   UNL     1      45.503 103.323 272.541  1.00  0.00     0.041 C 
ATOM     15  O   UNL     1      44.896 104.079 271.736  1.00  0.00    -0.550 OA
ATOM     16  O   UNL     1      46.574 102.558 272.092  1.00  0.00    -0.550 OA
ENDBRANCH  13  14
ENDBRANCH  12  13
ENDBRANCH  11  12
ENDBRANCH  10  11
ENDBRANCH   9  10
ENDBRANCH   8   9
ENDBRANCH   7   8
ENDBRANCH   6   7
ENDBRANCH   5   6
ENDBRANCH   4   5
ENDBRANCH   3   4
ENDBRANCH   2   3
ENDBRANCH   1   2
BRANCH   1  17
ATOM     17  C   UNL     1      35.271 103.739 267.647  1.00  0.00     0.000 C 
BRANCH  17  18
ATOM     18  C   UNL     1      36.346 103.254 266.662  1.00  0.00     0.000 C 
BRANCH  18  19
ATOM     19  C   UNL     1      35.903 103.361 265.190  1.00  0.00     0.000 C 
BRANCH  19  20
ATOM     20  C   UNL     1      34.875 104.471 264.894  1.00  0.00     0.000 C 
BRANCH  20  21
ATOM     21  C   UNL     1      35.133 105.275 263.604  1.00  0.00     0.000 C 
BRANCH  21  22
ATOM     22  C   UNL     1      36.196 106.385 263.728  1.00  0.00    -0.000 C 
BRANCH  22  23
ATOM     23  C   UNL     1      37.317 106.341 262.673  1.00  0.00    -0.000 C 
BRANCH  23  24
ATOM     24  C   UNL     1      38.723 106.345 263.297  1.00  0.00    -0.000 C 
BRANCH  24  25
ATOM     25  C   UNL     1      39.822 106.690 262.278  1.00  0.00    -0.000 C 
BRANCH  25  26
ATOM     26  C   UNL     1      39.494 106.183 260.861  1.00  0.00    -0.000 C 
BRANCH  26  27
ATOM     27  C   UNL     1      38.148 105.442 260.794  1.00  0.00    -0.000 C 
BRANCH  27  28
ATOM     28  C   UNL     1      37.625 105.293 259.355  1.00  0.00    -0.000 C 
BRANCH  28  29
ATOM     29  C   UNL     1      36.471 106.260 259.046  1.00  0.00    -0.003 C 
ATOM     30  C   UNL     1      35.601 105.791 257.880  1.00  0.00     0.004 C 
ENDBRANCH  28  29
ENDBRANCH  27  28
ENDBRANCH  26  27
ENDBRANCH  25  26
ENDBRANCH  24  25
ENDBRANCH  23  24
ENDBRANCH  22  23
ENDBRANCH  21  22
ENDBRANCH  20  21
ENDBRANCH  19  20
ENDBRANCH  18  19
ENDBRANCH  17  18
ENDBRANCH   1  17
TORSDOF 26
ENDMDL
