MODEL 1
REMARK VINA RESULT:    -3.881      0.000      0.000
REMARK INTER + INTRA:          -5.320
REMARK INTER:                  -5.243
REMARK INTRA:                  -0.078
REMARK UNBOUND:                -0.078
REMARK SMILES [NH3+]CCCC[C@@H]([NH3+])C(=O)[O-]
REMARK SMILES IDX 4 1 3 2 2 3 1 4 5 8 6 9 7 10 8 14 9 15 10 16
REMARK H PARENT 1 5 1 6 1 7 7 11 7 12 7 13
REMARK Flexibility Score: inf
ROOT
ATOM      1  C   UNL     1     195.780 188.205 178.563  1.00  0.00     0.012 C 
ENDROOT
BRANCH   1   2
ATOM      2  C   UNL     1     196.532 187.978 179.890  1.00  0.00     0.061 C 
BRANCH   2   3
ATOM      3  C   UNL     1     195.705 187.291 180.992  1.00  0.00     0.258 C 
BRANCH   3   4
ATOM      4  N   UNL     1     195.512 188.154 182.159  1.00  0.00    -0.358 N 
ATOM      5  H   UNL     1     194.755 188.843 181.951  1.00  0.00     0.344 HD
ATOM      6  H   UNL     1     196.392 188.677 182.376  1.00  0.00     0.344 HD
ATOM      7  H   UNL     1     195.221 187.586 182.987  1.00  0.00     0.344 HD
ENDBRANCH   3   4
ENDBRANCH   2   3
ENDBRANCH   1   2
BRANCH   1   8
ATOM      8  C   UNL     1     196.555 187.801 177.293  1.00  0.00     0.072 C 
BRANCH   8   9
ATOM      9  C   UNL     1     195.920 188.274 175.964  1.00  0.00     0.227 C 
BRANCH   9  10
ATOM     10  N   UNL     1     196.862 189.066 175.160  1.00  0.00    -0.350 N 
ATOM     11  H   UNL     1     197.628 189.453 175.759  1.00  0.00     0.345 HD
ATOM     12  H   UNL     1     196.360 189.851 174.688  1.00  0.00     0.345 HD
ATOM     13  H   UNL     1     197.283 188.467 174.412  1.00  0.00     0.345 HD
ENDBRANCH   9  10
BRANCH   9  14
ATOM     14  C   UNL     1     195.445 187.077 175.182  1.00  0.00     0.099 C 
ATOM     15  O   UNL     1     196.136 186.025 175.142  1.00  0.00    -0.544 OA
ATOM     16  O   UNL     1     194.221 187.119 174.525  1.00  0.00    -0.544 OA
ENDBRANCH   9  14
ENDBRANCH   8   9
ENDBRANCH   1   8
TORSDOF 7
ENDMDL
MODEL 2
REMARK VINA RESULT:    -3.745      4.547      6.603
REMARK INTER + INTRA:          -5.136
REMARK INTER:                  -5.002
REMARK INTRA:                  -0.134
REMARK UNBOUND:                -0.078
REMARK SMILES [NH3+]CCCC[C@@H]([NH3+])C(=O)[O-]
REMARK SMILES IDX 4 1 3 2 2 3 1 4 5 8 6 9 7 10 8 14 9 15 10 16
REMARK H PARENT 1 5 1 6 1 7 7 11 7 12 7 13
REMARK Flexibility Score: inf
ROOT
ATOM      1  C   UNL     1     195.344 187.543 180.627  1.00  0.00     0.012 C 
ENDROOT
BRANCH   1   2
ATOM      2  C   UNL     1     195.567 188.475 179.419  1.00  0.00     0.061 C 
BRANCH   2   3
ATOM      3  C   UNL     1     196.468 187.894 178.313  1.00  0.00     0.258 C 
BRANCH   3   4
ATOM      4  N   UNL     1     196.025 188.286 176.974  1.00  0.00    -0.358 N 
ATOM      5  H   UNL     1     196.231 189.301 176.832  1.00  0.00     0.344 HD
ATOM      6  H   UNL     1     194.995 188.136 176.872  1.00  0.00     0.344 HD
ATOM      7  H   UNL     1     196.540 187.742 176.246  1.00  0.00     0.344 HD
ENDBRANCH   3   4
ENDBRANCH   2   3
ENDBRANCH   1   2
BRANCH   1   8
ATOM      8  C   UNL     1     196.595 187.275 181.487  1.00  0.00     0.072 C 
BRANCH   8   9
ATOM      9  C   UNL     1     196.310 186.665 182.880  1.00  0.00     0.227 C 
BRANCH   9  10
ATOM     10  N   UNL     1     197.535 186.537 183.682  1.00  0.00    -0.350 N 
ATOM     11  H   UNL     1     197.780 187.448 184.134  1.00  0.00     0.345 HD
ATOM     12  H   UNL     1     198.328 186.225 183.079  1.00  0.00     0.345 HD
ATOM     13  H   UNL     1     197.401 185.812 184.425  1.00  0.00     0.345 HD
ENDBRANCH   9  10
BRANCH   9  14
ATOM     14  C   UNL     1     195.300 187.518 183.603  1.00  0.00     0.099 C 
ATOM     15  O   UNL     1     194.202 187.029 183.979  1.00  0.00    -0.544 OA
ATOM     16  O   UNL     1     195.592 188.847 183.886  1.00  0.00    -0.544 OA
ENDBRANCH   9  14
ENDBRANCH   8   9
ENDBRANCH   1   8
TORSDOF 7
ENDMDL
MODEL 3
REMARK VINA RESULT:    -3.710      3.734      5.407
REMARK INTER + INTRA:          -5.089
REMARK INTER:                  -5.023
REMARK INTRA:                  -0.066
REMARK UNBOUND:                -0.078
REMARK SMILES [NH3+]CCCC[C@@H]([NH3+])C(=O)[O-]
REMARK SMILES IDX 4 1 3 2 2 3 1 4 5 8 6 9 7 10 8 14 9 15 10 16
REMARK H PARENT 1 5 1 6 1 7 7 11 7 12 7 13
REMARK Flexibility Score: inf
ROOT
ATOM      1  C   UNL     1     193.085 186.569 173.875  1.00  0.00     0.012 C 
ENDROOT
BRANCH   1   2
ATOM      2  C   UNL     1     191.676 187.192 173.936  1.00  0.00     0.061 C 
BRANCH   2   3
ATOM      3  C   UNL     1     190.655 186.399 174.773  1.00  0.00     0.258 C 
BRANCH   3   4
ATOM      4  N   UNL     1     189.459 187.187 175.079  1.00  0.00    -0.358 N 
ATOM      5  H   UNL     1     189.682 188.201 174.965  1.00  0.00     0.344 HD
ATOM      6  H   UNL     1     189.156 187.019 176.066  1.00  0.00     0.344 HD
ATOM      7  H   UNL     1     188.686 186.944 174.420  1.00  0.00     0.344 HD
ENDBRANCH   3   4
ENDBRANCH   2   3
ENDBRANCH   1   2
BRANCH   1   8
ATOM      8  C   UNL     1     194.229 187.488 174.348  1.00  0.00     0.072 C 
BRANCH   8   9
ATOM      9  C   UNL     1     195.186 186.857 175.387  1.00  0.00     0.227 C 
BRANCH   9  10
ATOM     10  N   UNL     1     196.021 185.804 174.791  1.00  0.00    -0.350 N 
ATOM     11  H   UNL     1     196.368 186.094 173.847  1.00  0.00     0.345 HD
ATOM     12  H   UNL     1     195.474 184.918 174.702  1.00  0.00     0.345 HD
ATOM     13  H   UNL     1     196.841 185.606 175.410  1.00  0.00     0.345 HD
ENDBRANCH   9  10
BRANCH   9  14
ATOM     14  C   UNL     1     196.052 187.932 175.988  1.00  0.00     0.099 C 
ATOM     15  O   UNL     1     196.224 187.992 177.234  1.00  0.00    -0.544 OA
ATOM     16  O   UNL     1     196.694 188.847 175.162  1.00  0.00    -0.544 OA
ENDBRANCH   9  14
ENDBRANCH   8   9
ENDBRANCH   1   8
TORSDOF 7
ENDMDL
MODEL 4
REMARK VINA RESULT:    -3.710      5.185      5.793
REMARK INTER + INTRA:          -5.089
REMARK INTER:                  -4.933
REMARK INTRA:                  -0.156
REMARK UNBOUND:                -0.078
REMARK SMILES [NH3+]CCCC[C@@H]([NH3+])C(=O)[O-]
REMARK SMILES IDX 4 1 3 2 2 3 1 4 5 8 6 9 7 10 8 14 9 15 10 16
REMARK H PARENT 1 5 1 6 1 7 7 11 7 12 7 13
REMARK Flexibility Score: inf
ROOT
ATOM      1  C   UNL     1     196.356 187.507 181.845  1.00  0.00     0.012 C 
ENDROOT
BRANCH   1   2
ATOM      2  C   UNL     1     197.506 186.560 182.242  1.00  0.00     0.061 C 
BRANCH   2   3
ATOM      3  C   UNL     1     197.483 186.097 183.711  1.00  0.00     0.258 C 
BRANCH   3   4
ATOM      4  N   UNL     1     196.996 184.724 183.851  1.00  0.00    -0.358 N 
ATOM      5  H   UNL     1     196.128 184.611 183.280  1.00  0.00     0.344 HD
ATOM      6  H   UNL     1     196.769 184.518 184.851  1.00  0.00     0.344 HD
ATOM      7  H   UNL     1     197.711 184.047 183.500  1.00  0.00     0.344 HD
ENDBRANCH   3   4
ENDBRANCH   2   3
ENDBRANCH   1   2
BRANCH   1   8
ATOM      8  C   UNL     1     195.163 186.830 181.139  1.00  0.00     0.072 C 
BRANCH   8   9
ATOM      9  C   UNL     1     194.260 185.976 182.061  1.00  0.00     0.227 C 
BRANCH   9  10
ATOM     10  N   UNL     1     193.690 186.773 183.156  1.00  0.00    -0.350 N 
ATOM     11  H   UNL     1     194.040 187.758 183.121  1.00  0.00     0.345 HD
ATOM     12  H   UNL     1     193.940 186.348 184.078  1.00  0.00     0.345 HD
ATOM     13  H   UNL     1     192.646 186.780 183.086  1.00  0.00     0.345 HD
ENDBRANCH   9  10
BRANCH   9  14
ATOM     14  C   UNL     1     193.161 185.350 181.244  1.00  0.00     0.099 C 
ATOM     15  O   UNL     1     192.316 186.071 180.649  1.00  0.00    -0.544 OA
ATOM     16  O   UNL     1     193.093 183.968 181.117  1.00  0.00    -0.544 OA
ENDBRANCH   9  14
ENDBRANCH   8   9
ENDBRANCH   1   8
TORSDOF 7
ENDMDL
MODEL 5
REMARK VINA RESULT:    -3.617      3.075      5.557
REMARK INTER + INTRA:          -4.963
REMARK INTER:                  -4.844
REMARK INTRA:                  -0.119
REMARK UNBOUND:                -0.078
REMARK SMILES [NH3+]CCCC[C@@H]([NH3+])C(=O)[O-]
REMARK SMILES IDX 4 1 3 2 2 3 1 4 5 8 6 9 7 10 8 14 9 15 10 16
REMARK H PARENT 1 5 1 6 1 7 7 11 7 12 7 13
REMARK Flexibility Score: inf
ROOT
ATOM      1  C   UNL     1     196.478 188.040 178.913  1.00  0.00     0.012 C 
ENDROOT
BRANCH   1   2
ATOM      2  C   UNL     1     195.789 188.035 177.534  1.00  0.00     0.061 C 
BRANCH   2   3
ATOM      3  C   UNL     1     196.741 187.847 176.338  1.00  0.00     0.258 C 
BRANCH   3   4
ATOM      4  N   UNL     1     196.113 188.215 175.068  1.00  0.00    -0.358 N 
ATOM      5  H   UNL     1     195.856 187.345 174.550  1.00  0.00     0.344 HD
ATOM      6  H   UNL     1     196.777 188.771 174.480  1.00  0.00     0.344 HD
ATOM      7  H   UNL     1     195.241 188.765 175.239  1.00  0.00     0.344 HD
ENDBRANCH   3   4
ENDBRANCH   2   3
ENDBRANCH   1   2
BRANCH   1   8
ATOM      8  C   UNL     1     195.563 188.399 180.102  1.00  0.00     0.072 C 
BRANCH   8   9
ATOM      9  C   UNL     1     195.903 187.677 181.427  1.00  0.00     0.227 C 
BRANCH   9  10
ATOM     10  N   UNL     1     195.611 188.517 182.597  1.00  0.00    -0.350 N 
ATOM     11  H   UNL     1     196.358 189.237 182.734  1.00  0.00     0.345 HD
ATOM     12  H   UNL     1     195.538 187.926 183.455  1.00  0.00     0.345 HD
ATOM     13  H   UNL     1     194.692 189.001 182.468  1.00  0.00     0.345 HD
ENDBRANCH   9  10
BRANCH   9  14
ATOM     14  C   UNL     1     195.131 186.386 181.506  1.00  0.00     0.099 C 
ATOM     15  O   UNL     1     195.495 185.470 182.290  1.00  0.00    -0.544 OA
ATOM     16  O   UNL     1     193.990 186.213 180.732  1.00  0.00    -0.544 OA
ENDBRANCH   9  14
ENDBRANCH   8   9
ENDBRANCH   1   8
TORSDOF 7
ENDMDL
MODEL 6
REMARK VINA RESULT:    -3.598      3.734      6.156
REMARK INTER + INTRA:          -4.938
REMARK INTER:                  -4.877
REMARK INTRA:                  -0.061
REMARK UNBOUND:                -0.078
REMARK SMILES [NH3+]CCCC[C@@H]([NH3+])C(=O)[O-]
REMARK SMILES IDX 4 1 3 2 2 3 1 4 5 8 6 9 7 10 8 14 9 15 10 16
REMARK H PARENT 1 5 1 6 1 7 7 11 7 12 7 13
REMARK Flexibility Score: inf
ROOT
ATOM      1  C   UNL     1     193.024 186.854 174.153  1.00  0.00     0.012 C 
ENDROOT
BRANCH   1   2
ATOM      2  C   UNL     1     192.071 187.529 173.146  1.00  0.00     0.061 C 
BRANCH   2   3
ATOM      3  C   UNL     1     190.900 186.648 172.675  1.00  0.00     0.258 C 
BRANCH   3   4
ATOM      4  N   UNL     1     190.855 186.519 171.218  1.00  0.00    -0.358 N 
ATOM      5  H   UNL     1     191.772 186.823 170.821  1.00  0.00     0.344 HD
ATOM      6  H   UNL     1     190.100 187.126 170.821  1.00  0.00     0.344 HD
ATOM      7  H   UNL     1     190.693 185.523 170.946  1.00  0.00     0.344 HD
ENDBRANCH   3   4
ENDBRANCH   2   3
ENDBRANCH   1   2
BRANCH   1   8
ATOM      8  C   UNL     1     194.347 187.605 174.409  1.00  0.00     0.072 C 
BRANCH   8   9
ATOM      9  C   UNL     1     195.299 186.921 175.419  1.00  0.00     0.227 C 
BRANCH   9  10
ATOM     10  N   UNL     1     196.075 185.841 174.793  1.00  0.00    -0.350 N 
ATOM     11  H   UNL     1     196.216 185.049 175.462  1.00  0.00     0.345 HD
ATOM     12  H   UNL     1     197.005 186.201 174.481  1.00  0.00     0.345 HD
ATOM     13  H   UNL     1     195.573 185.487 173.945  1.00  0.00     0.345 HD
ENDBRANCH   9  10
BRANCH   9  14
ATOM     14  C   UNL     1     196.223 187.952 176.011  1.00  0.00     0.099 C 
ATOM     15  O   UNL     1     196.438 187.982 177.252  1.00  0.00    -0.544 OA
ATOM     16  O   UNL     1     196.871 188.860 175.181  1.00  0.00    -0.544 OA
ENDBRANCH   9  14
ENDBRANCH   8   9
ENDBRANCH   1   8
TORSDOF 7
ENDMDL
MODEL 7
REMARK VINA RESULT:    -3.586      4.346      6.568
REMARK INTER + INTRA:          -4.921
REMARK INTER:                  -4.836
REMARK INTRA:                  -0.086
REMARK UNBOUND:                -0.078
REMARK SMILES [NH3+]CCCC[C@@H]([NH3+])C(=O)[O-]
REMARK SMILES IDX 4 1 3 2 2 3 1 4 5 8 6 9 7 10 8 14 9 15 10 16
REMARK H PARENT 1 5 1 6 1 7 7 11 7 12 7 13
REMARK Flexibility Score: inf
ROOT
ATOM      1  C   UNL     1     195.361 187.594 180.428  1.00  0.00     0.012 C 
ENDROOT
BRANCH   1   2
ATOM      2  C   UNL     1     195.491 188.451 179.153  1.00  0.00     0.061 C 
BRANCH   2   3
ATOM      3  C   UNL     1     196.430 187.871 178.079  1.00  0.00     0.258 C 
BRANCH   3   4
ATOM      4  N   UNL     1     196.069 188.313 176.731  1.00  0.00    -0.358 N 
ATOM      5  H   UNL     1     196.465 187.641 176.035  1.00  0.00     0.344 HD
ATOM      6  H   UNL     1     196.463 189.263 176.541  1.00  0.00     0.344 HD
ATOM      7  H   UNL     1     195.030 188.328 176.619  1.00  0.00     0.344 HD
ENDBRANCH   3   4
ENDBRANCH   2   3
ENDBRANCH   1   2
BRANCH   1   8
ATOM      8  C   UNL     1     196.538 187.709 181.418  1.00  0.00     0.072 C 
BRANCH   8   9
ATOM      9  C   UNL     1     196.145 187.616 182.911  1.00  0.00     0.227 C 
BRANCH   9  10
ATOM     10  N   UNL     1     194.714 187.321 183.082  1.00  0.00    -0.350 N 
ATOM     11  H   UNL     1     194.487 187.154 184.089  1.00  0.00     0.345 HD
ATOM     12  H   UNL     1     194.452 186.479 182.523  1.00  0.00     0.345 HD
ATOM     13  H   UNL     1     194.141 188.124 182.731  1.00  0.00     0.345 HD
ENDBRANCH   9  10
BRANCH   9  14
ATOM     14  C   UNL     1     196.979 186.556 183.583  1.00  0.00     0.099 C 
ATOM     15  O   UNL     1     198.076 186.854 184.124  1.00  0.00    -0.544 OA
ATOM     16  O   UNL     1     196.522 185.245 183.636  1.00  0.00    -0.544 OA
ENDBRANCH   9  14
ENDBRANCH   8   9
ENDBRANCH   1   8
TORSDOF 7
ENDMDL
MODEL 8
REMARK VINA RESULT:    -3.563      3.476      5.000
REMARK INTER + INTRA:          -4.890
REMARK INTER:                  -4.791
REMARK INTRA:                  -0.098
REMARK UNBOUND:                -0.078
REMARK SMILES [NH3+]CCCC[C@@H]([NH3+])C(=O)[O-]
REMARK SMILES IDX 4 1 3 2 2 3 1 4 5 8 6 9 7 10 8 14 9 15 10 16
REMARK H PARENT 1 5 1 6 1 7 7 11 7 12 7 13
REMARK Flexibility Score: inf
ROOT
ATOM      1  C   UNL     1     194.357 187.708 174.449  1.00  0.00     0.012 C 
ENDROOT
BRANCH   1   2
ATOM      2  C   UNL     1     195.546 187.113 175.229  1.00  0.00     0.061 C 
BRANCH   2   3
ATOM      3  C   UNL     1     196.412 188.146 175.973  1.00  0.00     0.258 C 
BRANCH   3   4
ATOM      4  N   UNL     1     196.074 188.231 177.395  1.00  0.00    -0.358 N 
ATOM      5  H   UNL     1     196.683 187.571 177.929  1.00  0.00     0.344 HD
ATOM      6  H   UNL     1     195.074 187.964 177.549  1.00  0.00     0.344 HD
ATOM      7  H   UNL     1     196.245 189.198 177.752  1.00  0.00     0.344 HD
ENDBRANCH   3   4
ENDBRANCH   2   3
ENDBRANCH   1   2
BRANCH   1   8
ATOM      8  C   UNL     1     193.442 186.674 173.760  1.00  0.00     0.072 C 
BRANCH   8   9
ATOM      9  C   UNL     1     191.971 187.120 173.586  1.00  0.00     0.227 C 
BRANCH   9  10
ATOM     10  N   UNL     1     191.473 186.842 172.231  1.00  0.00    -0.350 N 
ATOM     11  H   UNL     1     191.863 187.528 171.544  1.00  0.00     0.345 HD
ATOM     12  H   UNL     1     190.430 186.891 172.215  1.00  0.00     0.345 HD
ATOM     13  H   UNL     1     191.748 185.875 171.942  1.00  0.00     0.345 HD
ENDBRANCH   9  10
BRANCH   9  14
ATOM     14  C   UNL     1     191.113 186.424 174.610  1.00  0.00     0.099 C 
ATOM     15  O   UNL     1     189.966 186.862 174.888  1.00  0.00    -0.544 OA
ATOM     16  O   UNL     1     191.576 185.270 175.232  1.00  0.00    -0.544 OA
ENDBRANCH   9  14
ENDBRANCH   8   9
ENDBRANCH   1   8
TORSDOF 7
ENDMDL
MODEL 9
REMARK VINA RESULT:    -3.543      3.954      5.464
REMARK INTER + INTRA:          -4.863
REMARK INTER:                  -4.800
REMARK INTRA:                  -0.063
REMARK UNBOUND:                -0.078
REMARK SMILES [NH3+]CCCC[C@@H]([NH3+])C(=O)[O-]
REMARK SMILES IDX 4 1 3 2 2 3 1 4 5 8 6 9 7 10 8 14 9 15 10 16
REMARK H PARENT 1 5 1 6 1 7 7 11 7 12 7 13
REMARK Flexibility Score: inf
ROOT
ATOM      1  C   UNL     1     193.986 187.105 174.360  1.00  0.00     0.012 C 
ENDROOT
BRANCH   1   2
ATOM      2  C   UNL     1     195.222 187.949 174.730  1.00  0.00     0.061 C 
BRANCH   2   3
ATOM      3  C   UNL     1     196.063 187.386 175.892  1.00  0.00     0.258 C 
BRANCH   3   4
ATOM      4  N   UNL     1     196.123 188.307 177.028  1.00  0.00    -0.358 N 
ATOM      5  H   UNL     1     195.407 188.023 177.734  1.00  0.00     0.344 HD
ATOM      6  H   UNL     1     195.919 189.285 176.717  1.00  0.00     0.344 HD
ATOM      7  H   UNL     1     197.065 188.265 177.480  1.00  0.00     0.344 HD
ENDBRANCH   3   4
ENDBRANCH   2   3
ENDBRANCH   1   2
BRANCH   1   8
ATOM      8  C   UNL     1     192.843 187.882 173.676  1.00  0.00     0.072 C 
BRANCH   8   9
ATOM      9  C   UNL     1     191.570 187.051 173.388  1.00  0.00     0.227 C 
BRANCH   9  10
ATOM     10  N   UNL     1     190.551 187.234 174.432  1.00  0.00    -0.350 N 
ATOM     11  H   UNL     1     189.592 187.067 174.048  1.00  0.00     0.345 HD
ATOM     12  H   UNL     1     190.606 188.201 174.822  1.00  0.00     0.345 HD
ATOM     13  H   UNL     1     190.724 186.566 175.220  1.00  0.00     0.345 HD
ENDBRANCH   9  10
BRANCH   9  14
ATOM     14  C   UNL     1     191.014 187.437 172.043  1.00  0.00     0.099 C 
ATOM     15  O   UNL     1     190.527 186.563 171.277  1.00  0.00    -0.544 OA
ATOM     16  O   UNL     1     191.007 188.771 171.653  1.00  0.00    -0.544 OA
ENDBRANCH   9  14
ENDBRANCH   8   9
ENDBRANCH   1   8
TORSDOF 7
ENDMDL
