MODEL 1
REMARK VINA RESULT:    -3.535      0.000      0.000
REMARK INTER + INTRA:          -3.617
REMARK INTER:                  -4.362
REMARK INTRA:                   0.745
REMARK UNBOUND:                 0.745
REMARK SMILES CC1=CC=CC(C)(C)CC1=O
REMARK SMILES IDX 1 1 2 2 3 3 10 4 11 5 9 6 4 8 5 9 6 10 7 11 8 12
REMARK H PARENT
REMARK Flexibility Score: 80.00
ROOT
ATOM      1  C   UNL     1     -74.744 -72.731 215.400  1.00  0.00     0.048 C 
ATOM      2  C   UNL     1     -73.443 -73.477 215.217  1.00  0.00    -0.008 C 
ATOM      3  C   UNL     1     -73.508 -74.815 215.047  1.00  0.00     0.007 C 
ENDROOT
BRANCH   2   4
ATOM      4  C   UNL     1     -72.191 -72.686 215.313  1.00  0.00     0.159 C 
ATOM      5  O   UNL     1     -72.253 -71.496 215.728  1.00  0.00    -0.295 OA
BRANCH   4   6
ATOM      6  C   UNL     1     -70.846 -73.219 214.930  1.00  0.00     0.091 CG0
ATOM      7  G   UNL     1     -70.441 -74.481 215.725  1.00  0.00     0.000 G0
ENDBRANCH   4   6
ENDBRANCH   2   4
BRANCH   3   8
ATOM      8  C   UNL     1     -72.421 -75.806 214.872  1.00  0.00    -0.003 C 
ATOM      9  C   UNL     1     -71.118 -75.689 215.160  1.00  0.00    -0.020 C 
BRANCH   9  10
ATOM     10  C   UNL     1     -70.430 -74.469 215.725  1.00  0.00    -0.010 CG0
ATOM     11  C   UNL     1     -70.721 -74.350 217.238  1.00  0.00     0.016 C 
ATOM     12  C   UNL     1     -68.904 -74.647 215.545  1.00  0.00     0.016 C 
ATOM     13  G   UNL     1     -70.864 -73.214 214.935  1.00  0.00     0.000 G0
ENDBRANCH   9  10
ENDBRANCH   3   8
TORSDOF 0
ENDMDL
MODEL 2
REMARK VINA RESULT:    -3.318     11.730     13.690
REMARK INTER + INTRA:          -3.348
REMARK INTER:                  -4.092
REMARK INTRA:                   0.744
REMARK UNBOUND:                 0.745
REMARK SMILES CC1=CC=CC(C)(C)CC1=O
REMARK SMILES IDX 1 1 2 2 3 3 10 4 11 5 9 6 4 8 5 9 6 10 7 11 8 12
REMARK H PARENT
REMARK Flexibility Score: 80.00
ROOT
ATOM      1  C   UNL     1     -59.609 -79.424 224.785  1.00  0.00     0.048 C 
ATOM      2  C   UNL     1     -61.048 -78.981 224.661  1.00  0.00    -0.008 C 
ATOM      3  C   UNL     1     -61.871 -79.228 225.702  1.00  0.00     0.007 C 
ENDROOT
BRANCH   2   4
ATOM      4  C   UNL     1     -61.458 -78.375 223.370  1.00  0.00     0.159 C 
ATOM      5  O   UNL     1     -60.669 -78.442 222.387  1.00  0.00    -0.295 OA
BRANCH   4   6
ATOM      6  C   UNL     1     -62.764 -77.671 223.166  1.00  0.00     0.091 CG0
ATOM      7  G   UNL     1     -63.991 -78.567 223.445  1.00  0.00     0.000 G0
ENDBRANCH   4   6
ENDBRANCH   2   4
BRANCH   3   8
ATOM      8  C   UNL     1     -63.316 -78.940 225.862  1.00  0.00    -0.003 C 
ATOM      9  C   UNL     1     -64.231 -78.665 224.923  1.00  0.00    -0.020 C 
BRANCH   9  10
ATOM     10  C   UNL     1     -63.986 -78.554 223.437  1.00  0.00    -0.010 CG0
ATOM     11  C   UNL     1     -63.865 -79.964 222.814  1.00  0.00     0.016 C 
ATOM     12  C   UNL     1     -65.206 -77.853 222.795  1.00  0.00     0.016 C 
ATOM     13  G   UNL     1     -62.738 -77.681 223.178  1.00  0.00     0.000 G0
ENDBRANCH   9  10
ENDBRANCH   3   8
TORSDOF 0
ENDMDL
MODEL 3
REMARK VINA RESULT:    -3.307     13.435     14.280
REMARK INTER + INTRA:          -3.336
REMARK INTER:                  -4.086
REMARK INTRA:                   0.750
REMARK UNBOUND:                 0.745
REMARK SMILES CC1=CC=CC(C)(C)CC1=O
REMARK SMILES IDX 1 1 2 2 3 3 10 4 11 5 9 6 4 8 5 9 6 10 7 11 8 12
REMARK H PARENT
REMARK Flexibility Score: 80.00
ROOT
ATOM      1  C   UNL     1     -57.405 -73.253 214.653  1.00  0.00     0.048 C 
ATOM      2  C   UNL     1     -57.870 -74.502 215.365  1.00  0.00    -0.008 C 
ATOM      3  C   UNL     1     -58.461 -74.351 216.570  1.00  0.00     0.007 C 
ENDROOT
BRANCH   2   4
ATOM      4  C   UNL     1     -57.571 -75.801 214.715  1.00  0.00     0.159 C 
ATOM      5  O   UNL     1     -56.795 -75.820 213.720  1.00  0.00    -0.295 OA
BRANCH   4   6
ATOM      6  C   UNL     1     -58.153 -77.105 215.167  1.00  0.00     0.091 CG0
ATOM      7  G   UNL     1     -57.812 -77.448 216.635  1.00  0.00     0.000 G0
ENDBRANCH   4   6
ENDBRANCH   2   4
BRANCH   3   8
ATOM      8  C   UNL     1     -58.988 -75.372 217.506  1.00  0.00    -0.003 C 
ATOM      9  C   UNL     1     -58.724 -76.684 217.560  1.00  0.00    -0.020 C 
BRANCH   9  10
ATOM     10  C   UNL     1     -57.816 -77.456 216.632  1.00  0.00    -0.010 CG0
ATOM     11  C   UNL     1     -56.337 -77.189 216.996  1.00  0.00     0.016 C 
ATOM     12  C   UNL     1     -58.091 -78.965 216.828  1.00  0.00     0.016 C 
ATOM     13  G   UNL     1     -58.142 -77.094 215.165  1.00  0.00     0.000 G0
ENDBRANCH   9  10
ENDBRANCH   3   8
TORSDOF 0
ENDMDL
MODEL 4
REMARK VINA RESULT:    -3.253     10.945     12.029
REMARK INTER + INTRA:          -3.268
REMARK INTER:                  -4.015
REMARK INTRA:                   0.746
REMARK UNBOUND:                 0.745
REMARK SMILES CC1=CC=CC(C)(C)CC1=O
REMARK SMILES IDX 1 1 2 2 3 3 10 4 11 5 9 6 4 8 5 9 6 10 7 11 8 12
REMARK H PARENT
REMARK Flexibility Score: 80.00
ROOT
ATOM      1  C   UNL     1     -63.566 -74.834 222.046  1.00  0.00     0.048 C 
ATOM      2  C   UNL     1     -63.101 -76.257 222.249  1.00  0.00    -0.008 C 
ATOM      3  C   UNL     1     -61.896 -76.599 221.743  1.00  0.00     0.007 C 
ENDROOT
BRANCH   2   4
ATOM      4  C   UNL     1     -64.040 -77.185 222.926  1.00  0.00     0.159 C 
ATOM      5  O   UNL     1     -65.233 -76.816 223.109  1.00  0.00    -0.295 OA
BRANCH   4   6
ATOM      6  C   UNL     1     -63.648 -78.541 223.422  1.00  0.00     0.091 CG0
ATOM      7  G   UNL     1     -63.127 -79.472 222.303  1.00  0.00     0.000 G0
ENDBRANCH   4   6
ENDBRANCH   2   4
BRANCH   3   8
ATOM      8  C   UNL     1     -61.194 -77.904 221.759  1.00  0.00    -0.003 C 
ATOM      9  C   UNL     1     -61.690 -79.127 221.983  1.00  0.00    -0.020 C 
BRANCH   9  10
ATOM     10  C   UNL     1     -63.125 -79.468 222.308  1.00  0.00    -0.010 CG0
ATOM     11  C   UNL     1     -63.986 -79.410 221.025  1.00  0.00     0.016 C 
ATOM     12  C   UNL     1     -63.170 -80.916 222.847  1.00  0.00     0.016 C 
ATOM     13  G   UNL     1     -63.646 -78.526 223.417  1.00  0.00     0.000 G0
ENDBRANCH   9  10
ENDBRANCH   3   8
TORSDOF 0
ENDMDL
MODEL 5
REMARK VINA RESULT:    -3.220     10.162     11.458
REMARK INTER + INTRA:          -3.227
REMARK INTER:                  -3.981
REMARK INTRA:                   0.754
REMARK UNBOUND:                 0.745
REMARK SMILES CC1=CC=CC(C)(C)CC1=O
REMARK SMILES IDX 1 1 2 2 3 3 10 4 11 5 9 6 4 8 5 9 6 10 7 11 8 12
REMARK H PARENT
REMARK Flexibility Score: 80.00
ROOT
ATOM      1  C   UNL     1     -60.362 -77.036 219.124  1.00  0.00     0.048 C 
ATOM      2  C   UNL     1     -61.339 -77.046 220.277  1.00  0.00    -0.008 C 
ATOM      3  C   UNL     1     -60.923 -77.583 221.444  1.00  0.00     0.007 C 
ENDROOT
BRANCH   2   4
ATOM      4  C   UNL     1     -62.704 -76.532 220.009  1.00  0.00     0.159 C 
ATOM      5  O   UNL     1     -63.054 -76.325 218.815  1.00  0.00    -0.295 OA
BRANCH   4   6
ATOM      6  C   UNL     1     -63.698 -76.228 221.087  1.00  0.00     0.091 CG0
ATOM      7  G   UNL     1     -64.056 -77.458 221.951  1.00  0.00     0.000 G0
ENDBRANCH   4   6
ENDBRANCH   2   4
BRANCH   3   8
ATOM      8  C   UNL     1     -61.650 -77.758 222.723  1.00  0.00    -0.003 C 
ATOM      9  C   UNL     1     -62.968 -77.723 222.957  1.00  0.00    -0.020 C 
BRANCH   9  10
ATOM     10  C   UNL     1     -64.053 -77.464 221.939  1.00  0.00    -0.010 CG0
ATOM     11  C   UNL     1     -64.294 -78.731 221.088  1.00  0.00     0.016 C 
ATOM     12  C   UNL     1     -65.362 -77.142 222.697  1.00  0.00     0.016 C 
ATOM     13  G   UNL     1     -63.679 -76.233 221.081  1.00  0.00     0.000 G0
ENDBRANCH   9  10
ENDBRANCH   3   8
TORSDOF 0
ENDMDL
MODEL 6
REMARK VINA RESULT:    -3.194     10.294     11.748
REMARK INTER + INTRA:          -3.196
REMARK INTER:                  -3.951
REMARK INTRA:                   0.756
REMARK UNBOUND:                 0.745
REMARK SMILES CC1=CC=CC(C)(C)CC1=O
REMARK SMILES IDX 1 1 2 2 3 3 10 4 11 5 9 6 4 8 5 9 6 10 7 11 8 12
REMARK H PARENT
REMARK Flexibility Score: 80.00
ROOT
ATOM      1  C   UNL     1     -64.304 -78.452 225.572  1.00  0.00     0.048 C 
ATOM      2  C   UNL     1     -63.742 -78.254 224.185  1.00  0.00    -0.008 C 
ATOM      3  C   UNL     1     -62.420 -78.467 224.009  1.00  0.00     0.007 C 
ENDROOT
BRANCH   2   4
ATOM      4  C   UNL     1     -64.676 -77.767 223.140  1.00  0.00     0.159 C 
ATOM      5  O   UNL     1     -65.813 -77.343 223.489  1.00  0.00    -0.295 OA
BRANCH   4   6
ATOM      6  C   UNL     1     -64.352 -77.763 221.678  1.00  0.00     0.091 CG0
ATOM      7  G   UNL     1     -63.122 -76.894 221.330  1.00  0.00     0.000 G0
ENDBRANCH   4   6
ENDBRANCH   2   4
BRANCH   3   8
ATOM      8  C   UNL     1     -61.587 -78.330 222.791  1.00  0.00    -0.003 C 
ATOM      9  C   UNL     1     -61.852 -77.667 221.657  1.00  0.00    -0.020 C 
BRANCH   9  10
ATOM     10  C   UNL     1     -63.115 -76.902 221.340  1.00  0.00    -0.010 CG0
ATOM     11  C   UNL     1     -63.111 -75.545 222.080  1.00  0.00     0.016 C 
ATOM     12  C   UNL     1     -63.139 -76.616 219.820  1.00  0.00     0.016 C 
ATOM     13  G   UNL     1     -64.349 -77.765 221.687  1.00  0.00     0.000 G0
ENDBRANCH   9  10
ENDBRANCH   3   8
TORSDOF 0
ENDMDL
MODEL 7
REMARK VINA RESULT:    -3.174     10.976     12.076
REMARK INTER + INTRA:          -3.172
REMARK INTER:                  -3.934
REMARK INTRA:                   0.763
REMARK UNBOUND:                 0.745
REMARK SMILES CC1=CC=CC(C)(C)CC1=O
REMARK SMILES IDX 1 1 2 2 3 3 10 4 11 5 9 6 4 8 5 9 6 10 7 11 8 12
REMARK H PARENT
REMARK Flexibility Score: 80.00
ROOT
ATOM      1  C   UNL     1     -63.505 -74.948 222.124  1.00  0.00     0.048 C 
ATOM      2  C   UNL     1     -63.617 -76.452 222.199  1.00  0.00    -0.008 C 
ATOM      3  C   UNL     1     -64.827 -76.976 222.489  1.00  0.00     0.007 C 
ENDROOT
BRANCH   2   4
ATOM      4  C   UNL     1     -62.367 -77.232 222.021  1.00  0.00     0.159 C 
ATOM      5  O   UNL     1     -61.264 -76.619 222.006  1.00  0.00    -0.295 OA
BRANCH   4   6
ATOM      6  C   UNL     1     -62.339 -78.718 221.843  1.00  0.00     0.091 CG0
ATOM      7  G   UNL     1     -62.964 -79.486 223.030  1.00  0.00     0.000 G0
ENDBRANCH   4   6
ENDBRANCH   2   4
BRANCH   3   8
ATOM      8  C   UNL     1     -65.237 -78.390 222.655  1.00  0.00    -0.003 C 
ATOM      9  C   UNL     1     -64.477 -79.468 222.891  1.00  0.00    -0.020 C 
BRANCH   9  10
ATOM     10  C   UNL     1     -62.972 -79.493 223.020  1.00  0.00    -0.010 CG0
ATOM     11  C   UNL     1     -62.550 -78.935 224.399  1.00  0.00     0.016 C 
ATOM     12  C   UNL     1     -62.503 -80.964 222.937  1.00  0.00     0.016 C 
ATOM     13  G   UNL     1     -62.335 -78.718 221.845  1.00  0.00     0.000 G0
ENDBRANCH   9  10
ENDBRANCH   3   8
TORSDOF 0
ENDMDL
MODEL 8
REMARK VINA RESULT:    -3.123      1.941      3.074
REMARK INTER + INTRA:          -3.108
REMARK INTER:                  -3.880
REMARK INTRA:                   0.772
REMARK UNBOUND:                 0.745
REMARK SMILES CC1=CC=CC(C)(C)CC1=O
REMARK SMILES IDX 1 1 2 2 3 3 10 4 11 5 9 6 4 8 5 9 6 10 7 11 8 12
REMARK H PARENT
REMARK Flexibility Score: 80.00
ROOT
ATOM      1  C   UNL     1     -71.371 -72.092 214.589  1.00  0.00     0.048 C 
ATOM      2  C   UNL     1     -72.143 -73.362 214.860  1.00  0.00    -0.008 C 
ATOM      3  C   UNL     1     -73.482 -73.261 215.001  1.00  0.00     0.007 C 
ENDROOT
BRANCH   2   4
ATOM      4  C   UNL     1     -71.356 -74.609 215.024  1.00  0.00     0.159 C 
ATOM      5  O   UNL     1     -70.101 -74.528 215.126  1.00  0.00    -0.295 OA
BRANCH   4   6
ATOM      6  C   UNL     1     -71.970 -75.974 215.062  1.00  0.00     0.091 CG0
ATOM      7  G   UNL     1     -72.980 -76.156 216.217  1.00  0.00     0.000 G0
ENDBRANCH   4   6
ENDBRANCH   2   4
BRANCH   3   8
ATOM      8  C   UNL     1     -74.489 -74.308 215.294  1.00  0.00    -0.003 C 
ATOM      9  C   UNL     1     -74.311 -75.530 215.812  1.00  0.00    -0.020 C 
BRANCH   9  10
ATOM     10  C   UNL     1     -72.993 -76.154 216.206  1.00  0.00    -0.010 CG0
ATOM     11  C   UNL     1     -72.497 -75.546 217.539  1.00  0.00     0.016 C 
ATOM     12  C   UNL     1     -73.220 -77.667 216.428  1.00  0.00     0.016 C 
ATOM     13  G   UNL     1     -71.972 -75.984 215.059  1.00  0.00     0.000 G0
ENDBRANCH   9  10
ENDBRANCH   3   8
TORSDOF 0
ENDMDL
MODEL 9
REMARK VINA RESULT:    -2.896      1.886      3.190
REMARK INTER + INTRA:          -2.828
REMARK INTER:                  -3.589
REMARK INTRA:                   0.761
REMARK UNBOUND:                 0.745
REMARK SMILES CC1=CC=CC(C)(C)CC1=O
REMARK SMILES IDX 1 1 2 2 3 3 10 4 11 5 9 6 4 8 5 9 6 10 7 11 8 12
REMARK H PARENT
REMARK Flexibility Score: 80.00
ROOT
ATOM      1  C   UNL     1     -71.676 -72.138 214.611  1.00  0.00     0.048 C 
ATOM      2  C   UNL     1     -71.740 -73.521 215.215  1.00  0.00    -0.008 C 
ATOM      3  C   UNL     1     -70.578 -74.192 215.367  1.00  0.00     0.007 C 
ENDROOT
BRANCH   2   4
ATOM      4  C   UNL     1     -73.087 -74.061 215.523  1.00  0.00     0.159 C 
ATOM      5  O   UNL     1     -74.103 -73.447 215.093  1.00  0.00    -0.295 OA
BRANCH   4   6
ATOM      6  C   UNL     1     -73.315 -75.298 216.335  1.00  0.00     0.091 CG0
ATOM      7  G   UNL     1     -72.661 -76.557 215.724  1.00  0.00     0.000 G0
ENDBRANCH   4   6
ENDBRANCH   2   4
BRANCH   3   8
ATOM      8  C   UNL     1     -70.328 -75.553 215.895  1.00  0.00    -0.003 C 
ATOM      9  C   UNL     1     -71.185 -76.571 216.046  1.00  0.00    -0.020 C 
BRANCH   9  10
ATOM     10  C   UNL     1     -72.661 -76.556 215.726  1.00  0.00    -0.010 CG0
ATOM     11  C   UNL     1     -72.871 -76.659 214.198  1.00  0.00     0.016 C 
ATOM     12  C   UNL     1     -73.312 -77.796 216.381  1.00  0.00     0.016 C 
ATOM     13  G   UNL     1     -73.313 -75.293 216.332  1.00  0.00     0.000 G0
ENDBRANCH   9  10
ENDBRANCH   3   8
TORSDOF 0
ENDMDL
