MODEL 1
REMARK VINA RESULT:    -3.294      0.000      0.000
REMARK INTER + INTRA:          -5.898
REMARK INTER:                  -5.219
REMARK INTRA:                  -0.679
REMARK UNBOUND:                -0.679
REMARK SMILES CCCCCCCCCCCC(=O)[O-]
REMARK SMILES IDX 7 1 8 2 9 3 10 4 11 5 12 6 13 7 14 8 6 9 5 10 4 11 3 12 2 13
REMARK SMILES IDX 1 14
REMARK H PARENT
REMARK Flexibility Score: inf
ROOT
ATOM      1  C   UNL     1      18.766  -4.230  12.501  1.00  0.00     0.000 C 
ENDROOT
BRANCH   1   2
ATOM      2  C   UNL     1      19.462  -3.371  13.568  1.00  0.00     0.000 C 
BRANCH   2   3
ATOM      3  C   UNL     1      18.624  -3.210  14.850  1.00  0.00     0.000 C 
BRANCH   3   4
ATOM      4  C   UNL     1      19.250  -3.822  16.117  1.00  0.00     0.006 C 
BRANCH   4   5
ATOM      5  C   UNL     1      19.331  -5.353  16.065  1.00  0.00     0.053 C 
BRANCH   5   6
ATOM      6  C   UNL     1      20.759  -5.801  16.062  1.00  0.00     0.041 C 
ATOM      7  O   UNL     1      21.038  -7.026  15.988  1.00  0.00    -0.550 OA
ATOM      8  O   UNL     1      21.782  -4.862  16.091  1.00  0.00    -0.550 OA
ENDBRANCH   5   6
ENDBRANCH   4   5
ENDBRANCH   3   4
ENDBRANCH   2   3
ENDBRANCH   1   2
BRANCH   1   9
ATOM      9  C   UNL     1      17.406  -4.735  13.007  1.00  0.00     0.000 C 
BRANCH   9  10
ATOM     10  C   UNL     1      16.875  -5.927  12.193  1.00  0.00    -0.000 C 
BRANCH  10  11
ATOM     11  C   UNL     1      17.726  -6.215  10.945  1.00  0.00    -0.000 C 
BRANCH  11  12
ATOM     12  C   UNL     1      16.877  -6.430   9.678  1.00  0.00    -0.000 C 
BRANCH  12  13
ATOM     13  C   UNL     1      17.655  -6.355   8.353  1.00  0.00    -0.003 C 
ATOM     14  C   UNL     1      16.902  -5.601   7.257  1.00  0.00     0.004 C 
ENDBRANCH  12  13
ENDBRANCH  11  12
ENDBRANCH  10  11
ENDBRANCH   9  10
ENDBRANCH   1   9
TORSDOF 10
ENDMDL
MODEL 2
REMARK VINA RESULT:    -3.215     17.164     18.627
REMARK INTER + INTRA:          -5.773
REMARK INTER:                  -5.426
REMARK INTRA:                  -0.347
REMARK UNBOUND:                -0.679
REMARK SMILES CCCCCCCCCCCC(=O)[O-]
REMARK SMILES IDX 7 1 8 2 9 3 10 4 11 5 12 6 13 7 14 8 6 9 5 10 4 11 3 12 2 13
REMARK SMILES IDX 1 14
REMARK H PARENT
REMARK Flexibility Score: inf
ROOT
ATOM      1  C   UNL     1      36.804  -4.375  14.216  1.00  0.00     0.000 C 
ENDROOT
BRANCH   1   2
ATOM      2  C   UNL     1      36.768  -5.908  14.121  1.00  0.00     0.000 C 
BRANCH   2   3
ATOM      3  C   UNL     1      37.068  -6.430  12.703  1.00  0.00     0.000 C 
BRANCH   3   4
ATOM      4  C   UNL     1      36.916  -7.951  12.525  1.00  0.00     0.006 C 
BRANCH   4   5
ATOM      5  C   UNL     1      35.451  -8.404  12.472  1.00  0.00     0.053 C 
BRANCH   5   6
ATOM      6  C   UNL     1      35.074  -8.791  11.077  1.00  0.00     0.041 C 
ATOM      7  O   UNL     1      35.012  -7.918  10.172  1.00  0.00    -0.550 OA
ATOM      8  O   UNL     1      34.838 -10.124  10.764  1.00  0.00    -0.550 OA
ENDBRANCH   5   6
ENDBRANCH   4   5
ENDBRANCH   3   4
ENDBRANCH   2   3
ENDBRANCH   1   2
BRANCH   1   9
ATOM      9  C   UNL     1      36.333  -3.901  15.600  1.00  0.00     0.000 C 
BRANCH   9  10
ATOM     10  C   UNL     1      36.757  -2.456  15.909  1.00  0.00    -0.000 C 
BRANCH  10  11
ATOM     11  C   UNL     1      36.851  -1.585  14.645  1.00  0.00    -0.000 C 
BRANCH  11  12
ATOM     12  C   UNL     1      35.964  -0.328  14.717  1.00  0.00    -0.000 C 
BRANCH  12  13
ATOM     13  C   UNL     1      36.494   0.790  15.632  1.00  0.00    -0.003 C 
ATOM     14  C   UNL     1      35.448   1.862  15.936  1.00  0.00     0.004 C 
ENDBRANCH  12  13
ENDBRANCH  11  12
ENDBRANCH  10  11
ENDBRANCH   9  10
ENDBRANCH   1   9
TORSDOF 10
ENDMDL
MODEL 3
REMARK VINA RESULT:    -3.141      3.674      6.779
REMARK INTER + INTRA:          -5.656
REMARK INTER:                  -5.358
REMARK INTRA:                  -0.299
REMARK UNBOUND:                -0.679
REMARK SMILES CCCCCCCCCCCC(=O)[O-]
REMARK SMILES IDX 7 1 8 2 9 3 10 4 11 5 12 6 13 7 14 8 6 9 5 10 4 11 3 12 2 13
REMARK SMILES IDX 1 14
REMARK H PARENT
REMARK Flexibility Score: inf
ROOT
ATOM      1  C   UNL     1      19.039  -3.828  13.225  1.00  0.00     0.000 C 
ENDROOT
BRANCH   1   2
ATOM      2  C   UNL     1      17.757  -4.558  12.796  1.00  0.00     0.000 C 
BRANCH   2   3
ATOM      3  C   UNL     1      18.026  -5.730  11.835  1.00  0.00     0.000 C 
BRANCH   3   4
ATOM      4  C   UNL     1      17.301  -5.639  10.480  1.00  0.00     0.006 C 
BRANCH   4   5
ATOM      5  C   UNL     1      17.998  -6.440   9.373  1.00  0.00     0.053 C 
BRANCH   5   6
ATOM      6  C   UNL     1      17.607  -5.918   8.026  1.00  0.00     0.041 C 
ATOM      7  O   UNL     1      17.839  -4.719   7.719  1.00  0.00    -0.550 OA
ATOM      8  O   UNL     1      17.033  -6.769   7.090  1.00  0.00    -0.550 OA
ENDBRANCH   5   6
ENDBRANCH   4   5
ENDBRANCH   3   4
ENDBRANCH   2   3
ENDBRANCH   1   2
BRANCH   1   9
ATOM      9  C   UNL     1      18.780  -2.942  14.454  1.00  0.00     0.000 C 
BRANCH   9  10
ATOM     10  C   UNL     1      18.062  -3.694  15.587  1.00  0.00    -0.000 C 
BRANCH  10  11
ATOM     11  C   UNL     1      18.776  -5.000  15.973  1.00  0.00    -0.000 C 
BRANCH  11  12
ATOM     12  C   UNL     1      20.299  -4.828  16.125  1.00  0.00    -0.000 C 
BRANCH  12  13
ATOM     13  C   UNL     1      21.146  -5.946  15.492  1.00  0.00    -0.003 C 
ATOM     14  C   UNL     1      20.896  -7.316  16.120  1.00  0.00     0.004 C 
ENDBRANCH  12  13
ENDBRANCH  11  12
ENDBRANCH  10  11
ENDBRANCH   9  10
ENDBRANCH   1   9
TORSDOF 10
ENDMDL
MODEL 4
REMARK VINA RESULT:    -3.131      4.024      7.017
REMARK INTER + INTRA:          -5.641
REMARK INTER:                  -5.159
REMARK INTRA:                  -0.482
REMARK UNBOUND:                -0.679
REMARK SMILES CCCCCCCCCCCC(=O)[O-]
REMARK SMILES IDX 7 1 8 2 9 3 10 4 11 5 12 6 13 7 14 8 6 9 5 10 4 11 3 12 2 13
REMARK SMILES IDX 1 14
REMARK H PARENT
REMARK Flexibility Score: inf
ROOT
ATOM      1  C   UNL     1      17.770  -4.206  12.761  1.00  0.00     0.000 C 
ENDROOT
BRANCH   1   2
ATOM      2  C   UNL     1      18.137  -5.375  11.835  1.00  0.00     0.000 C 
BRANCH   2   3
ATOM      3  C   UNL     1      16.932  -6.269  11.488  1.00  0.00     0.000 C 
BRANCH   3   4
ATOM      4  C   UNL     1      16.875  -6.745  10.025  1.00  0.00     0.006 C 
BRANCH   4   5
ATOM      5  C   UNL     1      18.074  -6.270   9.195  1.00  0.00     0.053 C 
BRANCH   5   6
ATOM      6  C   UNL     1      17.614  -5.731   7.876  1.00  0.00     0.041 C 
ATOM      7  O   UNL     1      16.876  -6.426   7.130  1.00  0.00    -0.550 OA
ATOM      8  O   UNL     1      17.960  -4.440   7.494  1.00  0.00    -0.550 OA
ENDBRANCH   5   6
ENDBRANCH   4   5
ENDBRANCH   3   4
ENDBRANCH   2   3
ENDBRANCH   1   2
BRANCH   1   9
ATOM      9  C   UNL     1      17.663  -4.676  14.220  1.00  0.00     0.000 C 
BRANCH   9  10
ATOM     10  C   UNL     1      18.561  -3.869  15.172  1.00  0.00    -0.000 C 
BRANCH  10  11
ATOM     11  C   UNL     1      18.716  -2.402  14.736  1.00  0.00    -0.000 C 
BRANCH  11  12
ATOM     12  C   UNL     1      17.809  -1.443  15.530  1.00  0.00    -0.000 C 
BRANCH  12  13
ATOM     13  C   UNL     1      17.127  -0.348  14.691  1.00  0.00    -0.003 C 
ATOM     14  C   UNL     1      17.206   1.036  15.333  1.00  0.00     0.004 C 
ENDBRANCH  12  13
ENDBRANCH  11  12
ENDBRANCH  10  11
ENDBRANCH   9  10
ENDBRANCH   1   9
TORSDOF 10
ENDMDL
MODEL 5
REMARK VINA RESULT:    -3.101      3.506      4.316
REMARK INTER + INTRA:          -5.593
REMARK INTER:                  -5.171
REMARK INTRA:                  -0.422
REMARK UNBOUND:                -0.679
REMARK SMILES CCCCCCCCCCCC(=O)[O-]
REMARK SMILES IDX 7 1 8 2 9 3 10 4 11 5 12 6 13 7 14 8 6 9 5 10 4 11 3 12 2 13
REMARK SMILES IDX 1 14
REMARK H PARENT
REMARK Flexibility Score: inf
ROOT
ATOM      1  C   UNL     1      16.977  -3.759  14.126  1.00  0.00     0.000 C 
ENDROOT
BRANCH   1   2
ATOM      2  C   UNL     1      18.366  -3.107  14.188  1.00  0.00     0.000 C 
BRANCH   2   3
ATOM      3  C   UNL     1      18.726  -2.591  15.594  1.00  0.00     0.000 C 
BRANCH   3   4
ATOM      4  C   UNL     1      18.740  -1.058  15.740  1.00  0.00     0.006 C 
BRANCH   4   5
ATOM      5  C   UNL     1      17.366  -0.479  16.098  1.00  0.00     0.053 C 
BRANCH   5   6
ATOM      6  C   UNL     1      17.125   0.794  15.349  1.00  0.00     0.041 C 
ATOM      7  O   UNL     1      17.017   1.884  15.969  1.00  0.00    -0.550 OA
ATOM      8  O   UNL     1      17.069   0.784  13.960  1.00  0.00    -0.550 OA
ENDBRANCH   5   6
ENDBRANCH   4   5
ENDBRANCH   3   4
ENDBRANCH   2   3
ENDBRANCH   1   2
BRANCH   1   9
ATOM      9  C   UNL     1      16.876  -4.719  12.930  1.00  0.00     0.000 C 
BRANCH   9  10
ATOM     10  C   UNL     1      18.251  -5.102  12.359  1.00  0.00    -0.000 C 
BRANCH  10  11
ATOM     11  C   UNL     1      18.158  -6.197  11.282  1.00  0.00    -0.000 C 
BRANCH  11  12
ATOM     12  C   UNL     1      17.598  -5.675   9.945  1.00  0.00    -0.000 C 
BRANCH  12  13
ATOM     13  C   UNL     1      17.610  -6.695   8.793  1.00  0.00    -0.003 C 
ATOM     14  C   UNL     1      16.912  -6.184   7.533  1.00  0.00     0.004 C 
ENDBRANCH  12  13
ENDBRANCH  11  12
ENDBRANCH  10  11
ENDBRANCH   9  10
ENDBRANCH   1   9
TORSDOF 10
ENDMDL
MODEL 6
REMARK VINA RESULT:    -2.865      7.339      9.157
REMARK INTER + INTRA:          -5.218
REMARK INTER:                  -4.978
REMARK INTRA:                  -0.240
REMARK UNBOUND:                -0.679
REMARK SMILES CCCCCCCCCCCC(=O)[O-]
REMARK SMILES IDX 7 1 8 2 9 3 10 4 11 5 12 6 13 7 14 8 6 9 5 10 4 11 3 12 2 13
REMARK SMILES IDX 1 14
REMARK H PARENT
REMARK Flexibility Score: inf
ROOT
ATOM      1  C   UNL     1      17.983   1.956  15.673  1.00  0.00     0.000 C 
ENDROOT
BRANCH   1   2
ATOM      2  C   UNL     1      17.432   3.228  15.012  1.00  0.00     0.000 C 
BRANCH   2   3
ATOM      3  C   UNL     1      18.397   4.424  15.112  1.00  0.00     0.000 C 
BRANCH   3   4
ATOM      4  C   UNL     1      18.222   5.494  14.019  1.00  0.00     0.006 C 
BRANCH   4   5
ATOM      5  C   UNL     1      19.139   6.707  14.217  1.00  0.00     0.053 C 
BRANCH   5   6
ATOM      6  C   UNL     1      20.066   6.857  13.052  1.00  0.00     0.041 C 
ATOM      7  O   UNL     1      20.253   5.894  12.263  1.00  0.00    -0.550 OA
ATOM      8  O   UNL     1      20.687   8.076  12.809  1.00  0.00    -0.550 OA
ENDBRANCH   5   6
ENDBRANCH   4   5
ENDBRANCH   3   4
ENDBRANCH   2   3
ENDBRANCH   1   2
BRANCH   1   9
ATOM      9  C   UNL     1      17.262   0.707  15.142  1.00  0.00     0.000 C 
BRANCH   9  10
ATOM     10  C   UNL     1      17.475  -0.527  16.035  1.00  0.00    -0.000 C 
BRANCH  10  11
ATOM     11  C   UNL     1      18.624  -1.422  15.541  1.00  0.00    -0.000 C 
BRANCH  11  12
ATOM     12  C   UNL     1      18.146  -2.546  14.604  1.00  0.00    -0.000 C 
BRANCH  12  13
ATOM     13  C   UNL     1      19.267  -3.288  13.853  1.00  0.00    -0.003 C 
ATOM     14  C   UNL     1      18.764  -4.501  13.071  1.00  0.00     0.004 C 
ENDBRANCH  12  13
ENDBRANCH  11  12
ENDBRANCH  10  11
ENDBRANCH   9  10
ENDBRANCH   1   9
TORSDOF 10
ENDMDL
MODEL 7
REMARK VINA RESULT:    -2.459      9.975     11.937
REMARK INTER + INTRA:          -4.575
REMARK INTER:                  -4.225
REMARK INTRA:                  -0.350
REMARK UNBOUND:                -0.679
REMARK SMILES CCCCCCCCCCCC(=O)[O-]
REMARK SMILES IDX 7 1 8 2 9 3 10 4 11 5 12 6 13 7 14 8 6 9 5 10 4 11 3 12 2 13
REMARK SMILES IDX 1 14
REMARK H PARENT
REMARK Flexibility Score: inf
ROOT
ATOM      1  C   UNL     1      17.540   6.042  15.184  1.00  0.00     0.000 C 
ENDROOT
BRANCH   1   2
ATOM      2  C   UNL     1      18.857   6.569  14.594  1.00  0.00     0.000 C 
BRANCH   2   3
ATOM      3  C   UNL     1      19.381   7.823  15.319  1.00  0.00     0.000 C 
BRANCH   3   4
ATOM      4  C   UNL     1      19.496   9.082  14.440  1.00  0.00     0.006 C 
BRANCH   4   5
ATOM      5  C   UNL     1      18.880   8.897  13.048  1.00  0.00     0.053 C 
BRANCH   5   6
ATOM      6  C   UNL     1      19.896   9.177  11.985  1.00  0.00     0.041 C 
ATOM      7  O   UNL     1      19.537   9.324  10.788  1.00  0.00    -0.550 OA
ATOM      8  O   UNL     1      21.235   9.325  12.326  1.00  0.00    -0.550 OA
ENDBRANCH   5   6
ENDBRANCH   4   5
ENDBRANCH   3   4
ENDBRANCH   2   3
ENDBRANCH   1   2
BRANCH   1   9
ATOM      9  C   UNL     1      17.131   4.721  14.514  1.00  0.00     0.000 C 
BRANCH   9  10
ATOM     10  C   UNL     1      17.650   3.486  15.269  1.00  0.00    -0.000 C 
BRANCH  10  11
ATOM     11  C   UNL     1      16.875   2.207  14.911  1.00  0.00    -0.000 C 
BRANCH  11  12
ATOM     12  C   UNL     1      17.536   0.932  15.466  1.00  0.00    -0.000 C 
BRANCH  12  13
ATOM     13  C   UNL     1      17.223  -0.357  14.685  1.00  0.00    -0.003 C 
ATOM     14  C   UNL     1      18.064  -1.551  15.135  1.00  0.00     0.004 C 
ENDBRANCH  12  13
ENDBRANCH  11  12
ENDBRANCH  10  11
ENDBRANCH   9  10
ENDBRANCH   1   9
TORSDOF 10
ENDMDL
MODEL 8
REMARK VINA RESULT:    -1.895     20.971     23.075
REMARK INTER + INTRA:          -3.681
REMARK INTER:                  -2.794
REMARK INTRA:                  -0.887
REMARK UNBOUND:                -0.679
REMARK SMILES CCCCCCCCCCCC(=O)[O-]
REMARK SMILES IDX 7 1 8 2 9 3 10 4 11 5 12 6 13 7 14 8 6 9 5 10 4 11 3 12 2 13
REMARK SMILES IDX 1 14
REMARK H PARENT
REMARK Flexibility Score: inf
ROOT
ATOM      1  C   UNL     1      31.702  -0.402  -1.362  1.00  0.00     0.000 C 
ENDROOT
BRANCH   1   2
ATOM      2  C   UNL     1      30.786   0.717  -1.880  1.00  0.00     0.000 C 
BRANCH   2   3
ATOM      3  C   UNL     1      30.638   0.712  -3.413  1.00  0.00     0.000 C 
BRANCH   3   4
ATOM      4  C   UNL     1      30.967   2.048  -4.103  1.00  0.00     0.006 C 
BRANCH   4   5
ATOM      5  C   UNL     1      32.468   2.361  -4.116  1.00  0.00     0.053 C 
BRANCH   5   6
ATOM      6  C   UNL     1      32.709   3.782  -3.712  1.00  0.00     0.041 C 
ATOM      7  O   UNL     1      33.772   4.365  -4.050  1.00  0.00    -0.550 OA
ATOM      8  O   UNL     1      31.737   4.478  -3.004  1.00  0.00    -0.550 OA
ENDBRANCH   5   6
ENDBRANCH   4   5
ENDBRANCH   3   4
ENDBRANCH   2   3
ENDBRANCH   1   2
BRANCH   1   9
ATOM      9  C   UNL     1      32.395  -1.125  -2.527  1.00  0.00     0.000 C 
BRANCH   9  10
ATOM     10  C   UNL     1      33.867  -0.713  -2.690  1.00  0.00    -0.000 C 
BRANCH  10  11
ATOM     11  C   UNL     1      34.397  -0.966  -4.111  1.00  0.00    -0.000 C 
BRANCH  11  12
ATOM     12  C   UNL     1      35.836  -1.516  -4.125  1.00  0.00    -0.000 C 
BRANCH  12  13
ATOM     13  C   UNL     1      35.953  -3.037  -3.921  1.00  0.00    -0.003 C 
ATOM     14  C   UNL     1      36.692  -3.414  -2.638  1.00  0.00     0.004 C 
ENDBRANCH  12  13
ENDBRANCH  11  12
ENDBRANCH  10  11
ENDBRANCH   9  10
ENDBRANCH   1   9
TORSDOF 10
ENDMDL
