MODEL 1
REMARK VINA RESULT:    -4.159      0.000      0.000
REMARK INTER + INTRA:          -4.425
REMARK INTER:                  -4.402
REMARK INTRA:                  -0.024
REMARK UNBOUND:                -0.024
REMARK SMILES O=C([O-])c1cccnc1
REMARK SMILES IDX 4 1 5 2 9 3 6 4 8 5 7 6 2 7 1 8 3 9
REMARK H PARENT
REMARK Flexibility Score: inf
ROOT
ATOM      1  C   UNL     1      29.594  33.372 128.798  1.00  0.00     0.016 A 
ATOM      2  C   UNL     1      30.731  34.106 128.421  1.00  0.00     0.013 A 
ATOM      3  C   UNL     1      28.876  32.693 127.799  1.00  0.00     0.120 A 
ATOM      4  C   UNL     1      31.125  34.150 127.082  1.00  0.00     0.021 A 
ATOM      5  N   UNL     1      29.281  32.752 126.502  1.00  0.00    -0.264 NA
ATOM      6  C   UNL     1      30.379  33.460 126.127  1.00  0.00     0.111 A 
ENDROOT
BRANCH   1   7
ATOM      7  C   UNL     1      29.160  33.312 130.210  1.00  0.00     0.073 C 
ATOM      8  O   UNL     1      29.626  34.119 131.058  1.00  0.00    -0.545 OA
ATOM      9  O   UNL     1      28.231  32.364 130.622  1.00  0.00    -0.545 OA
ENDBRANCH   1   7
TORSDOF 1
ENDMDL
MODEL 2
REMARK VINA RESULT:    -4.123      0.901      1.604
REMARK INTER + INTRA:          -4.387
REMARK INTER:                  -4.364
REMARK INTRA:                  -0.023
REMARK UNBOUND:                -0.024
REMARK SMILES O=C([O-])c1cccnc1
REMARK SMILES IDX 4 1 5 2 9 3 6 4 8 5 7 6 2 7 1 8 3 9
REMARK H PARENT
REMARK Flexibility Score: inf
ROOT
ATOM      1  C   UNL     1      29.547  33.294 128.729  1.00  0.00     0.016 A 
ATOM      2  C   UNL     1      28.792  32.661 127.728  1.00  0.00     0.013 A 
ATOM      3  C   UNL     1      30.731  33.954 128.356  1.00  0.00     0.120 A 
ATOM      4  C   UNL     1      29.219  32.696 126.400  1.00  0.00     0.021 A 
ATOM      5  N   UNL     1      31.125  33.973 127.055  1.00  0.00    -0.264 NA
ATOM      6  C   UNL     1      30.401  33.364 126.079  1.00  0.00     0.111 A 
ENDROOT
BRANCH   1   7
ATOM      7  C   UNL     1      29.113  33.268 130.142  1.00  0.00     0.073 C 
ATOM      8  O   UNL     1      29.648  34.030 130.991  1.00  0.00    -0.545 OA
ATOM      9  O   UNL     1      28.106  32.403 130.554  1.00  0.00    -0.545 OA
ENDBRANCH   1   7
TORSDOF 1
ENDMDL
MODEL 3
REMARK VINA RESULT:    -4.074      2.983      3.952
REMARK INTER + INTRA:          -4.336
REMARK INTER:                  -4.319
REMARK INTRA:                  -0.017
REMARK UNBOUND:                -0.024
REMARK SMILES O=C([O-])c1cccnc1
REMARK SMILES IDX 4 1 5 2 9 3 6 4 8 5 7 6 2 7 1 8 3 9
REMARK H PARENT
REMARK Flexibility Score: inf
ROOT
ATOM      1  C   UNL     1      29.911  33.501 127.856  1.00  0.00     0.016 A 
ATOM      2  C   UNL     1      28.886  32.760 128.467  1.00  0.00     0.013 A 
ATOM      3  C   UNL     1      30.771  34.252 128.675  1.00  0.00     0.120 A 
ATOM      4  C   UNL     1      28.738  32.779 129.855  1.00  0.00     0.021 A 
ATOM      5  N   UNL     1      30.605  34.254 130.025  1.00  0.00    -0.264 NA
ATOM      6  C   UNL     1      29.617  33.541 130.626  1.00  0.00     0.111 A 
ENDROOT
BRANCH   1   7
ATOM      7  C   UNL     1      30.085  33.493 126.388  1.00  0.00     0.073 C 
ATOM      8  O   UNL     1      31.125  33.007 125.869  1.00  0.00    -0.545 OA
ATOM      9  O   UNL     1      29.103  34.023 125.559  1.00  0.00    -0.545 OA
ENDBRANCH   1   7
TORSDOF 1
ENDMDL
MODEL 4
REMARK VINA RESULT:    -4.066      2.922      3.644
REMARK INTER + INTRA:          -4.327
REMARK INTER:                  -4.311
REMARK INTRA:                  -0.016
REMARK UNBOUND:                -0.024
REMARK SMILES O=C([O-])c1cccnc1
REMARK SMILES IDX 4 1 5 2 9 3 6 4 8 5 7 6 2 7 1 8 3 9
REMARK H PARENT
REMARK Flexibility Score: inf
ROOT
ATOM      1  C   UNL     1      29.961  33.520 127.854  1.00  0.00     0.016 A 
ATOM      2  C   UNL     1      30.797  34.262 128.706  1.00  0.00     0.013 A 
ATOM      3  C   UNL     1      28.907  32.788 128.425  1.00  0.00     0.120 A 
ATOM      4  C   UNL     1      30.571  34.263 130.083  1.00  0.00     0.021 A 
ATOM      5  N   UNL     1      28.709  32.805 129.770  1.00  0.00    -0.264 NA
ATOM      6  C   UNL     1      29.511  33.520 130.603  1.00  0.00     0.111 A 
ENDROOT
BRANCH   1   7
ATOM      7  C   UNL     1      30.183  33.507 126.392  1.00  0.00     0.073 C 
ATOM      8  O   UNL     1      31.116  32.824 125.893  1.00  0.00    -0.545 OA
ATOM      9  O   UNL     1      29.364  34.247 125.549  1.00  0.00    -0.545 OA
ENDBRANCH   1   7
TORSDOF 1
ENDMDL
MODEL 5
REMARK VINA RESULT:    -3.989      3.022      3.729
REMARK INTER + INTRA:          -4.246
REMARK INTER:                  -4.227
REMARK INTRA:                  -0.019
REMARK UNBOUND:                -0.024
REMARK SMILES O=C([O-])c1cccnc1
REMARK SMILES IDX 4 1 5 2 9 3 6 4 8 5 7 6 2 7 1 8 3 9
REMARK H PARENT
REMARK Flexibility Score: inf
ROOT
ATOM      1  C   UNL     1      29.809  33.800 127.504  1.00  0.00     0.016 A 
ATOM      2  C   UNL     1      30.893  34.193 128.308  1.00  0.00     0.013 A 
ATOM      3  C   UNL     1      28.597  33.469 128.133  1.00  0.00     0.120 A 
ATOM      4  C   UNL     1      30.752  34.248 129.696  1.00  0.00     0.021 A 
ATOM      5  N   UNL     1      28.487  33.531 129.487  1.00  0.00    -0.264 NA
ATOM      6  C   UNL     1      29.529  33.910 130.273  1.00  0.00     0.111 A 
ENDROOT
BRANCH   1   7
ATOM      7  C   UNL     1      29.937  33.736 126.033  1.00  0.00     0.073 C 
ATOM      8  O   UNL     1      29.044  34.224 125.290  1.00  0.00    -0.545 OA
ATOM      9  O   UNL     1      31.046  33.135 125.448  1.00  0.00    -0.545 OA
ENDBRANCH   1   7
TORSDOF 1
ENDMDL
MODEL 6
REMARK VINA RESULT:    -3.979     17.125     17.885
REMARK INTER + INTRA:          -4.236
REMARK INTER:                  -4.212
REMARK INTRA:                  -0.024
REMARK UNBOUND:                -0.024
REMARK SMILES O=C([O-])c1cccnc1
REMARK SMILES IDX 4 1 5 2 9 3 6 4 8 5 7 6 2 7 1 8 3 9
REMARK H PARENT
REMARK Flexibility Score: inf
ROOT
ATOM      1  C   UNL     1      12.495  30.125 126.859  1.00  0.00     0.016 A 
ATOM      2  C   UNL     1      12.459  30.217 125.458  1.00  0.00     0.013 A 
ATOM      3  C   UNL     1      11.699  31.009 127.607  1.00  0.00     0.120 A 
ATOM      4  C   UNL     1      11.648  31.169 124.838  1.00  0.00     0.021 A 
ATOM      5  N   UNL     1      10.917  31.927 126.979  1.00  0.00    -0.264 NA
ATOM      6  C   UNL     1      10.875  32.024 125.624  1.00  0.00     0.111 A 
ENDROOT
BRANCH   1   7
ATOM      7  C   UNL     1      13.348  29.124 127.535  1.00  0.00     0.073 C 
ATOM      8  O   UNL     1      14.252  28.519 126.899  1.00  0.00    -0.545 OA
ATOM      9  O   UNL     1      13.164  28.837 128.883  1.00  0.00    -0.545 OA
ENDBRANCH   1   7
TORSDOF 1
ENDMDL
MODEL 7
REMARK VINA RESULT:    -3.952     15.150     15.571
REMARK INTER + INTRA:          -4.207
REMARK INTER:                  -4.185
REMARK INTRA:                  -0.022
REMARK UNBOUND:                -0.024
REMARK SMILES O=C([O-])c1cccnc1
REMARK SMILES IDX 4 1 5 2 9 3 6 4 8 5 7 6 2 7 1 8 3 9
REMARK H PARENT
REMARK Flexibility Score: inf
ROOT
ATOM      1  C   UNL     1      19.079  32.950 117.247  1.00  0.00     0.016 A 
ATOM      2  C   UNL     1      19.471  31.999 116.290  1.00  0.00     0.013 A 
ATOM      3  C   UNL     1      19.846  34.120 117.380  1.00  0.00     0.120 A 
ATOM      4  C   UNL     1      20.598  32.226 115.497  1.00  0.00     0.021 A 
ATOM      5  N   UNL     1      20.940  34.316 116.595  1.00  0.00    -0.264 NA
ATOM      6  C   UNL     1      21.327  33.403 115.666  1.00  0.00     0.111 A 
ENDROOT
BRANCH   1   7
ATOM      7  C   UNL     1      17.889  32.729 118.097  1.00  0.00     0.073 C 
ATOM      8  O   UNL     1      17.506  31.561 118.370  1.00  0.00    -0.545 OA
ATOM      9  O   UNL     1      17.177  33.809 118.606  1.00  0.00    -0.545 OA
ENDBRANCH   1   7
TORSDOF 1
ENDMDL
MODEL 8
REMARK VINA RESULT:    -3.733     17.546     18.190
REMARK INTER + INTRA:          -3.975
REMARK INTER:                  -3.955
REMARK INTRA:                  -0.020
REMARK UNBOUND:                -0.024
REMARK SMILES O=C([O-])c1cccnc1
REMARK SMILES IDX 4 1 5 2 9 3 6 4 8 5 7 6 2 7 1 8 3 9
REMARK H PARENT
REMARK Flexibility Score: inf
ROOT
ATOM      1  C   UNL     1      11.771  30.818 127.583  1.00  0.00     0.016 A 
ATOM      2  C   UNL     1      10.875  31.222 126.579  1.00  0.00     0.013 A 
ATOM      3  C   UNL     1      12.738  29.850 127.264  1.00  0.00     0.120 A 
ATOM      4  C   UNL     1      10.956  30.665 125.301  1.00  0.00     0.021 A 
ATOM      5  N   UNL     1      12.795  29.323 126.012  1.00  0.00    -0.264 NA
ATOM      6  C   UNL     1      11.933  29.707 125.034  1.00  0.00     0.111 A 
ENDROOT
BRANCH   1   7
ATOM      7  C   UNL     1      11.703  31.396 128.942  1.00  0.00     0.073 C 
ATOM      8  O   UNL     1      11.540  32.635 129.104  1.00  0.00    -0.545 OA
ATOM      9  O   UNL     1      11.817  30.579 130.061  1.00  0.00    -0.545 OA
ENDBRANCH   1   7
TORSDOF 1
ENDMDL
MODEL 9
REMARK VINA RESULT:    -3.658     17.537     18.092
REMARK INTER + INTRA:          -3.896
REMARK INTER:                  -3.878
REMARK INTRA:                  -0.018
REMARK UNBOUND:                -0.024
REMARK SMILES O=C([O-])c1cccnc1
REMARK SMILES IDX 4 1 5 2 9 3 6 4 8 5 7 6 2 7 1 8 3 9
REMARK H PARENT
REMARK Flexibility Score: inf
ROOT
ATOM      1  C   UNL     1      12.161  30.844 127.488  1.00  0.00     0.016 A 
ATOM      2  C   UNL     1      11.938  30.744 128.871  1.00  0.00     0.013 A 
ATOM      3  C   UNL     1      11.943  32.084 126.864  1.00  0.00     0.120 A 
ATOM      4  C   UNL     1      11.512  31.859 129.595  1.00  0.00     0.021 A 
ATOM      5  N   UNL     1      11.527  33.155 127.592  1.00  0.00    -0.264 NA
ATOM      6  C   UNL     1      11.309  33.069 128.932  1.00  0.00     0.111 A 
ENDROOT
BRANCH   1   7
ATOM      7  C   UNL     1      12.613  29.676 126.703  1.00  0.00     0.073 C 
ATOM      8  O   UNL     1      11.953  29.281 125.705  1.00  0.00    -0.545 OA
ATOM      9  O   UNL     1      13.773  28.996 127.056  1.00  0.00    -0.545 OA
ENDBRANCH   1   7
TORSDOF 1
ENDMDL
