MODEL 1
REMARK VINA RESULT:    -6.242      0.000      0.000
REMARK INTER + INTRA:         -13.438
REMARK INTER:                 -12.081
REMARK INTRA:                  -1.357
REMARK UNBOUND:                -1.357
REMARK SMILES CCCCCC=CCC=CCCCCCCCCOC(C)=O
REMARK SMILES IDX 12 1 11 2 10 3 9 4 8 5 7 6 6 7 5 8 4 9 3 10 2 11 1 12 13 13
REMARK SMILES IDX 14 14 15 15 16 16 17 17 18 18 19 19 20 20 22 21 21 22
REMARK H PARENT
REMARK Flexibility Score: inf
ROOT
ATOM      1  C   UNL     1      26.713   8.520  32.645  1.00  0.00     0.004 C 
ENDROOT
BRANCH   1   2
ATOM      2  C   UNL     1      26.740   7.118  32.012  1.00  0.00     0.027 C 
BRANCH   2   3
ATOM      3  C   UNL     1      27.628   6.156  32.763  1.00  0.00    -0.031 C 
ATOM      4  C   UNL     1      28.041   4.963  32.298  1.00  0.00    -0.027 C 
BRANCH   4   5
ATOM      5  C   UNL     1      27.647   4.369  30.968  1.00  0.00     0.054 C 
BRANCH   5   6
ATOM      6  C   UNL     1      28.045   2.919  30.857  1.00  0.00    -0.027 C 
ATOM      7  C   UNL     1      28.898   2.433  29.938  1.00  0.00    -0.031 C 
BRANCH   7   8
ATOM      8  C   UNL     1      29.583   3.290  28.899  1.00  0.00     0.027 C 
BRANCH   8   9
ATOM      9  C   UNL     1      31.101   3.370  29.126  1.00  0.00     0.004 C 
BRANCH   9  10
ATOM     10  C   UNL     1      31.448   3.797  30.563  1.00  0.00     0.000 C 
BRANCH  10  11
ATOM     11  C   UNL     1      32.105   5.186  30.619  1.00  0.00    -0.003 C 
ATOM     12  C   UNL     1      31.833   5.913  31.938  1.00  0.00     0.004 C 
ENDBRANCH  10  11
ENDBRANCH   9  10
ENDBRANCH   8   9
ENDBRANCH   7   8
ENDBRANCH   5   6
ENDBRANCH   4   5
ENDBRANCH   2   3
ENDBRANCH   1   2
BRANCH   1  13
ATOM     13  C   UNL     1      28.032   8.948  33.321  1.00  0.00     0.000 C 
BRANCH  13  14
ATOM     14  C   UNL     1      27.945  10.238  34.156  1.00  0.00     0.000 C 
BRANCH  14  15
ATOM     15  C   UNL     1      28.714  10.142  35.485  1.00  0.00     0.000 C 
BRANCH  15  16
ATOM     16  C   UNL     1      28.613  11.425  36.330  1.00  0.00     0.003 C 
BRANCH  16  17
ATOM     17  C   UNL     1      27.610  12.468  35.805  1.00  0.00     0.042 C 
BRANCH  17  18
ATOM     18  C   UNL     1      28.095  13.912  35.987  1.00  0.00     0.233 C 
BRANCH  18  19
ATOM     19  O   UNL     1      27.220  14.819  35.321  1.00  0.00    -0.466 OA
BRANCH  19  20
ATOM     20  C   UNL     1      27.109  14.898  33.927  1.00  0.00     0.302 C 
ATOM     21  O   UNL     1      28.125  15.104  33.208  1.00  0.00    -0.253 OA
ATOM     22  C   UNL     1      25.765  14.778  33.291  1.00  0.00     0.139 C 
ENDBRANCH  19  20
ENDBRANCH  18  19
ENDBRANCH  17  18
ENDBRANCH  16  17
ENDBRANCH  15  16
ENDBRANCH  14  15
ENDBRANCH  13  14
ENDBRANCH   1  13
TORSDOF 16
ENDMDL
MODEL 2
REMARK VINA RESULT:    -5.939      3.515      5.418
REMARK INTER + INTRA:         -12.851
REMARK INTER:                 -11.428
REMARK INTRA:                  -1.423
REMARK UNBOUND:                -1.357
REMARK SMILES CCCCCC=CCC=CCCCCCCCCOC(C)=O
REMARK SMILES IDX 12 1 11 2 10 3 9 4 8 5 7 6 6 7 5 8 4 9 3 10 2 11 1 12 13 13
REMARK SMILES IDX 14 14 15 15 16 16 17 17 18 18 19 19 20 20 22 21 21 22
REMARK H PARENT
REMARK Flexibility Score: inf
ROOT
ATOM      1  C   UNL     1      27.057   8.879  32.473  1.00  0.00     0.004 C 
ENDROOT
BRANCH   1   2
ATOM      2  C   UNL     1      26.922   7.431  31.971  1.00  0.00     0.027 C 
BRANCH   2   3
ATOM      3  C   UNL     1      27.213   6.412  33.047  1.00  0.00    -0.031 C 
ATOM      4  C   UNL     1      27.831   5.233  32.846  1.00  0.00    -0.027 C 
BRANCH   4   5
ATOM      5  C   UNL     1      28.291   4.715  31.506  1.00  0.00     0.054 C 
BRANCH   5   6
ATOM      6  C   UNL     1      29.794   4.720  31.384  1.00  0.00    -0.027 C 
ATOM      7  C   UNL     1      30.499   3.855  30.634  1.00  0.00    -0.031 C 
BRANCH   7   8
ATOM      8  C   UNL     1      29.866   2.765  29.799  1.00  0.00     0.027 C 
BRANCH   8   9
ATOM      9  C   UNL     1      29.884   3.102  28.300  1.00  0.00     0.004 C 
BRANCH   9  10
ATOM     10  C   UNL     1      28.525   2.832  27.631  1.00  0.00     0.000 C 
BRANCH  10  11
ATOM     11  C   UNL     1      27.545   2.105  28.566  1.00  0.00    -0.003 C 
ATOM     12  C   UNL     1      26.405   3.009  29.041  1.00  0.00     0.004 C 
ENDBRANCH  10  11
ENDBRANCH   9  10
ENDBRANCH   8   9
ENDBRANCH   7   8
ENDBRANCH   5   6
ENDBRANCH   4   5
ENDBRANCH   2   3
ENDBRANCH   1   2
BRANCH   1  13
ATOM     13  C   UNL     1      28.208   9.110  33.475  1.00  0.00     0.000 C 
BRANCH  13  14
ATOM     14  C   UNL     1      27.942  10.200  34.529  1.00  0.00     0.000 C 
BRANCH  14  15
ATOM     15  C   UNL     1      28.999  10.219  35.647  1.00  0.00     0.000 C 
BRANCH  15  16
ATOM     16  C   UNL     1      30.175   9.264  35.375  1.00  0.00     0.003 C 
BRANCH  16  17
ATOM     17  C   UNL     1      31.543   9.764  35.873  1.00  0.00     0.042 C 
BRANCH  17  18
ATOM     18  C   UNL     1      32.537   8.627  36.144  1.00  0.00     0.233 C 
BRANCH  18  19
ATOM     19  O   UNL     1      32.271   7.519  35.287  1.00  0.00    -0.466 OA
BRANCH  19  20
ATOM     20  C   UNL     1      33.190   6.488  35.056  1.00  0.00     0.302 C 
ATOM     21  O   UNL     1      33.553   6.196  33.884  1.00  0.00    -0.253 OA
ATOM     22  C   UNL     1      33.710   5.699  36.210  1.00  0.00     0.139 C 
ENDBRANCH  19  20
ENDBRANCH  18  19
ENDBRANCH  17  18
ENDBRANCH  16  17
ENDBRANCH  15  16
ENDBRANCH  14  15
ENDBRANCH  13  14
ENDBRANCH   1  13
TORSDOF 16
ENDMDL
MODEL 3
REMARK VINA RESULT:    -5.929      3.113      9.563
REMARK INTER + INTRA:         -12.832
REMARK INTER:                 -11.280
REMARK INTRA:                  -1.553
REMARK UNBOUND:                -1.357
REMARK SMILES CCCCCC=CCC=CCCCCCCCCOC(C)=O
REMARK SMILES IDX 12 1 11 2 10 3 9 4 8 5 7 6 6 7 5 8 4 9 3 10 2 11 1 12 13 13
REMARK SMILES IDX 14 14 15 15 16 16 17 17 18 18 19 19 20 20 22 21 21 22
REMARK H PARENT
REMARK Flexibility Score: inf
ROOT
ATOM      1  C   UNL     1      26.883   8.669  32.469  1.00  0.00     0.004 C 
ENDROOT
BRANCH   1   2
ATOM      2  C   UNL     1      27.547   9.815  33.252  1.00  0.00     0.027 C 
BRANCH   2   3
ATOM      3  C   UNL     1      28.549   9.322  34.268  1.00  0.00    -0.031 C 
ATOM      4  C   UNL     1      28.848   9.945  35.423  1.00  0.00    -0.027 C 
BRANCH   4   5
ATOM      5  C   UNL     1      28.265  11.262  35.871  1.00  0.00     0.054 C 
BRANCH   5   6
ATOM      6  C   UNL     1      29.095  11.910  36.950  1.00  0.00    -0.027 C 
ATOM      7  C   UNL     1      28.819  13.102  37.510  1.00  0.00    -0.031 C 
BRANCH   7   8
ATOM      8  C   UNL     1      27.621  13.943  37.134  1.00  0.00     0.027 C 
BRANCH   8   9
ATOM      9  C   UNL     1      28.029  15.333  36.624  1.00  0.00     0.004 C 
BRANCH   9  10
ATOM     10  C   UNL     1      27.834  15.472  35.104  1.00  0.00     0.000 C 
BRANCH  10  11
ATOM     11  C   UNL     1      26.665  14.621  34.583  1.00  0.00    -0.003 C 
ATOM     12  C   UNL     1      27.069  13.721  33.413  1.00  0.00     0.004 C 
ENDBRANCH  10  11
ENDBRANCH   9  10
ENDBRANCH   8   9
ENDBRANCH   7   8
ENDBRANCH   5   6
ENDBRANCH   4   5
ENDBRANCH   2   3
ENDBRANCH   1   2
BRANCH   1  13
ATOM     13  C   UNL     1      27.228   7.254  32.978  1.00  0.00     0.000 C 
BRANCH  13  14
ATOM     14  C   UNL     1      27.122   6.140  31.921  1.00  0.00     0.000 C 
BRANCH  14  15
ATOM     15  C   UNL     1      27.958   4.899  32.277  1.00  0.00     0.000 C 
BRANCH  15  16
ATOM     16  C   UNL     1      27.997   3.858  31.143  1.00  0.00     0.003 C 
BRANCH  16  17
ATOM     17  C   UNL     1      29.405   3.519  30.623  1.00  0.00     0.042 C 
BRANCH  17  18
ATOM     18  C   UNL     1      30.512   3.825  31.641  1.00  0.00     0.233 C 
BRANCH  18  19
ATOM     19  O   UNL     1      31.267   4.961  31.229  1.00  0.00    -0.466 OA
BRANCH  19  20
ATOM     20  C   UNL     1      31.422   6.109  32.016  1.00  0.00     0.302 C 
ATOM     21  O   UNL     1      30.589   7.054  31.952  1.00  0.00    -0.253 OA
ATOM     22  C   UNL     1      32.611   6.230  32.909  1.00  0.00     0.139 C 
ENDBRANCH  19  20
ENDBRANCH  18  19
ENDBRANCH  17  18
ENDBRANCH  16  17
ENDBRANCH  15  16
ENDBRANCH  14  15
ENDBRANCH  13  14
ENDBRANCH   1  13
TORSDOF 16
ENDMDL
MODEL 4
REMARK VINA RESULT:    -5.892      1.417      2.493
REMARK INTER + INTRA:         -12.760
REMARK INTER:                 -11.386
REMARK INTRA:                  -1.374
REMARK UNBOUND:                -1.357
REMARK SMILES CCCCCC=CCC=CCCCCCCCCOC(C)=O
REMARK SMILES IDX 12 1 11 2 10 3 9 4 8 5 7 6 6 7 5 8 4 9 3 10 2 11 1 12 13 13
REMARK SMILES IDX 14 14 15 15 16 16 17 17 18 18 19 19 20 20 22 21 21 22
REMARK H PARENT
REMARK Flexibility Score: inf
ROOT
ATOM      1  C   UNL     1      26.898   8.761  32.728  1.00  0.00     0.004 C 
ENDROOT
BRANCH   1   2
ATOM      2  C   UNL     1      27.776   7.643  32.139  1.00  0.00     0.027 C 
BRANCH   2   3
ATOM      3  C   UNL     1      27.298   6.263  32.523  1.00  0.00    -0.031 C 
ATOM      4  C   UNL     1      27.985   5.124  32.318  1.00  0.00    -0.027 C 
BRANCH   4   5
ATOM      5  C   UNL     1      29.324   5.033  31.629  1.00  0.00     0.054 C 
BRANCH   5   6
ATOM      6  C   UNL     1      29.923   3.653  31.737  1.00  0.00    -0.027 C 
ATOM      7  C   UNL     1      30.468   2.978  30.710  1.00  0.00    -0.031 C 
BRANCH   7   8
ATOM      8  C   UNL     1      30.563   3.529  29.306  1.00  0.00     0.027 C 
BRANCH   8   9
ATOM      9  C   UNL     1      29.996   2.554  28.263  1.00  0.00     0.004 C 
BRANCH   9  10
ATOM     10  C   UNL     1      28.633   3.018  27.718  1.00  0.00     0.000 C 
BRANCH  10  11
ATOM     11  C   UNL     1      27.460   2.239  28.333  1.00  0.00    -0.003 C 
ATOM     12  C   UNL     1      26.776   3.004  29.467  1.00  0.00     0.004 C 
ENDBRANCH  10  11
ENDBRANCH   9  10
ENDBRANCH   8   9
ENDBRANCH   7   8
ENDBRANCH   5   6
ENDBRANCH   4   5
ENDBRANCH   2   3
ENDBRANCH   1   2
BRANCH   1  13
ATOM     13  C   UNL     1      27.636   9.727  33.679  1.00  0.00     0.000 C 
BRANCH  13  14
ATOM     14  C   UNL     1      28.870   9.131  34.380  1.00  0.00     0.000 C 
BRANCH  14  15
ATOM     15  C   UNL     1      29.336   9.970  35.582  1.00  0.00     0.000 C 
BRANCH  15  16
ATOM     16  C   UNL     1      28.427  11.182  35.855  1.00  0.00     0.003 C 
BRANCH  16  17
ATOM     17  C   UNL     1      28.859  12.060  37.043  1.00  0.00     0.042 C 
BRANCH  17  18
ATOM     18  C   UNL     1      28.568  13.551  36.824  1.00  0.00     0.233 C 
BRANCH  18  19
ATOM     19  O   UNL     1      28.137  13.783  35.486  1.00  0.00    -0.466 OA
BRANCH  19  20
ATOM     20  C   UNL     1      26.809  14.062  35.142  1.00  0.00     0.302 C 
ATOM     21  O   UNL     1      25.890  13.996  36.003  1.00  0.00    -0.253 OA
ATOM     22  C   UNL     1      26.474  14.400  33.728  1.00  0.00     0.139 C 
ENDBRANCH  19  20
ENDBRANCH  18  19
ENDBRANCH  17  18
ENDBRANCH  16  17
ENDBRANCH  15  16
ENDBRANCH  14  15
ENDBRANCH  13  14
ENDBRANCH   1  13
TORSDOF 16
ENDMDL
MODEL 5
REMARK VINA RESULT:    -5.846      4.154     10.229
REMARK INTER + INTRA:         -12.671
REMARK INTER:                 -11.370
REMARK INTRA:                  -1.301
REMARK UNBOUND:                -1.357
REMARK SMILES CCCCCC=CCC=CCCCCCCCCOC(C)=O
REMARK SMILES IDX 12 1 11 2 10 3 9 4 8 5 7 6 6 7 5 8 4 9 3 10 2 11 1 12 13 13
REMARK SMILES IDX 14 14 15 15 16 16 17 17 18 18 19 19 20 20 22 21 21 22
REMARK H PARENT
REMARK Flexibility Score: inf
ROOT
ATOM      1  C   UNL     1      26.734   9.472  32.224  1.00  0.00     0.004 C 
ENDROOT
BRANCH   1   2
ATOM      2  C   UNL     1      27.526  10.413  33.151  1.00  0.00     0.027 C 
BRANCH   2   3
ATOM      3  C   UNL     1      28.311   9.668  34.203  1.00  0.00    -0.031 C 
ATOM      4  C   UNL     1      28.594  10.140  35.432  1.00  0.00    -0.027 C 
BRANCH   4   5
ATOM      5  C   UNL     1      28.214  11.507  35.943  1.00  0.00     0.054 C 
BRANCH   5   6
ATOM      6  C   UNL     1      29.157  11.993  37.014  1.00  0.00    -0.027 C 
ATOM      7  C   UNL     1      28.957  13.093  37.762  1.00  0.00    -0.031 C 
BRANCH   7   8
ATOM      8  C   UNL     1      27.741  13.981  37.631  1.00  0.00     0.027 C 
BRANCH   8   9
ATOM      9  C   UNL     1      28.064  15.300  36.914  1.00  0.00     0.004 C 
BRANCH   9  10
ATOM     10  C   UNL     1      28.011  15.153  35.383  1.00  0.00     0.000 C 
BRANCH  10  11
ATOM     11  C   UNL     1      26.761  14.393  34.910  1.00  0.00    -0.003 C 
ATOM     12  C   UNL     1      26.723  14.211  33.391  1.00  0.00     0.004 C 
ENDBRANCH  10  11
ENDBRANCH   9  10
ENDBRANCH   8   9
ENDBRANCH   7   8
ENDBRANCH   5   6
ENDBRANCH   4   5
ENDBRANCH   2   3
ENDBRANCH   1   2
BRANCH   1  13
ATOM     13  C   UNL     1      26.466   8.069  32.807  1.00  0.00     0.000 C 
BRANCH  13  14
ATOM     14  C   UNL     1      26.963   6.899  31.939  1.00  0.00     0.000 C 
BRANCH  14  15
ATOM     15  C   UNL     1      27.646   5.794  32.762  1.00  0.00     0.000 C 
BRANCH  15  16
ATOM     16  C   UNL     1      28.166   4.635  31.892  1.00  0.00     0.003 C 
BRANCH  16  17
ATOM     17  C   UNL     1      29.633   4.768  31.445  1.00  0.00     0.042 C 
BRANCH  17  18
ATOM     18  C   UNL     1      30.384   3.430  31.441  1.00  0.00     0.233 C 
BRANCH  18  19
ATOM     19  O   UNL     1      29.596   2.419  30.816  1.00  0.00    -0.466 OA
BRANCH  19  20
ATOM     20  C   UNL     1      29.256   2.438  29.458  1.00  0.00     0.302 C 
ATOM     21  O   UNL     1      28.084   2.165  29.080  1.00  0.00    -0.253 OA
ATOM     22  C   UNL     1      30.308   2.743  28.445  1.00  0.00     0.139 C 
ENDBRANCH  19  20
ENDBRANCH  18  19
ENDBRANCH  17  18
ENDBRANCH  16  17
ENDBRANCH  15  16
ENDBRANCH  14  15
ENDBRANCH  13  14
ENDBRANCH   1  13
TORSDOF 16
ENDMDL
MODEL 6
REMARK VINA RESULT:    -5.778      6.765     11.074
REMARK INTER + INTRA:         -12.540
REMARK INTER:                 -11.203
REMARK INTRA:                  -1.337
REMARK UNBOUND:                -1.357
REMARK SMILES CCCCCC=CCC=CCCCCCCCCOC(C)=O
REMARK SMILES IDX 12 1 11 2 10 3 9 4 8 5 7 6 6 7 5 8 4 9 3 10 2 11 1 12 13 13
REMARK SMILES IDX 14 14 15 15 16 16 17 17 18 18 19 19 20 20 22 21 21 22
REMARK H PARENT
REMARK Flexibility Score: inf
ROOT
ATOM      1  C   UNL     1      25.482   2.129  28.591  1.00  0.00     0.004 C 
ENDROOT
BRANCH   1   2
ATOM      2  C   UNL     1      26.577   3.003  29.226  1.00  0.00     0.027 C 
BRANCH   2   3
ATOM      3  C   UNL     1      27.860   2.999  28.430  1.00  0.00    -0.031 C 
ATOM      4  C   UNL     1      29.095   2.898  28.957  1.00  0.00    -0.027 C 
BRANCH   4   5
ATOM      5  C   UNL     1      29.402   2.821  30.432  1.00  0.00     0.054 C 
BRANCH   5   6
ATOM      6  C   UNL     1      30.053   4.083  30.941  1.00  0.00    -0.027 C 
ATOM      7  C   UNL     1      29.428   5.016  31.680  1.00  0.00    -0.031 C 
BRANCH   7   8
ATOM      8  C   UNL     1      27.983   4.911  32.110  1.00  0.00     0.027 C 
BRANCH   8   9
ATOM      9  C   UNL     1      27.296   6.283  32.168  1.00  0.00     0.004 C 
BRANCH   9  10
ATOM     10  C   UNL     1      28.171   7.338  32.867  1.00  0.00     0.000 C 
BRANCH  10  11
ATOM     11  C   UNL     1      27.619   8.763  32.699  1.00  0.00    -0.003 C 
ATOM     12  C   UNL     1      26.193   8.779  32.144  1.00  0.00     0.004 C 
ENDBRANCH  10  11
ENDBRANCH   9  10
ENDBRANCH   8   9
ENDBRANCH   7   8
ENDBRANCH   5   6
ENDBRANCH   4   5
ENDBRANCH   2   3
ENDBRANCH   1   2
BRANCH   1  13
ATOM     13  C   UNL     1      25.981   0.789  28.010  1.00  0.00     0.000 C 
BRANCH  13  14
ATOM     14  C   UNL     1      25.303   0.357  26.698  1.00  0.00     0.000 C 
BRANCH  14  15
ATOM     15  C   UNL     1      23.873   0.907  26.556  1.00  0.00     0.000 C 
BRANCH  15  16
ATOM     16  C   UNL     1      23.530   1.317  25.112  1.00  0.00     0.003 C 
BRANCH  16  17
ATOM     17  C   UNL     1      22.124   1.916  24.926  1.00  0.00     0.042 C 
BRANCH  17  18
ATOM     18  C   UNL     1      21.858   2.389  23.491  1.00  0.00     0.233 C 
BRANCH  18  19
ATOM     19  O   UNL     1      23.057   2.345  22.721  1.00  0.00    -0.466 OA
BRANCH  19  20
ATOM     20  C   UNL     1      23.873   3.461  22.504  1.00  0.00     0.302 C 
ATOM     21  O   UNL     1      23.389   4.626  22.498  1.00  0.00    -0.253 OA
ATOM     22  C   UNL     1      25.327   3.263  22.234  1.00  0.00     0.139 C 
ENDBRANCH  19  20
ENDBRANCH  18  19
ENDBRANCH  17  18
ENDBRANCH  16  17
ENDBRANCH  15  16
ENDBRANCH  14  15
ENDBRANCH  13  14
ENDBRANCH   1  13
TORSDOF 16
ENDMDL
MODEL 7
REMARK VINA RESULT:    -5.773      5.650     10.105
REMARK INTER + INTRA:         -12.530
REMARK INTER:                 -10.720
REMARK INTRA:                  -1.810
REMARK UNBOUND:                -1.357
REMARK SMILES CCCCCC=CCC=CCCCCCCCCOC(C)=O
REMARK SMILES IDX 12 1 11 2 10 3 9 4 8 5 7 6 6 7 5 8 4 9 3 10 2 11 1 12 13 13
REMARK SMILES IDX 14 14 15 15 16 16 17 17 18 18 19 19 20 20 22 21 21 22
REMARK H PARENT
REMARK Flexibility Score: inf
ROOT
ATOM      1  C   UNL     1      30.529   3.172  28.725  1.00  0.00     0.004 C 
ENDROOT
BRANCH   1   2
ATOM      2  C   UNL     1      31.105   3.658  30.067  1.00  0.00     0.027 C 
BRANCH   2   3
ATOM      3  C   UNL     1      32.154   4.730  29.897  1.00  0.00    -0.031 C 
ATOM      4  C   UNL     1      32.484   5.642  30.831  1.00  0.00    -0.027 C 
BRANCH   4   5
ATOM      5  C   UNL     1      31.829   5.771  32.184  1.00  0.00     0.054 C 
BRANCH   5   6
ATOM      6  C   UNL     1      31.009   7.031  32.297  1.00  0.00    -0.027 C 
ATOM      7  C   UNL     1      29.666   7.071  32.257  1.00  0.00    -0.031 C 
BRANCH   7   8
ATOM      8  C   UNL     1      28.799   5.842  32.107  1.00  0.00     0.027 C 
BRANCH   8   9
ATOM      9  C   UNL     1      27.349   6.101  32.544  1.00  0.00     0.004 C 
BRANCH   9  10
ATOM     10  C   UNL     1      27.147   7.539  33.051  1.00  0.00     0.000 C 
BRANCH  10  11
ATOM     11  C   UNL     1      26.207   8.353  32.147  1.00  0.00    -0.003 C 
ATOM     12  C   UNL     1      26.738   9.759  31.860  1.00  0.00     0.004 C 
ENDBRANCH  10  11
ENDBRANCH   9  10
ENDBRANCH   8   9
ENDBRANCH   7   8
ENDBRANCH   5   6
ENDBRANCH   4   5
ENDBRANCH   2   3
ENDBRANCH   1   2
BRANCH   1  13
ATOM     13  C   UNL     1      29.403   2.125  28.848  1.00  0.00     0.000 C 
BRANCH  13  14
ATOM     14  C   UNL     1      28.751   2.033  30.240  1.00  0.00     0.000 C 
BRANCH  14  15
ATOM     15  C   UNL     1      27.465   2.869  30.353  1.00  0.00     0.000 C 
BRANCH  15  16
ATOM     16  C   UNL     1      26.751   3.054  29.001  1.00  0.00     0.003 C 
BRANCH  16  17
ATOM     17  C   UNL     1      25.486   2.197  28.815  1.00  0.00     0.042 C 
BRANCH  17  18
ATOM     18  C   UNL     1      25.763   0.860  28.115  1.00  0.00     0.233 C 
BRANCH  18  19
ATOM     19  O   UNL     1      25.247   0.877  26.787  1.00  0.00    -0.466 OA
BRANCH  19  20
ATOM     20  C   UNL     1      23.902   0.636  26.481  1.00  0.00     0.302 C 
ATOM     21  O   UNL     1      23.121   1.586  26.202  1.00  0.00    -0.253 OA
ATOM     22  C   UNL     1      23.380  -0.761  26.527  1.00  0.00     0.139 C 
ENDBRANCH  19  20
ENDBRANCH  18  19
ENDBRANCH  17  18
ENDBRANCH  16  17
ENDBRANCH  15  16
ENDBRANCH  14  15
ENDBRANCH  13  14
ENDBRANCH   1  13
TORSDOF 16
ENDMDL
MODEL 8
REMARK VINA RESULT:    -5.760      1.249      2.733
REMARK INTER + INTRA:         -12.506
REMARK INTER:                 -11.351
REMARK INTRA:                  -1.155
REMARK UNBOUND:                -1.357
REMARK SMILES CCCCCC=CCC=CCCCCCCCCOC(C)=O
REMARK SMILES IDX 12 1 11 2 10 3 9 4 8 5 7 6 6 7 5 8 4 9 3 10 2 11 1 12 13 13
REMARK SMILES IDX 14 14 15 15 16 16 17 17 18 18 19 19 20 20 22 21 21 22
REMARK H PARENT
REMARK Flexibility Score: inf
ROOT
ATOM      1  C   UNL     1      27.984  10.324  34.427  1.00  0.00     0.004 C 
ENDROOT
BRANCH   1   2
ATOM      2  C   UNL     1      28.312   9.047  33.634  1.00  0.00     0.027 C 
BRANCH   2   3
ATOM      3  C   UNL     1      27.240   8.692  32.632  1.00  0.00    -0.031 C 
ATOM      4  C   UNL     1      26.904   7.438  32.273  1.00  0.00    -0.027 C 
BRANCH   4   5
ATOM      5  C   UNL     1      27.575   6.185  32.778  1.00  0.00     0.054 C 
BRANCH   5   6
ATOM      6  C   UNL     1      27.445   5.042  31.802  1.00  0.00    -0.027 C 
ATOM      7  C   UNL     1      28.481   4.335  31.317  1.00  0.00    -0.031 C 
BRANCH   7   8
ATOM      8  C   UNL     1      29.920   4.590  31.703  1.00  0.00     0.027 C 
BRANCH   8   9
ATOM      9  C   UNL     1      30.866   3.514  31.149  1.00  0.00     0.004 C 
BRANCH   9  10
ATOM     10  C   UNL     1      31.323   3.830  29.714  1.00  0.00     0.000 C 
BRANCH  10  11
ATOM     11  C   UNL     1      30.821   2.793  28.697  1.00  0.00    -0.003 C 
ATOM     12  C   UNL     1      29.427   3.123  28.160  1.00  0.00     0.004 C 
ENDBRANCH  10  11
ENDBRANCH   9  10
ENDBRANCH   8   9
ENDBRANCH   7   8
ENDBRANCH   5   6
ENDBRANCH   4   5
ENDBRANCH   2   3
ENDBRANCH   1   2
BRANCH   1  13
ATOM     13  C   UNL     1      28.789  10.498  35.732  1.00  0.00     0.000 C 
BRANCH  13  14
ATOM     14  C   UNL     1      28.393  11.719  36.582  1.00  0.00     0.000 C 
BRANCH  14  15
ATOM     15  C   UNL     1      29.608  12.464  37.159  1.00  0.00     0.000 C 
BRANCH  15  16
ATOM     16  C   UNL     1      29.233  13.806  37.813  1.00  0.00     0.003 C 
BRANCH  16  17
ATOM     17  C   UNL     1      30.011  15.024  37.283  1.00  0.00     0.042 C 
BRANCH  17  18
ATOM     18  C   UNL     1      29.509  15.512  35.918  1.00  0.00     0.233 C 
BRANCH  18  19
ATOM     19  O   UNL     1      28.086  15.447  35.859  1.00  0.00    -0.466 OA
BRANCH  19  20
ATOM     20  C   UNL     1      27.369  15.343  34.661  1.00  0.00     0.302 C 
ATOM     21  O   UNL     1      27.025  16.374  34.021  1.00  0.00    -0.253 OA
ATOM     22  C   UNL     1      26.973  13.995  34.160  1.00  0.00     0.139 C 
ENDBRANCH  19  20
ENDBRANCH  18  19
ENDBRANCH  17  18
ENDBRANCH  16  17
ENDBRANCH  15  16
ENDBRANCH  14  15
ENDBRANCH  13  14
ENDBRANCH   1  13
TORSDOF 16
ENDMDL
MODEL 9
REMARK VINA RESULT:    -5.718      6.399     11.094
REMARK INTER + INTRA:         -12.423
REMARK INTER:                 -11.052
REMARK INTRA:                  -1.371
REMARK UNBOUND:                -1.357
REMARK SMILES CCCCCC=CCC=CCCCCCCCCOC(C)=O
REMARK SMILES IDX 12 1 11 2 10 3 9 4 8 5 7 6 6 7 5 8 4 9 3 10 2 11 1 12 13 13
REMARK SMILES IDX 14 14 15 15 16 16 17 17 18 18 19 19 20 20 22 21 21 22
REMARK H PARENT
REMARK Flexibility Score: inf
ROOT
ATOM      1  C   UNL     1      28.104   2.723  27.926  1.00  0.00     0.004 C 
ENDROOT
BRANCH   1   2
ATOM      2  C   UNL     1      29.398   3.225  28.592  1.00  0.00     0.027 C 
BRANCH   2   3
ATOM      3  C   UNL     1      29.710   2.497  29.878  1.00  0.00    -0.031 C 
ATOM      4  C   UNL     1      29.723   3.061  31.100  1.00  0.00    -0.027 C 
BRANCH   4   5
ATOM      5  C   UNL     1      29.472   4.522  31.381  1.00  0.00     0.054 C 
BRANCH   5   6
ATOM      6  C   UNL     1      28.066   4.770  31.866  1.00  0.00    -0.027 C 
ATOM      7  C   UNL     1      27.660   5.897  32.479  1.00  0.00    -0.031 C 
BRANCH   7   8
ATOM      8  C   UNL     1      28.570   7.074  32.748  1.00  0.00     0.027 C 
BRANCH   8   9
ATOM      9  C   UNL     1      27.781   8.342  33.107  1.00  0.00     0.004 C 
BRANCH   9  10
ATOM     10  C   UNL     1      26.425   8.403  32.383  1.00  0.00     0.000 C 
BRANCH  10  11
ATOM     11  C   UNL     1      26.340   9.578  31.395  1.00  0.00    -0.003 C 
ATOM     12  C   UNL     1      26.831  10.894  32.003  1.00  0.00     0.004 C 
ENDBRANCH  10  11
ENDBRANCH   9  10
ENDBRANCH   8   9
ENDBRANCH   7   8
ENDBRANCH   5   6
ENDBRANCH   4   5
ENDBRANCH   2   3
ENDBRANCH   1   2
BRANCH   1  13
ATOM     13  C   UNL     1      26.869   2.701  28.852  1.00  0.00     0.000 C 
BRANCH  13  14
ATOM     14  C   UNL     1      25.743   1.749  28.408  1.00  0.00     0.000 C 
BRANCH  14  15
ATOM     15  C   UNL     1      26.247   0.606  27.512  1.00  0.00     0.000 C 
BRANCH  15  16
ATOM     16  C   UNL     1      25.762   0.729  26.055  1.00  0.00     0.003 C 
BRANCH  16  17
ATOM     17  C   UNL     1      26.868   0.602  24.993  1.00  0.00     0.042 C 
BRANCH  17  18
ATOM     18  C   UNL     1      26.427   1.086  23.605  1.00  0.00     0.233 C 
BRANCH  18  19
ATOM     19  O   UNL     1      25.021   1.318  23.583  1.00  0.00    -0.466 OA
BRANCH  19  20
ATOM     20  C   UNL     1      24.397   2.179  22.672  1.00  0.00     0.302 C 
ATOM     21  O   UNL     1      24.853   2.328  21.506  1.00  0.00    -0.253 OA
ATOM     22  C   UNL     1      23.203   2.962  23.105  1.00  0.00     0.139 C 
ENDBRANCH  19  20
ENDBRANCH  18  19
ENDBRANCH  17  18
ENDBRANCH  16  17
ENDBRANCH  15  16
ENDBRANCH  14  15
ENDBRANCH  13  14
ENDBRANCH   1  13
TORSDOF 16
ENDMDL
