MODEL 1
REMARK VINA RESULT:    -3.965      0.000      0.000
REMARK INTER + INTRA:          -5.879
REMARK INTER:                  -5.356
REMARK INTRA:                  -0.524
REMARK UNBOUND:                -0.524
REMARK SMILES CCCCCCCC(=O)[O-]
REMARK SMILES IDX 5 1 6 2 7 3 8 4 9 5 10 6 4 7 3 8 2 9 1 10
REMARK H PARENT
REMARK Flexibility Score: inf
ROOT
ATOM      1  C   UNL     1       4.385  25.202  13.240  1.00  0.00     0.000 C 
ENDROOT
BRANCH   1   2
ATOM      2  C   UNL     1       3.346  26.142  12.600  1.00  0.00     0.006 C 
BRANCH   2   3
ATOM      3  C   UNL     1       3.948  27.430  12.010  1.00  0.00     0.053 C 
BRANCH   3   4
ATOM      4  C   UNL     1       4.484  28.353  13.062  1.00  0.00     0.041 C 
ATOM      5  O   UNL     1       5.586  28.939  12.894  1.00  0.00    -0.550 OA
ATOM      6  O   UNL     1       3.749  28.592  14.217  1.00  0.00    -0.550 OA
ENDBRANCH   3   4
ENDBRANCH   2   3
ENDBRANCH   1   2
BRANCH   1   7
ATOM      7  C   UNL     1       4.132  24.955  14.735  1.00  0.00     0.000 C 
BRANCH   7   8
ATOM      8  C   UNL     1       5.187  25.668  15.595  1.00  0.00    -0.000 C 
BRANCH   8   9
ATOM      9  C   UNL     1       6.487  25.946  14.824  1.00  0.00    -0.003 C 
ATOM     10  C   UNL     1       7.641  26.355  15.740  1.00  0.00     0.004 C 
ENDBRANCH   8   9
ENDBRANCH   7   8
ENDBRANCH   1   7
TORSDOF 6
ENDMDL
MODEL 2
REMARK VINA RESULT:    -3.751      1.958      3.560
REMARK INTER + INTRA:          -5.590
REMARK INTER:                  -4.948
REMARK INTRA:                  -0.642
REMARK UNBOUND:                -0.524
REMARK SMILES CCCCCCCC(=O)[O-]
REMARK SMILES IDX 5 1 6 2 7 3 8 4 9 5 10 6 4 7 3 8 2 9 1 10
REMARK H PARENT
REMARK Flexibility Score: inf
ROOT
ATOM      1  C   UNL     1       3.693  25.794  12.848  1.00  0.00     0.000 C 
ENDROOT
BRANCH   1   2
ATOM      2  C   UNL     1       4.657  25.051  13.792  1.00  0.00     0.006 C 
BRANCH   2   3
ATOM      3  C   UNL     1       6.025  25.737  13.954  1.00  0.00     0.053 C 
BRANCH   3   4
ATOM      4  C   UNL     1       6.241  26.279  15.335  1.00  0.00     0.041 C 
ATOM      5  O   UNL     1       5.387  27.040  15.860  1.00  0.00    -0.550 OA
ATOM      6  O   UNL     1       7.372  25.915  16.055  1.00  0.00    -0.550 OA
ENDBRANCH   3   4
ENDBRANCH   2   3
ENDBRANCH   1   2
BRANCH   1   7
ATOM      7  C   UNL     1       2.687  26.684  13.594  1.00  0.00     0.000 C 
BRANCH   7   8
ATOM      8  C   UNL     1       3.091  28.163  13.506  1.00  0.00    -0.000 C 
BRANCH   8   9
ATOM      9  C   UNL     1       4.044  28.445  12.334  1.00  0.00    -0.003 C 
ATOM     10  C   UNL     1       5.326  29.154  12.772  1.00  0.00     0.004 C 
ENDBRANCH   8   9
ENDBRANCH   7   8
ENDBRANCH   1   7
TORSDOF 6
ENDMDL
MODEL 3
REMARK VINA RESULT:    -3.601      1.906      2.210
REMARK INTER + INTRA:          -5.388
REMARK INTER:                  -5.083
REMARK INTRA:                  -0.306
REMARK UNBOUND:                -0.524
REMARK SMILES CCCCCCCC(=O)[O-]
REMARK SMILES IDX 5 1 6 2 7 3 8 4 9 5 10 6 4 7 3 8 2 9 1 10
REMARK H PARENT
REMARK Flexibility Score: inf
ROOT
ATOM      1  C   UNL     1       4.089  25.506  13.488  1.00  0.00     0.000 C 
ENDROOT
BRANCH   1   2
ATOM      2  C   UNL     1       4.514  26.649  12.548  1.00  0.00     0.006 C 
BRANCH   2   3
ATOM      3  C   UNL     1       3.653  27.919  12.679  1.00  0.00     0.053 C 
BRANCH   3   4
ATOM      4  C   UNL     1       2.550  27.976  11.665  1.00  0.00     0.041 C 
ATOM      5  O   UNL     1       1.875  29.029  11.518  1.00  0.00    -0.550 OA
ATOM      6  O   UNL     1       2.289  26.875  10.858  1.00  0.00    -0.550 OA
ENDBRANCH   3   4
ENDBRANCH   2   3
ENDBRANCH   1   2
BRANCH   1   7
ATOM      7  C   UNL     1       5.023  25.341  14.696  1.00  0.00     0.000 C 
BRANCH   7   8
ATOM      8  C   UNL     1       6.431  25.868  14.378  1.00  0.00    -0.000 C 
BRANCH   8   9
ATOM      9  C   UNL     1       7.216  26.255  15.641  1.00  0.00    -0.003 C 
ATOM     10  C   UNL     1       6.325  26.365  16.879  1.00  0.00     0.004 C 
ENDBRANCH   8   9
ENDBRANCH   7   8
ENDBRANCH   1   7
TORSDOF 6
ENDMDL
MODEL 4
REMARK VINA RESULT:    -3.532      1.595      3.886
REMARK INTER + INTRA:          -5.294
REMARK INTER:                  -4.830
REMARK INTRA:                  -0.465
REMARK UNBOUND:                -0.524
REMARK SMILES CCCCCCCC(=O)[O-]
REMARK SMILES IDX 5 1 6 2 7 3 8 4 9 5 10 6 4 7 3 8 2 9 1 10
REMARK H PARENT
REMARK Flexibility Score: inf
ROOT
ATOM      1  C   UNL     1       5.953  26.090  13.980  1.00  0.00     0.000 C 
ENDROOT
BRANCH   1   2
ATOM      2  C   UNL     1       6.365  25.770  15.429  1.00  0.00     0.006 C 
BRANCH   2   3
ATOM      3  C   UNL     1       5.890  26.812  16.458  1.00  0.00     0.053 C 
BRANCH   3   4
ATOM      4  C   UNL     1       4.408  27.033  16.415  1.00  0.00     0.041 C 
ATOM      5  O   UNL     1       3.620  26.150  16.845  1.00  0.00    -0.550 OA
ATOM      6  O   UNL     1       3.898  28.232  15.930  1.00  0.00    -0.550 OA
ENDBRANCH   3   4
ENDBRANCH   2   3
ENDBRANCH   1   2
BRANCH   1   7
ATOM      7  C   UNL     1       4.824  25.186  13.463  1.00  0.00     0.000 C 
BRANCH   7   8
ATOM      8  C   UNL     1       3.718  26.016  12.795  1.00  0.00    -0.000 C 
BRANCH   8   9
ATOM      9  C   UNL     1       4.224  27.377  12.292  1.00  0.00    -0.003 C 
ATOM     10  C   UNL     1       3.126  28.441  12.258  1.00  0.00     0.004 C 
ENDBRANCH   8   9
ENDBRANCH   7   8
ENDBRANCH   1   7
TORSDOF 6
ENDMDL
MODEL 5
REMARK VINA RESULT:    -3.471      1.858      2.369
REMARK INTER + INTRA:          -5.212
REMARK INTER:                  -4.713
REMARK INTRA:                  -0.498
REMARK UNBOUND:                -0.524
REMARK SMILES CCCCCCCC(=O)[O-]
REMARK SMILES IDX 5 1 6 2 7 3 8 4 9 5 10 6 4 7 3 8 2 9 1 10
REMARK H PARENT
REMARK Flexibility Score: inf
ROOT
ATOM      1  C   UNL     1       3.654  27.463  15.202  1.00  0.00     0.000 C 
ENDROOT
BRANCH   1   2
ATOM      2  C   UNL     1       4.536  28.201  14.177  1.00  0.00     0.006 C 
BRANCH   2   3
ATOM      3  C   UNL     1       4.758  27.421  12.868  1.00  0.00     0.053 C 
BRANCH   3   4
ATOM      4  C   UNL     1       3.497  27.248  12.076  1.00  0.00     0.041 C 
ATOM      5  O   UNL     1       2.993  26.104  11.926  1.00  0.00    -0.550 OA
ATOM      6  O   UNL     1       2.861  28.356  11.531  1.00  0.00    -0.550 OA
ENDBRANCH   3   4
ENDBRANCH   2   3
ENDBRANCH   1   2
BRANCH   1   7
ATOM      7  C   UNL     1       4.372  26.282  15.873  1.00  0.00     0.000 C 
BRANCH   7   8
ATOM      8  C   UNL     1       5.407  26.778  16.895  1.00  0.00    -0.000 C 
BRANCH   8   9
ATOM      9  C   UNL     1       6.742  26.023  16.795  1.00  0.00    -0.003 C 
ATOM     10  C   UNL     1       7.468  26.278  15.474  1.00  0.00     0.004 C 
ENDBRANCH   8   9
ENDBRANCH   7   8
ENDBRANCH   1   7
TORSDOF 6
ENDMDL
MODEL 6
REMARK VINA RESULT:    -3.402      1.774      3.058
REMARK INTER + INTRA:          -5.119
REMARK INTER:                  -4.726
REMARK INTRA:                  -0.393
REMARK UNBOUND:                -0.524
REMARK SMILES CCCCCCCC(=O)[O-]
REMARK SMILES IDX 5 1 6 2 7 3 8 4 9 5 10 6 4 7 3 8 2 9 1 10
REMARK H PARENT
REMARK Flexibility Score: inf
ROOT
ATOM      1  C   UNL     1       6.171  26.708  14.516  1.00  0.00     0.000 C 
ENDROOT
BRANCH   1   2
ATOM      2  C   UNL     1       5.734  25.555  13.594  1.00  0.00     0.006 C 
BRANCH   2   3
ATOM      3  C   UNL     1       4.236  25.211  13.689  1.00  0.00     0.053 C 
BRANCH   3   4
ATOM      4  C   UNL     1       3.367  26.214  12.992  1.00  0.00     0.041 C 
ATOM      5  O   UNL     1       2.167  26.367  13.341  1.00  0.00    -0.550 OA
ATOM      6  O   UNL     1       3.893  27.004  11.977  1.00  0.00    -0.550 OA
ENDBRANCH   3   4
ENDBRANCH   2   3
ENDBRANCH   1   2
BRANCH   1   7
ATOM      7  C   UNL     1       7.101  26.252  15.651  1.00  0.00     0.000 C 
BRANCH   7   8
ATOM      8  C   UNL     1       6.383  26.314  17.007  1.00  0.00    -0.000 C 
BRANCH   8   9
ATOM      9  C   UNL     1       5.139  27.216  16.976  1.00  0.00    -0.003 C 
ATOM     10  C   UNL     1       3.835  26.431  17.124  1.00  0.00     0.004 C 
ENDBRANCH   8   9
ENDBRANCH   7   8
ENDBRANCH   1   7
TORSDOF 6
ENDMDL
MODEL 7
REMARK VINA RESULT:    -3.383      1.600      2.945
REMARK INTER + INTRA:          -5.094
REMARK INTER:                  -4.505
REMARK INTRA:                  -0.588
REMARK UNBOUND:                -0.524
REMARK SMILES CCCCCCCC(=O)[O-]
REMARK SMILES IDX 5 1 6 2 7 3 8 4 9 5 10 6 4 7 3 8 2 9 1 10
REMARK H PARENT
REMARK Flexibility Score: inf
ROOT
ATOM      1  C   UNL     1       5.662  26.223  13.741  1.00  0.00     0.000 C 
ENDROOT
BRANCH   1   2
ATOM      2  C   UNL     1       5.637  27.758  13.865  1.00  0.00     0.006 C 
BRANCH   2   3
ATOM      3  C   UNL     1       4.922  28.468  12.701  1.00  0.00     0.053 C 
BRANCH   3   4
ATOM      4  C   UNL     1       3.449  28.190  12.672  1.00  0.00     0.041 C 
ATOM      5  O   UNL     1       2.875  27.915  11.586  1.00  0.00    -0.550 OA
ATOM      6  O   UNL     1       2.715  28.204  13.852  1.00  0.00    -0.550 OA
ENDBRANCH   3   4
ENDBRANCH   2   3
ENDBRANCH   1   2
BRANCH   1   7
ATOM      7  C   UNL     1       5.226  25.509  15.029  1.00  0.00     0.000 C 
BRANCH   7   8
ATOM      8  C   UNL     1       3.944  24.693  14.799  1.00  0.00    -0.000 C 
BRANCH   8   9
ATOM      9  C   UNL     1       3.484  24.720  13.333  1.00  0.00    -0.003 C 
ATOM     10  C   UNL     1       1.963  24.644  13.189  1.00  0.00     0.004 C 
ENDBRANCH   8   9
ENDBRANCH   7   8
ENDBRANCH   1   7
TORSDOF 6
ENDMDL
MODEL 8
REMARK VINA RESULT:    -3.312      2.145      4.063
REMARK INTER + INTRA:          -4.997
REMARK INTER:                  -4.460
REMARK INTRA:                  -0.537
REMARK UNBOUND:                -0.524
REMARK SMILES CCCCCCCC(=O)[O-]
REMARK SMILES IDX 5 1 6 2 7 3 8 4 9 5 10 6 4 7 3 8 2 9 1 10
REMARK H PARENT
REMARK Flexibility Score: inf
ROOT
ATOM      1  C   UNL     1       3.380  27.627  15.753  1.00  0.00     0.000 C 
ENDROOT
BRANCH   1   2
ATOM      2  C   UNL     1       4.092  26.262  15.724  1.00  0.00     0.006 C 
BRANCH   2   3
ATOM      3  C   UNL     1       5.501  26.278  16.345  1.00  0.00     0.053 C 
BRANCH   3   4
ATOM      4  C   UNL     1       6.588  26.169  15.319  1.00  0.00     0.041 C 
ATOM      5  O   UNL     1       7.777  26.452  15.619  1.00  0.00    -0.550 OA
ATOM      6  O   UNL     1       6.291  25.724  14.036  1.00  0.00    -0.550 OA
ENDBRANCH   3   4
ENDBRANCH   2   3
ENDBRANCH   1   2
BRANCH   1   7
ATOM      7  C   UNL     1       3.028  28.152  14.353  1.00  0.00     0.000 C 
BRANCH   7   8
ATOM      8  C   UNL     1       4.291  28.589  13.596  1.00  0.00    -0.000 C 
BRANCH   8   9
ATOM      9  C   UNL     1       4.417  27.916  12.221  1.00  0.00    -0.003 C 
ATOM     10  C   UNL     1       3.421  26.771  12.029  1.00  0.00     0.004 C 
ENDBRANCH   8   9
ENDBRANCH   7   8
ENDBRANCH   1   7
TORSDOF 6
ENDMDL
MODEL 9
REMARK VINA RESULT:    -3.299      2.229      4.388
REMARK INTER + INTRA:          -4.979
REMARK INTER:                  -4.556
REMARK INTRA:                  -0.423
REMARK UNBOUND:                -0.524
REMARK SMILES CCCCCCCC(=O)[O-]
REMARK SMILES IDX 5 1 6 2 7 3 8 4 9 5 10 6 4 7 3 8 2 9 1 10
REMARK H PARENT
REMARK Flexibility Score: inf
ROOT
ATOM      1  C   UNL     1       4.603  27.842  12.328  1.00  0.00     0.000 C 
ENDROOT
BRANCH   1   2
ATOM      2  C   UNL     1       4.878  27.522  13.809  1.00  0.00     0.006 C 
BRANCH   2   3
ATOM      3  C   UNL     1       5.731  26.259  14.028  1.00  0.00     0.053 C 
BRANCH   3   4
ATOM      4  C   UNL     1       6.307  26.182  15.410  1.00  0.00     0.041 C 
ATOM      5  O   UNL     1       5.549  26.113  16.413  1.00  0.00    -0.550 OA
ATOM      6  O   UNL     1       7.686  26.155  15.588  1.00  0.00    -0.550 OA
ENDBRANCH   3   4
ENDBRANCH   2   3
ENDBRANCH   1   2
BRANCH   1   7
ATOM      7  C   UNL     1       3.222  28.474  12.095  1.00  0.00     0.000 C 
BRANCH   7   8
ATOM      8  C   UNL     1       2.104  27.556  12.614  1.00  0.00    -0.000 C 
BRANCH   8   9
ATOM      9  C   UNL     1       2.019  26.233  11.838  1.00  0.00    -0.003 C 
ATOM     10  C   UNL     1       2.044  25.008  12.754  1.00  0.00     0.004 C 
ENDBRANCH   8   9
ENDBRANCH   7   8
ENDBRANCH   1   7
TORSDOF 6
ENDMDL
