MODEL 1
REMARK VINA RESULT:    30.208      0.000      0.000
REMARK INTER + INTRA:          34.316
REMARK INTER:                  34.623
REMARK INTRA:                  -0.307
REMARK UNBOUND:                -0.307
REMARK SMILES O=C1C[C@H](c2ccc(O)cc2)Oc2cc(O)cc(O)c21
REMARK SMILES IDX 3 1 4 2 12 3 13 4 14 5 15 6 17 7 18 8 20 9 2 10 1 11 5 12
REMARK SMILES IDX 6 13 11 14 7 15 10 16 8 17 9 18 19 20 16 22
REMARK H PARENT 9 19 19 21 16 23
REMARK Flexibility Score: inf
ROOT
ATOM      1  C   UNL     1      12.195  12.289  30.424  1.00  0.00     0.131 C 
ATOM      2  C   UNL     1      10.688  12.504  30.230  1.00  0.00     0.211 C 
ATOM      3  O   UNL     1      10.377  12.667  28.842  1.00  0.00    -0.484 OA
ATOM      4  C   UNL     1      11.194  13.392  27.965  1.00  0.00     0.138 A 
ATOM      5  C   UNL     1      10.694  13.744  26.709  1.00  0.00     0.093 A 
ATOM      6  C   UNL     1      11.478  14.479  25.819  1.00  0.00     0.123 A 
ATOM      7  C   UNL     1      12.781  14.840  26.175  1.00  0.00     0.093 A 
ATOM      8  C   UNL     1      13.317  14.463  27.413  1.00  0.00     0.133 A 
ATOM      9  C   UNL     1      12.506  13.758  28.340  1.00  0.00     0.102 A 
ATOM     10  C   UNL     1      12.944  13.372  29.704  1.00  0.00     0.174 C 
ATOM     11  O   UNL     1      13.887  13.964  30.290  1.00  0.00    -0.294 OA
ENDROOT
BRANCH   2  12
ATOM     12  C   UNL     1       9.905  11.349  30.803  1.00  0.00    -0.007 A 
ATOM     13  C   UNL     1       8.570  11.138  30.418  1.00  0.00     0.011 A 
ATOM     14  C   UNL     1      10.480  10.505  31.770  1.00  0.00     0.011 A 
ATOM     15  C   UNL     1       7.832  10.087  30.970  1.00  0.00     0.046 A 
ATOM     16  C   UNL     1       9.739   9.454  32.322  1.00  0.00     0.046 A 
ATOM     17  C   UNL     1       8.416   9.242  31.923  1.00  0.00     0.115 A 
BRANCH  17  18
ATOM     18  O   UNL     1       7.690   8.191  32.481  1.00  0.00    -0.508 OA
ATOM     19  H   UNL     1       7.849   7.230  32.200  1.00  0.00     0.293 HD
ENDBRANCH  17  18
ENDBRANCH   2  12
BRANCH   8  20
ATOM     20  O   UNL     1      14.655  14.781  27.657  1.00  0.00    -0.507 OA
ATOM     21  H   UNL     1      15.275  14.216  28.218  1.00  0.00     0.293 HD
ENDBRANCH   8  20
BRANCH   6  22
ATOM     22  O   UNL     1      10.954  14.839  24.580  1.00  0.00    -0.508 OA
ATOM     23  H   UNL     1      10.055  14.494  24.264  1.00  0.00     0.293 HD
ENDBRANCH   6  22
TORSDOF 4
ENDMDL
MODEL 2
REMARK VINA RESULT:    32.124      2.437      3.289
REMARK INTER + INTRA:          36.512
REMARK INTER:                  36.809
REMARK INTRA:                  -0.298
REMARK UNBOUND:                -0.307
REMARK SMILES O=C1C[C@H](c2ccc(O)cc2)Oc2cc(O)cc(O)c21
REMARK SMILES IDX 3 1 4 2 12 3 13 4 14 5 15 6 17 7 18 8 20 9 2 10 1 11 5 12
REMARK SMILES IDX 6 13 11 14 7 15 10 16 8 17 9 18 19 20 16 22
REMARK H PARENT 9 19 19 21 16 23
REMARK Flexibility Score: inf
ROOT
ATOM      1  C   UNL     1      11.767  11.157  29.853  1.00  0.00     0.131 C 
ATOM      2  C   UNL     1      11.525  11.306  31.362  1.00  0.00     0.211 C 
ATOM      3  O   UNL     1      11.474  12.689  31.729  1.00  0.00    -0.484 OA
ATOM      4  C   UNL     1      12.326  13.651  31.170  1.00  0.00     0.138 A 
ATOM      5  C   UNL     1      12.412  14.910  31.770  1.00  0.00     0.093 A 
ATOM      6  C   UNL     1      13.262  15.884  31.246  1.00  0.00     0.123 A 
ATOM      7  C   UNL     1      14.010  15.608  30.097  1.00  0.00     0.093 A 
ATOM      8  C   UNL     1      13.909  14.367  29.456  1.00  0.00     0.133 A 
ATOM      9  C   UNL     1      13.082  13.357  30.014  1.00  0.00     0.102 A 
ATOM     10  C   UNL     1      12.954  11.987  29.461  1.00  0.00     0.174 C 
ATOM     11  O   UNL     1      13.839  11.486  28.719  1.00  0.00    -0.294 OA
ENDROOT
BRANCH   2  12
ATOM     12  C   UNL     1      10.247  10.616  31.769  1.00  0.00    -0.007 A 
ATOM     13  C   UNL     1       9.791  10.696  33.096  1.00  0.00     0.011 A 
ATOM     14  C   UNL     1       9.527   9.839  30.843  1.00  0.00     0.011 A 
ATOM     15  C   UNL     1       8.624  10.032  33.483  1.00  0.00     0.046 A 
ATOM     16  C   UNL     1       8.360   9.176  31.234  1.00  0.00     0.046 A 
ATOM     17  C   UNL     1       7.904   9.271  32.552  1.00  0.00     0.115 A 
BRANCH  17  18
ATOM     18  O   UNL     1       6.739   8.604  32.927  1.00  0.00    -0.508 OA
ATOM     19  H   UNL     1       6.766   7.795  33.537  1.00  0.00     0.293 HD
ENDBRANCH  17  18
ENDBRANCH   2  12
BRANCH   8  20
ATOM     20  O   UNL     1      14.615  14.202  28.262  1.00  0.00    -0.507 OA
ATOM     21  H   UNL     1      14.381  13.519  27.557  1.00  0.00     0.293 HD
ENDBRANCH   8  20
BRANCH   6  22
ATOM     22  O   UNL     1      13.351  17.125  31.872  1.00  0.00    -0.508 OA
ATOM     23  H   UNL     1      12.859  17.935  31.513  1.00  0.00     0.293 HD
ENDBRANCH   6  22
TORSDOF 4
ENDMDL
