MODEL 1
REMARK VINA RESULT:    -5.578      0.000      0.000
REMARK INTER + INTRA:          -5.718
REMARK INTER:                  -5.904
REMARK INTRA:                   0.186
REMARK UNBOUND:                 0.186
REMARK SMILES CC(C)[C@H]1CC[C@H](C)[C@H]2C=C[C@@H](C)C[C@@H]21
REMARK SMILES IDX 8 1 7 2 6 3 5 4 4 5 15 6 9 7 10 8 11 9 12 10 14 11 13 12
REMARK SMILES IDX 2 13 1 14 3 15
REMARK H PARENT
REMARK Flexibility Score: inf
ROOT
ATOM      1  C   UNL     1     112.734 109.237 116.941  1.00  0.00     0.008 C 
ATOM      2  C   UNL     1     111.655 109.517 115.881  1.00  0.00    -0.007 C 
ATOM      3  C   UNL     1     110.476 110.240 116.547  1.00  0.00     0.004 C 
ATOM      4  C   UNL     1     109.369 110.521 115.537  1.00  0.00     0.004 C 
ATOM      5  C   UNL     1     109.857 111.444 114.393  1.00  0.00    -0.005 C 
ATOM      6  C   UNL     1     111.106 110.802 113.700  1.00  0.00    -0.000 C 
ATOM      7  C   UNL     1     112.209 110.368 114.710  1.00  0.00     0.018 C 
ATOM      8  C   UNL     1     113.256 109.606 113.924  1.00  0.00    -0.027 C 
ATOM      9  C   UNL     1     113.688 110.094 112.756  1.00  0.00    -0.028 C 
ATOM     10  C   UNL     1     113.229 111.455 112.286  1.00  0.00     0.008 C 
ATOM     11  C   UNL     1     111.735 111.746 112.629  1.00  0.00     0.012 C 
ATOM     12  C   UNL     1     113.506 111.633 110.790  1.00  0.00     0.012 C 
ENDROOT
BRANCH   5  13
ATOM     13  C   UNL     1     108.719 111.793 113.345  1.00  0.00    -0.014 C 
ATOM     14  C   UNL     1     108.738 113.233 112.790  1.00  0.00     0.007 C 
ATOM     15  C   UNL     1     108.742 110.822 112.151  1.00  0.00     0.007 C 
ENDBRANCH   5  13
TORSDOF 1
ENDMDL
MODEL 2
REMARK VINA RESULT:    -5.539      3.335      4.889
REMARK INTER + INTRA:          -5.677
REMARK INTER:                  -5.872
REMARK INTRA:                   0.195
REMARK UNBOUND:                 0.186
REMARK SMILES CC(C)[C@H]1CC[C@H](C)[C@H]2C=C[C@@H](C)C[C@@H]21
REMARK SMILES IDX 8 1 7 2 6 3 5 4 4 5 15 6 9 7 10 8 11 9 12 10 14 11 13 12
REMARK SMILES IDX 2 13 1 14 3 15
REMARK H PARENT
REMARK Flexibility Score: inf
ROOT
ATOM      1  C   UNL     1     112.841 109.462 112.109  1.00  0.00     0.008 C 
ATOM      2  C   UNL     1     111.740 109.663 111.052  1.00  0.00    -0.007 C 
ATOM      3  C   UNL     1     110.555 110.394 111.698  1.00  0.00     0.004 C 
ATOM      4  C   UNL     1     109.427 110.598 110.692  1.00  0.00     0.004 C 
ATOM      5  C   UNL     1     109.878 111.470 109.495  1.00  0.00    -0.005 C 
ATOM      6  C   UNL     1     111.130 110.820 108.817  1.00  0.00    -0.000 C 
ATOM      7  C   UNL     1     112.258 110.463 109.831  1.00  0.00     0.018 C 
ATOM      8  C   UNL     1     113.310 109.684 109.068  1.00  0.00    -0.027 C 
ATOM      9  C   UNL     1     113.714 110.120 107.870  1.00  0.00    -0.028 C 
ATOM     10  C   UNL     1     113.218 111.444 107.337  1.00  0.00     0.008 C 
ATOM     11  C   UNL     1     111.723 111.720 107.688  1.00  0.00     0.012 C 
ATOM     12  C   UNL     1     113.468 111.550 105.830  1.00  0.00     0.012 C 
ENDROOT
BRANCH   5  13
ATOM     13  C   UNL     1     108.717 111.739 108.448  1.00  0.00    -0.014 C 
ATOM     14  C   UNL     1     108.680 113.156 107.838  1.00  0.00     0.007 C 
ATOM     15  C   UNL     1     108.760 110.723 107.293  1.00  0.00     0.007 C 
ENDBRANCH   5  13
TORSDOF 1
ENDMDL
MODEL 3
REMARK VINA RESULT:    -5.510      1.244      3.866
REMARK INTER + INTRA:          -5.646
REMARK INTER:                  -5.880
REMARK INTRA:                   0.234
REMARK UNBOUND:                 0.186
REMARK SMILES CC(C)[C@H]1CC[C@H](C)[C@H]2C=C[C@@H](C)C[C@@H]21
REMARK SMILES IDX 8 1 7 2 6 3 5 4 4 5 15 6 9 7 10 8 11 9 12 10 14 11 13 12
REMARK SMILES IDX 2 13 1 14 3 15
REMARK H PARENT
REMARK Flexibility Score: inf
ROOT
ATOM      1  C   UNL     1     109.111 111.768 117.141  1.00  0.00     0.008 C 
ATOM      2  C   UNL     1     110.330 111.519 116.236  1.00  0.00    -0.007 C 
ATOM      3  C   UNL     1     111.004 110.206 116.656  1.00  0.00     0.004 C 
ATOM      4  C   UNL     1     112.234 109.926 115.798  1.00  0.00     0.004 C 
ATOM      5  C   UNL     1     111.865 109.769 114.302  1.00  0.00    -0.005 C 
ATOM      6  C   UNL     1     111.112 111.051 113.811  1.00  0.00    -0.000 C 
ATOM      7  C   UNL     1     109.929 111.458 114.740  1.00  0.00     0.018 C 
ATOM      8  C   UNL     1     109.422 112.799 114.251  1.00  0.00    -0.027 C 
ATOM      9  C   UNL     1     109.235 112.995 112.941  1.00  0.00    -0.028 C 
ATOM     10  C   UNL     1     109.407 111.850 111.970  1.00  0.00     0.008 C 
ATOM     11  C   UNL     1     110.587 110.903 112.349  1.00  0.00     0.012 C 
ATOM     12  C   UNL     1     109.546 112.372 110.537  1.00  0.00     0.012 C 
ENDROOT
BRANCH   5  13
ATOM     13  C   UNL     1     113.114 109.434 113.384  1.00  0.00    -0.014 C 
ATOM     14  C   UNL     1     112.789 108.814 112.009  1.00  0.00     0.007 C 
ATOM     15  C   UNL     1     113.985 110.682 113.150  1.00  0.00     0.007 C 
ENDBRANCH   5  13
TORSDOF 1
ENDMDL
MODEL 4
REMARK VINA RESULT:    -5.503      3.690      6.235
REMARK INTER + INTRA:          -5.639
REMARK INTER:                  -5.881
REMARK INTRA:                   0.241
REMARK UNBOUND:                 0.186
REMARK SMILES CC(C)[C@H]1CC[C@H](C)[C@H]2C=C[C@@H](C)C[C@@H]21
REMARK SMILES IDX 8 1 7 2 6 3 5 4 4 5 15 6 9 7 10 8 11 9 12 10 14 11 13 12
REMARK SMILES IDX 2 13 1 14 3 15
REMARK H PARENT
REMARK Flexibility Score: inf
ROOT
ATOM      1  C   UNL     1     109.052 111.764 112.163  1.00  0.00     0.008 C 
ATOM      2  C   UNL     1     110.287 111.526 111.276  1.00  0.00    -0.007 C 
ATOM      3  C   UNL     1     110.981 110.232 111.723  1.00  0.00     0.004 C 
ATOM      4  C   UNL     1     112.225 109.964 110.883  1.00  0.00     0.004 C 
ATOM      5  C   UNL     1     111.878 109.778 109.385  1.00  0.00    -0.005 C 
ATOM      6  C   UNL     1     111.106 111.039 108.868  1.00  0.00    -0.000 C 
ATOM      7  C   UNL     1     109.905 111.436 109.777  1.00  0.00     0.018 C 
ATOM      8  C   UNL     1     109.379 112.760 109.263  1.00  0.00    -0.027 C 
ATOM      9  C   UNL     1     109.203 112.935 107.949  1.00  0.00    -0.028 C 
ATOM     10  C   UNL     1     109.409 111.780 106.995  1.00  0.00     0.008 C 
ATOM     11  C   UNL     1     110.602 110.860 107.402  1.00  0.00     0.012 C 
ATOM     12  C   UNL     1     109.556 112.284 105.556  1.00  0.00     0.012 C 
ENDROOT
BRANCH   5  13
ATOM     13  C   UNL     1     113.144 109.455 108.487  1.00  0.00    -0.014 C 
ATOM     14  C   UNL     1     112.845 108.835 107.106  1.00  0.00     0.007 C 
ATOM     15  C   UNL     1     114.010 110.710 108.269  1.00  0.00     0.007 C 
ENDBRANCH   5  13
TORSDOF 1
ENDMDL
MODEL 5
REMARK VINA RESULT:    -5.406      4.463      7.629
REMARK INTER + INTRA:          -5.536
REMARK INTER:                  -5.355
REMARK INTRA:                  -0.182
REMARK UNBOUND:                 0.186
REMARK SMILES CC(C)[C@H]1CC[C@H](C)[C@H]2C=C[C@@H](C)C[C@@H]21
REMARK SMILES IDX 8 1 7 2 6 3 5 4 4 5 15 6 9 7 10 8 11 9 12 10 14 11 13 12
REMARK SMILES IDX 2 13 1 14 3 15
REMARK H PARENT
REMARK Flexibility Score: inf
ROOT
ATOM      1  C   UNL     1     108.395 113.231 108.251  1.00  0.00     0.008 C 
ATOM      2  C   UNL     1     109.272 112.171 107.563  1.00  0.00    -0.007 C 
ATOM      3  C   UNL     1     109.951 112.802 106.340  1.00  0.00     0.004 C 
ATOM      4  C   UNL     1     110.818 111.781 105.610  1.00  0.00     0.004 C 
ATOM      5  C   UNL     1     111.956 111.245 106.514  1.00  0.00    -0.005 C 
ATOM      6  C   UNL     1     111.343 110.638 107.821  1.00  0.00    -0.000 C 
ATOM      7  C   UNL     1     110.339 111.596 108.528  1.00  0.00     0.018 C 
ATOM      8  C   UNL     1     109.698 110.813 109.655  1.00  0.00    -0.027 C 
ATOM      9  C   UNL     1     110.463 110.067 110.459  1.00  0.00    -0.028 C 
ATOM     10  C   UNL     1     111.967 110.104 110.323  1.00  0.00     0.008 C 
ATOM     11  C   UNL     1     112.443 110.205 108.840  1.00  0.00     0.012 C 
ATOM     12  C   UNL     1     112.606 108.907 111.035  1.00  0.00     0.012 C 
ENDROOT
BRANCH   5  13
ATOM     13  C   UNL     1     112.904 110.211 105.774  1.00  0.00    -0.014 C 
ATOM     14  C   UNL     1     112.375 108.765 105.680  1.00  0.00     0.007 C 
ATOM     15  C   UNL     1     113.247 110.687 104.351  1.00  0.00     0.007 C 
ENDBRANCH   5  13
TORSDOF 1
ENDMDL
MODEL 6
REMARK VINA RESULT:    -5.363      1.474      4.741
REMARK INTER + INTRA:          -5.491
REMARK INTER:                  -5.316
REMARK INTRA:                  -0.174
REMARK UNBOUND:                 0.186
REMARK SMILES CC(C)[C@H]1CC[C@H](C)[C@H]2C=C[C@@H](C)C[C@@H]21
REMARK SMILES IDX 8 1 7 2 6 3 5 4 4 5 15 6 9 7 10 8 11 9 12 10 14 11 13 12
REMARK SMILES IDX 2 13 1 14 3 15
REMARK H PARENT
REMARK Flexibility Score: inf
ROOT
ATOM      1  C   UNL     1     108.382 113.259 113.151  1.00  0.00     0.008 C 
ATOM      2  C   UNL     1     109.259 112.200 112.460  1.00  0.00    -0.007 C 
ATOM      3  C   UNL     1     109.973 112.846 111.265  1.00  0.00     0.004 C 
ATOM      4  C   UNL     1     110.841 111.828 110.533  1.00  0.00     0.004 C 
ATOM      5  C   UNL     1     111.951 111.257 111.449  1.00  0.00    -0.005 C 
ATOM      6  C   UNL     1     111.302 110.632 112.730  1.00  0.00    -0.000 C 
ATOM      7  C   UNL     1     110.297 111.590 113.435  1.00  0.00     0.018 C 
ATOM      8  C   UNL     1     109.620 110.794 114.532  1.00  0.00    -0.027 C 
ATOM      9  C   UNL     1     110.357 110.021 115.336  1.00  0.00    -0.028 C 
ATOM     10  C   UNL     1     111.864 110.038 115.233  1.00  0.00     0.008 C 
ATOM     11  C   UNL     1     112.373 110.162 113.764  1.00  0.00     0.012 C 
ATOM     12  C   UNL     1     112.470 108.818 115.934  1.00  0.00     0.012 C 
ENDROOT
BRANCH   5  13
ATOM     13  C   UNL     1     112.901 110.225 110.709  1.00  0.00    -0.014 C 
ATOM     14  C   UNL     1     112.360 108.785 110.588  1.00  0.00     0.007 C 
ATOM     15  C   UNL     1     113.268 110.716 109.297  1.00  0.00     0.007 C 
ENDBRANCH   5  13
TORSDOF 1
ENDMDL
MODEL 7
REMARK VINA RESULT:    -5.329      4.778      7.244
REMARK INTER + INTRA:          -5.454
REMARK INTER:                  -5.361
REMARK INTRA:                  -0.093
REMARK UNBOUND:                 0.186
REMARK SMILES CC(C)[C@H]1CC[C@H](C)[C@H]2C=C[C@@H](C)C[C@@H]21
REMARK SMILES IDX 8 1 7 2 6 3 5 4 4 5 15 6 9 7 10 8 11 9 12 10 14 11 13 12
REMARK SMILES IDX 2 13 1 14 3 15
REMARK H PARENT
REMARK Flexibility Score: inf
ROOT
ATOM      1  C   UNL     1     113.637 108.761 107.882  1.00  0.00     0.008 C 
ATOM      2  C   UNL     1     112.820 109.904 107.255  1.00  0.00    -0.007 C 
ATOM      3  C   UNL     1     112.074 109.369 106.026  1.00  0.00     0.004 C 
ATOM      4  C   UNL     1     111.264 110.475 105.356  1.00  0.00     0.004 C 
ATOM      5  C   UNL     1     110.185 111.051 106.306  1.00  0.00    -0.005 C 
ATOM      6  C   UNL     1     110.865 111.563 107.620  1.00  0.00    -0.000 C 
ATOM      7  C   UNL     1     111.816 110.512 108.266  1.00  0.00     0.018 C 
ATOM      8  C   UNL     1     112.534 111.205 109.406  1.00  0.00    -0.027 C 
ATOM      9  C   UNL     1     111.839 111.969 110.256  1.00  0.00    -0.028 C 
ATOM     10  C   UNL     1     110.333 112.040 110.155  1.00  0.00     0.008 C 
ATOM     11  C   UNL     1     109.820 112.030 108.681  1.00  0.00     0.012 C 
ATOM     12  C   UNL     1     109.794 113.248 110.927  1.00  0.00     0.012 C 
ENDROOT
BRANCH   5  13
ATOM     13  C   UNL     1     109.295 112.175 105.629  1.00  0.00    -0.014 C 
ATOM     14  C   UNL     1     109.826 113.618 105.757  1.00  0.00     0.007 C 
ATOM     15  C   UNL     1     109.066 111.882 104.135  1.00  0.00     0.007 C 
ENDBRANCH   5  13
TORSDOF 1
ENDMDL
MODEL 8
REMARK VINA RESULT:    -5.310      1.902      3.813
REMARK INTER + INTRA:          -5.435
REMARK INTER:                  -5.437
REMARK INTRA:                   0.002
REMARK UNBOUND:                 0.186
REMARK SMILES CC(C)[C@H]1CC[C@H](C)[C@H]2C=C[C@@H](C)C[C@@H]21
REMARK SMILES IDX 8 1 7 2 6 3 5 4 4 5 15 6 9 7 10 8 11 9 12 10 14 11 13 12
REMARK SMILES IDX 2 13 1 14 3 15
REMARK H PARENT
REMARK Flexibility Score: inf
ROOT
ATOM      1  C   UNL     1     113.581 108.775 112.843  1.00  0.00     0.008 C 
ATOM      2  C   UNL     1     112.809 109.952 112.222  1.00  0.00    -0.007 C 
ATOM      3  C   UNL     1     112.061 109.456 110.976  1.00  0.00     0.004 C 
ATOM      4  C   UNL     1     111.295 110.596 110.312  1.00  0.00     0.004 C 
ATOM      5  C   UNL     1     110.223 111.193 111.256  1.00  0.00    -0.005 C 
ATOM      6  C   UNL     1     110.903 111.667 112.585  1.00  0.00    -0.000 C 
ATOM      7  C   UNL     1     111.811 110.578 113.229  1.00  0.00     0.018 C 
ATOM      8  C   UNL     1     112.537 111.233 114.386  1.00  0.00    -0.027 C 
ATOM      9  C   UNL     1     111.856 112.007 115.238  1.00  0.00    -0.028 C 
ATOM     10  C   UNL     1     110.354 112.128 115.119  1.00  0.00     0.008 C 
ATOM     11  C   UNL     1     109.860 112.153 113.639  1.00  0.00     0.012 C 
ATOM     12  C   UNL     1     109.844 113.343 115.900  1.00  0.00     0.012 C 
ENDROOT
BRANCH   5  13
ATOM     13  C   UNL     1     109.377 112.354 110.583  1.00  0.00    -0.014 C 
ATOM     14  C   UNL     1     109.856 113.791 110.880  1.00  0.00     0.007 C 
ATOM     15  C   UNL     1     109.308 112.181 109.055  1.00  0.00     0.007 C 
ENDBRANCH   5  13
TORSDOF 1
ENDMDL
MODEL 9
REMARK VINA RESULT:    -5.282      1.890      4.551
REMARK INTER + INTRA:          -5.405
REMARK INTER:                  -5.233
REMARK INTRA:                  -0.172
REMARK UNBOUND:                 0.186
REMARK SMILES CC(C)[C@H]1CC[C@H](C)[C@H]2C=C[C@@H](C)C[C@@H]21
REMARK SMILES IDX 8 1 7 2 6 3 5 4 4 5 15 6 9 7 10 8 11 9 12 10 14 11 13 12
REMARK SMILES IDX 2 13 1 14 3 15
REMARK H PARENT
REMARK Flexibility Score: inf
ROOT
ATOM      1  C   UNL     1     109.135 113.838 111.239  1.00  0.00     0.008 C 
ATOM      2  C   UNL     1     110.273 113.015 111.867  1.00  0.00    -0.007 C 
ATOM      3  C   UNL     1     109.794 112.441 113.207  1.00  0.00     0.004 C 
ATOM      4  C   UNL     1     110.898 111.632 113.879  1.00  0.00     0.004 C 
ATOM      5  C   UNL     1     111.331 110.422 113.014  1.00  0.00    -0.005 C 
ATOM      6  C   UNL     1     111.777 110.924 111.599  1.00  0.00    -0.000 C 
ATOM      7  C   UNL     1     110.737 111.871 110.930  1.00  0.00     0.018 C 
ATOM      8  C   UNL     1     111.378 112.416 109.671  1.00  0.00    -0.027 C 
ATOM      9  C   UNL     1     112.029 111.586 108.850  1.00  0.00    -0.028 C 
ATOM     10  C   UNL     1     112.017 110.097 109.110  1.00  0.00     0.008 C 
ATOM     11  C   UNL     1     112.093 109.744 110.628  1.00  0.00     0.012 C 
ATOM     12  C   UNL     1     113.125 109.399 108.317  1.00  0.00     0.012 C 
ENDROOT
BRANCH   5  13
ATOM     13  C   UNL     1     112.449 109.533 113.701  1.00  0.00    -0.014 C 
ATOM     14  C   UNL     1     113.897 110.050 113.560  1.00  0.00     0.007 C 
ATOM     15  C   UNL     1     112.160 109.330 115.199  1.00  0.00     0.007 C 
ENDBRANCH   5  13
TORSDOF 1
ENDMDL
