MODEL 1
REMARK VINA RESULT:    -3.700      0.000      0.000
REMARK INTER + INTRA:          -8.056
REMARK INTER:                  -6.295
REMARK INTRA:                  -1.760
REMARK UNBOUND:                -1.760
REMARK SMILES CCCCCCCCCCCCCC(=O)[O-]
REMARK SMILES IDX 8 1 9 2 10 3 11 4 12 5 13 6 14 7 15 8 16 9 7 10 6 11 5 12
REMARK SMILES IDX 4 13 3 14 2 15 1 16
REMARK H PARENT
REMARK Flexibility Score: inf
ROOT
ATOM      1  C   UNL     1     187.058 181.895 200.259  1.00  0.00     0.000 C 
ENDROOT
BRANCH   1   2
ATOM      2  C   UNL     1     186.538 183.334 200.120  1.00  0.00     0.000 C 
BRANCH   2   3
ATOM      3  C   UNL     1     185.710 183.543 198.840  1.00  0.00     0.000 C 
BRANCH   3   4
ATOM      4  C   UNL     1     184.229 183.862 199.147  1.00  0.00     0.000 C 
BRANCH   4   5
ATOM      5  C   UNL     1     184.044 184.947 200.224  1.00  0.00     0.006 C 
BRANCH   5   6
ATOM      6  C   UNL     1     182.722 185.719 200.116  1.00  0.00     0.053 C 
BRANCH   6   7
ATOM      7  C   UNL     1     182.946 187.166 199.795  1.00  0.00     0.041 C 
ATOM      8  O   UNL     1     183.007 187.549 198.597  1.00  0.00    -0.550 OA
ATOM      9  O   UNL     1     183.108 188.088 200.821  1.00  0.00    -0.550 OA
ENDBRANCH   6   7
ENDBRANCH   5   6
ENDBRANCH   4   5
ENDBRANCH   3   4
ENDBRANCH   2   3
ENDBRANCH   1   2
BRANCH   1  10
ATOM     10  C   UNL     1     186.596 180.988 199.105  1.00  0.00     0.000 C 
BRANCH  10  11
ATOM     11  C   UNL     1     185.775 179.783 199.594  1.00  0.00    -0.000 C 
BRANCH  11  12
ATOM     12  C   UNL     1     185.254 179.968 201.027  1.00  0.00    -0.000 C 
BRANCH  12  13
ATOM     13  C   UNL     1     183.825 180.528 201.024  1.00  0.00    -0.000 C 
BRANCH  13  14
ATOM     14  C   UNL     1     183.595 181.591 202.113  1.00  0.00    -0.000 C 
BRANCH  14  15
ATOM     15  C   UNL     1     182.204 182.256 202.042  1.00  0.00    -0.003 C 
ATOM     16  C   UNL     1     181.340 181.685 200.917  1.00  0.00     0.004 C 
ENDBRANCH  14  15
ENDBRANCH  13  14
ENDBRANCH  12  13
ENDBRANCH  11  12
ENDBRANCH  10  11
ENDBRANCH   1  10
TORSDOF 12
ENDMDL
MODEL 2
REMARK VINA RESULT:    -3.667      2.112      3.848
REMARK INTER + INTRA:          -8.000
REMARK INTER:                  -6.412
REMARK INTRA:                  -1.588
REMARK UNBOUND:                -1.760
REMARK SMILES CCCCCCCCCCCCCC(=O)[O-]
REMARK SMILES IDX 8 1 9 2 10 3 11 4 12 5 13 6 14 7 15 8 16 9 7 10 6 11 5 12
REMARK SMILES IDX 4 13 3 14 2 15 1 16
REMARK H PARENT
REMARK Flexibility Score: inf
ROOT
ATOM      1  C   UNL     1     182.748 183.001 202.094  1.00  0.00     0.000 C 
ENDROOT
BRANCH   1   2
ATOM      2  C   UNL     1     183.752 183.775 201.225  1.00  0.00     0.000 C 
BRANCH   2   3
ATOM      3  C   UNL     1     183.157 184.207 199.875  1.00  0.00     0.000 C 
BRANCH   3   4
ATOM      4  C   UNL     1     184.219 184.249 198.753  1.00  0.00     0.000 C 
BRANCH   4   5
ATOM      5  C   UNL     1     185.572 184.827 199.209  1.00  0.00     0.006 C 
BRANCH   5   6
ATOM      6  C   UNL     1     186.312 185.621 198.123  1.00  0.00     0.053 C 
BRANCH   6   7
ATOM      7  C   UNL     1     187.046 186.795 198.695  1.00  0.00     0.041 C 
ATOM      8  O   UNL     1     186.935 187.933 198.167  1.00  0.00    -0.550 OA
ATOM      9  O   UNL     1     187.869 186.628 199.801  1.00  0.00    -0.550 OA
ENDBRANCH   6   7
ENDBRANCH   5   6
ENDBRANCH   4   5
ENDBRANCH   3   4
ENDBRANCH   2   3
ENDBRANCH   1   2
BRANCH   1  10
ATOM     10  C   UNL     1     182.663 181.513 201.711  1.00  0.00     0.000 C 
BRANCH  10  11
ATOM     11  C   UNL     1     184.016 180.792 201.837  1.00  0.00    -0.000 C 
BRANCH  11  12
ATOM     12  C   UNL     1     184.125 179.576 200.906  1.00  0.00    -0.000 C 
BRANCH  12  13
ATOM     13  C   UNL     1     185.412 179.637 200.072  1.00  0.00    -0.000 C 
BRANCH  13  14
ATOM     14  C   UNL     1     185.696 181.040 199.508  1.00  0.00    -0.000 C 
BRANCH  14  15
ATOM     15  C   UNL     1     187.157 181.499 199.699  1.00  0.00    -0.003 C 
ATOM     16  C   UNL     1     187.392 182.144 201.065  1.00  0.00     0.004 C 
ENDBRANCH  14  15
ENDBRANCH  13  14
ENDBRANCH  12  13
ENDBRANCH  11  12
ENDBRANCH  10  11
ENDBRANCH   1  10
TORSDOF 12
ENDMDL
MODEL 3
REMARK VINA RESULT:    -3.592      2.589      4.993
REMARK INTER + INTRA:          -7.873
REMARK INTER:                  -6.475
REMARK INTRA:                  -1.398
REMARK UNBOUND:                -1.760
REMARK SMILES CCCCCCCCCCCCCC(=O)[O-]
REMARK SMILES IDX 8 1 9 2 10 3 11 4 12 5 13 6 14 7 15 8 16 9 7 10 6 11 5 12
REMARK SMILES IDX 4 13 3 14 2 15 1 16
REMARK H PARENT
REMARK Flexibility Score: inf
ROOT
ATOM      1  C   UNL     1     186.541 180.839 199.246  1.00  0.00     0.000 C 
ENDROOT
BRANCH   1   2
ATOM      2  C   UNL     1     185.562 179.816 199.846  1.00  0.00     0.000 C 
BRANCH   2   3
ATOM      3  C   UNL     1     185.656 179.735 201.379  1.00  0.00     0.000 C 
BRANCH   3   4
ATOM      4  C   UNL     1     184.405 180.317 202.074  1.00  0.00     0.000 C 
BRANCH   4   5
ATOM      5  C   UNL     1     183.446 181.040 201.109  1.00  0.00     0.006 C 
BRANCH   5   6
ATOM      6  C   UNL     1     182.908 182.375 201.643  1.00  0.00     0.053 C 
BRANCH   6   7
ATOM      7  C   UNL     1     181.442 182.532 201.373  1.00  0.00     0.041 C 
ATOM      8  O   UNL     1     180.765 181.556 200.953  1.00  0.00    -0.550 OA
ATOM      9  O   UNL     1     180.828 183.762 201.568  1.00  0.00    -0.550 OA
ENDBRANCH   6   7
ENDBRANCH   5   6
ENDBRANCH   4   5
ENDBRANCH   3   4
ENDBRANCH   2   3
ENDBRANCH   1   2
BRANCH   1  10
ATOM     10  C   UNL     1     187.197 181.725 200.319  1.00  0.00     0.000 C 
BRANCH  10  11
ATOM     11  C   UNL     1     186.615 183.148 200.347  1.00  0.00    -0.000 C 
BRANCH  11  12
ATOM     12  C   UNL     1     185.627 183.402 199.199  1.00  0.00    -0.000 C 
BRANCH  12  13
ATOM     13  C   UNL     1     185.349 184.903 199.036  1.00  0.00    -0.000 C 
BRANCH  13  14
ATOM     14  C   UNL     1     186.246 185.567 197.977  1.00  0.00    -0.000 C 
BRANCH  14  15
ATOM     15  C   UNL     1     186.972 186.830 198.486  1.00  0.00    -0.003 C 
ATOM     16  C   UNL     1     187.269 186.767 199.985  1.00  0.00     0.004 C 
ENDBRANCH  14  15
ENDBRANCH  13  14
ENDBRANCH  12  13
ENDBRANCH  11  12
ENDBRANCH  10  11
ENDBRANCH   1  10
TORSDOF 12
ENDMDL
MODEL 4
REMARK VINA RESULT:    -3.584     14.441     16.693
REMARK INTER + INTRA:          -7.859
REMARK INTER:                  -6.160
REMARK INTRA:                  -1.699
REMARK UNBOUND:                -1.760
REMARK SMILES CCCCCCCCCCCCCC(=O)[O-]
REMARK SMILES IDX 8 1 9 2 10 3 11 4 12 5 13 6 14 7 15 8 16 9 7 10 6 11 5 12
REMARK SMILES IDX 4 13 3 14 2 15 1 16
REMARK H PARENT
REMARK Flexibility Score: inf
ROOT
ATOM      1  C   UNL     1     197.796 196.063 200.608  1.00  0.00     0.000 C 
ENDROOT
BRANCH   1   2
ATOM      2  C   UNL     1     197.500 194.754 201.357  1.00  0.00     0.000 C 
BRANCH   2   3
ATOM      3  C   UNL     1     196.473 193.872 200.626  1.00  0.00     0.000 C 
BRANCH   3   4
ATOM      4  C   UNL     1     196.165 194.390 199.203  1.00  0.00     0.000 C 
BRANCH   4   5
ATOM      5  C   UNL     1     194.660 194.569 198.927  1.00  0.00     0.006 C 
BRANCH   5   6
ATOM      6  C   UNL     1     193.752 194.080 200.063  1.00  0.00     0.053 C 
BRANCH   6   7
ATOM      7  C   UNL     1     192.991 192.848 199.677  1.00  0.00     0.041 C 
ATOM      8  O   UNL     1     191.754 192.767 199.904  1.00  0.00    -0.550 OA
ATOM      9  O   UNL     1     193.652 191.781 199.083  1.00  0.00    -0.550 OA
ENDBRANCH   6   7
ENDBRANCH   5   6
ENDBRANCH   4   5
ENDBRANCH   3   4
ENDBRANCH   2   3
ENDBRANCH   1   2
BRANCH   1  10
ATOM     10  C   UNL     1     197.342 197.306 201.393  1.00  0.00     0.000 C 
BRANCH  10  11
ATOM     11  C   UNL     1     195.876 197.213 201.848  1.00  0.00    -0.000 C 
BRANCH  11  12
ATOM     12  C   UNL     1     195.019 198.369 201.310  1.00  0.00    -0.000 C 
BRANCH  12  13
ATOM     13  C   UNL     1     193.982 197.860 200.300  1.00  0.00    -0.000 C 
BRANCH  13  14
ATOM     14  C   UNL     1     192.623 197.539 200.945  1.00  0.00    -0.000 C 
BRANCH  14  15
ATOM     15  C   UNL     1     191.562 197.047 199.938  1.00  0.00    -0.003 C 
ATOM     16  C   UNL     1     191.985 197.275 198.487  1.00  0.00     0.004 C 
ENDBRANCH  14  15
ENDBRANCH  13  14
ENDBRANCH  12  13
ENDBRANCH  11  12
ENDBRANCH  10  11
ENDBRANCH   1  10
TORSDOF 12
ENDMDL
MODEL 5
REMARK VINA RESULT:    -3.555      2.968      5.910
REMARK INTER + INTRA:          -7.809
REMARK INTER:                  -5.918
REMARK INTRA:                  -1.891
REMARK UNBOUND:                -1.760
REMARK SMILES CCCCCCCCCCCCCC(=O)[O-]
REMARK SMILES IDX 8 1 9 2 10 3 11 4 12 5 13 6 14 7 15 8 16 9 7 10 6 11 5 12
REMARK SMILES IDX 4 13 3 14 2 15 1 16
REMARK H PARENT
REMARK Flexibility Score: inf
ROOT
ATOM      1  C   UNL     1     181.537 183.198 200.124  1.00  0.00     0.000 C 
ENDROOT
BRANCH   1   2
ATOM      2  C   UNL     1     181.133 182.384 201.363  1.00  0.00     0.000 C 
BRANCH   2   3
ATOM      3  C   UNL     1     182.328 181.671 202.019  1.00  0.00     0.000 C 
BRANCH   3   4
ATOM      4  C   UNL     1     183.464 181.386 201.012  1.00  0.00     0.000 C 
BRANCH   4   5
ATOM      5  C   UNL     1     184.873 181.507 201.623  1.00  0.00     0.006 C 
BRANCH   5   6
ATOM      6  C   UNL     1     185.880 180.481 201.084  1.00  0.00     0.053 C 
BRANCH   6   7
ATOM      7  C   UNL     1     186.753 181.067 200.017  1.00  0.00     0.041 C 
ATOM      8  O   UNL     1     186.697 180.628 198.837  1.00  0.00    -0.550 OA
ATOM      9  O   UNL     1     187.644 182.085 200.329  1.00  0.00    -0.550 OA
ENDBRANCH   6   7
ENDBRANCH   5   6
ENDBRANCH   4   5
ENDBRANCH   3   4
ENDBRANCH   2   3
ENDBRANCH   1   2
BRANCH   1  10
ATOM     10  C   UNL     1     181.213 184.695 200.273  1.00  0.00     0.000 C 
BRANCH  10  11
ATOM     11  C   UNL     1     181.563 185.238 201.668  1.00  0.00    -0.000 C 
BRANCH  11  12
ATOM     12  C   UNL     1     183.074 185.428 201.865  1.00  0.00    -0.000 C 
BRANCH  12  13
ATOM     13  C   UNL     1     183.584 186.636 201.067  1.00  0.00    -0.000 C 
BRANCH  13  14
ATOM     14  C   UNL     1     184.660 186.260 200.033  1.00  0.00    -0.000 C 
BRANCH  14  15
ATOM     15  C   UNL     1     185.097 184.782 200.104  1.00  0.00    -0.003 C 
ATOM     16  C   UNL     1     184.855 184.038 198.790  1.00  0.00     0.004 C 
ENDBRANCH  14  15
ENDBRANCH  13  14
ENDBRANCH  12  13
ENDBRANCH  11  12
ENDBRANCH  10  11
ENDBRANCH   1  10
TORSDOF 12
ENDMDL
MODEL 6
REMARK VINA RESULT:    -3.518     13.399     15.787
REMARK INTER + INTRA:          -7.747
REMARK INTER:                  -5.820
REMARK INTRA:                  -1.926
REMARK UNBOUND:                -1.760
REMARK SMILES CCCCCCCCCCCCCC(=O)[O-]
REMARK SMILES IDX 8 1 9 2 10 3 11 4 12 5 13 6 14 7 15 8 16 9 7 10 6 11 5 12
REMARK SMILES IDX 4 13 3 14 2 15 1 16
REMARK H PARENT
REMARK Flexibility Score: inf
ROOT
ATOM      1  C   UNL     1     195.721 195.201 199.784  1.00  0.00     0.000 C 
ENDROOT
BRANCH   1   2
ATOM      2  C   UNL     1     194.648 194.292 199.165  1.00  0.00     0.000 C 
BRANCH   2   3
ATOM      3  C   UNL     1     193.484 194.008 200.130  1.00  0.00     0.000 C 
BRANCH   3   4
ATOM      4  C   UNL     1     192.297 193.313 199.426  1.00  0.00     0.000 C 
BRANCH   4   5
ATOM      5  C   UNL     1     192.534 193.059 197.926  1.00  0.00     0.006 C 
BRANCH   5   6
ATOM      6  C   UNL     1     192.511 191.576 197.530  1.00  0.00     0.053 C 
BRANCH   6   7
ATOM      7  C   UNL     1     193.890 190.988 197.496  1.00  0.00     0.041 C 
ATOM      8  O   UNL     1     194.471 190.793 196.395  1.00  0.00    -0.550 OA
ATOM      9  O   UNL     1     194.525 190.637 198.679  1.00  0.00    -0.550 OA
ENDBRANCH   6   7
ENDBRANCH   5   6
ENDBRANCH   4   5
ENDBRANCH   3   4
ENDBRANCH   2   3
ENDBRANCH   1   2
BRANCH   1  10
ATOM     10  C   UNL     1     195.355 195.659 201.207  1.00  0.00     0.000 C 
BRANCH  10  11
ATOM     11  C   UNL     1     195.642 197.152 201.438  1.00  0.00    -0.000 C 
BRANCH  11  12
ATOM     12  C   UNL     1     194.426 198.039 201.133  1.00  0.00    -0.000 C 
BRANCH  12  13
ATOM     13  C   UNL     1     193.142 197.430 201.713  1.00  0.00    -0.000 C 
BRANCH  13  14
ATOM     14  C   UNL     1     192.006 197.328 200.680  1.00  0.00    -0.000 C 
BRANCH  14  15
ATOM     15  C   UNL     1     192.376 197.903 199.296  1.00  0.00    -0.003 C 
ATOM     16  C   UNL     1     192.147 196.898 198.167  1.00  0.00     0.004 C 
ENDBRANCH  14  15
ENDBRANCH  13  14
ENDBRANCH  12  13
ENDBRANCH  11  12
ENDBRANCH  10  11
ENDBRANCH   1  10
TORSDOF 12
ENDMDL
MODEL 7
REMARK VINA RESULT:    -3.470      1.215      3.624
REMARK INTER + INTRA:          -7.664
REMARK INTER:                  -6.437
REMARK INTRA:                  -1.228
REMARK UNBOUND:                -1.760
REMARK SMILES CCCCCCCCCCCCCC(=O)[O-]
REMARK SMILES IDX 8 1 9 2 10 3 11 4 12 5 13 6 14 7 15 8 16 9 7 10 6 11 5 12
REMARK SMILES IDX 4 13 3 14 2 15 1 16
REMARK H PARENT
REMARK Flexibility Score: inf
ROOT
ATOM      1  C   UNL     1     183.394 181.226 201.173  1.00  0.00     0.000 C 
ENDROOT
BRANCH   1   2
ATOM      2  C   UNL     1     182.461 182.189 201.926  1.00  0.00     0.000 C 
BRANCH   2   3
ATOM      3  C   UNL     1     181.056 182.260 201.304  1.00  0.00     0.000 C 
BRANCH   3   4
ATOM      4  C   UNL     1     180.472 183.690 201.338  1.00  0.00     0.000 C 
BRANCH   4   5
ATOM      5  C   UNL     1     181.532 184.781 201.579  1.00  0.00     0.006 C 
BRANCH   5   6
ATOM      6  C   UNL     1     181.627 185.822 200.455  1.00  0.00     0.053 C 
BRANCH   6   7
ATOM      7  C   UNL     1     182.961 186.504 200.440  1.00  0.00     0.041 C 
ATOM      8  O   UNL     1     183.720 186.440 201.443  1.00  0.00    -0.550 OA
ATOM      9  O   UNL     1     183.358 187.229 199.323  1.00  0.00    -0.550 OA
ENDBRANCH   6   7
ENDBRANCH   5   6
ENDBRANCH   4   5
ENDBRANCH   3   4
ENDBRANCH   2   3
ENDBRANCH   1   2
BRANCH   1  10
ATOM     10  C   UNL     1     184.253 180.376 202.125  1.00  0.00     0.000 C 
BRANCH  10  11
ATOM     11  C   UNL     1     185.668 180.124 201.576  1.00  0.00    -0.000 C 
BRANCH  11  12
ATOM     12  C   UNL     1     186.593 181.337 201.753  1.00  0.00    -0.000 C 
BRANCH  12  13
ATOM     13  C   UNL     1     187.290 181.692 200.433  1.00  0.00    -0.000 C 
BRANCH  13  14
ATOM     14  C   UNL     1     186.408 181.431 199.199  1.00  0.00    -0.000 C 
BRANCH  14  15
ATOM     15  C   UNL     1     186.068 182.708 198.401  1.00  0.00    -0.003 C 
ATOM     16  C   UNL     1     185.087 183.616 199.144  1.00  0.00     0.004 C 
ENDBRANCH  14  15
ENDBRANCH  13  14
ENDBRANCH  12  13
ENDBRANCH  11  12
ENDBRANCH  10  11
ENDBRANCH   1  10
TORSDOF 12
ENDMDL
MODEL 8
REMARK VINA RESULT:    -3.455     14.199     16.329
REMARK INTER + INTRA:          -7.639
REMARK INTER:                  -6.041
REMARK INTRA:                  -1.598
REMARK UNBOUND:                -1.760
REMARK SMILES CCCCCCCCCCCCCC(=O)[O-]
REMARK SMILES IDX 8 1 9 2 10 3 11 4 12 5 13 6 14 7 15 8 16 9 7 10 6 11 5 12
REMARK SMILES IDX 4 13 3 14 2 15 1 16
REMARK H PARENT
REMARK Flexibility Score: inf
ROOT
ATOM      1  C   UNL     1     196.146 196.708 202.125  1.00  0.00     0.000 C 
ENDROOT
BRANCH   1   2
ATOM      2  C   UNL     1     195.253 197.955 202.022  1.00  0.00     0.000 C 
BRANCH   2   3
ATOM      3  C   UNL     1     193.754 197.610 202.012  1.00  0.00     0.000 C 
BRANCH   3   4
ATOM      4  C   UNL     1     193.154 197.648 200.589  1.00  0.00     0.000 C 
BRANCH   4   5
ATOM      5  C   UNL     1     191.670 197.239 200.537  1.00  0.00     0.006 C 
BRANCH   5   6
ATOM      6  C   UNL     1     191.145 196.618 201.839  1.00  0.00     0.053 C 
BRANCH   6   7
ATOM      7  C   UNL     1     189.752 196.087 201.680  1.00  0.00     0.041 C 
ATOM      8  O   UNL     1     188.759 196.844 201.852  1.00  0.00    -0.550 OA
ATOM      9  O   UNL     1     189.550 194.751 201.361  1.00  0.00    -0.550 OA
ENDBRANCH   6   7
ENDBRANCH   5   6
ENDBRANCH   4   5
ENDBRANCH   3   4
ENDBRANCH   2   3
ENDBRANCH   1   2
BRANCH   1  10
ATOM     10  C   UNL     1     197.470 196.868 201.358  1.00  0.00     0.000 C 
BRANCH  10  11
ATOM     11  C   UNL     1     198.105 195.516 200.989  1.00  0.00    -0.000 C 
BRANCH  11  12
ATOM     12  C   UNL     1     197.059 194.459 200.606  1.00  0.00    -0.000 C 
BRANCH  12  13
ATOM     13  C   UNL     1     196.618 194.627 199.146  1.00  0.00    -0.000 C 
BRANCH  13  14
ATOM     14  C   UNL     1     195.089 194.605 198.975  1.00  0.00    -0.000 C 
BRANCH  14  15
ATOM     15  C   UNL     1     194.335 194.087 200.219  1.00  0.00    -0.003 C 
ATOM     16  C   UNL     1     192.856 193.824 199.937  1.00  0.00     0.004 C 
ENDBRANCH  14  15
ENDBRANCH  13  14
ENDBRANCH  12  13
ENDBRANCH  11  12
ENDBRANCH  10  11
ENDBRANCH   1  10
TORSDOF 12
ENDMDL
