MODEL 1
REMARK VINA RESULT:    -4.310      0.000      0.000
REMARK INTER + INTRA:          -5.102
REMARK INTER:                  -5.318
REMARK INTRA:                   0.216
REMARK UNBOUND:                 0.216
REMARK SMILES Oc1cc(O)c2cc(O)c(-c3cc(O)c(O)c(O)c3)[o+]c2c1
REMARK SMILES IDX 10 1 20 2 21 3 22 4 2 5 3 6 4 7 6 8 7 9 8 10 11 11 12 12
REMARK SMILES IDX 13 13 19 14 15 15 17 16 14 17 16 19 18 21 9 23 1 25 5 27
REMARK H PARENT 14 18 16 20 18 22 9 24 1 26 5 28
REMARK Flexibility Score: inf
ROOT
ATOM      1  C   UNL     1      28.690  31.000  34.641  1.00  0.00     0.402 A 
ATOM      2  O   UNL     1      27.616  31.215  35.396  1.00  0.00    -0.202 OA
ATOM      3  C   UNL     1      26.962  32.371  35.422  1.00  0.00     0.368 A 
ATOM      4  C   UNL     1      25.845  32.502  36.252  1.00  0.00     0.162 A 
ATOM      5  C   UNL     1      25.140  33.708  36.301  1.00  0.00     0.128 A 
ATOM      6  C   UNL     1      25.555  34.788  35.518  1.00  0.00     0.093 A 
ATOM      7  C   UNL     1      26.671  34.683  34.679  1.00  0.00     0.136 A 
ATOM      8  C   UNL     1      27.388  33.459  34.624  1.00  0.00     0.125 A 
ATOM      9  C   UNL     1      28.510  33.259  33.803  1.00  0.00     0.078 A 
ATOM     10  C   UNL     1      29.163  32.023  33.798  1.00  0.00     0.223 A 
ENDROOT
BRANCH   1  11
ATOM     11  C   UNL     1      29.339  29.670  34.707  1.00  0.00     0.091 A 
ATOM     12  C   UNL     1      29.919  29.128  33.551  1.00  0.00     0.068 A 
ATOM     13  C   UNL     1      30.523  27.865  33.571  1.00  0.00     0.162 A 
ATOM     14  C   UNL     1      29.334  28.912  35.888  1.00  0.00     0.068 A 
ATOM     15  C   UNL     1      30.535  27.117  34.772  1.00  0.00     0.200 A 
ATOM     16  C   UNL     1      29.934  27.647  35.922  1.00  0.00     0.162 A 
BRANCH  13  17
ATOM     17  O   UNL     1      31.091  27.397  32.385  1.00  0.00    -0.504 OA
ATOM     18  H   UNL     1      32.081  27.255  32.249  1.00  0.00     0.293 HD
ENDBRANCH  13  17
BRANCH  15  19
ATOM     19  O   UNL     1      31.125  25.854  34.862  1.00  0.00    -0.502 OA
ATOM     20  H   UNL     1      31.755  25.472  34.172  1.00  0.00     0.293 HD
ENDBRANCH  15  19
BRANCH  16  21
ATOM     21  O   UNL     1      29.932  26.903  37.102  1.00  0.00    -0.504 OA
ATOM     22  H   UNL     1      29.375  27.179  37.902  1.00  0.00     0.293 HD
ENDBRANCH  16  21
ENDBRANCH   1  11
BRANCH  10  23
ATOM     23  O   UNL     1      30.247  31.807  32.946  1.00  0.00    -0.500 OA
ATOM     24  H   UNL     1      31.152  32.226  33.120  1.00  0.00     0.294 HD
ENDBRANCH  10  23
BRANCH   5  25
ATOM     25  O   UNL     1      24.025  33.845  37.125  1.00  0.00    -0.507 OA
ATOM     26  H   UNL     1      24.113  34.139  38.091  1.00  0.00     0.293 HD
ENDBRANCH   5  25
BRANCH   7  27
ATOM     27  O   UNL     1      27.022  35.810  33.930  1.00  0.00    -0.507 OA
ATOM     28  H   UNL     1      26.724  36.751  34.144  1.00  0.00     0.293 HD
ENDBRANCH   7  27
TORSDOF 7
ENDMDL
MODEL 2
REMARK VINA RESULT:    -3.786      1.418      7.396
REMARK INTER + INTRA:          -4.455
REMARK INTER:                  -4.599
REMARK INTRA:                   0.144
REMARK UNBOUND:                 0.216
REMARK SMILES Oc1cc(O)c2cc(O)c(-c3cc(O)c(O)c(O)c3)[o+]c2c1
REMARK SMILES IDX 10 1 20 2 21 3 22 4 2 5 3 6 4 7 6 8 7 9 8 10 11 11 12 12
REMARK SMILES IDX 13 13 19 14 15 15 17 16 14 17 16 19 18 21 9 23 1 25 5 27
REMARK H PARENT 14 18 16 20 18 22 9 24 1 26 5 28
REMARK Flexibility Score: inf
ROOT
ATOM      1  C   UNL     1      28.894  31.655  34.778  1.00  0.00     0.402 A 
ATOM      2  O   UNL     1      29.250  30.751  33.870  1.00  0.00    -0.202 OA
ATOM      3  C   UNL     1      29.829  29.595  34.178  1.00  0.00     0.368 A 
ATOM      4  C   UNL     1      30.170  28.711  33.151  1.00  0.00     0.162 A 
ATOM      5  C   UNL     1      30.782  27.489  33.446  1.00  0.00     0.128 A 
ATOM      6  C   UNL     1      31.055  27.151  34.774  1.00  0.00     0.093 A 
ATOM      7  C   UNL     1      30.723  28.020  35.821  1.00  0.00     0.136 A 
ATOM      8  C   UNL     1      30.099  29.260  35.526  1.00  0.00     0.125 A 
ATOM      9  C   UNL     1      29.719  30.186  36.511  1.00  0.00     0.078 A 
ATOM     10  C   UNL     1      29.104  31.387  36.144  1.00  0.00     0.223 A 
ENDROOT
BRANCH   1  11
ATOM     11  C   UNL     1      28.265  32.911  34.309  1.00  0.00     0.091 A 
ATOM     12  C   UNL     1      27.196  33.459  35.032  1.00  0.00     0.068 A 
ATOM     13  C   UNL     1      26.564  34.633  34.607  1.00  0.00     0.162 A 
ATOM     14  C   UNL     1      28.677  33.536  33.122  1.00  0.00     0.068 A 
ATOM     15  C   UNL     1      27.002  35.271  33.421  1.00  0.00     0.200 A 
ATOM     16  C   UNL     1      28.055  34.711  32.684  1.00  0.00     0.162 A 
BRANCH  13  17
ATOM     17  O   UNL     1      25.516  35.127  35.386  1.00  0.00    -0.504 OA
ATOM     18  H   UNL     1      24.826  34.546  35.839  1.00  0.00     0.293 HD
ENDBRANCH  13  17
BRANCH  15  19
ATOM     19  O   UNL     1      26.420  36.448  32.945  1.00  0.00    -0.502 OA
ATOM     20  H   UNL     1      26.286  36.658  31.966  1.00  0.00     0.293 HD
ENDBRANCH  15  19
BRANCH  16  21
ATOM     21  O   UNL     1      28.476  35.330  31.508  1.00  0.00    -0.504 OA
ATOM     22  H   UNL     1      27.925  36.056  31.064  1.00  0.00     0.293 HD
ENDBRANCH  16  21
ENDBRANCH   1  11
BRANCH  10  23
ATOM     23  O   UNL     1      28.682  32.285  37.124  1.00  0.00    -0.500 OA
ATOM     24  H   UNL     1      27.902  32.913  36.971  1.00  0.00     0.294 HD
ENDBRANCH  10  23
BRANCH   5  25
ATOM     25  O   UNL     1      31.125  26.603  32.427  1.00  0.00    -0.507 OA
ATOM     26  H   UNL     1      31.218  26.910  31.467  1.00  0.00     0.293 HD
ENDBRANCH   5  25
BRANCH   7  27
ATOM     27  O   UNL     1      31.032  27.609  37.121  1.00  0.00    -0.507 OA
ATOM     28  H   UNL     1      30.386  27.139  37.739  1.00  0.00     0.293 HD
ENDBRANCH   7  27
TORSDOF 7
ENDMDL
MODEL 3
REMARK VINA RESULT:    -3.615      1.150      2.629
REMARK INTER + INTRA:          -4.245
REMARK INTER:                  -4.578
REMARK INTRA:                   0.333
REMARK UNBOUND:                 0.216
REMARK SMILES Oc1cc(O)c2cc(O)c(-c3cc(O)c(O)c(O)c3)[o+]c2c1
REMARK SMILES IDX 10 1 20 2 21 3 22 4 2 5 3 6 4 7 6 8 7 9 8 10 11 11 12 12
REMARK SMILES IDX 13 13 19 14 15 15 17 16 14 17 16 19 18 21 9 23 1 25 5 27
REMARK H PARENT 14 18 16 20 18 22 9 24 1 26 5 28
REMARK Flexibility Score: inf
ROOT
ATOM      1  C   UNL     1      28.377  31.049  35.031  1.00  0.00     0.402 A 
ATOM      2  O   UNL     1      28.599  31.948  34.077  1.00  0.00    -0.202 OA
ATOM      3  C   UNL     1      27.994  33.130  34.032  1.00  0.00     0.368 A 
ATOM      4  C   UNL     1      28.291  34.007  32.985  1.00  0.00     0.162 A 
ATOM      5  C   UNL     1      27.666  35.256  32.913  1.00  0.00     0.128 A 
ATOM      6  C   UNL     1      26.741  35.628  33.890  1.00  0.00     0.093 A 
ATOM      7  C   UNL     1      26.426  34.767  34.949  1.00  0.00     0.136 A 
ATOM      8  C   UNL     1      27.059  33.500  35.028  1.00  0.00     0.125 A 
ATOM      9  C   UNL     1      26.815  32.579  36.060  1.00  0.00     0.078 A 
ATOM     10  C   UNL     1      27.481  31.349  36.074  1.00  0.00     0.223 A 
ENDROOT
BRANCH   1  11
ATOM     11  C   UNL     1      29.107  29.762  34.966  1.00  0.00     0.091 A 
ATOM     12  C   UNL     1      29.659  29.343  33.747  1.00  0.00     0.068 A 
ATOM     13  C   UNL     1      30.337  28.123  33.644  1.00  0.00     0.162 A 
ATOM     14  C   UNL     1      29.208  28.921  36.085  1.00  0.00     0.068 A 
ATOM     15  C   UNL     1      30.456  27.292  34.783  1.00  0.00     0.200 A 
ATOM     16  C   UNL     1      29.884  27.697  35.997  1.00  0.00     0.162 A 
BRANCH  13  17
ATOM     17  O   UNL     1      30.872  27.779  32.400  1.00  0.00    -0.504 OA
ATOM     18  H   UNL     1      30.328  27.416  31.631  1.00  0.00     0.293 HD
ENDBRANCH  13  17
BRANCH  15  19
ATOM     19  O   UNL     1      31.124  26.065  34.750  1.00  0.00    -0.502 OA
ATOM     20  H   UNL     1      32.018  25.919  34.304  1.00  0.00     0.293 HD
ENDBRANCH  15  19
BRANCH  16  21
ATOM     21  O   UNL     1      29.986  26.872  37.116  1.00  0.00    -0.504 OA
ATOM     22  H   UNL     1      30.152  25.876  37.027  1.00  0.00     0.293 HD
ENDBRANCH  16  21
ENDBRANCH   1  11
BRANCH  10  23
ATOM     23  O   UNL     1      27.276  30.455  37.125  1.00  0.00    -0.500 OA
ATOM     24  H   UNL     1      26.351  30.124  37.370  1.00  0.00     0.294 HD
ENDBRANCH  10  23
BRANCH   5  25
ATOM     25  O   UNL     1      27.958  36.135  31.872  1.00  0.00    -0.507 OA
ATOM     26  H   UNL     1      28.288  35.802  30.974  1.00  0.00     0.293 HD
ENDBRANCH   5  25
BRANCH   7  27
ATOM     27  O   UNL     1      25.488  35.214  35.884  1.00  0.00    -0.507 OA
ATOM     28  H   UNL     1      24.615  35.663  35.646  1.00  0.00     0.293 HD
ENDBRANCH   7  27
TORSDOF 7
ENDMDL
MODEL 4
REMARK VINA RESULT:    -3.504      4.092      7.282
REMARK INTER + INTRA:          -4.108
REMARK INTER:                  -4.568
REMARK INTRA:                   0.461
REMARK UNBOUND:                 0.216
REMARK SMILES Oc1cc(O)c2cc(O)c(-c3cc(O)c(O)c(O)c3)[o+]c2c1
REMARK SMILES IDX 10 1 20 2 21 3 22 4 2 5 3 6 4 7 6 8 7 9 8 10 11 11 12 12
REMARK SMILES IDX 13 13 19 14 15 15 17 16 14 17 16 19 18 21 9 23 1 25 5 27
REMARK H PARENT 14 18 16 20 18 22 9 24 1 26 5 28
REMARK Flexibility Score: inf
ROOT
ATOM      1  C   UNL     1      30.917  29.400  31.190  1.00  0.00     0.402 A 
ATOM      2  O   UNL     1      30.998  28.201  31.761  1.00  0.00    -0.202 OA
ATOM      3  C   UNL     1      30.954  28.013  33.075  1.00  0.00     0.368 A 
ATOM      4  C   UNL     1      31.051  26.714  33.580  1.00  0.00     0.162 A 
ATOM      5  C   UNL     1      31.009  26.488  34.959  1.00  0.00     0.128 A 
ATOM      6  C   UNL     1      30.871  27.566  35.836  1.00  0.00     0.093 A 
ATOM      7  C   UNL     1      30.772  28.878  35.356  1.00  0.00     0.136 A 
ATOM      8  C   UNL     1      30.811  29.111  33.957  1.00  0.00     0.125 A 
ATOM      9  C   UNL     1      30.705  30.390  33.385  1.00  0.00     0.078 A 
ATOM     10  C   UNL     1      30.747  30.542  31.995  1.00  0.00     0.223 A 
ENDROOT
BRANCH   1  11
ATOM     11  C   UNL     1      30.989  29.481  29.713  1.00  0.00     0.091 A 
ATOM     12  C   UNL     1      30.962  30.736  29.089  1.00  0.00     0.068 A 
ATOM     13  C   UNL     1      31.008  30.849  27.695  1.00  0.00     0.162 A 
ATOM     14  C   UNL     1      31.025  28.325  28.919  1.00  0.00     0.068 A 
ATOM     15  C   UNL     1      31.068  29.679  26.901  1.00  0.00     0.200 A 
ATOM     16  C   UNL     1      31.071  28.423  27.523  1.00  0.00     0.162 A 
BRANCH  13  17
ATOM     17  O   UNL     1      30.990  32.133  27.146  1.00  0.00    -0.504 OA
ATOM     18  H   UNL     1      31.811  32.620  26.818  1.00  0.00     0.293 HD
ENDBRANCH  13  17
BRANCH  15  19
ATOM     19  O   UNL     1      31.122  29.721  25.506  1.00  0.00    -0.502 OA
ATOM     20  H   UNL     1      30.782  30.492  24.949  1.00  0.00     0.293 HD
ENDBRANCH  15  19
BRANCH  16  21
ATOM     21  O   UNL     1      31.115  27.269  26.741  1.00  0.00    -0.504 OA
ATOM     22  H   UNL     1      31.061  26.345  27.154  1.00  0.00     0.293 HD
ENDBRANCH  16  21
ENDBRANCH   1  11
BRANCH  10  23
ATOM     23  O   UNL     1      30.592  31.805  31.425  1.00  0.00    -0.500 OA
ATOM     24  H   UNL     1      30.423  32.628  31.991  1.00  0.00     0.294 HD
ENDBRANCH  10  23
BRANCH   5  25
ATOM     25  O   UNL     1      31.106  25.195  35.469  1.00  0.00    -0.507 OA
ATOM     26  H   UNL     1      30.460  24.466  35.190  1.00  0.00     0.293 HD
ENDBRANCH   5  25
BRANCH   7  27
ATOM     27  O   UNL     1      30.638  29.900  36.299  1.00  0.00    -0.507 OA
ATOM     28  H   UNL     1      29.770  30.370  36.512  1.00  0.00     0.293 HD
ENDBRANCH   7  27
TORSDOF 7
ENDMDL
MODEL 5
REMARK VINA RESULT:    -3.387      1.423      7.202
REMARK INTER + INTRA:          -3.963
REMARK INTER:                  -4.126
REMARK INTRA:                   0.163
REMARK UNBOUND:                 0.216
REMARK SMILES Oc1cc(O)c2cc(O)c(-c3cc(O)c(O)c(O)c3)[o+]c2c1
REMARK SMILES IDX 10 1 20 2 21 3 22 4 2 5 3 6 4 7 6 8 7 9 8 10 11 11 12 12
REMARK SMILES IDX 13 13 19 14 15 15 17 16 14 17 16 19 18 21 9 23 1 25 5 27
REMARK H PARENT 14 18 16 20 18 22 9 24 1 26 5 28
REMARK Flexibility Score: inf
ROOT
ATOM      1  C   UNL     1      28.768  31.708  34.775  1.00  0.00     0.402 A 
ATOM      2  O   UNL     1      29.159  30.823  33.862  1.00  0.00    -0.202 OA
ATOM      3  C   UNL     1      29.745  29.670  34.166  1.00  0.00     0.368 A 
ATOM      4  C   UNL     1      30.124  28.807  33.135  1.00  0.00     0.162 A 
ATOM      5  C   UNL     1      30.745  27.588  33.427  1.00  0.00     0.128 A 
ATOM      6  C   UNL     1      30.988  27.233  34.755  1.00  0.00     0.093 A 
ATOM      7  C   UNL     1      30.618  28.081  35.807  1.00  0.00     0.136 A 
ATOM      8  C   UNL     1      29.985  29.317  35.516  1.00  0.00     0.125 A 
ATOM      9  C   UNL     1      29.569  30.222  36.505  1.00  0.00     0.078 A 
ATOM     10  C   UNL     1      28.947  31.421  36.142  1.00  0.00     0.223 A 
ENDROOT
BRANCH   1  11
ATOM     11  C   UNL     1      28.134  32.963  34.310  1.00  0.00     0.091 A 
ATOM     12  C   UNL     1      28.602  33.579  33.140  1.00  0.00     0.068 A 
ATOM     13  C   UNL     1      28.041  34.777  32.682  1.00  0.00     0.162 A 
ATOM     14  C   UNL     1      27.114  33.584  35.046  1.00  0.00     0.068 A 
ATOM     15  C   UNL     1      26.996  35.384  33.418  1.00  0.00     0.200 A 
ATOM     16  C   UNL     1      26.543  34.782  34.600  1.00  0.00     0.162 A 
BRANCH  13  17
ATOM     17  O   UNL     1      28.549  35.323  31.502  1.00  0.00    -0.504 OA
ATOM     18  H   UNL     1      29.452  35.092  31.114  1.00  0.00     0.293 HD
ENDBRANCH  13  17
BRANCH  15  19
ATOM     19  O   UNL     1      26.388  36.575  33.014  1.00  0.00    -0.502 OA
ATOM     20  H   UNL     1      25.642  36.629  32.336  1.00  0.00     0.293 HD
ENDBRANCH  15  19
BRANCH  16  21
ATOM     21  O   UNL     1      25.524  35.388  35.334  1.00  0.00    -0.504 OA
ATOM     22  H   UNL     1      24.870  34.844  35.884  1.00  0.00     0.293 HD
ENDBRANCH  16  21
ENDBRANCH   1  11
BRANCH  10  23
ATOM     23  O   UNL     1      28.488  32.297  37.125  1.00  0.00    -0.500 OA
ATOM     24  H   UNL     1      27.907  33.095  36.898  1.00  0.00     0.294 HD
ENDBRANCH  10  23
BRANCH   5  25
ATOM     25  O   UNL     1      31.125  26.723  32.403  1.00  0.00    -0.507 OA
ATOM     26  H   UNL     1      31.311  25.743  32.580  1.00  0.00     0.293 HD
ENDBRANCH   5  25
BRANCH   7  27
ATOM     27  O   UNL     1      30.899  27.653  37.108  1.00  0.00    -0.507 OA
ATOM     28  H   UNL     1      31.777  27.244  37.396  1.00  0.00     0.293 HD
ENDBRANCH   7  27
TORSDOF 7
ENDMDL
MODEL 6
REMARK VINA RESULT:    -3.285      3.896      6.618
REMARK INTER + INTRA:          -3.837
REMARK INTER:                  -4.222
REMARK INTRA:                   0.384
REMARK UNBOUND:                 0.216
REMARK SMILES Oc1cc(O)c2cc(O)c(-c3cc(O)c(O)c(O)c3)[o+]c2c1
REMARK SMILES IDX 10 1 20 2 21 3 22 4 2 5 3 6 4 7 6 8 7 9 8 10 11 11 12 12
REMARK SMILES IDX 13 13 19 14 15 15 17 16 14 17 16 19 18 21 9 23 1 25 5 27
REMARK H PARENT 14 18 16 20 18 22 9 24 1 26 5 28
REMARK Flexibility Score: inf
ROOT
ATOM      1  C   UNL     1      30.844  29.989  31.427  1.00  0.00     0.402 A 
ATOM      2  O   UNL     1      30.722  31.025  32.252  1.00  0.00    -0.202 OA
ATOM      3  C   UNL     1      30.622  30.900  33.572  1.00  0.00     0.368 A 
ATOM      4  C   UNL     1      30.493  32.050  34.356  1.00  0.00     0.162 A 
ATOM      5  C   UNL     1      30.385  31.946  35.746  1.00  0.00     0.128 A 
ATOM      6  C   UNL     1      30.403  30.689  36.353  1.00  0.00     0.093 A 
ATOM      7  C   UNL     1      30.532  29.522  35.590  1.00  0.00     0.136 A 
ATOM      8  C   UNL     1      30.645  29.622  34.179  1.00  0.00     0.125 A 
ATOM      9  C   UNL     1      30.791  28.508  33.336  1.00  0.00     0.078 A 
ATOM     10  C   UNL     1      30.902  28.685  31.953  1.00  0.00     0.223 A 
ENDROOT
BRANCH   1  11
ATOM     11  C   UNL     1      30.936  30.257  29.974  1.00  0.00     0.091 A 
ATOM     12  C   UNL     1      30.908  31.582  29.513  1.00  0.00     0.068 A 
ATOM     13  C   UNL     1      30.972  31.871  28.145  1.00  0.00     0.162 A 
ATOM     14  C   UNL     1      30.992  29.212  29.039  1.00  0.00     0.068 A 
ATOM     15  C   UNL     1      31.052  30.812  27.211  1.00  0.00     0.200 A 
ATOM     16  C   UNL     1      31.057  29.486  27.668  1.00  0.00     0.162 A 
BRANCH  13  17
ATOM     17  O   UNL     1      30.952  33.214  27.763  1.00  0.00    -0.504 OA
ATOM     18  H   UNL     1      31.096  33.536  26.818  1.00  0.00     0.293 HD
ENDBRANCH  13  17
BRANCH  15  19
ATOM     19  O   UNL     1      31.125  31.031  25.833  1.00  0.00    -0.502 OA
ATOM     20  H   UNL     1      31.655  30.456  25.195  1.00  0.00     0.293 HD
ENDBRANCH  15  19
BRANCH  16  21
ATOM     21  O   UNL     1      31.119  28.441  26.746  1.00  0.00    -0.504 OA
ATOM     22  H   UNL     1      32.006  28.071  26.423  1.00  0.00     0.293 HD
ENDBRANCH  16  21
ENDBRANCH   1  11
BRANCH  10  23
ATOM     23  O   UNL     1      31.095  27.583  31.120  1.00  0.00    -0.500 OA
ATOM     24  H   UNL     1      32.016  27.321  30.790  1.00  0.00     0.294 HD
ENDBRANCH  10  23
BRANCH   5  25
ATOM     25  O   UNL     1      30.256  33.088  36.534  1.00  0.00    -0.507 OA
ATOM     26  H   UNL     1      30.849  33.898  36.394  1.00  0.00     0.293 HD
ENDBRANCH   5  25
BRANCH   7  27
ATOM     27  O   UNL     1      30.540  28.303  36.274  1.00  0.00    -0.507 OA
ATOM     28  H   UNL     1      31.334  27.938  36.780  1.00  0.00     0.293 HD
ENDBRANCH   7  27
TORSDOF 7
ENDMDL
MODEL 7
REMARK VINA RESULT:    -3.003      4.364      7.881
REMARK INTER + INTRA:          -3.489
REMARK INTER:                  -3.855
REMARK INTRA:                   0.366
REMARK UNBOUND:                 0.216
REMARK SMILES Oc1cc(O)c2cc(O)c(-c3cc(O)c(O)c(O)c3)[o+]c2c1
REMARK SMILES IDX 10 1 20 2 21 3 22 4 2 5 3 6 4 7 6 8 7 9 8 10 11 11 12 12
REMARK SMILES IDX 13 13 19 14 15 15 17 16 14 17 16 19 18 21 9 23 1 25 5 27
REMARK H PARENT 14 18 16 20 18 22 9 24 1 26 5 28
REMARK Flexibility Score: inf
ROOT
ATOM      1  C   UNL     1      30.788  29.650  30.637  1.00  0.00     0.402 A 
ATOM      2  O   UNL     1      30.841  28.397  30.193  1.00  0.00    -0.202 OA
ATOM      3  C   UNL     1      30.933  28.082  28.905  1.00  0.00     0.368 A 
ATOM      4  C   UNL     1      30.980  26.734  28.537  1.00  0.00     0.162 A 
ATOM      5  C   UNL     1      31.074  26.374  27.189  1.00  0.00     0.128 A 
ATOM      6  C   UNL     1      31.121  27.366  26.207  1.00  0.00     0.093 A 
ATOM      7  C   UNL     1      31.076  28.723  26.550  1.00  0.00     0.136 A 
ATOM      8  C   UNL     1      30.983  29.093  27.917  1.00  0.00     0.125 A 
ATOM      9  C   UNL     1      30.945  30.427  28.354  1.00  0.00     0.078 A 
ATOM     10  C   UNL     1      30.858  30.716  29.719  1.00  0.00     0.223 A 
ENDROOT
BRANCH   1  11
ATOM     11  C   UNL     1      30.676  29.874  32.096  1.00  0.00     0.091 A 
ATOM     12  C   UNL     1      30.737  28.777  32.968  1.00  0.00     0.068 A 
ATOM     13  C   UNL     1      30.614  28.949  34.352  1.00  0.00     0.162 A 
ATOM     14  C   UNL     1      30.450  31.154  32.625  1.00  0.00     0.068 A 
ATOM     15  C   UNL     1      30.410  30.246  34.879  1.00  0.00     0.200 A 
ATOM     16  C   UNL     1      30.325  31.341  34.007  1.00  0.00     0.162 A 
BRANCH  13  17
ATOM     17  O   UNL     1      30.698  27.812  35.158  1.00  0.00    -0.504 OA
ATOM     18  H   UNL     1      30.688  26.866  34.806  1.00  0.00     0.293 HD
ENDBRANCH  13  17
BRANCH  15  19
ATOM     19  O   UNL     1      30.285  30.488  36.249  1.00  0.00    -0.502 OA
ATOM     20  H   UNL     1      29.458  30.870  36.684  1.00  0.00     0.293 HD
ENDBRANCH  15  19
BRANCH  16  21
ATOM     21  O   UNL     1      30.108  32.617  34.524  1.00  0.00    -0.504 OA
ATOM     22  H   UNL     1      29.456  33.261  34.092  1.00  0.00     0.293 HD
ENDBRANCH  16  21
ENDBRANCH   1  11
BRANCH  10  23
ATOM     23  O   UNL     1      30.871  32.040  30.157  1.00  0.00    -0.500 OA
ATOM     24  H   UNL     1      30.016  32.535  30.381  1.00  0.00     0.294 HD
ENDBRANCH  10  23
BRANCH   5  25
ATOM     25  O   UNL     1      31.121  25.033  26.816  1.00  0.00    -0.507 OA
ATOM     26  H   UNL     1      31.589  24.736  25.968  1.00  0.00     0.293 HD
ENDBRANCH   5  25
BRANCH   7  27
ATOM     27  O   UNL     1      31.125  29.652  25.507  1.00  0.00    -0.507 OA
ATOM     28  H   UNL     1      31.977  29.989  25.083  1.00  0.00     0.293 HD
ENDBRANCH   7  27
TORSDOF 7
ENDMDL
MODEL 8
REMARK VINA RESULT:    -1.579      3.637      6.239
REMARK INTER + INTRA:          -1.732
REMARK INTER:                  -2.118
REMARK INTRA:                   0.386
REMARK UNBOUND:                 0.216
REMARK SMILES Oc1cc(O)c2cc(O)c(-c3cc(O)c(O)c(O)c3)[o+]c2c1
REMARK SMILES IDX 10 1 20 2 21 3 22 4 2 5 3 6 4 7 6 8 7 9 8 10 11 11 12 12
REMARK SMILES IDX 13 13 19 14 15 15 17 16 14 17 16 19 18 21 9 23 1 25 5 27
REMARK H PARENT 14 18 16 20 18 22 9 24 1 26 5 28
REMARK Flexibility Score: inf
ROOT
ATOM      1  C   UNL     1      30.264  31.107  31.802  1.00  0.00     0.402 A 
ATOM      2  O   UNL     1      30.608  30.081  32.576  1.00  0.00    -0.202 OA
ATOM      3  C   UNL     1      30.451  30.078  33.896  1.00  0.00     0.368 A 
ATOM      4  C   UNL     1      30.848  28.953  34.624  1.00  0.00     0.162 A 
ATOM      5  C   UNL     1      30.696  28.924  36.014  1.00  0.00     0.128 A 
ATOM      6  C   UNL     1      30.148  30.024  36.677  1.00  0.00     0.093 A 
ATOM      7  C   UNL     1      29.743  31.163  35.969  1.00  0.00     0.136 A 
ATOM      8  C   UNL     1      29.892  31.196  34.559  1.00  0.00     0.125 A 
ATOM      9  C   UNL     1      29.502  32.289  33.767  1.00  0.00     0.078 A 
ATOM     10  C   UNL     1      29.676  32.248  32.381  1.00  0.00     0.223 A 
ENDROOT
BRANCH   1  11
ATOM     11  C   UNL     1      30.498  30.995  30.344  1.00  0.00     0.091 A 
ATOM     12  C   UNL     1      30.449  32.147  29.547  1.00  0.00     0.068 A 
ATOM     13  C   UNL     1      30.645  32.076  28.163  1.00  0.00     0.162 A 
ATOM     14  C   UNL     1      30.710  29.750  29.731  1.00  0.00     0.068 A 
ATOM     15  C   UNL     1      30.882  30.820  27.555  1.00  0.00     0.200 A 
ATOM     16  C   UNL     1      30.907  29.663  28.347  1.00  0.00     0.162 A 
BRANCH  13  17
ATOM     17  O   UNL     1      30.595  33.268  27.437  1.00  0.00    -0.504 OA
ATOM     18  H   UNL     1      29.740  33.726  27.159  1.00  0.00     0.293 HD
ENDBRANCH  13  17
BRANCH  15  19
ATOM     19  O   UNL     1      31.091  30.679  26.181  1.00  0.00    -0.502 OA
ATOM     20  H   UNL     1      31.363  31.434  25.569  1.00  0.00     0.293 HD
ENDBRANCH  15  19
BRANCH  16  21
ATOM     21  O   UNL     1      31.125  28.424  27.747  1.00  0.00    -0.504 OA
ATOM     22  H   UNL     1      32.047  28.136  27.442  1.00  0.00     0.293 HD
ENDBRANCH  16  21
ENDBRANCH   1  11
BRANCH  10  23
ATOM     23  O   UNL     1      29.244  33.312  31.589  1.00  0.00    -0.500 OA
ATOM     24  H   UNL     1      28.628  34.029  31.952  1.00  0.00     0.294 HD
ENDBRANCH  10  23
BRANCH   5  25
ATOM     25  O   UNL     1      31.089  27.806  36.747  1.00  0.00    -0.507 OA
ATOM     26  H   UNL     1      31.943  27.802  37.291  1.00  0.00     0.293 HD
ENDBRANCH   5  25
BRANCH   7  27
ATOM     27  O   UNL     1      29.206  32.222  36.708  1.00  0.00    -0.507 OA
ATOM     28  H   UNL     1      28.397  32.757  36.430  1.00  0.00     0.293 HD
ENDBRANCH   7  27
TORSDOF 7
ENDMDL
