MODEL 1
REMARK VINA RESULT:    -3.583      0.000      0.000
REMARK INTER + INTRA:          -4.568
REMARK INTER:                  -4.211
REMARK INTRA:                  -0.357
REMARK UNBOUND:                -0.357
REMARK SMILES [NH3+][C@H](CO)C(=O)[O-]
REMARK SMILES IDX 3 1 2 2 1 3 5 7 6 8 7 9 4 10
REMARK H PARENT 1 4 1 5 1 6 4 11
REMARK Flexibility Score: inf
ROOT
ATOM      1  C   UNL     1     -22.232  -6.127  15.455  1.00  0.00     0.227 C 
ENDROOT
BRANCH   1   2
ATOM      2  C   UNL     1     -23.668  -5.606  15.294  1.00  0.00     0.253 C 
BRANCH   2   3
ATOM      3  N   UNL     1     -23.666  -4.186  14.920  1.00  0.00    -0.348 N 
ATOM      4  H   UNL     1     -23.207  -3.622  15.671  1.00  0.00     0.345 HD
ATOM      5  H   UNL     1     -24.642  -3.839  14.775  1.00  0.00     0.345 HD
ATOM      6  H   UNL     1     -23.123  -4.055  14.035  1.00  0.00     0.345 HD
ENDBRANCH   2   3
BRANCH   2   7
ATOM      7  C   UNL     1     -24.419  -6.417  14.272  1.00  0.00     0.102 C 
ATOM      8  O   UNL     1     -24.318  -6.152  13.044  1.00  0.00    -0.544 OA
ATOM      9  O   UNL     1     -25.220  -7.477  14.679  1.00  0.00    -0.544 OA
ENDBRANCH   2   7
ENDBRANCH   1   2
BRANCH   1  10
ATOM     10  O   UNL     1     -22.160  -7.467  15.052  1.00  0.00    -0.390 OA
ATOM     11  H   UNL     1     -23.040  -7.681  14.646  1.00  0.00     0.210 HD
ENDBRANCH   1  10
TORSDOF 4
ENDMDL
MODEL 2
REMARK VINA RESULT:    -3.532      1.868      3.031
REMARK INTER + INTRA:          -4.508
REMARK INTER:                  -4.320
REMARK INTRA:                  -0.188
REMARK UNBOUND:                -0.357
REMARK SMILES [NH3+][C@H](CO)C(=O)[O-]
REMARK SMILES IDX 3 1 2 2 1 3 5 7 6 8 7 9 4 10
REMARK H PARENT 1 4 1 5 1 6 4 11
REMARK Flexibility Score: inf
ROOT
ATOM      1  C   UNL     1     -25.599  -6.988  14.767  1.00  0.00     0.227 C 
ENDROOT
BRANCH   1   2
ATOM      2  C   UNL     1     -24.247  -6.752  14.076  1.00  0.00     0.253 C 
BRANCH   2   3
ATOM      3  N   UNL     1     -24.442  -6.212  12.726  1.00  0.00    -0.348 N 
ATOM      4  H   UNL     1     -23.905  -6.784  12.033  1.00  0.00     0.345 HD
ATOM      5  H   UNL     1     -24.121  -5.217  12.674  1.00  0.00     0.345 HD
ATOM      6  H   UNL     1     -25.456  -6.256  12.470  1.00  0.00     0.345 HD
ENDBRANCH   2   3
BRANCH   2   7
ATOM      7  C   UNL     1     -23.384  -5.827  14.893  1.00  0.00     0.102 C 
ATOM      8  O   UNL     1     -23.743  -4.638  15.105  1.00  0.00    -0.544 OA
ATOM      9  O   UNL     1     -22.188  -6.287  15.430  1.00  0.00    -0.544 OA
ENDBRANCH   2   7
ENDBRANCH   1   2
BRANCH   1  10
ATOM     10  O   UNL     1     -26.202  -5.760  15.072  1.00  0.00    -0.390 OA
ATOM     11  H   UNL     1     -26.447  -5.349  14.202  1.00  0.00     0.210 HD
ENDBRANCH   1  10
TORSDOF 4
ENDMDL
MODEL 3
REMARK VINA RESULT:    -3.529      2.471      2.830
REMARK INTER + INTRA:          -4.504
REMARK INTER:                  -4.263
REMARK INTRA:                  -0.241
REMARK UNBOUND:                -0.357
REMARK SMILES [NH3+][C@H](CO)C(=O)[O-]
REMARK SMILES IDX 3 1 2 2 1 3 5 7 6 8 7 9 4 10
REMARK H PARENT 1 4 1 5 1 6 4 11
REMARK Flexibility Score: inf
ROOT
ATOM      1  C   UNL     1     -22.783  -6.357  15.109  1.00  0.00     0.227 C 
ENDROOT
BRANCH   1   2
ATOM      2  C   UNL     1     -23.944  -5.450  14.673  1.00  0.00     0.253 C 
BRANCH   2   3
ATOM      3  N   UNL     1     -25.171  -6.233  14.484  1.00  0.00    -0.348 N 
ATOM      4  H   UNL     1     -25.339  -6.837  15.321  1.00  0.00     0.345 HD
ATOM      5  H   UNL     1     -25.099  -6.837  13.632  1.00  0.00     0.345 HD
ATOM      6  H   UNL     1     -25.988  -5.589  14.376  1.00  0.00     0.345 HD
ENDBRANCH   2   3
BRANCH   2   7
ATOM      7  C   UNL     1     -24.171  -4.352  15.678  1.00  0.00     0.102 C 
ATOM      8  O   UNL     1     -25.117  -4.429  16.507  1.00  0.00    -0.544 OA
ATOM      9  O   UNL     1     -23.326  -3.250  15.705  1.00  0.00    -0.544 OA
ENDBRANCH   2   7
ENDBRANCH   1   2
BRANCH   1  10
ATOM     10  O   UNL     1     -21.712  -5.578  15.567  1.00  0.00    -0.390 OA
ATOM     11  H   UNL     1     -21.174  -6.167  16.157  1.00  0.00     0.210 HD
ENDBRANCH   1  10
TORSDOF 4
ENDMDL
MODEL 4
REMARK VINA RESULT:    -3.526      2.385      3.110
REMARK INTER + INTRA:          -4.501
REMARK INTER:                  -4.259
REMARK INTRA:                  -0.242
REMARK UNBOUND:                -0.357
REMARK SMILES [NH3+][C@H](CO)C(=O)[O-]
REMARK SMILES IDX 3 1 2 2 1 3 5 7 6 8 7 9 4 10
REMARK H PARENT 1 4 1 5 1 6 4 11
REMARK Flexibility Score: inf
ROOT
ATOM      1  C   UNL     1     -23.843  -6.141  14.228  1.00  0.00     0.227 C 
ENDROOT
BRANCH   1   2
ATOM      2  C   UNL     1     -23.350  -5.557  15.561  1.00  0.00     0.253 C 
BRANCH   2   3
ATOM      3  N   UNL     1     -21.897  -5.353  15.532  1.00  0.00    -0.348 N 
ATOM      4  H   UNL     1     -21.443  -6.114  14.976  1.00  0.00     0.345 HD
ATOM      5  H   UNL     1     -21.503  -5.352  16.501  1.00  0.00     0.345 HD
ATOM      6  H   UNL     1     -21.678  -4.438  15.074  1.00  0.00     0.345 HD
ENDBRANCH   2   3
BRANCH   2   7
ATOM      7  C   UNL     1     -24.056  -4.263  15.870  1.00  0.00     0.102 C 
ATOM      8  O   UNL     1     -25.189  -4.268  16.421  1.00  0.00    -0.544 OA
ATOM      9  O   UNL     1     -23.451  -3.051  15.561  1.00  0.00    -0.544 OA
ENDBRANCH   2   7
ENDBRANCH   1   2
BRANCH   1  10
ATOM     10  O   UNL     1     -25.244  -6.135  14.191  1.00  0.00    -0.390 OA
ATOM     11  H   UNL     1     -25.502  -5.373  13.611  1.00  0.00     0.210 HD
ENDBRANCH   1  10
TORSDOF 4
ENDMDL
MODEL 5
REMARK VINA RESULT:    -3.495      2.508      3.194
REMARK INTER + INTRA:          -4.465
REMARK INTER:                  -4.459
REMARK INTRA:                  -0.006
REMARK UNBOUND:                -0.357
REMARK SMILES [NH3+][C@H](CO)C(=O)[O-]
REMARK SMILES IDX 3 1 2 2 1 3 5 7 6 8 7 9 4 10
REMARK H PARENT 1 4 1 5 1 6 4 11
REMARK Flexibility Score: inf
ROOT
ATOM      1  C   UNL     1     -23.182  -2.920  15.380  1.00  0.00     0.227 C 
ENDROOT
BRANCH   1   2
ATOM      2  C   UNL     1     -23.651  -4.212  16.066  1.00  0.00     0.253 C 
BRANCH   2   3
ATOM      3  N   UNL     1     -25.109  -4.208  16.238  1.00  0.00    -0.348 N 
ATOM      4  H   UNL     1     -25.347  -4.075  17.247  1.00  0.00     0.345 HD
ATOM      5  H   UNL     1     -25.524  -5.108  15.902  1.00  0.00     0.345 HD
ATOM      6  H   UNL     1     -25.526  -3.417  15.695  1.00  0.00     0.345 HD
ENDBRANCH   2   3
BRANCH   2   7
ATOM      7  C   UNL     1     -23.217  -5.422  15.281  1.00  0.00     0.102 C 
ATOM      8  O   UNL     1     -23.926  -5.858  14.335  1.00  0.00    -0.544 OA
ATOM      9  O   UNL     1     -22.020  -6.056  15.589  1.00  0.00    -0.544 OA
ENDBRANCH   2   7
ENDBRANCH   1   2
BRANCH   1  10
ATOM     10  O   UNL     1     -24.024  -1.857  15.732  1.00  0.00    -0.390 OA
ATOM     11  H   UNL     1     -23.452  -1.194  16.198  1.00  0.00     0.210 HD
ENDBRANCH   1  10
TORSDOF 4
ENDMDL
MODEL 6
REMARK VINA RESULT:    -3.485      1.532      2.440
REMARK INTER + INTRA:          -4.453
REMARK INTER:                  -4.065
REMARK INTRA:                  -0.388
REMARK UNBOUND:                -0.357
REMARK SMILES [NH3+][C@H](CO)C(=O)[O-]
REMARK SMILES IDX 3 1 2 2 1 3 5 7 6 8 7 9 4 10
REMARK H PARENT 1 4 1 5 1 6 4 11
REMARK Flexibility Score: inf
ROOT
ATOM      1  C   UNL     1     -24.497  -4.509  15.997  1.00  0.00     0.227 C 
ENDROOT
BRANCH   1   2
ATOM      2  C   UNL     1     -23.442  -5.059  15.025  1.00  0.00     0.253 C 
BRANCH   2   3
ATOM      3  N   UNL     1     -22.185  -5.342  15.729  1.00  0.00    -0.348 N 
ATOM      4  H   UNL     1     -21.390  -4.870  15.240  1.00  0.00     0.345 HD
ATOM      5  H   UNL     1     -22.004  -6.372  15.766  1.00  0.00     0.345 HD
ATOM      6  H   UNL     1     -22.236  -4.970  16.706  1.00  0.00     0.345 HD
ENDBRANCH   2   3
BRANCH   2   7
ATOM      7  C   UNL     1     -23.947  -6.298  14.333  1.00  0.00     0.102 C 
ATOM      8  O   UNL     1     -23.815  -7.430  14.871  1.00  0.00    -0.544 OA
ATOM      9  O   UNL     1     -24.576  -6.196  13.099  1.00  0.00    -0.544 OA
ENDBRANCH   2   7
ENDBRANCH   1   2
BRANCH   1  10
ATOM     10  O   UNL     1     -25.747  -5.079  15.721  1.00  0.00    -0.390 OA
ATOM     11  H   UNL     1     -25.610  -6.062  15.727  1.00  0.00     0.210 HD
ENDBRANCH   1  10
TORSDOF 4
ENDMDL
MODEL 7
REMARK VINA RESULT:    -3.471      1.720      2.909
REMARK INTER + INTRA:          -4.437
REMARK INTER:                  -4.220
REMARK INTRA:                  -0.217
REMARK UNBOUND:                -0.357
REMARK SMILES [NH3+][C@H](CO)C(=O)[O-]
REMARK SMILES IDX 3 1 2 2 1 3 5 7 6 8 7 9 4 10
REMARK H PARENT 1 4 1 5 1 6 4 11
REMARK Flexibility Score: inf
ROOT
ATOM      1  C   UNL     1     -24.511  -6.340  14.527  1.00  0.00     0.227 C 
ENDROOT
BRANCH   1   2
ATOM      2  C   UNL     1     -24.068  -4.997  15.126  1.00  0.00     0.253 C 
BRANCH   2   3
ATOM      3  N   UNL     1     -25.126  -4.432  15.972  1.00  0.00    -0.348 N 
ATOM      4  H   UNL     1     -25.667  -3.717  15.434  1.00  0.00     0.345 HD
ATOM      5  H   UNL     1     -24.719  -3.985  16.827  1.00  0.00     0.345 HD
ATOM      6  H   UNL     1     -25.786  -5.190  16.266  1.00  0.00     0.345 HD
ENDBRANCH   2   3
BRANCH   2   7
ATOM      7  C   UNL     1     -22.795  -5.159  15.915  1.00  0.00     0.102 C 
ATOM      8  O   UNL     1     -22.622  -4.522  16.989  1.00  0.00    -0.544 OA
ATOM      9  O   UNL     1     -21.806  -6.026  15.467  1.00  0.00    -0.544 OA
ENDBRANCH   2   7
ENDBRANCH   1   2
BRANCH   1  10
ATOM     10  O   UNL     1     -23.876  -6.549  13.295  1.00  0.00    -0.390 OA
ATOM     11  H   UNL     1     -23.883  -7.529  13.143  1.00  0.00     0.210 HD
ENDBRANCH   1  10
TORSDOF 4
ENDMDL
MODEL 8
REMARK VINA RESULT:    -3.402      1.888      1.994
REMARK INTER + INTRA:          -4.355
REMARK INTER:                  -4.124
REMARK INTRA:                  -0.231
REMARK UNBOUND:                -0.357
REMARK SMILES [NH3+][C@H](CO)C(=O)[O-]
REMARK SMILES IDX 3 1 2 2 1 3 5 7 6 8 7 9 4 10
REMARK H PARENT 1 4 1 5 1 6 4 11
REMARK Flexibility Score: inf
ROOT
ATOM      1  C   UNL     1     -23.032  -6.742  14.785  1.00  0.00     0.227 C 
ENDROOT
BRANCH   1   2
ATOM      2  C   UNL     1     -24.277  -6.150  14.107  1.00  0.00     0.253 C 
BRANCH   2   3
ATOM      3  N   UNL     1     -24.328  -6.533  12.691  1.00  0.00    -0.348 N 
ATOM      4  H   UNL     1     -24.541  -5.694  12.104  1.00  0.00     0.345 HD
ATOM      5  H   UNL     1     -25.062  -7.262  12.530  1.00  0.00     0.345 HD
ATOM      6  H   UNL     1     -23.400  -6.914  12.394  1.00  0.00     0.345 HD
ENDBRANCH   2   3
BRANCH   2   7
ATOM      7  C   UNL     1     -25.531  -6.592  14.816  1.00  0.00     0.102 C 
ATOM      8  O   UNL     1     -26.214  -5.768  15.480  1.00  0.00    -0.544 OA
ATOM      9  O   UNL     1     -25.949  -7.914  14.728  1.00  0.00    -0.544 OA
ENDBRANCH   2   7
ENDBRANCH   1   2
BRANCH   1  10
ATOM     10  O   UNL     1     -23.082  -8.141  14.744  1.00  0.00    -0.390 OA
ATOM     11  H   UNL     1     -23.836  -8.373  14.142  1.00  0.00     0.210 HD
ENDBRANCH   1  10
TORSDOF 4
ENDMDL
MODEL 9
REMARK VINA RESULT:    -3.331      2.468      2.881
REMARK INTER + INTRA:          -4.272
REMARK INTER:                  -4.262
REMARK INTRA:                  -0.009
REMARK UNBOUND:                -0.357
REMARK SMILES [NH3+][C@H](CO)C(=O)[O-]
REMARK SMILES IDX 3 1 2 2 1 3 5 7 6 8 7 9 4 10
REMARK H PARENT 1 4 1 5 1 6 4 11
REMARK Flexibility Score: inf
ROOT
ATOM      1  C   UNL     1     -23.126  -4.216  17.449  1.00  0.00     0.227 C 
ENDROOT
BRANCH   1   2
ATOM      2  C   UNL     1     -23.665  -4.176  16.011  1.00  0.00     0.253 C 
BRANCH   2   3
ATOM      3  N   UNL     1     -23.202  -2.968  15.317  1.00  0.00    -0.348 N 
ATOM      4  H   UNL     1     -23.439  -2.121  15.883  1.00  0.00     0.345 HD
ATOM      5  H   UNL     1     -23.649  -2.888  14.374  1.00  0.00     0.345 HD
ATOM      6  H   UNL     1     -22.163  -3.004  15.200  1.00  0.00     0.345 HD
ENDBRANCH   2   3
BRANCH   2   7
ATOM      7  C   UNL     1     -23.251  -5.409  15.251  1.00  0.00     0.102 C 
ATOM      8  O   UNL     1     -23.978  -5.867  14.330  1.00  0.00    -0.544 OA
ATOM      9  O   UNL     1     -22.053  -6.042  15.556  1.00  0.00    -0.544 OA
ENDBRANCH   2   7
ENDBRANCH   1   2
BRANCH   1  10
ATOM     10  O   UNL     1     -24.162  -3.963  18.357  1.00  0.00    -0.390 OA
ATOM     11  H   UNL     1     -24.345  -4.823  18.815  1.00  0.00     0.210 HD
ENDBRANCH   1  10
TORSDOF 4
ENDMDL
