MODEL 1
REMARK VINA RESULT:    -6.683      0.000      0.000
REMARK INTER + INTRA:         -13.758
REMARK INTER:                 -12.152
REMARK INTRA:                  -1.606
REMARK UNBOUND:                -1.606
REMARK SMILES CCCCCCCCCCCCCC[C@@H](C)C(=O)[O-]
REMARK SMILES IDX 9 1 10 2 11 3 12 4 13 5 14 6 15 7 16 8 17 9 18 10 19 11 8 12
REMARK SMILES IDX 7 13 6 14 5 15 4 16 3 17 2 18 1 19
REMARK H PARENT
REMARK Flexibility Score: inf
ROOT
ATOM      1  C   UNL     1      -3.021   2.661   3.944  1.00  0.00     0.000 C 
ENDROOT
BRANCH   1   2
ATOM      2  C   UNL     1      -3.244   3.723   5.036  1.00  0.00     0.000 C 
BRANCH   2   3
ATOM      3  C   UNL     1      -2.944   5.150   4.530  1.00  0.00     0.000 C 
BRANCH   3   4
ATOM      4  C   UNL     1      -4.185   6.057   4.473  1.00  0.00     0.000 C 
BRANCH   4   5
ATOM      5  C   UNL     1      -5.495   5.296   4.740  1.00  0.00     0.001 C 
BRANCH   5   6
ATOM      6  C   UNL     1      -6.252   4.944   3.441  1.00  0.00     0.009 C 
BRANCH   6   7
ATOM      7  C   UNL     1      -6.984   6.150   2.807  1.00  0.00     0.032 C 
ATOM      8  C   UNL     1      -6.307   6.564   1.495  1.00  0.00     0.014 C 
BRANCH   7   9
ATOM      9  C   UNL     1      -8.439   5.855   2.560  1.00  0.00     0.044 C 
ATOM     10  O   UNL     1      -9.213   5.604   3.522  1.00  0.00    -0.550 OA
ATOM     11  O   UNL     1      -8.937   5.874   1.263  1.00  0.00    -0.550 OA
ENDBRANCH   7   9
ENDBRANCH   6   7
ENDBRANCH   5   6
ENDBRANCH   4   5
ENDBRANCH   3   4
ENDBRANCH   2   3
ENDBRANCH   1   2
BRANCH   1  12
ATOM     12  C   UNL     1      -4.195   1.676   3.824  1.00  0.00     0.000 C 
BRANCH  12  13
ATOM     13  C   UNL     1      -4.035   0.702   2.648  1.00  0.00    -0.000 C 
BRANCH  13  14
ATOM     14  C   UNL     1      -5.401   0.300   2.079  1.00  0.00    -0.000 C 
BRANCH  14  15
ATOM     15  C   UNL     1      -6.445   0.162   3.197  1.00  0.00    -0.000 C 
BRANCH  15  16
ATOM     16  C   UNL     1      -6.645  -1.295   3.643  1.00  0.00    -0.000 C 
BRANCH  16  17
ATOM     17  C   UNL     1      -6.098  -1.562   5.056  1.00  0.00    -0.000 C 
BRANCH  17  18
ATOM     18  C   UNL     1      -4.672  -2.134   5.037  1.00  0.00    -0.003 C 
ATOM     19  C   UNL     1      -3.749  -1.454   6.049  1.00  0.00     0.004 C 
ENDBRANCH  17  18
ENDBRANCH  16  17
ENDBRANCH  15  16
ENDBRANCH  14  15
ENDBRANCH  13  14
ENDBRANCH  12  13
ENDBRANCH   1  12
TORSDOF 14
ENDMDL
MODEL 2
REMARK VINA RESULT:    -6.568      4.750      8.027
REMARK INTER + INTRA:         -13.550
REMARK INTER:                 -12.735
REMARK INTRA:                  -0.814
REMARK UNBOUND:                -1.606
REMARK SMILES CCCCCCCCCCCCCC[C@@H](C)C(=O)[O-]
REMARK SMILES IDX 9 1 10 2 11 3 12 4 13 5 14 6 15 7 16 8 17 9 18 10 19 11 8 12
REMARK SMILES IDX 7 13 6 14 5 15 4 16 3 17 2 18 1 19
REMARK H PARENT
REMARK Flexibility Score: inf
ROOT
ATOM      1  C   UNL     1      -4.749   2.125   3.246  1.00  0.00     0.000 C 
ENDROOT
BRANCH   1   2
ATOM      2  C   UNL     1      -5.115   0.733   2.701  1.00  0.00     0.000 C 
BRANCH   2   3
ATOM      3  C   UNL     1      -4.248   0.337   1.486  1.00  0.00     0.000 C 
BRANCH   3   4
ATOM      4  C   UNL     1      -5.017   0.336   0.154  1.00  0.00     0.000 C 
BRANCH   4   5
ATOM      5  C   UNL     1      -4.137  -0.057  -1.044  1.00  0.00     0.001 C 
BRANCH   5   6
ATOM      6  C   UNL     1      -4.899  -0.899  -2.090  1.00  0.00     0.009 C 
BRANCH   6   7
ATOM      7  C   UNL     1      -4.019  -1.353  -3.277  1.00  0.00     0.032 C 
ATOM      8  C   UNL     1      -2.793  -0.443  -3.420  1.00  0.00     0.014 C 
BRANCH   7   9
ATOM      9  C   UNL     1      -3.578  -2.784  -3.131  1.00  0.00     0.044 C 
ATOM     10  O   UNL     1      -4.414  -3.687  -2.858  1.00  0.00    -0.550 OA
ATOM     11  O   UNL     1      -2.241  -3.118  -3.312  1.00  0.00    -0.550 OA
ENDBRANCH   7   9
ENDBRANCH   6   7
ENDBRANCH   5   6
ENDBRANCH   4   5
ENDBRANCH   3   4
ENDBRANCH   2   3
ENDBRANCH   1   2
BRANCH   1  12
ATOM     12  C   UNL     1      -3.664   2.070   4.333  1.00  0.00     0.000 C 
BRANCH  12  13
ATOM     13  C   UNL     1      -3.058   3.449   4.637  1.00  0.00    -0.000 C 
BRANCH  13  14
ATOM     14  C   UNL     1      -4.116   4.397   5.214  1.00  0.00    -0.000 C 
BRANCH  14  15
ATOM     15  C   UNL     1      -4.132   5.732   4.456  1.00  0.00    -0.000 C 
BRANCH  15  16
ATOM     16  C   UNL     1      -5.546   6.320   4.324  1.00  0.00    -0.000 C 
BRANCH  16  17
ATOM     17  C   UNL     1      -6.461   5.466   3.430  1.00  0.00    -0.000 C 
BRANCH  17  18
ATOM     18  C   UNL     1      -6.901   6.207   2.157  1.00  0.00    -0.003 C 
ATOM     19  C   UNL     1      -5.780   7.054   1.551  1.00  0.00     0.004 C 
ENDBRANCH  17  18
ENDBRANCH  16  17
ENDBRANCH  15  16
ENDBRANCH  14  15
ENDBRANCH  13  14
ENDBRANCH  12  13
ENDBRANCH   1  12
TORSDOF 14
ENDMDL
MODEL 3
REMARK VINA RESULT:    -6.556      4.034      7.887
REMARK INTER + INTRA:         -13.528
REMARK INTER:                 -11.951
REMARK INTRA:                  -1.577
REMARK UNBOUND:                -1.606
REMARK SMILES CCCCCCCCCCCCCC[C@@H](C)C(=O)[O-]
REMARK SMILES IDX 9 1 10 2 11 3 12 4 13 5 14 6 15 7 16 8 17 9 18 10 19 11 8 12
REMARK SMILES IDX 7 13 6 14 5 15 4 16 3 17 2 18 1 19
REMARK H PARENT
REMARK Flexibility Score: inf
ROOT
ATOM      1  C   UNL     1      -4.005   0.878   2.786  1.00  0.00     0.000 C 
ENDROOT
BRANCH   1   2
ATOM      2  C   UNL     1      -5.274   0.233   2.199  1.00  0.00     0.000 C 
BRANCH   2   3
ATOM      3  C   UNL     1      -6.416   0.149   3.234  1.00  0.00     0.000 C 
BRANCH   3   4
ATOM      4  C   UNL     1      -6.632  -1.265   3.800  1.00  0.00     0.000 C 
BRANCH   4   5
ATOM      5  C   UNL     1      -5.808  -1.533   5.070  1.00  0.00     0.001 C 
BRANCH   5   6
ATOM      6  C   UNL     1      -4.582  -2.433   4.805  1.00  0.00     0.009 C 
BRANCH   6   7
ATOM      7  C   UNL     1      -3.319  -2.000   5.584  1.00  0.00     0.032 C 
ATOM      8  C   UNL     1      -3.636  -0.825   6.517  1.00  0.00     0.014 C 
BRANCH   7   9
ATOM      9  C   UNL     1      -2.733  -3.137   6.376  1.00  0.00     0.044 C 
ATOM     10  O   UNL     1      -1.485  -3.239   6.523  1.00  0.00    -0.550 OA
ATOM     11  O   UNL     1      -3.573  -4.075   6.964  1.00  0.00    -0.550 OA
ENDBRANCH   7   9
ENDBRANCH   6   7
ENDBRANCH   5   6
ENDBRANCH   4   5
ENDBRANCH   3   4
ENDBRANCH   2   3
ENDBRANCH   1   2
BRANCH   1  12
ATOM     12  C   UNL     1      -4.312   1.858   3.930  1.00  0.00     0.000 C 
BRANCH  12  13
ATOM     13  C   UNL     1      -3.155   2.831   4.205  1.00  0.00    -0.000 C 
BRANCH  13  14
ATOM     14  C   UNL     1      -3.270   3.436   5.609  1.00  0.00    -0.000 C 
BRANCH  14  15
ATOM     15  C   UNL     1      -4.370   4.507   5.659  1.00  0.00    -0.000 C 
BRANCH  15  16
ATOM     16  C   UNL     1      -4.259   5.523   4.511  1.00  0.00    -0.000 C 
BRANCH  16  17
ATOM     17  C   UNL     1      -5.482   6.454   4.425  1.00  0.00    -0.000 C 
BRANCH  17  18
ATOM     18  C   UNL     1      -6.541   5.944   3.435  1.00  0.00    -0.003 C 
ATOM     19  C   UNL     1      -6.281   6.408   2.001  1.00  0.00     0.004 C 
ENDBRANCH  17  18
ENDBRANCH  16  17
ENDBRANCH  15  16
ENDBRANCH  14  15
ENDBRANCH  13  14
ENDBRANCH  12  13
ENDBRANCH   1  12
TORSDOF 14
ENDMDL
MODEL 4
REMARK VINA RESULT:    -6.392      1.310      2.488
REMARK INTER + INTRA:         -13.229
REMARK INTER:                 -12.098
REMARK INTRA:                  -1.131
REMARK UNBOUND:                -1.606
REMARK SMILES CCCCCCCCCCCCCC[C@@H](C)C(=O)[O-]
REMARK SMILES IDX 9 1 10 2 11 3 12 4 13 5 14 6 15 7 16 8 17 9 18 10 19 11 8 12
REMARK SMILES IDX 7 13 6 14 5 15 4 16 3 17 2 18 1 19
REMARK H PARENT
REMARK Flexibility Score: inf
ROOT
ATOM      1  C   UNL     1      -4.340   4.430   5.329  1.00  0.00     0.000 C 
ENDROOT
BRANCH   1   2
ATOM      2  C   UNL     1      -4.417   5.815   4.663  1.00  0.00     0.000 C 
BRANCH   2   3
ATOM      3  C   UNL     1      -5.796   6.076   4.018  1.00  0.00     0.000 C 
BRANCH   3   4
ATOM      4  C   UNL     1      -5.712   6.728   2.628  1.00  0.00     0.000 C 
BRANCH   4   5
ATOM      5  C   UNL     1      -6.911   6.381   1.730  1.00  0.00     0.001 C 
BRANCH   5   6
ATOM      6  C   UNL     1      -7.983   5.549   2.468  1.00  0.00     0.009 C 
BRANCH   6   7
ATOM      7  C   UNL     1      -9.419   6.091   2.283  1.00  0.00     0.032 C 
ATOM      8  C   UNL     1      -9.942   5.768   0.878  1.00  0.00     0.014 C 
BRANCH   7   9
ATOM      9  C   UNL     1     -10.362   5.541   3.318  1.00  0.00     0.044 C 
ATOM     10  O   UNL     1     -10.693   4.324   3.301  1.00  0.00    -0.550 OA
ATOM     11  O   UNL     1     -10.862   6.374   4.311  1.00  0.00    -0.550 OA
ENDBRANCH   7   9
ENDBRANCH   6   7
ENDBRANCH   5   6
ENDBRANCH   4   5
ENDBRANCH   3   4
ENDBRANCH   2   3
ENDBRANCH   1   2
BRANCH   1  12
ATOM     12  C   UNL     1      -3.089   3.639   4.912  1.00  0.00     0.000 C 
BRANCH  12  13
ATOM     13  C   UNL     1      -3.426   2.260   4.327  1.00  0.00    -0.000 C 
BRANCH  13  14
ATOM     14  C   UNL     1      -4.788   2.281   3.622  1.00  0.00    -0.000 C 
BRANCH  14  15
ATOM     15  C   UNL     1      -4.970   1.041   2.735  1.00  0.00    -0.000 C 
BRANCH  15  16
ATOM     16  C   UNL     1      -4.255  -0.198   3.297  1.00  0.00    -0.000 C 
BRANCH  16  17
ATOM     17  C   UNL     1      -5.156  -1.030   4.227  1.00  0.00    -0.000 C 
BRANCH  17  18
ATOM     18  C   UNL     1      -4.350  -1.900   5.204  1.00  0.00    -0.003 C 
ATOM     19  C   UNL     1      -3.742  -1.091   6.351  1.00  0.00     0.004 C 
ENDBRANCH  17  18
ENDBRANCH  16  17
ENDBRANCH  15  16
ENDBRANCH  14  15
ENDBRANCH  13  14
ENDBRANCH  12  13
ENDBRANCH   1  12
TORSDOF 14
ENDMDL
MODEL 5
REMARK VINA RESULT:    -6.311      4.226      8.264
REMARK INTER + INTRA:         -13.081
REMARK INTER:                 -11.994
REMARK INTRA:                  -1.087
REMARK UNBOUND:                -1.606
REMARK SMILES CCCCCCCCCCCCCC[C@@H](C)C(=O)[O-]
REMARK SMILES IDX 9 1 10 2 11 3 12 4 13 5 14 6 15 7 16 8 17 9 18 10 19 11 8 12
REMARK SMILES IDX 7 13 6 14 5 15 4 16 3 17 2 18 1 19
REMARK H PARENT
REMARK Flexibility Score: inf
ROOT
ATOM      1  C   UNL     1      -4.410   2.235   3.612  1.00  0.00     0.000 C 
ENDROOT
BRANCH   1   2
ATOM      2  C   UNL     1      -4.459   0.871   2.900  1.00  0.00     0.000 C 
BRANCH   2   3
ATOM      3  C   UNL     1      -5.862   0.230   2.966  1.00  0.00     0.000 C 
BRANCH   3   4
ATOM      4  C   UNL     1      -5.935  -0.996   3.893  1.00  0.00     0.000 C 
BRANCH   4   5
ATOM      5  C   UNL     1      -4.549  -1.509   4.318  1.00  0.00     0.001 C 
BRANCH   5   6
ATOM      6  C   UNL     1      -4.590  -2.301   5.642  1.00  0.00     0.009 C 
BRANCH   6   7
ATOM      7  C   UNL     1      -3.189  -2.646   6.198  1.00  0.00     0.032 C 
ATOM      8  C   UNL     1      -2.665  -1.510   7.086  1.00  0.00     0.014 C 
BRANCH   7   9
ATOM      9  C   UNL     1      -3.195  -3.937   6.971  1.00  0.00     0.044 C 
ATOM     10  O   UNL     1      -3.712  -4.975   6.478  1.00  0.00    -0.550 OA
ATOM     11  O   UNL     1      -2.614  -3.991   8.232  1.00  0.00    -0.550 OA
ENDBRANCH   7   9
ENDBRANCH   6   7
ENDBRANCH   5   6
ENDBRANCH   4   5
ENDBRANCH   3   4
ENDBRANCH   2   3
ENDBRANCH   1   2
BRANCH   1  12
ATOM     12  C   UNL     1      -3.277   2.323   4.647  1.00  0.00     0.000 C 
BRANCH  12  13
ATOM     13  C   UNL     1      -3.245   3.674   5.378  1.00  0.00    -0.000 C 
BRANCH  13  14
ATOM     14  C   UNL     1      -4.512   4.487   5.083  1.00  0.00    -0.000 C 
BRANCH  14  15
ATOM     15  C   UNL     1      -4.159   5.874   4.525  1.00  0.00    -0.000 C 
BRANCH  15  16
ATOM     16  C   UNL     1      -5.388   6.625   3.986  1.00  0.00    -0.000 C 
BRANCH  16  17
ATOM     17  C   UNL     1      -6.358   5.703   3.226  1.00  0.00    -0.000 C 
BRANCH  17  18
ATOM     18  C   UNL     1      -6.814   6.305   1.887  1.00  0.00    -0.003 C 
ATOM     19  C   UNL     1      -5.706   7.094   1.187  1.00  0.00     0.004 C 
ENDBRANCH  17  18
ENDBRANCH  16  17
ENDBRANCH  15  16
ENDBRANCH  14  15
ENDBRANCH  13  14
ENDBRANCH  12  13
ENDBRANCH   1  12
TORSDOF 14
ENDMDL
MODEL 6
REMARK VINA RESULT:    -6.227      3.727      7.673
REMARK INTER + INTRA:         -12.928
REMARK INTER:                 -11.651
REMARK INTRA:                  -1.277
REMARK UNBOUND:                -1.606
REMARK SMILES CCCCCCCCCCCCCC[C@@H](C)C(=O)[O-]
REMARK SMILES IDX 9 1 10 2 11 3 12 4 13 5 14 6 15 7 16 8 17 9 18 10 19 11 8 12
REMARK SMILES IDX 7 13 6 14 5 15 4 16 3 17 2 18 1 19
REMARK H PARENT
REMARK Flexibility Score: inf
ROOT
ATOM      1  C   UNL     1      -4.128   0.645   3.200  1.00  0.00     0.000 C 
ENDROOT
BRANCH   1   2
ATOM      2  C   UNL     1      -4.892  -0.504   3.881  1.00  0.00     0.000 C 
BRANCH   2   3
ATOM      3  C   UNL     1      -3.944  -1.496   4.588  1.00  0.00     0.000 C 
BRANCH   3   4
ATOM      4  C   UNL     1      -4.134  -1.550   6.113  1.00  0.00     0.000 C 
BRANCH   4   5
ATOM      5  C   UNL     1      -2.859  -1.175   6.888  1.00  0.00     0.001 C 
BRANCH   5   6
ATOM      6  C   UNL     1      -2.841   0.307   7.319  1.00  0.00     0.009 C 
BRANCH   6   7
ATOM      7  C   UNL     1      -2.114   0.550   8.662  1.00  0.00     0.032 C 
ATOM      8  C   UNL     1      -0.969  -0.454   8.846  1.00  0.00     0.014 C 
BRANCH   7   9
ATOM      9  C   UNL     1      -1.583   1.954   8.765  1.00  0.00     0.044 C 
ATOM     10  O   UNL     1      -0.387   2.164   9.101  1.00  0.00    -0.550 OA
ATOM     11  O   UNL     1      -2.413   3.030   8.473  1.00  0.00    -0.550 OA
ENDBRANCH   7   9
ENDBRANCH   6   7
ENDBRANCH   5   6
ENDBRANCH   4   5
ENDBRANCH   3   4
ENDBRANCH   2   3
ENDBRANCH   1   2
BRANCH   1  12
ATOM     12  C   UNL     1      -4.209   1.962   3.989  1.00  0.00     0.000 C 
BRANCH  12  13
ATOM     13  C   UNL     1      -2.871   2.717   4.024  1.00  0.00    -0.000 C 
BRANCH  13  14
ATOM     14  C   UNL     1      -2.868   3.776   5.134  1.00  0.00    -0.000 C 
BRANCH  14  15
ATOM     15  C   UNL     1      -4.261   4.399   5.305  1.00  0.00    -0.000 C 
BRANCH  15  16
ATOM     16  C   UNL     1      -4.413   5.726   4.544  1.00  0.00    -0.000 C 
BRANCH  16  17
ATOM     17  C   UNL     1      -5.880   6.177   4.429  1.00  0.00    -0.000 C 
BRANCH  17  18
ATOM     18  C   UNL     1      -6.492   5.847   3.058  1.00  0.00    -0.003 C 
ATOM     19  C   UNL     1      -5.992   6.773   1.949  1.00  0.00     0.004 C 
ENDBRANCH  17  18
ENDBRANCH  16  17
ENDBRANCH  15  16
ENDBRANCH  14  15
ENDBRANCH  13  14
ENDBRANCH  12  13
ENDBRANCH   1  12
TORSDOF 14
ENDMDL
MODEL 7
REMARK VINA RESULT:    -6.214      3.265      4.490
REMARK INTER + INTRA:         -12.906
REMARK INTER:                 -12.175
REMARK INTRA:                  -0.731
REMARK UNBOUND:                -1.606
REMARK SMILES CCCCCCCCCCCCCC[C@@H](C)C(=O)[O-]
REMARK SMILES IDX 9 1 10 2 11 3 12 4 13 5 14 6 15 7 16 8 17 9 18 10 19 11 8 12
REMARK SMILES IDX 7 13 6 14 5 15 4 16 3 17 2 18 1 19
REMARK H PARENT
REMARK Flexibility Score: inf
ROOT
ATOM      1  C   UNL     1      -4.519   4.717   5.364  1.00  0.00     0.000 C 
ENDROOT
BRANCH   1   2
ATOM      2  C   UNL     1      -4.468   5.975   4.478  1.00  0.00     0.000 C 
BRANCH   2   3
ATOM      3  C   UNL     1      -5.848   6.319   3.876  1.00  0.00     0.000 C 
BRANCH   3   4
ATOM      4  C   UNL     1      -5.800   6.653   2.375  1.00  0.00     0.000 C 
BRANCH   4   5
ATOM      5  C   UNL     1      -7.096   6.281   1.638  1.00  0.00     0.001 C 
BRANCH   5   6
ATOM      6  C   UNL     1      -8.123   5.582   2.556  1.00  0.00     0.009 C 
BRANCH   6   7
ATOM      7  C   UNL     1      -9.577   6.057   2.330  1.00  0.00     0.032 C 
ATOM      8  C   UNL     1     -10.063   5.660   0.930  1.00  0.00     0.014 C 
BRANCH   7   9
ATOM      9  C   UNL     1     -10.513   5.506   3.371  1.00  0.00     0.044 C 
ATOM     10  O   UNL     1     -10.968   6.251   4.281  1.00  0.00    -0.550 OA
ATOM     11  O   UNL     1     -10.893   4.171   3.322  1.00  0.00    -0.550 OA
ENDBRANCH   7   9
ENDBRANCH   6   7
ENDBRANCH   5   6
ENDBRANCH   4   5
ENDBRANCH   3   4
ENDBRANCH   2   3
ENDBRANCH   1   2
BRANCH   1  12
ATOM     12  C   UNL     1      -3.533   3.629   4.907  1.00  0.00     0.000 C 
BRANCH  12  13
ATOM     13  C   UNL     1      -2.990   2.792   6.075  1.00  0.00    -0.000 C 
BRANCH  13  14
ATOM     14  C   UNL     1      -3.522   3.312   7.416  1.00  0.00    -0.000 C 
BRANCH  14  15
ATOM     15  C   UNL     1      -2.802   2.639   8.593  1.00  0.00    -0.000 C 
BRANCH  15  16
ATOM     16  C   UNL     1      -1.778   1.587   8.137  1.00  0.00    -0.000 C 
BRANCH  16  17
ATOM     17  C   UNL     1      -1.571   0.472   9.178  1.00  0.00    -0.000 C 
BRANCH  17  18
ATOM     18  C   UNL     1      -0.126  -0.050   9.201  1.00  0.00    -0.003 C 
ATOM     19  C   UNL     1       0.556   0.159  10.554  1.00  0.00     0.004 C 
ENDBRANCH  17  18
ENDBRANCH  16  17
ENDBRANCH  15  16
ENDBRANCH  14  15
ENDBRANCH  13  14
ENDBRANCH  12  13
ENDBRANCH   1  12
TORSDOF 14
ENDMDL
MODEL 8
REMARK VINA RESULT:    -6.198     10.758     12.972
REMARK INTER + INTRA:         -12.876
REMARK INTER:                 -11.897
REMARK INTRA:                  -0.979
REMARK UNBOUND:                -1.606
REMARK SMILES CCCCCCCCCCCCCC[C@@H](C)C(=O)[O-]
REMARK SMILES IDX 9 1 10 2 11 3 12 4 13 5 14 6 15 7 16 8 17 9 18 10 19 11 8 12
REMARK SMILES IDX 7 13 6 14 5 15 4 16 3 17 2 18 1 19
REMARK H PARENT
REMARK Flexibility Score: inf
ROOT
ATOM      1  C   UNL     1      -0.155  -3.539  -7.534  1.00  0.00     0.000 C 
ENDROOT
BRANCH   1   2
ATOM      2  C   UNL     1       0.112  -4.175  -6.157  1.00  0.00     0.000 C 
BRANCH   2   3
ATOM      3  C   UNL     1      -0.437  -3.311  -5.001  1.00  0.00     0.000 C 
BRANCH   3   4
ATOM      4  C   UNL     1      -0.966  -1.939  -5.453  1.00  0.00     0.000 C 
BRANCH   4   5
ATOM      5  C   UNL     1      -1.376  -1.039  -4.277  1.00  0.00     0.001 C 
BRANCH   5   6
ATOM      6  C   UNL     1      -2.901  -0.805  -4.211  1.00  0.00     0.009 C 
BRANCH   6   7
ATOM      7  C   UNL     1      -3.571  -1.445  -2.973  1.00  0.00     0.032 C 
ATOM      8  C   UNL     1      -4.907  -0.758  -2.666  1.00  0.00     0.014 C 
BRANCH   7   9
ATOM      9  C   UNL     1      -3.786  -2.923  -3.155  1.00  0.00     0.044 C 
ATOM     10  O   UNL     1      -2.987  -3.754  -2.645  1.00  0.00    -0.550 OA
ATOM     11  O   UNL     1      -4.883  -3.378  -3.877  1.00  0.00    -0.550 OA
ENDBRANCH   7   9
ENDBRANCH   6   7
ENDBRANCH   5   6
ENDBRANCH   4   5
ENDBRANCH   3   4
ENDBRANCH   2   3
ENDBRANCH   1   2
BRANCH   1  12
ATOM     12  C   UNL     1       1.123  -3.387  -8.375  1.00  0.00     0.000 C 
BRANCH  12  13
ATOM     13  C   UNL     1       2.404  -3.583  -7.549  1.00  0.00    -0.000 C 
BRANCH  13  14
ATOM     14  C   UNL     1       3.651  -3.302  -8.397  1.00  0.00    -0.000 C 
BRANCH  14  15
ATOM     15  C   UNL     1       4.865  -3.000  -7.508  1.00  0.00    -0.000 C 
BRANCH  15  16
ATOM     16  C   UNL     1       4.524  -2.060  -6.340  1.00  0.00    -0.000 C 
BRANCH  16  17
ATOM     17  C   UNL     1       5.686  -1.910  -5.342  1.00  0.00    -0.000 C 
BRANCH  17  18
ATOM     18  C   UNL     1       5.313  -1.041  -4.130  1.00  0.00    -0.003 C 
ATOM     19  C   UNL     1       5.011  -1.870  -2.881  1.00  0.00     0.004 C 
ENDBRANCH  17  18
ENDBRANCH  16  17
ENDBRANCH  15  16
ENDBRANCH  14  15
ENDBRANCH  13  14
ENDBRANCH  12  13
ENDBRANCH   1  12
TORSDOF 14
ENDMDL
MODEL 9
REMARK VINA RESULT:    -6.178      3.186      7.411
REMARK INTER + INTRA:         -12.839
REMARK INTER:                 -11.844
REMARK INTRA:                  -0.995
REMARK UNBOUND:                -1.606
REMARK SMILES CCCCCCCCCCCCCC[C@@H](C)C(=O)[O-]
REMARK SMILES IDX 9 1 10 2 11 3 12 4 13 5 14 6 15 7 16 8 17 9 18 10 19 11 8 12
REMARK SMILES IDX 7 13 6 14 5 15 4 16 3 17 2 18 1 19
REMARK H PARENT
REMARK Flexibility Score: inf
ROOT
ATOM      1  C   UNL     1      -3.205   2.986   7.581  1.00  0.00     0.000 C 
ENDROOT
BRANCH   1   2
ATOM      2  C   UNL     1      -2.070   2.336   8.392  1.00  0.00     0.000 C 
BRANCH   2   3
ATOM      3  C   UNL     1      -2.422   0.902   8.843  1.00  0.00     0.000 C 
BRANCH   3   4
ATOM      4  C   UNL     1      -1.420  -0.160   8.359  1.00  0.00     0.000 C 
BRANCH   4   5
ATOM      5  C   UNL     1      -2.093  -1.313   7.595  1.00  0.00     0.001 C 
BRANCH   5   6
ATOM      6  C   UNL     1      -3.257  -0.834   6.701  1.00  0.00     0.009 C 
BRANCH   6   7
ATOM      7  C   UNL     1      -3.583  -1.804   5.542  1.00  0.00     0.032 C 
ATOM      8  C   UNL     1      -4.179  -3.110   6.082  1.00  0.00     0.014 C 
BRANCH   7   9
ATOM      9  C   UNL     1      -4.526  -1.187   4.545  1.00  0.00     0.044 C 
ATOM     10  O   UNL     1      -4.334  -0.014   4.123  1.00  0.00    -0.550 OA
ATOM     11  O   UNL     1      -5.609  -1.918   4.072  1.00  0.00    -0.550 OA
ENDBRANCH   7   9
ENDBRANCH   6   7
ENDBRANCH   5   6
ENDBRANCH   4   5
ENDBRANCH   3   4
ENDBRANCH   2   3
ENDBRANCH   1   2
BRANCH   1  12
ATOM     12  C   UNL     1      -3.160   2.610   6.091  1.00  0.00     0.000 C 
BRANCH  12  13
ATOM     13  C   UNL     1      -3.011   3.833   5.174  1.00  0.00    -0.000 C 
BRANCH  13  14
ATOM     14  C   UNL     1      -4.263   4.717   5.232  1.00  0.00    -0.000 C 
BRANCH  14  15
ATOM     15  C   UNL     1      -4.056   6.019   4.445  1.00  0.00    -0.000 C 
BRANCH  15  16
ATOM     16  C   UNL     1      -5.375   6.757   4.164  1.00  0.00    -0.000 C 
BRANCH  16  17
ATOM     17  C   UNL     1      -6.508   5.804   3.743  1.00  0.00    -0.000 C 
BRANCH  17  18
ATOM     18  C   UNL     1      -6.915   5.988   2.273  1.00  0.00    -0.003 C 
ATOM     19  C   UNL     1      -6.034   7.000   1.538  1.00  0.00     0.004 C 
ENDBRANCH  17  18
ENDBRANCH  16  17
ENDBRANCH  15  16
ENDBRANCH  14  15
ENDBRANCH  13  14
ENDBRANCH  12  13
ENDBRANCH   1  12
TORSDOF 14
ENDMDL
