MODEL 1
REMARK VINA RESULT:    -7.883      0.000      0.000
REMARK INTER + INTRA:          -9.803
REMARK INTER:                  -9.495
REMARK INTRA:                  -0.307
REMARK UNBOUND:                -0.307
REMARK SMILES O=c1c(O)c(-c2ccc(O)c(O)c2)oc2cc(O)cc(O)c12
REMARK SMILES IDX 5 1 3 2 2 3 1 4 22 5 20 6 19 7 17 8 16 9 15 10 14 11 6 12
REMARK SMILES IDX 7 13 8 14 9 15 13 16 11 17 10 18 12 20 4 22 21 24 18 26
REMARK H PARENT 10 19 12 21 4 23 21 25 18 27
REMARK Flexibility Score: inf
ROOT
ATOM      1  C   UNL     1     -14.085 -29.883 -13.162  1.00  0.00     0.180 A 
ATOM      2  C   UNL     1     -13.345 -30.245 -12.023  1.00  0.00     0.208 A 
ATOM      3  C   UNL     1     -13.110 -31.605 -11.768  1.00  0.00     0.238 A 
ATOM      4  O   UNL     1     -12.511 -31.926 -10.708  1.00  0.00    -0.285 OA
ATOM      5  C   UNL     1     -13.570 -32.585 -12.682  1.00  0.00     0.111 A 
ATOM      6  C   UNL     1     -13.350 -33.989 -12.547  1.00  0.00     0.134 A 
ATOM      7  C   UNL     1     -13.944 -34.871 -13.458  1.00  0.00     0.093 A 
ATOM      8  C   UNL     1     -14.694 -34.400 -14.535  1.00  0.00     0.123 A 
ATOM      9  C   UNL     1     -14.869 -33.026 -14.708  1.00  0.00     0.094 A 
ATOM     10  C   UNL     1     -14.322 -32.122 -13.794  1.00  0.00     0.146 A 
ATOM     11  O   UNL     1     -14.531 -30.825 -13.984  1.00  0.00    -0.452 OA
ENDROOT
BRANCH   1  12
ATOM     12  C   UNL     1     -14.385 -28.471 -13.491  1.00  0.00     0.025 A 
ATOM     13  C   UNL     1     -15.467 -27.832 -12.865  1.00  0.00     0.016 A 
ATOM     14  C   UNL     1     -15.756 -26.494 -13.145  1.00  0.00     0.051 A 
ATOM     15  C   UNL     1     -14.963 -25.772 -14.040  1.00  0.00     0.157 A 
ATOM     16  C   UNL     1     -13.574 -27.735 -14.375  1.00  0.00     0.062 A 
ATOM     17  C   UNL     1     -13.863 -26.392 -14.655  1.00  0.00     0.158 A 
BRANCH  15  18
ATOM     18  O   UNL     1     -15.277 -24.437 -14.301  1.00  0.00    -0.504 OA
ATOM     19  H   UNL     1     -16.117 -24.170 -14.800  1.00  0.00     0.293 HD
ENDBRANCH  15  18
BRANCH  17  20
ATOM     20  O   UNL     1     -13.058 -25.672 -15.538  1.00  0.00    -0.504 OA
ATOM     21  H   UNL     1     -12.134 -25.997 -15.798  1.00  0.00     0.293 HD
ENDBRANCH  17  20
ENDBRANCH   1  12
BRANCH   2  22
ATOM     22  O   UNL     1     -12.834 -29.260 -11.174  1.00  0.00    -0.502 OA
ATOM     23  H   UNL     1     -13.297 -28.370 -11.033  1.00  0.00     0.293 HD
ENDBRANCH   2  22
BRANCH   6  24
ATOM     24  O   UNL     1     -12.544 -34.565 -11.561  1.00  0.00    -0.507 OA
ATOM     25  H   UNL     1     -11.980 -35.392 -11.685  1.00  0.00     0.293 HD
ENDBRANCH   6  24
BRANCH   8  26
ATOM     26  O   UNL     1     -15.254 -35.306 -15.432  1.00  0.00    -0.508 OA
ATOM     27  H   UNL     1     -15.766 -34.995 -16.250  1.00  0.00     0.293 HD
ENDBRANCH   8  26
TORSDOF 6
ENDMDL
MODEL 2
REMARK VINA RESULT:    -7.722      1.450      2.607
REMARK INTER + INTRA:          -9.609
REMARK INTER:                  -9.619
REMARK INTRA:                   0.010
REMARK UNBOUND:                -0.307
REMARK SMILES O=c1c(O)c(-c2ccc(O)c(O)c2)oc2cc(O)cc(O)c12
REMARK SMILES IDX 5 1 3 2 2 3 1 4 22 5 20 6 19 7 17 8 16 9 15 10 14 11 6 12
REMARK SMILES IDX 7 13 8 14 9 15 13 16 11 17 10 18 12 20 4 22 21 24 18 26
REMARK H PARENT 10 19 12 21 4 23 21 25 18 27
REMARK Flexibility Score: inf
ROOT
ATOM      1  C   UNL     1     -14.474 -30.125 -13.545  1.00  0.00     0.180 A 
ATOM      2  C   UNL     1     -15.556 -31.017 -13.647  1.00  0.00     0.208 A 
ATOM      3  C   UNL     1     -15.323 -32.391 -13.484  1.00  0.00     0.238 A 
ATOM      4  O   UNL     1     -16.281 -33.190 -13.651  1.00  0.00    -0.285 OA
ATOM      5  C   UNL     1     -14.022 -32.854 -13.165  1.00  0.00     0.111 A 
ATOM      6  C   UNL     1     -13.680 -34.221 -12.934  1.00  0.00     0.134 A 
ATOM      7  C   UNL     1     -12.339 -34.572 -12.732  1.00  0.00     0.093 A 
ATOM      8  C   UNL     1     -11.338 -33.602 -12.687  1.00  0.00     0.123 A 
ATOM      9  C   UNL     1     -11.670 -32.257 -12.857  1.00  0.00     0.094 A 
ATOM     10  C   UNL     1     -12.992 -31.878 -13.100  1.00  0.00     0.146 A 
ATOM     11  O   UNL     1     -13.260 -30.590 -13.277  1.00  0.00    -0.452 OA
ENDROOT
BRANCH   1  12
ATOM     12  C   UNL     1     -14.638 -28.664 -13.718  1.00  0.00     0.025 A 
ATOM     13  C   UNL     1     -15.608 -27.984 -12.966  1.00  0.00     0.016 A 
ATOM     14  C   UNL     1     -15.766 -26.602 -13.099  1.00  0.00     0.051 A 
ATOM     15  C   UNL     1     -14.949 -25.878 -13.970  1.00  0.00     0.157 A 
ATOM     16  C   UNL     1     -13.801 -27.929 -14.579  1.00  0.00     0.062 A 
ATOM     17  C   UNL     1     -13.957 -26.542 -14.711  1.00  0.00     0.158 A 
BRANCH  15  18
ATOM     18  O   UNL     1     -15.130 -24.499 -14.082  1.00  0.00    -0.504 OA
ATOM     19  H   UNL     1     -15.972 -24.039 -13.756  1.00  0.00     0.293 HD
ENDBRANCH  15  18
BRANCH  17  20
ATOM     20  O   UNL     1     -13.128 -25.823 -15.572  1.00  0.00    -0.504 OA
ATOM     21  H   UNL     1     -12.133 -25.741 -15.404  1.00  0.00     0.293 HD
ENDBRANCH  17  20
ENDBRANCH   1  12
BRANCH   2  22
ATOM     22  O   UNL     1     -16.845 -30.534 -13.886  1.00  0.00    -0.502 OA
ATOM     23  H   UNL     1     -17.657 -31.139 -13.906  1.00  0.00     0.293 HD
ENDBRANCH   2  22
BRANCH   6  24
ATOM     24  O   UNL     1     -14.611 -35.261 -12.869  1.00  0.00    -0.507 OA
ATOM     25  H   UNL     1     -15.421 -35.275 -12.268  1.00  0.00     0.293 HD
ENDBRANCH   6  24
BRANCH   8  26
ATOM     26  O   UNL     1     -10.018 -33.986 -12.464  1.00  0.00    -0.508 OA
ATOM     27  H   UNL     1      -9.790 -34.873 -12.030  1.00  0.00     0.293 HD
ENDBRANCH   8  26
TORSDOF 6
ENDMDL
MODEL 3
REMARK VINA RESULT:    -7.556      1.500      6.692
REMARK INTER + INTRA:          -9.410
REMARK INTER:                  -9.109
REMARK INTRA:                  -0.300
REMARK UNBOUND:                -0.307
REMARK SMILES O=c1c(O)c(-c2ccc(O)c(O)c2)oc2cc(O)cc(O)c12
REMARK SMILES IDX 5 1 3 2 2 3 1 4 22 5 20 6 19 7 17 8 16 9 15 10 14 11 6 12
REMARK SMILES IDX 7 13 8 14 9 15 13 16 11 17 10 18 12 20 4 22 21 24 18 26
REMARK H PARENT 10 19 12 21 4 23 21 25 18 27
REMARK Flexibility Score: inf
ROOT
ATOM      1  C   UNL     1     -13.437 -32.098 -13.278  1.00  0.00     0.180 A 
ATOM      2  C   UNL     1     -13.053 -32.197 -11.930  1.00  0.00     0.208 A 
ATOM      3  C   UNL     1     -12.978 -31.029 -11.155  1.00  0.00     0.238 A 
ATOM      4  O   UNL     1     -12.562 -31.115  -9.971  1.00  0.00    -0.285 OA
ATOM      5  C   UNL     1     -13.342 -29.782 -11.722  1.00  0.00     0.111 A 
ATOM      6  C   UNL     1     -13.347 -28.540 -11.017  1.00  0.00     0.134 A 
ATOM      7  C   UNL     1     -13.623 -27.355 -11.711  1.00  0.00     0.093 A 
ATOM      8  C   UNL     1     -13.957 -27.372 -13.064  1.00  0.00     0.123 A 
ATOM      9  C   UNL     1     -14.009 -28.586 -13.750  1.00  0.00     0.094 A 
ATOM     10  C   UNL     1     -13.700 -29.782 -13.096  1.00  0.00     0.146 A 
ATOM     11  O   UNL     1     -13.741 -30.912 -13.791  1.00  0.00    -0.452 OA
ENDROOT
BRANCH   1  12
ATOM     12  C   UNL     1     -13.525 -33.283 -14.162  1.00  0.00     0.025 A 
ATOM     13  C   UNL     1     -12.356 -33.801 -14.741  1.00  0.00     0.016 A 
ATOM     14  C   UNL     1     -12.413 -34.930 -15.561  1.00  0.00     0.051 A 
ATOM     15  C   UNL     1     -13.633 -35.567 -15.803  1.00  0.00     0.157 A 
ATOM     16  C   UNL     1     -14.749 -33.939 -14.389  1.00  0.00     0.062 A 
ATOM     17  C   UNL     1     -14.807 -35.073 -15.211  1.00  0.00     0.158 A 
BRANCH  15  18
ATOM     18  O   UNL     1     -13.659 -36.692 -16.628  1.00  0.00    -0.504 OA
ATOM     19  H   UNL     1     -14.124 -37.550 -16.354  1.00  0.00     0.293 HD
ENDBRANCH  15  18
BRANCH  17  20
ATOM     20  O   UNL     1     -16.026 -35.713 -15.436  1.00  0.00    -0.504 OA
ATOM     21  H   UNL     1     -16.258 -36.107 -16.340  1.00  0.00     0.293 HD
ENDBRANCH  17  20
ENDBRANCH   1  12
BRANCH   2  22
ATOM     22  O   UNL     1     -12.772 -33.445 -11.368  1.00  0.00    -0.502 OA
ATOM     23  H   UNL     1     -13.156 -34.307 -11.738  1.00  0.00     0.293 HD
ENDBRANCH   2  22
BRANCH   6  24
ATOM     24  O   UNL     1     -13.116 -28.417  -9.645  1.00  0.00    -0.507 OA
ATOM     25  H   UNL     1     -13.368 -27.617  -9.085  1.00  0.00     0.293 HD
ENDBRANCH   6  24
BRANCH   8  26
ATOM     26  O   UNL     1     -14.243 -26.175 -13.717  1.00  0.00    -0.508 OA
ATOM     27  H   UNL     1     -13.899 -25.984 -14.651  1.00  0.00     0.293 HD
ENDBRANCH   8  26
TORSDOF 6
ENDMDL
MODEL 4
REMARK VINA RESULT:    -7.464      2.341      6.929
REMARK INTER + INTRA:          -9.299
REMARK INTER:                  -8.996
REMARK INTRA:                  -0.303
REMARK UNBOUND:                -0.307
REMARK SMILES O=c1c(O)c(-c2ccc(O)c(O)c2)oc2cc(O)cc(O)c12
REMARK SMILES IDX 5 1 3 2 2 3 1 4 22 5 20 6 19 7 17 8 16 9 15 10 14 11 6 12
REMARK SMILES IDX 7 13 8 14 9 15 13 16 11 17 10 18 12 20 4 22 21 24 18 26
REMARK H PARENT 10 19 12 21 4 23 21 25 18 27
REMARK Flexibility Score: inf
ROOT
ATOM      1  C   UNL     1     -13.210 -31.571 -12.059  1.00  0.00     0.180 A 
ATOM      2  C   UNL     1     -14.415 -32.135 -12.511  1.00  0.00     0.208 A 
ATOM      3  C   UNL     1     -15.464 -31.284 -12.895  1.00  0.00     0.238 A 
ATOM      4  O   UNL     1     -16.565 -31.795 -13.228  1.00  0.00    -0.285 OA
ATOM      5  C   UNL     1     -15.276 -29.880 -12.875  1.00  0.00     0.111 A 
ATOM      6  C   UNL     1     -16.254 -28.924 -13.285  1.00  0.00     0.134 A 
ATOM      7  C   UNL     1     -15.995 -27.558 -13.120  1.00  0.00     0.093 A 
ATOM      8  C   UNL     1     -14.772 -27.110 -12.623  1.00  0.00     0.123 A 
ATOM      9  C   UNL     1     -13.788 -28.035 -12.271  1.00  0.00     0.094 A 
ATOM     10  C   UNL     1     -14.030 -29.406 -12.386  1.00  0.00     0.146 A 
ATOM     11  O   UNL     1     -13.075 -30.251 -12.020  1.00  0.00    -0.452 OA
ENDROOT
BRANCH   1  12
ATOM     12  C   UNL     1     -12.064 -32.402 -11.623  1.00  0.00     0.025 A 
ATOM     13  C   UNL     1     -11.885 -32.669 -10.257  1.00  0.00     0.016 A 
ATOM     14  C   UNL     1     -10.824 -33.468  -9.826  1.00  0.00     0.051 A 
ATOM     15  C   UNL     1      -9.936 -34.023 -10.751  1.00  0.00     0.157 A 
ATOM     16  C   UNL     1     -11.182 -32.980 -12.555  1.00  0.00     0.062 A 
ATOM     17  C   UNL     1     -10.117 -33.783 -12.123  1.00  0.00     0.158 A 
BRANCH  15  18
ATOM     18  O   UNL     1      -8.884 -34.816 -10.290  1.00  0.00    -0.504 OA
ATOM     19  H   UNL     1      -8.749 -35.769 -10.607  1.00  0.00     0.293 HD
ENDBRANCH  15  18
BRANCH  17  20
ATOM     20  O   UNL     1      -9.244 -34.347 -13.052  1.00  0.00    -0.504 OA
ATOM     21  H   UNL     1      -9.248 -35.341 -13.249  1.00  0.00     0.293 HD
ENDBRANCH  17  20
ENDBRANCH   1  12
BRANCH   2  22
ATOM     22  O   UNL     1     -14.554 -33.523 -12.596  1.00  0.00    -0.502 OA
ATOM     23  H   UNL     1     -15.195 -33.967 -13.242  1.00  0.00     0.293 HD
ENDBRANCH   2  22
BRANCH   6  24
ATOM     24  O   UNL     1     -17.476 -29.257 -13.877  1.00  0.00    -0.507 OA
ATOM     25  H   UNL     1     -17.971 -30.124 -13.733  1.00  0.00     0.293 HD
ENDBRANCH   6  24
BRANCH   8  26
ATOM     26  O   UNL     1     -14.542 -25.743 -12.491  1.00  0.00    -0.508 OA
ATOM     27  H   UNL     1     -14.273 -25.171 -13.283  1.00  0.00     0.293 HD
ENDBRANCH   8  26
TORSDOF 6
ENDMDL
MODEL 5
REMARK VINA RESULT:    -7.444      1.457      6.544
REMARK INTER + INTRA:          -9.275
REMARK INTER:                  -8.947
REMARK INTRA:                  -0.328
REMARK UNBOUND:                -0.307
REMARK SMILES O=c1c(O)c(-c2ccc(O)c(O)c2)oc2cc(O)cc(O)c12
REMARK SMILES IDX 5 1 3 2 2 3 1 4 22 5 20 6 19 7 17 8 16 9 15 10 14 11 6 12
REMARK SMILES IDX 7 13 8 14 9 15 13 16 11 17 10 18 12 20 4 22 21 24 18 26
REMARK H PARENT 10 19 12 21 4 23 21 25 18 27
REMARK Flexibility Score: inf
ROOT
ATOM      1  C   UNL     1     -14.102 -31.861 -12.882  1.00  0.00     0.180 A 
ATOM      2  C   UNL     1     -13.309 -31.809 -11.723  1.00  0.00     0.208 A 
ATOM      3  C   UNL     1     -13.058 -30.564 -11.126  1.00  0.00     0.238 A 
ATOM      4  O   UNL     1     -12.286 -30.516 -10.133  1.00  0.00    -0.285 OA
ATOM      5  C   UNL     1     -13.647 -29.393 -11.661  1.00  0.00     0.111 A 
ATOM      6  C   UNL     1     -13.498 -28.084 -11.111  1.00  0.00     0.134 A 
ATOM      7  C   UNL     1     -14.041 -26.984 -11.788  1.00  0.00     0.093 A 
ATOM      8  C   UNL     1     -14.782 -27.151 -12.957  1.00  0.00     0.123 A 
ATOM      9  C   UNL     1     -14.981 -28.432 -13.474  1.00  0.00     0.094 A 
ATOM     10  C   UNL     1     -14.419 -29.545 -12.844  1.00  0.00     0.146 A 
ATOM     11  O   UNL     1     -14.615 -30.743 -13.380  1.00  0.00    -0.452 OA
ENDROOT
BRANCH   1  12
ATOM     12  C   UNL     1     -14.400 -33.135 -13.577  1.00  0.00     0.025 A 
ATOM     13  C   UNL     1     -15.617 -33.788 -13.329  1.00  0.00     0.016 A 
ATOM     14  C   UNL     1     -15.927 -34.980 -13.989  1.00  0.00     0.051 A 
ATOM     15  C   UNL     1     -15.036 -35.527 -14.916  1.00  0.00     0.157 A 
ATOM     16  C   UNL     1     -13.514 -33.676 -14.527  1.00  0.00     0.062 A 
ATOM     17  C   UNL     1     -13.825 -34.871 -15.191  1.00  0.00     0.158 A 
BRANCH  15  18
ATOM     18  O   UNL     1     -15.374 -36.719 -15.559  1.00  0.00    -0.504 OA
ATOM     19  H   UNL     1     -16.218 -37.232 -15.333  1.00  0.00     0.293 HD
ENDBRANCH  15  18
BRANCH  17  20
ATOM     20  O   UNL     1     -12.938 -35.404 -16.126  1.00  0.00    -0.504 OA
ATOM     21  H   UNL     1     -12.819 -34.987 -17.041  1.00  0.00     0.293 HD
ENDBRANCH  17  20
ENDBRANCH   1  12
BRANCH   2  22
ATOM     22  O   UNL     1     -12.799 -32.985 -11.166  1.00  0.00    -0.502 OA
ATOM     23  H   UNL     1     -12.277 -32.994 -10.298  1.00  0.00     0.293 HD
ENDBRANCH   2  22
BRANCH   6  24
ATOM     24  O   UNL     1     -12.853 -27.811  -9.901  1.00  0.00    -0.507 OA
ATOM     25  H   UNL     1     -12.933 -28.370  -9.065  1.00  0.00     0.293 HD
ENDBRANCH   6  24
BRANCH   8  26
ATOM     26  O   UNL     1     -15.323 -26.036 -13.593  1.00  0.00    -0.508 OA
ATOM     27  H   UNL     1     -15.963 -26.130 -14.374  1.00  0.00     0.293 HD
ENDBRANCH   8  26
TORSDOF 6
ENDMDL
MODEL 6
REMARK VINA RESULT:    -7.365      1.496      3.203
REMARK INTER + INTRA:          -9.180
REMARK INTER:                  -8.901
REMARK INTRA:                  -0.279
REMARK UNBOUND:                -0.307
REMARK SMILES O=c1c(O)c(-c2ccc(O)c(O)c2)oc2cc(O)cc(O)c12
REMARK SMILES IDX 5 1 3 2 2 3 1 4 22 5 20 6 19 7 17 8 16 9 15 10 14 11 6 12
REMARK SMILES IDX 7 13 8 14 9 15 13 16 11 17 10 18 12 20 4 22 21 24 18 26
REMARK H PARENT 10 19 12 21 4 23 21 25 18 27
REMARK Flexibility Score: inf
ROOT
ATOM      1  C   UNL     1     -13.511 -30.088 -13.054  1.00  0.00     0.180 A 
ATOM      2  C   UNL     1     -13.704 -31.156 -13.948  1.00  0.00     0.208 A 
ATOM      3  C   UNL     1     -13.210 -32.425 -13.609  1.00  0.00     0.238 A 
ATOM      4  O   UNL     1     -13.321 -33.359 -14.445  1.00  0.00    -0.285 OA
ATOM      5  C   UNL     1     -12.577 -32.625 -12.357  1.00  0.00     0.111 A 
ATOM      6  C   UNL     1     -12.078 -33.878 -11.890  1.00  0.00     0.134 A 
ATOM      7  C   UNL     1     -11.375 -33.934 -10.680  1.00  0.00     0.093 A 
ATOM      8  C   UNL     1     -11.209 -32.797  -9.889  1.00  0.00     0.123 A 
ATOM      9  C   UNL     1     -11.742 -31.578 -10.310  1.00  0.00     0.094 A 
ATOM     10  C   UNL     1     -12.414 -31.482 -11.530  1.00  0.00     0.146 A 
ATOM     11  O   UNL     1     -12.886 -30.298 -11.903  1.00  0.00    -0.452 OA
ENDROOT
BRANCH   1  12
ATOM     12  C   UNL     1     -13.991 -28.718 -13.347  1.00  0.00     0.025 A 
ATOM     13  C   UNL     1     -15.101 -28.212 -12.653  1.00  0.00     0.016 A 
ATOM     14  C   UNL     1     -15.558 -26.916 -12.898  1.00  0.00     0.051 A 
ATOM     15  C   UNL     1     -14.906 -26.100 -13.827  1.00  0.00     0.157 A 
ATOM     16  C   UNL     1     -13.323 -27.888 -14.266  1.00  0.00     0.062 A 
ATOM     17  C   UNL     1     -13.780 -26.586 -14.512  1.00  0.00     0.158 A 
BRANCH  15  18
ATOM     18  O   UNL     1     -15.387 -24.810 -14.052  1.00  0.00    -0.504 OA
ATOM     19  H   UNL     1     -16.224 -24.461 -13.601  1.00  0.00     0.293 HD
ENDBRANCH  15  18
BRANCH  17  20
ATOM     20  O   UNL     1     -13.115 -25.772 -15.429  1.00  0.00    -0.504 OA
ATOM     21  H   UNL     1     -12.151 -25.942 -15.688  1.00  0.00     0.293 HD
ENDBRANCH  17  20
ENDBRANCH   1  12
BRANCH   2  22
ATOM     22  O   UNL     1     -14.399 -30.956 -15.143  1.00  0.00    -0.502 OA
ATOM     23  H   UNL     1     -15.375 -31.203 -15.254  1.00  0.00     0.293 HD
ENDBRANCH   2  22
BRANCH   6  24
ATOM     24  O   UNL     1     -12.263 -35.093 -12.556  1.00  0.00    -0.507 OA
ATOM     25  H   UNL     1     -12.417 -35.982 -12.105  1.00  0.00     0.293 HD
ENDBRANCH   6  24
BRANCH   8  26
ATOM     26  O   UNL     1     -10.521 -32.894  -8.682  1.00  0.00    -0.508 OA
ATOM     27  H   UNL     1     -10.569 -33.728  -8.109  1.00  0.00     0.293 HD
ENDBRANCH   8  26
TORSDOF 6
ENDMDL
MODEL 7
REMARK VINA RESULT:    -7.293      2.285      7.085
REMARK INTER + INTRA:          -9.093
REMARK INTER:                  -9.057
REMARK INTRA:                  -0.036
REMARK UNBOUND:                -0.307
REMARK SMILES O=c1c(O)c(-c2ccc(O)c(O)c2)oc2cc(O)cc(O)c12
REMARK SMILES IDX 5 1 3 2 2 3 1 4 22 5 20 6 19 7 17 8 16 9 15 10 14 11 6 12
REMARK SMILES IDX 7 13 8 14 9 15 13 16 11 17 10 18 12 20 4 22 21 24 18 26
REMARK H PARENT 10 19 12 21 4 23 21 25 18 27
REMARK Flexibility Score: inf
ROOT
ATOM      1  C   UNL     1     -13.408 -31.688 -11.884  1.00  0.00     0.180 A 
ATOM      2  C   UNL     1     -14.610 -32.205 -12.397  1.00  0.00     0.208 A 
ATOM      3  C   UNL     1     -15.599 -31.314 -12.842  1.00  0.00     0.238 A 
ATOM      4  O   UNL     1     -16.701 -31.781 -13.230  1.00  0.00    -0.285 OA
ATOM      5  C   UNL     1     -15.353 -29.919 -12.821  1.00  0.00     0.111 A 
ATOM      6  C   UNL     1     -16.267 -28.926 -13.288  1.00  0.00     0.134 A 
ATOM      7  C   UNL     1     -15.959 -27.570 -13.118  1.00  0.00     0.093 A 
ATOM      8  C   UNL     1     -14.746 -27.170 -12.559  1.00  0.00     0.123 A 
ATOM      9  C   UNL     1     -13.822 -28.133 -12.149  1.00  0.00     0.094 A 
ATOM     10  C   UNL     1     -14.116 -29.493 -12.269  1.00  0.00     0.146 A 
ATOM     11  O   UNL     1     -13.218 -30.375 -11.846  1.00  0.00    -0.452 OA
ENDROOT
BRANCH   1  12
ATOM     12  C   UNL     1     -12.323 -32.563 -11.383  1.00  0.00     0.025 A 
ATOM     13  C   UNL     1     -11.782 -33.545 -12.228  1.00  0.00     0.016 A 
ATOM     14  C   UNL     1     -10.745 -34.368 -11.783  1.00  0.00     0.051 A 
ATOM     15  C   UNL     1     -10.222 -34.213 -10.496  1.00  0.00     0.157 A 
ATOM     16  C   UNL     1     -11.781 -32.394 -10.095  1.00  0.00     0.062 A 
ATOM     17  C   UNL     1     -10.738 -33.218  -9.648  1.00  0.00     0.158 A 
BRANCH  15  18
ATOM     18  O   UNL     1      -9.187 -35.051 -10.079  1.00  0.00    -0.504 OA
ATOM     19  H   UNL     1      -8.692 -34.901  -9.207  1.00  0.00     0.293 HD
ENDBRANCH  15  18
BRANCH  17  20
ATOM     20  O   UNL     1     -10.210 -33.049  -8.369  1.00  0.00    -0.504 OA
ATOM     21  H   UNL     1      -9.902 -33.838  -7.814  1.00  0.00     0.293 HD
ENDBRANCH  17  20
ENDBRANCH   1  12
BRANCH   2  22
ATOM     22  O   UNL     1     -14.802 -33.586 -12.481  1.00  0.00    -0.502 OA
ATOM     23  H   UNL     1     -15.706 -34.019 -12.334  1.00  0.00     0.293 HD
ENDBRANCH   2  22
BRANCH   6  24
ATOM     24  O   UNL     1     -17.468 -29.213 -13.943  1.00  0.00    -0.507 OA
ATOM     25  H   UNL     1     -17.703 -28.912 -14.877  1.00  0.00     0.293 HD
ENDBRANCH   6  24
BRANCH   8  26
ATOM     26  O   UNL     1     -14.466 -25.813 -12.423  1.00  0.00    -0.508 OA
ATOM     27  H   UNL     1     -13.513 -25.468 -12.396  1.00  0.00     0.293 HD
ENDBRANCH   8  26
TORSDOF 6
ENDMDL
MODEL 8
REMARK VINA RESULT:    -7.099      2.316      6.843
REMARK INTER + INTRA:          -8.859
REMARK INTER:                  -8.542
REMARK INTRA:                  -0.317
REMARK UNBOUND:                -0.307
REMARK SMILES O=c1c(O)c(-c2ccc(O)c(O)c2)oc2cc(O)cc(O)c12
REMARK SMILES IDX 5 1 3 2 2 3 1 4 22 5 20 6 19 7 17 8 16 9 15 10 14 11 6 12
REMARK SMILES IDX 7 13 8 14 9 15 13 16 11 17 10 18 12 20 4 22 21 24 18 26
REMARK H PARENT 10 19 12 21 4 23 21 25 18 27
REMARK Flexibility Score: inf
ROOT
ATOM      1  C   UNL     1     -13.359 -31.981 -13.278  1.00  0.00     0.180 A 
ATOM      2  C   UNL     1     -13.677 -30.695 -13.747  1.00  0.00     0.208 A 
ATOM      3  C   UNL     1     -13.573 -29.605 -12.868  1.00  0.00     0.238 A 
ATOM      4  O   UNL     1     -13.931 -28.468 -13.271  1.00  0.00    -0.285 OA
ATOM      5  C   UNL     1     -13.098 -29.805 -11.548  1.00  0.00     0.111 A 
ATOM      6  C   UNL     1     -12.910 -28.767 -10.586  1.00  0.00     0.134 A 
ATOM      7  C   UNL     1     -12.537 -29.098  -9.278  1.00  0.00     0.093 A 
ATOM      8  C   UNL     1     -12.282 -30.420  -8.913  1.00  0.00     0.123 A 
ATOM      9  C   UNL     1     -12.409 -31.437  -9.860  1.00  0.00     0.094 A 
ATOM     10  C   UNL     1     -12.818 -31.143 -11.163  1.00  0.00     0.146 A 
ATOM     11  O   UNL     1     -12.947 -32.143 -12.027  1.00  0.00    -0.452 OA
ENDROOT
BRANCH   1  12
ATOM     12  C   UNL     1     -13.457 -33.181 -14.141  1.00  0.00     0.025 A 
ATOM     13  C   UNL     1     -12.293 -33.716 -14.715  1.00  0.00     0.016 A 
ATOM     14  C   UNL     1     -12.360 -34.859 -15.515  1.00  0.00     0.051 A 
ATOM     15  C   UNL     1     -13.585 -35.493 -15.740  1.00  0.00     0.157 A 
ATOM     16  C   UNL     1     -14.686 -33.834 -14.350  1.00  0.00     0.062 A 
ATOM     17  C   UNL     1     -14.754 -34.983 -15.151  1.00  0.00     0.158 A 
BRANCH  15  18
ATOM     18  O   UNL     1     -13.621 -36.633 -16.544  1.00  0.00    -0.504 OA
ATOM     19  H   UNL     1     -12.782 -37.034 -16.946  1.00  0.00     0.293 HD
ENDBRANCH  15  18
BRANCH  17  20
ATOM     20  O   UNL     1     -15.977 -35.620 -15.360  1.00  0.00    -0.504 OA
ATOM     21  H   UNL     1     -16.840 -35.246 -14.985  1.00  0.00     0.293 HD
ENDBRANCH  17  20
ENDBRANCH   1  12
BRANCH   2  22
ATOM     22  O   UNL     1     -14.070 -30.507 -15.074  1.00  0.00    -0.502 OA
ATOM     23  H   UNL     1     -13.532 -30.861 -15.856  1.00  0.00     0.293 HD
ENDBRANCH   2  22
BRANCH   6  24
ATOM     24  O   UNL     1     -13.051 -27.405 -10.866  1.00  0.00    -0.507 OA
ATOM     25  H   UNL     1     -13.698 -26.784 -10.404  1.00  0.00     0.293 HD
ENDBRANCH   6  24
BRANCH   8  26
ATOM     26  O   UNL     1     -11.894 -30.710  -7.607  1.00  0.00    -0.508 OA
ATOM     27  H   UNL     1     -12.575 -30.917  -6.885  1.00  0.00     0.293 HD
ENDBRANCH   8  26
TORSDOF 6
ENDMDL
MODEL 9
REMARK VINA RESULT:    -7.084      2.797      6.690
REMARK INTER + INTRA:          -8.841
REMARK INTER:                  -8.510
REMARK INTRA:                  -0.331
REMARK UNBOUND:                -0.307
REMARK SMILES O=c1c(O)c(-c2ccc(O)c(O)c2)oc2cc(O)cc(O)c12
REMARK SMILES IDX 5 1 3 2 2 3 1 4 22 5 20 6 19 7 17 8 16 9 15 10 14 11 6 12
REMARK SMILES IDX 7 13 8 14 9 15 13 16 11 17 10 18 12 20 4 22 21 24 18 26
REMARK H PARENT 10 19 12 21 4 23 21 25 18 27
REMARK Flexibility Score: inf
ROOT
ATOM      1  C   UNL     1     -12.372 -30.858 -11.704  1.00  0.00     0.180 A 
ATOM      2  C   UNL     1     -11.833 -29.594 -11.407  1.00  0.00     0.208 A 
ATOM      3  C   UNL     1     -12.602 -28.449 -11.667  1.00  0.00     0.238 A 
ATOM      4  O   UNL     1     -12.086 -27.318 -11.469  1.00  0.00    -0.285 OA
ATOM      5  C   UNL     1     -13.920 -28.582 -12.169  1.00  0.00     0.111 A 
ATOM      6  C   UNL     1     -14.805 -27.492 -12.428  1.00  0.00     0.134 A 
ATOM      7  C   UNL     1     -16.048 -27.739 -13.025  1.00  0.00     0.093 A 
ATOM      8  C   UNL     1     -16.465 -29.037 -13.312  1.00  0.00     0.123 A 
ATOM      9  C   UNL     1     -15.630 -30.115 -13.012  1.00  0.00     0.094 A 
ATOM     10  C   UNL     1     -14.369 -29.899 -12.453  1.00  0.00     0.146 A 
ATOM     11  O   UNL     1     -13.598 -30.951 -12.204  1.00  0.00    -0.452 OA
ENDROOT
BRANCH   1  12
ATOM     12  C   UNL     1     -11.617 -32.111 -11.471  1.00  0.00     0.025 A 
ATOM     13  C   UNL     1     -11.770 -32.792 -10.253  1.00  0.00     0.016 A 
ATOM     14  C   UNL     1     -11.084 -33.986 -10.020  1.00  0.00     0.051 A 
ATOM     15  C   UNL     1     -10.250 -34.526 -11.003  1.00  0.00     0.157 A 
ATOM     16  C   UNL     1     -10.794 -32.667 -12.467  1.00  0.00     0.062 A 
ATOM     17  C   UNL     1     -10.107 -33.867 -12.235  1.00  0.00     0.158 A 
BRANCH  15  18
ATOM     18  O   UNL     1      -9.577 -35.720 -10.740  1.00  0.00    -0.504 OA
ATOM     19  H   UNL     1     -10.062 -36.606 -10.667  1.00  0.00     0.293 HD
ENDBRANCH  15  18
BRANCH  17  20
ATOM     20  O   UNL     1      -9.288 -34.408 -13.226  1.00  0.00    -0.504 OA
ATOM     21  H   UNL     1      -9.064 -35.396 -13.247  1.00  0.00     0.293 HD
ENDBRANCH  17  20
ENDBRANCH   1  12
BRANCH   2  22
ATOM     22  O   UNL     1     -10.561 -29.487 -10.841  1.00  0.00    -0.502 OA
ATOM     23  H   UNL     1      -9.779 -29.072 -11.334  1.00  0.00     0.293 HD
ENDBRANCH   2  22
BRANCH   6  24
ATOM     24  O   UNL     1     -14.527 -26.162 -12.099  1.00  0.00    -0.507 OA
ATOM     25  H   UNL     1     -13.603 -25.780 -11.967  1.00  0.00     0.293 HD
ENDBRANCH   6  24
BRANCH   8  26
ATOM     26  O   UNL     1     -17.716 -29.246 -13.888  1.00  0.00    -0.508 OA
ATOM     27  H   UNL     1     -18.039 -28.688 -14.671  1.00  0.00     0.293 HD
ENDBRANCH   8  26
TORSDOF 6
ENDMDL
