MODEL 1
REMARK VINA RESULT:    -4.173      0.000      0.000
REMARK INTER + INTRA:          -6.657
REMARK INTER:                  -6.125
REMARK INTRA:                  -0.532
REMARK UNBOUND:                -0.532
REMARK SMILES O=C([O-])CCCCCCCC(=O)[O-]
REMARK SMILES IDX 7 1 6 2 5 3 4 4 2 5 1 6 3 7 8 8 9 9 10 10 11 11 12 12 13 13
REMARK H PARENT
REMARK Flexibility Score: inf
ROOT
ATOM      1  C   UNL     1       3.393   3.736   6.391  1.00  0.00     0.000 C 
ENDROOT
BRANCH   1   2
ATOM      2  C   UNL     1       4.397   2.592   6.596  1.00  0.00     0.000 C 
BRANCH   2   3
ATOM      3  C   UNL     1       3.881   1.589   7.635  1.00  0.00     0.006 C 
BRANCH   3   4
ATOM      4  C   UNL     1       3.906   0.161   7.082  1.00  0.00     0.053 C 
BRANCH   4   5
ATOM      5  C   UNL     1       2.532  -0.272   6.686  1.00  0.00     0.041 C 
ATOM      6  O   UNL     1       1.547  -0.012   7.427  1.00  0.00    -0.550 OA
ATOM      7  O   UNL     1       2.342  -1.007   5.522  1.00  0.00    -0.550 OA
ENDBRANCH   4   5
ENDBRANCH   3   4
ENDBRANCH   2   3
ENDBRANCH   1   2
BRANCH   1   8
ATOM      8  C   UNL     1       2.045   3.473   7.080  1.00  0.00     0.000 C 
BRANCH   8   9
ATOM      9  C   UNL     1       0.844   3.845   6.193  1.00  0.00     0.006 C 
BRANCH   9  10
ATOM     10  C   UNL     1      -0.302   2.831   6.316  1.00  0.00     0.053 C 
BRANCH  10  11
ATOM     11  C   UNL     1      -1.264   2.935   5.171  1.00  0.00     0.041 C 
ATOM     12  O   UNL     1      -1.005   3.684   4.193  1.00  0.00    -0.550 OA
ATOM     13  O   UNL     1      -2.430   2.180   5.173  1.00  0.00    -0.550 OA
ENDBRANCH  10  11
ENDBRANCH   9  10
ENDBRANCH   8   9
ENDBRANCH   1   8
TORSDOF 8
ENDMDL
MODEL 2
REMARK VINA RESULT:    -4.172      1.760      2.482
REMARK INTER + INTRA:          -6.655
REMARK INTER:                  -6.039
REMARK INTRA:                  -0.617
REMARK UNBOUND:                -0.532
REMARK SMILES O=C([O-])CCCCCCCC(=O)[O-]
REMARK SMILES IDX 7 1 6 2 5 3 4 4 2 5 1 6 3 7 8 8 9 9 10 10 11 11 12 12 13 13
REMARK H PARENT
REMARK Flexibility Score: inf
ROOT
ATOM      1  C   UNL     1       0.389   4.565   6.574  1.00  0.00     0.000 C 
ENDROOT
BRANCH   1   2
ATOM      2  C   UNL     1       1.800   3.992   6.373  1.00  0.00     0.000 C 
BRANCH   2   3
ATOM      3  C   UNL     1       2.062   2.830   7.339  1.00  0.00     0.006 C 
BRANCH   3   4
ATOM      4  C   UNL     1       1.585   1.501   6.746  1.00  0.00     0.053 C 
BRANCH   4   5
ATOM      5  C   UNL     1       2.750   0.669   6.319  1.00  0.00     0.041 C 
ATOM      6  O   UNL     1       3.914   1.152   6.332  1.00  0.00    -0.550 OA
ATOM      7  O   UNL     1       2.549  -0.626   5.857  1.00  0.00    -0.550 OA
ENDBRANCH   4   5
ENDBRANCH   3   4
ENDBRANCH   2   3
ENDBRANCH   1   2
BRANCH   1   8
ATOM      8  C   UNL     1      -0.379   4.728   5.252  1.00  0.00     0.000 C 
BRANCH   8   9
ATOM      9  C   UNL     1      -1.078   3.431   4.811  1.00  0.00     0.006 C 
BRANCH   9  10
ATOM     10  C   UNL     1      -1.747   2.705   5.987  1.00  0.00     0.053 C 
BRANCH  10  11
ATOM     11  C   UNL     1      -3.194   3.073   6.118  1.00  0.00     0.041 C 
ATOM     12  O   UNL     1      -3.532   4.089   6.780  1.00  0.00    -0.550 OA
ATOM     13  O   UNL     1      -4.166   2.308   5.484  1.00  0.00    -0.550 OA
ENDBRANCH  10  11
ENDBRANCH   9  10
ENDBRANCH   8   9
ENDBRANCH   1   8
TORSDOF 8
ENDMDL
MODEL 3
REMARK VINA RESULT:    -4.154      1.716      5.100
REMARK INTER + INTRA:          -6.628
REMARK INTER:                  -6.006
REMARK INTRA:                  -0.622
REMARK UNBOUND:                -0.532
REMARK SMILES O=C([O-])CCCCCCCC(=O)[O-]
REMARK SMILES IDX 7 1 6 2 5 3 4 4 2 5 1 6 3 7 8 8 9 9 10 10 11 11 12 12 13 13
REMARK H PARENT
REMARK Flexibility Score: inf
ROOT
ATOM      1  C   UNL     1       0.208   4.829   6.970  1.00  0.00     0.000 C 
ENDROOT
BRANCH   1   2
ATOM      2  C   UNL     1       0.249   4.618   5.449  1.00  0.00     0.000 C 
BRANCH   2   3
ATOM      3  C   UNL     1      -1.137   4.243   4.910  1.00  0.00     0.006 C 
BRANCH   3   4
ATOM      4  C   UNL     1      -1.488   2.792   5.254  1.00  0.00     0.053 C 
BRANCH   4   5
ATOM      5  C   UNL     1      -2.832   2.717   5.903  1.00  0.00     0.041 C 
ATOM      6  O   UNL     1      -3.675   1.862   5.518  1.00  0.00    -0.550 OA
ATOM      7  O   UNL     1      -3.175   3.621   6.900  1.00  0.00    -0.550 OA
ENDBRANCH   4   5
ENDBRANCH   3   4
ENDBRANCH   2   3
ENDBRANCH   1   2
BRANCH   1   8
ATOM      8  C   UNL     1       1.158   3.887   7.725  1.00  0.00     0.000 C 
BRANCH   8   9
ATOM      9  C   UNL     1       1.946   2.960   6.782  1.00  0.00     0.006 C 
BRANCH   9  10
ATOM     10  C   UNL     1       1.667   1.477   7.063  1.00  0.00     0.053 C 
BRANCH  10  11
ATOM     11  C   UNL     1       2.653   0.584   6.374  1.00  0.00     0.041 C 
ATOM     12  O   UNL     1       3.874   0.890   6.347  1.00  0.00    -0.550 OA
ATOM     13  O   UNL     1       2.227  -0.602   5.788  1.00  0.00    -0.550 OA
ENDBRANCH  10  11
ENDBRANCH   9  10
ENDBRANCH   8   9
ENDBRANCH   1   8
TORSDOF 8
ENDMDL
MODEL 4
REMARK VINA RESULT:    -4.150      1.990      2.810
REMARK INTER + INTRA:          -6.622
REMARK INTER:                  -6.078
REMARK INTRA:                  -0.545
REMARK UNBOUND:                -0.532
REMARK SMILES O=C([O-])CCCCCCCC(=O)[O-]
REMARK SMILES IDX 7 1 6 2 5 3 4 4 2 5 1 6 3 7 8 8 9 9 10 10 11 11 12 12 13 13
REMARK H PARENT
REMARK Flexibility Score: inf
ROOT
ATOM      1  C   UNL     1       1.843   0.078   6.360  1.00  0.00     0.000 C 
ENDROOT
BRANCH   1   2
ATOM      2  C   UNL     1       3.111  -0.496   7.008  1.00  0.00     0.000 C 
BRANCH   2   3
ATOM      3  C   UNL     1       3.812   0.560   7.871  1.00  0.00     0.006 C 
BRANCH   3   4
ATOM      4  C   UNL     1       4.894   1.294   7.073  1.00  0.00     0.053 C 
BRANCH   4   5
ATOM      5  C   UNL     1       4.453   2.684   6.747  1.00  0.00     0.041 C 
ATOM      6  O   UNL     1       3.984   3.429   7.649  1.00  0.00    -0.550 OA
ATOM      7  O   UNL     1       4.513   3.145   5.438  1.00  0.00    -0.550 OA
ENDBRANCH   4   5
ENDBRANCH   3   4
ENDBRANCH   2   3
ENDBRANCH   1   2
BRANCH   1   8
ATOM      8  C   UNL     1       1.165   1.150   7.229  1.00  0.00     0.000 C 
BRANCH   8   9
ATOM      9  C   UNL     1       0.689   2.362   6.410  1.00  0.00     0.006 C 
BRANCH   9  10
ATOM     10  C   UNL     1      -0.782   2.704   6.685  1.00  0.00     0.053 C 
BRANCH  10  11
ATOM     11  C   UNL     1      -1.615   2.629   5.441  1.00  0.00     0.041 C 
ATOM     12  O   UNL     1      -2.729   2.043   5.460  1.00  0.00    -0.550 OA
ATOM     13  O   UNL     1      -1.173   3.233   4.271  1.00  0.00    -0.550 OA
ENDBRANCH  10  11
ENDBRANCH   9  10
ENDBRANCH   8   9
ENDBRANCH   1   8
TORSDOF 8
ENDMDL
MODEL 5
REMARK VINA RESULT:    -4.117      0.771      4.809
REMARK INTER + INTRA:          -6.574
REMARK INTER:                  -6.186
REMARK INTRA:                  -0.388
REMARK UNBOUND:                -0.532
REMARK SMILES O=C([O-])CCCCCCCC(=O)[O-]
REMARK SMILES IDX 7 1 6 2 5 3 4 4 2 5 1 6 3 7 8 8 9 9 10 10 11 11 12 12 13 13
REMARK H PARENT
REMARK Flexibility Score: inf
ROOT
ATOM      1  C   UNL     1       2.602   3.781   6.744  1.00  0.00     0.000 C 
ENDROOT
BRANCH   1   2
ATOM      2  C   UNL     1       1.106   3.940   6.432  1.00  0.00     0.000 C 
BRANCH   2   3
ATOM      3  C   UNL     1       0.384   2.589   6.509  1.00  0.00     0.006 C 
BRANCH   3   4
ATOM      4  C   UNL     1      -1.116   2.779   6.756  1.00  0.00     0.053 C 
BRANCH   4   5
ATOM      5  C   UNL     1      -1.875   2.686   5.472  1.00  0.00     0.041 C 
ATOM      6  O   UNL     1      -3.043   2.213   5.459  1.00  0.00    -0.550 OA
ATOM      7  O   UNL     1      -1.278   3.076   4.280  1.00  0.00    -0.550 OA
ENDBRANCH   4   5
ENDBRANCH   3   4
ENDBRANCH   2   3
ENDBRANCH   1   2
BRANCH   1   8
ATOM      8  C   UNL     1       2.911   2.494   7.525  1.00  0.00     0.000 C 
BRANCH   8   9
ATOM      9  C   UNL     1       3.858   1.552   6.762  1.00  0.00     0.006 C 
BRANCH   9  10
ATOM     10  C   UNL     1       3.855   0.133   7.346  1.00  0.00     0.053 C 
BRANCH  10  11
ATOM     11  C   UNL     1       2.644  -0.643   6.924  1.00  0.00     0.041 C 
ATOM     12  O   UNL     1       1.843  -1.086   7.788  1.00  0.00    -0.550 OA
ATOM     13  O   UNL     1       2.385  -0.848   5.575  1.00  0.00    -0.550 OA
ENDBRANCH  10  11
ENDBRANCH   9  10
ENDBRANCH   8   9
ENDBRANCH   1   8
TORSDOF 8
ENDMDL
MODEL 6
REMARK VINA RESULT:    -4.056     13.167     14.456
REMARK INTER + INTRA:          -6.484
REMARK INTER:                  -5.722
REMARK INTRA:                  -0.762
REMARK UNBOUND:                -0.532
REMARK SMILES O=C([O-])CCCCCCCC(=O)[O-]
REMARK SMILES IDX 7 1 6 2 5 3 4 4 2 5 1 6 3 7 8 8 9 9 10 10 11 11 12 12 13 13
REMARK H PARENT
REMARK Flexibility Score: inf
ROOT
ATOM      1  C   UNL     1      -5.396  -2.118  -7.616  1.00  0.00     0.000 C 
ENDROOT
BRANCH   1   2
ATOM      2  C   UNL     1      -6.046  -3.089  -6.617  1.00  0.00     0.000 C 
BRANCH   2   3
ATOM      3  C   UNL     1      -5.000  -4.032  -6.011  1.00  0.00     0.006 C 
BRANCH   3   4
ATOM      4  C   UNL     1      -4.858  -3.801  -4.504  1.00  0.00     0.053 C 
BRANCH   4   5
ATOM      5  C   UNL     1      -4.174  -4.962  -3.857  1.00  0.00     0.041 C 
ATOM      6  O   UNL     1      -4.801  -5.697  -3.048  1.00  0.00    -0.550 OA
ATOM      7  O   UNL     1      -2.830  -5.206  -4.107  1.00  0.00    -0.550 OA
ENDBRANCH   4   5
ENDBRANCH   3   4
ENDBRANCH   2   3
ENDBRANCH   1   2
BRANCH   1   8
ATOM      8  C   UNL     1      -5.399  -0.664  -7.117  1.00  0.00     0.000 C 
BRANCH   8   9
ATOM      9  C   UNL     1      -3.980  -0.096  -6.941  1.00  0.00     0.006 C 
BRANCH   9  10
ATOM     10  C   UNL     1      -3.315  -0.591  -5.649  1.00  0.00     0.053 C 
BRANCH  10  11
ATOM     11  C   UNL     1      -2.184  -1.534  -5.929  1.00  0.00     0.041 C 
ATOM     12  O   UNL     1      -1.799  -1.727  -7.112  1.00  0.00    -0.550 OA
ATOM     13  O   UNL     1      -1.537  -2.174  -4.879  1.00  0.00    -0.550 OA
ENDBRANCH  10  11
ENDBRANCH   9  10
ENDBRANCH   8   9
ENDBRANCH   1   8
TORSDOF 8
ENDMDL
MODEL 7
REMARK VINA RESULT:    -3.964     12.644     13.352
REMARK INTER + INTRA:          -6.350
REMARK INTER:                  -5.736
REMARK INTRA:                  -0.615
REMARK UNBOUND:                -0.532
REMARK SMILES O=C([O-])CCCCCCCC(=O)[O-]
REMARK SMILES IDX 7 1 6 2 5 3 4 4 2 5 1 6 3 7 8 8 9 9 10 10 11 11 12 12 13 13
REMARK H PARENT
REMARK Flexibility Score: inf
ROOT
ATOM      1  C   UNL     1      -0.109  -3.748  -4.644  1.00  0.00     0.000 C 
ENDROOT
BRANCH   1   2
ATOM      2  C   UNL     1      -1.492  -3.904  -3.992  1.00  0.00     0.000 C 
BRANCH   2   3
ATOM      3  C   UNL     1      -1.996  -5.347  -4.117  1.00  0.00     0.006 C 
BRANCH   3   4
ATOM      4  C   UNL     1      -3.373  -5.393  -4.788  1.00  0.00     0.053 C 
BRANCH   4   5
ATOM      5  C   UNL     1      -4.457  -5.233  -3.771  1.00  0.00     0.041 C 
ATOM      6  O   UNL     1      -5.084  -4.144  -3.679  1.00  0.00    -0.550 OA
ATOM      7  O   UNL     1      -4.744  -6.268  -2.891  1.00  0.00    -0.550 OA
ENDBRANCH   4   5
ENDBRANCH   3   4
ENDBRANCH   2   3
ENDBRANCH   1   2
BRANCH   1   8
ATOM      8  C   UNL     1      -0.053  -2.581  -5.642  1.00  0.00     0.000 C 
BRANCH   8   9
ATOM      9  C   UNL     1      -1.331  -2.467  -6.492  1.00  0.00     0.006 C 
BRANCH   9  10
ATOM     10  C   UNL     1      -1.827  -1.018  -6.599  1.00  0.00     0.053 C 
BRANCH  10  11
ATOM     11  C   UNL     1      -3.084  -0.799  -5.812  1.00  0.00     0.041 C 
ATOM     12  O   UNL     1      -3.866  -1.760  -5.588  1.00  0.00    -0.550 OA
ATOM     13  O   UNL     1      -3.374   0.460  -5.302  1.00  0.00    -0.550 OA
ENDBRANCH  10  11
ENDBRANCH   9  10
ENDBRANCH   8   9
ENDBRANCH   1   8
TORSDOF 8
ENDMDL
MODEL 8
REMARK VINA RESULT:    -3.932     13.327     14.592
REMARK INTER + INTRA:          -6.303
REMARK INTER:                  -5.509
REMARK INTRA:                  -0.794
REMARK UNBOUND:                -0.532
REMARK SMILES O=C([O-])CCCCCCCC(=O)[O-]
REMARK SMILES IDX 7 1 6 2 5 3 4 4 2 5 1 6 3 7 8 8 9 9 10 10 11 11 12 12 13 13
REMARK H PARENT
REMARK Flexibility Score: inf
ROOT
ATOM      1  C   UNL     1      -5.737  -1.501  -6.812  1.00  0.00     0.000 C 
ENDROOT
BRANCH   1   2
ATOM      2  C   UNL     1      -4.708  -0.415  -7.161  1.00  0.00     0.000 C 
BRANCH   2   3
ATOM      3  C   UNL     1      -3.624  -0.320  -6.081  1.00  0.00     0.006 C 
BRANCH   3   4
ATOM      4  C   UNL     1      -2.250  -0.693  -6.645  1.00  0.00     0.053 C 
BRANCH   4   5
ATOM      5  C   UNL     1      -1.805  -2.016  -6.111  1.00  0.00     0.041 C 
ATOM      6  O   UNL     1      -1.786  -3.028  -6.860  1.00  0.00    -0.550 OA
ATOM      7  O   UNL     1      -1.457  -2.144  -4.772  1.00  0.00    -0.550 OA
ENDBRANCH   4   5
ENDBRANCH   3   4
ENDBRANCH   2   3
ENDBRANCH   1   2
BRANCH   1   8
ATOM      8  C   UNL     1      -5.282  -2.907  -7.234  1.00  0.00     0.000 C 
BRANCH   8   9
ATOM      9  C   UNL     1      -5.533  -3.962  -6.143  1.00  0.00     0.006 C 
BRANCH   9  10
ATOM     10  C   UNL     1      -4.853  -3.595  -4.817  1.00  0.00     0.053 C 
BRANCH  10  11
ATOM     11  C   UNL     1      -4.373  -4.809  -4.081  1.00  0.00     0.041 C 
ATOM     12  O   UNL     1      -5.194  -5.680  -3.692  1.00  0.00    -0.550 OA
ATOM     13  O   UNL     1      -3.015  -4.991  -3.852  1.00  0.00    -0.550 OA
ENDBRANCH  10  11
ENDBRANCH   9  10
ENDBRANCH   8   9
ENDBRANCH   1   8
TORSDOF 8
ENDMDL
MODEL 9
REMARK VINA RESULT:    -3.927     12.575     13.758
REMARK INTER + INTRA:          -6.296
REMARK INTER:                  -5.606
REMARK INTRA:                  -0.690
REMARK UNBOUND:                -0.532
REMARK SMILES O=C([O-])CCCCCCCC(=O)[O-]
REMARK SMILES IDX 7 1 6 2 5 3 4 4 2 5 1 6 3 7 8 8 9 9 10 10 11 11 12 12 13 13
REMARK H PARENT
REMARK Flexibility Score: inf
ROOT
ATOM      1  C   UNL     1      -3.729  -1.439  -5.680  1.00  0.00     0.000 C 
ENDROOT
BRANCH   1   2
ATOM      2  C   UNL     1      -2.408  -1.400  -6.464  1.00  0.00     0.000 C 
BRANCH   2   3
ATOM      3  C   UNL     1      -1.275  -2.051  -5.662  1.00  0.00     0.006 C 
BRANCH   3   4
ATOM      4  C   UNL     1      -1.395  -3.578  -5.678  1.00  0.00     0.053 C 
BRANCH   4   5
ATOM      5  C   UNL     1      -0.632  -4.176  -4.540  1.00  0.00     0.041 C 
ATOM      6  O   UNL     1       0.137  -5.154  -4.737  1.00  0.00    -0.550 OA
ATOM      7  O   UNL     1      -0.808  -3.688  -3.251  1.00  0.00    -0.550 OA
ENDBRANCH   4   5
ENDBRANCH   3   4
ENDBRANCH   2   3
ENDBRANCH   1   2
BRANCH   1   8
ATOM      8  C   UNL     1      -4.878  -2.065  -6.487  1.00  0.00     0.000 C 
BRANCH   8   9
ATOM      9  C   UNL     1      -5.251  -3.473  -5.991  1.00  0.00     0.006 C 
BRANCH   9  10
ATOM     10  C   UNL     1      -4.940  -3.662  -4.500  1.00  0.00     0.053 C 
BRANCH  10  11
ATOM     11  C   UNL     1      -4.563  -5.078  -4.184  1.00  0.00     0.041 C 
ATOM     12  O   UNL     1      -4.193  -5.855  -5.102  1.00  0.00    -0.550 OA
ATOM     13  O   UNL     1      -4.592  -5.528  -2.870  1.00  0.00    -0.550 OA
ENDBRANCH  10  11
ENDBRANCH   9  10
ENDBRANCH   8   9
ENDBRANCH   1   8
TORSDOF 8
ENDMDL
