MODEL 1
REMARK VINA RESULT:    -4.443      0.000      0.000
REMARK INTER + INTRA:          -5.766
REMARK INTER:                  -5.482
REMARK INTRA:                  -0.283
REMARK UNBOUND:                -0.283
REMARK SMILES C=CCc1ccc(OC)c(OC)c1
REMARK SMILES IDX 7 1 10 2 13 3 4 4 5 5 6 6 8 7 9 8 11 9 12 10 3 11 2 12 1 13
REMARK H PARENT
REMARK Flexibility Score: inf
ROOT
ATOM      1  C   UNL     1     115.576 114.202 118.740  1.00  0.00     0.160 A 
ATOM      2  C   UNL     1     116.923 114.136 118.347  1.00  0.00     0.160 A 
ATOM      3  C   UNL     1     117.405 115.015 117.357  1.00  0.00     0.054 A 
ATOM      4  C   UNL     1     116.553 115.959 116.765  1.00  0.00    -0.040 A 
ATOM      5  C   UNL     1     115.208 116.012 117.154  1.00  0.00     0.008 A 
ATOM      6  C   UNL     1     114.722 115.146 118.135  1.00  0.00     0.051 A 
ENDROOT
BRANCH   1   7
ATOM      7  O   UNL     1     115.124 113.316 119.729  1.00  0.00    -0.493 OA
ATOM      8  C   UNL     1     113.899 112.592 119.665  1.00  0.00     0.278 C 
ENDBRANCH   1   7
BRANCH   2   9
ATOM      9  O   UNL     1     117.748 113.180 118.962  1.00  0.00    -0.493 OA
ATOM     10  C   UNL     1     119.140 113.356 119.209  1.00  0.00     0.278 C 
ENDBRANCH   2   9
BRANCH   4  11
ATOM     11  C   UNL     1     117.063 116.876 115.685  1.00  0.00     0.062 C 
BRANCH  11  12
ATOM     12  C   UNL     1     116.289 116.680 114.411  1.00  0.00    -0.030 C 
ATOM     13  C   UNL     1     116.881 116.267 113.286  1.00  0.00     0.004 C 
ENDBRANCH  11  12
ENDBRANCH   4  11
TORSDOF 4
ENDMDL
MODEL 2
REMARK VINA RESULT:    -4.432      2.505      3.725
REMARK INTER + INTRA:          -5.751
REMARK INTER:                  -5.485
REMARK INTRA:                  -0.267
REMARK UNBOUND:                -0.283
REMARK SMILES C=CCc1ccc(OC)c(OC)c1
REMARK SMILES IDX 7 1 10 2 13 3 4 4 5 5 6 6 8 7 9 8 11 9 12 10 3 11 2 12 1 13
REMARK H PARENT
REMARK Flexibility Score: inf
ROOT
ATOM      1  C   UNL     1     118.871 115.670 118.667  1.00  0.00     0.160 A 
ATOM      2  C   UNL     1     118.924 117.001 118.220  1.00  0.00     0.160 A 
ATOM      3  C   UNL     1     118.065 117.425 117.188  1.00  0.00     0.054 A 
ATOM      4  C   UNL     1     117.153 116.532 116.606  1.00  0.00    -0.040 A 
ATOM      5  C   UNL     1     117.113 115.203 117.049  1.00  0.00     0.008 A 
ATOM      6  C   UNL     1     117.960 114.774 118.073  1.00  0.00     0.051 A 
ENDROOT
BRANCH   1   7
ATOM      7  O   UNL     1     119.737 115.277 119.698  1.00  0.00    -0.493 OA
ATOM      8  C   UNL     1     120.406 114.021 119.754  1.00  0.00     0.278 C 
ENDBRANCH   1   7
BRANCH   2   9
ATOM      9  O   UNL     1     119.847 117.868 118.826  1.00  0.00    -0.493 OA
ATOM     10  C   UNL     1     119.770 119.290 118.778  1.00  0.00     0.278 C 
ENDBRANCH   2   9
BRANCH   4  11
ATOM     11  C   UNL     1     116.258 116.979 115.481  1.00  0.00     0.062 C 
BRANCH  11  12
ATOM     12  C   UNL     1     116.626 116.285 114.200  1.00  0.00    -0.030 C 
ATOM     13  C   UNL     1     116.949 116.970 113.098  1.00  0.00     0.004 C 
ENDBRANCH  11  12
ENDBRANCH   4  11
TORSDOF 4
ENDMDL
MODEL 3
REMARK VINA RESULT:    -4.424      3.882      5.299
REMARK INTER + INTRA:          -5.742
REMARK INTER:                  -5.473
REMARK INTRA:                  -0.269
REMARK UNBOUND:                -0.283
REMARK SMILES C=CCc1ccc(OC)c(OC)c1
REMARK SMILES IDX 7 1 10 2 13 3 4 4 5 5 6 6 8 7 9 8 11 9 12 10 3 11 2 12 1 13
REMARK H PARENT
REMARK Flexibility Score: inf
ROOT
ATOM      1  C   UNL     1     117.621 119.017 118.753  1.00  0.00     0.160 A 
ATOM      2  C   UNL     1     116.267 119.042 118.382  1.00  0.00     0.160 A 
ATOM      3  C   UNL     1     115.802 118.167 117.381  1.00  0.00     0.054 A 
ATOM      4  C   UNL     1     116.678 117.267 116.756  1.00  0.00    -0.040 A 
ATOM      5  C   UNL     1     118.031 117.256 117.124  1.00  0.00     0.008 A 
ATOM      6  C   UNL     1     118.500 118.118 118.117  1.00  0.00     0.051 A 
ENDROOT
BRANCH   1   7
ATOM      7  O   UNL     1     118.056 119.899 119.755  1.00  0.00    -0.493 OA
ATOM      8  C   UNL     1     119.335 120.525 119.779  1.00  0.00     0.278 C 
ENDBRANCH   1   7
BRANCH   2   9
ATOM      9  O   UNL     1     115.417 119.954 119.030  1.00  0.00    -0.493 OA
ATOM     10  C   UNL     1     114.002 119.819 119.112  1.00  0.00     0.278 C 
ENDBRANCH   2   9
BRANCH   4  11
ATOM     11  C   UNL     1     116.186 116.355 115.665  1.00  0.00     0.062 C 
BRANCH  11  12
ATOM     12  C   UNL     1     116.873 116.663 114.363  1.00  0.00    -0.030 C 
ATOM     13  C   UNL     1     116.184 116.985 113.264  1.00  0.00     0.004 C 
ENDBRANCH  11  12
ENDBRANCH   4  11
TORSDOF 4
ENDMDL
MODEL 4
REMARK VINA RESULT:    -4.414      2.494      3.614
REMARK INTER + INTRA:          -5.729
REMARK INTER:                  -5.507
REMARK INTRA:                  -0.222
REMARK UNBOUND:                -0.283
REMARK SMILES C=CCc1ccc(OC)c(OC)c1
REMARK SMILES IDX 7 1 10 2 13 3 4 4 5 5 6 6 8 7 9 8 11 9 12 10 3 11 2 12 1 13
REMARK H PARENT
REMARK Flexibility Score: inf
ROOT
ATOM      1  C   UNL     1     114.069 117.413 118.776  1.00  0.00     0.160 A 
ATOM      2  C   UNL     1     114.199 116.114 118.259  1.00  0.00     0.160 A 
ATOM      3  C   UNL     1     115.145 115.858 117.247  1.00  0.00     0.054 A 
ATOM      4  C   UNL     1     115.962 116.887 116.757  1.00  0.00    -0.040 A 
ATOM      5  C   UNL     1     115.818 118.183 117.271  1.00  0.00     0.008 A 
ATOM      6  C   UNL     1     114.885 118.445 118.274  1.00  0.00     0.051 A 
ENDROOT
BRANCH   1   7
ATOM      7  O   UNL     1     113.119 117.637 119.785  1.00  0.00    -0.493 OA
ATOM      8  C   UNL     1     112.560 118.910 120.097  1.00  0.00     0.278 C 
ENDBRANCH   1   7
BRANCH   2   9
ATOM      9  O   UNL     1     113.367 115.106 118.774  1.00  0.00    -0.493 OA
ATOM     10  C   UNL     1     113.321 113.769 118.285  1.00  0.00     0.278 C 
ENDBRANCH   2   9
BRANCH   4  11
ATOM     11  C   UNL     1     116.950 116.618 115.654  1.00  0.00     0.062 C 
BRANCH  11  12
ATOM     12  C   UNL     1     116.252 116.512 114.327  1.00  0.00    -0.030 C 
ATOM     13  C   UNL     1     116.887 116.758 113.177  1.00  0.00     0.004 C 
ENDBRANCH  11  12
ENDBRANCH   4  11
TORSDOF 4
ENDMDL
MODEL 5
REMARK VINA RESULT:    -4.406      3.025      3.828
REMARK INTER + INTRA:          -5.720
REMARK INTER:                  -5.479
REMARK INTRA:                  -0.241
REMARK UNBOUND:                -0.283
REMARK SMILES C=CCc1ccc(OC)c(OC)c1
REMARK SMILES IDX 7 1 10 2 13 3 4 4 5 5 6 6 8 7 9 8 11 9 12 10 3 11 2 12 1 13
REMARK H PARENT
REMARK Flexibility Score: inf
ROOT
ATOM      1  C   UNL     1     114.152 117.206 118.750  1.00  0.00     0.160 A 
ATOM      2  C   UNL     1     114.947 118.271 118.296  1.00  0.00     0.160 A 
ATOM      3  C   UNL     1     115.864 118.058 117.248  1.00  0.00     0.054 A 
ATOM      4  C   UNL     1     115.986 116.795 116.651  1.00  0.00    -0.040 A 
ATOM      5  C   UNL     1     115.196 115.735 117.117  1.00  0.00     0.008 A 
ATOM      6  C   UNL     1     114.283 115.937 118.153  1.00  0.00     0.051 A 
ENDROOT
BRANCH   1   7
ATOM      7  O   UNL     1     113.246 117.448 119.794  1.00  0.00    -0.493 OA
ATOM      8  C   UNL     1     112.516 116.435 120.480  1.00  0.00     0.278 C 
ENDBRANCH   1   7
BRANCH   2   9
ATOM      9  O   UNL     1     114.799 119.523 118.915  1.00  0.00    -0.493 OA
ATOM     10  C   UNL     1     115.780 120.132 119.748  1.00  0.00     0.278 C 
ENDBRANCH   2   9
BRANCH   4  11
ATOM     11  C   UNL     1     116.989 116.563 115.552  1.00  0.00     0.062 C 
BRANCH  11  12
ATOM     12  C   UNL     1     116.306 116.487 114.215  1.00  0.00    -0.030 C 
ATOM     13  C   UNL     1     116.956 116.754 113.078  1.00  0.00     0.004 C 
ENDBRANCH  11  12
ENDBRANCH   4  11
TORSDOF 4
ENDMDL
MODEL 6
REMARK VINA RESULT:    -4.403      2.052      3.424
REMARK INTER + INTRA:          -5.716
REMARK INTER:                  -5.474
REMARK INTRA:                  -0.241
REMARK UNBOUND:                -0.283
REMARK SMILES C=CCc1ccc(OC)c(OC)c1
REMARK SMILES IDX 7 1 10 2 13 3 4 4 5 5 6 6 8 7 9 8 11 9 12 10 3 11 2 12 1 13
REMARK H PARENT
REMARK Flexibility Score: inf
ROOT
ATOM      1  C   UNL     1     119.097 116.021 118.767  1.00  0.00     0.160 A 
ATOM      2  C   UNL     1     118.322 114.919 118.372  1.00  0.00     0.160 A 
ATOM      3  C   UNL     1     117.383 115.064 117.331  1.00  0.00     0.054 A 
ATOM      4  C   UNL     1     117.219 116.298 116.684  1.00  0.00    -0.040 A 
ATOM      5  C   UNL     1     117.989 117.396 117.092  1.00  0.00     0.008 A 
ATOM      6  C   UNL     1     118.923 117.261 118.120  1.00  0.00     0.051 A 
ENDROOT
BRANCH   1   7
ATOM      7  O   UNL     1     120.025 115.847 119.805  1.00  0.00    -0.493 OA
ATOM      8  C   UNL     1     120.706 116.910 120.465  1.00  0.00     0.278 C 
ENDBRANCH   1   7
BRANCH   2   9
ATOM      9  O   UNL     1     118.512 113.699 119.039  1.00  0.00    -0.493 OA
ATOM     10  C   UNL     1     117.521 113.047 119.828  1.00  0.00     0.278 C 
ENDBRANCH   2   9
BRANCH   4  11
ATOM     11  C   UNL     1     116.193 116.458 115.594  1.00  0.00     0.062 C 
BRANCH  11  12
ATOM     12  C   UNL     1     116.859 116.645 114.259  1.00  0.00    -0.030 C 
ATOM     13  C   UNL     1     116.214 116.406 113.113  1.00  0.00     0.004 C 
ENDBRANCH  11  12
ENDBRANCH   4  11
TORSDOF 4
ENDMDL
MODEL 7
REMARK VINA RESULT:    -4.394      1.202      2.704
REMARK INTER + INTRA:          -5.705
REMARK INTER:                  -5.440
REMARK INTRA:                  -0.265
REMARK UNBOUND:                -0.283
REMARK SMILES C=CCc1ccc(OC)c(OC)c1
REMARK SMILES IDX 7 1 10 2 13 3 4 4 5 5 6 6 8 7 9 8 11 9 12 10 3 11 2 12 1 13
REMARK H PARENT
REMARK Flexibility Score: inf
ROOT
ATOM      1  C   UNL     1     115.738 114.049 118.797  1.00  0.00     0.160 A 
ATOM      2  C   UNL     1     114.824 114.979 118.276  1.00  0.00     0.160 A 
ATOM      3  C   UNL     1     115.246 115.896 117.293  1.00  0.00     0.054 A 
ATOM      4  C   UNL     1     116.569 115.884 116.827  1.00  0.00    -0.040 A 
ATOM      5  C   UNL     1     117.478 114.961 117.361  1.00  0.00     0.008 A 
ATOM      6  C   UNL     1     117.068 114.048 118.333  1.00  0.00     0.051 A 
ENDROOT
BRANCH   1   7
ATOM      7  O   UNL     1     115.289 113.147 119.774  1.00  0.00    -0.493 OA
ATOM      8  C   UNL     1     116.122 112.544 120.759  1.00  0.00     0.278 C 
ENDBRANCH   1   7
BRANCH   2   9
ATOM      9  O   UNL     1     113.507 114.961 118.763  1.00  0.00    -0.493 OA
ATOM     10  C   UNL     1     113.013 115.819 119.787  1.00  0.00     0.278 C 
ENDBRANCH   2   9
BRANCH   4  11
ATOM     11  C   UNL     1     117.025 116.886 115.800  1.00  0.00     0.062 C 
BRANCH  11  12
ATOM     12  C   UNL     1     116.328 116.658 114.488  1.00  0.00    -0.030 C 
ATOM     13  C   UNL     1     116.995 116.283 113.392  1.00  0.00     0.004 C 
ENDBRANCH  11  12
ENDBRANCH   4  11
TORSDOF 4
ENDMDL
MODEL 8
REMARK VINA RESULT:    -4.390      3.733      4.359
REMARK INTER + INTRA:          -5.700
REMARK INTER:                  -5.439
REMARK INTRA:                  -0.261
REMARK UNBOUND:                -0.283
REMARK SMILES C=CCc1ccc(OC)c(OC)c1
REMARK SMILES IDX 7 1 10 2 13 3 4 4 5 5 6 6 8 7 9 8 11 9 12 10 3 11 2 12 1 13
REMARK H PARENT
REMARK Flexibility Score: inf
ROOT
ATOM      1  C   UNL     1     117.040 119.168 118.791  1.00  0.00     0.160 A 
ATOM      2  C   UNL     1     118.149 118.366 118.477  1.00  0.00     0.160 A 
ATOM      3  C   UNL     1     118.050 117.413 117.445  1.00  0.00     0.054 A 
ATOM      4  C   UNL     1     116.856 117.262 116.725  1.00  0.00    -0.040 A 
ATOM      5  C   UNL     1     115.750 118.058 117.052  1.00  0.00     0.008 A 
ATOM      6  C   UNL     1     115.840 119.007 118.072  1.00  0.00     0.051 A 
ENDROOT
BRANCH   1   7
ATOM      7  O   UNL     1     117.169 120.110 119.823  1.00  0.00    -0.493 OA
ATOM      8  C   UNL     1     116.074 120.715 120.504  1.00  0.00     0.278 C 
ENDBRANCH   1   7
BRANCH   2   9
ATOM      9  O   UNL     1     119.330 118.545 119.216  1.00  0.00    -0.493 OA
ATOM     10  C   UNL     1     120.132 117.484 119.724  1.00  0.00     0.278 C 
ENDBRANCH   2   9
BRANCH   4  11
ATOM     11  C   UNL     1     116.743 116.221 115.643  1.00  0.00     0.062 C 
BRANCH  11  12
ATOM     12  C   UNL     1     116.344 116.850 114.337  1.00  0.00    -0.030 C 
ATOM     13  C   UNL     1     117.032 116.630 113.212  1.00  0.00     0.004 C 
ENDBRANCH  11  12
ENDBRANCH   4  11
TORSDOF 4
ENDMDL
MODEL 9
REMARK VINA RESULT:    -4.127      1.924      2.169
REMARK INTER + INTRA:          -5.376
REMARK INTER:                  -5.110
REMARK INTRA:                  -0.266
REMARK UNBOUND:                -0.283
REMARK SMILES C=CCc1ccc(OC)c(OC)c1
REMARK SMILES IDX 7 1 10 2 13 3 4 4 5 5 6 6 8 7 9 8 11 9 12 10 3 11 2 12 1 13
REMARK H PARENT
REMARK Flexibility Score: inf
ROOT
ATOM      1  C   UNL     1     116.771 116.428 118.585  1.00  0.00     0.160 A 
ATOM      2  C   UNL     1     117.140 115.430 117.669  1.00  0.00     0.160 A 
ATOM      3  C   UNL     1     116.935 115.639 116.290  1.00  0.00     0.054 A 
ATOM      4  C   UNL     1     116.372 116.837 115.826  1.00  0.00    -0.040 A 
ATOM      5  C   UNL     1     115.996 117.823 116.748  1.00  0.00     0.008 A 
ATOM      6  C   UNL     1     116.196 117.626 118.115  1.00  0.00     0.051 A 
ENDROOT
BRANCH   1   7
ATOM      7  O   UNL     1     116.988 116.193 119.951  1.00  0.00    -0.493 OA
ATOM      8  C   UNL     1     115.970 115.831 120.879  1.00  0.00     0.278 C 
ENDBRANCH   1   7
BRANCH   2   9
ATOM      9  O   UNL     1     117.704 114.245 118.168  1.00  0.00    -0.493 OA
ATOM     10  C   UNL     1     119.097 113.953 118.170  1.00  0.00     0.278 C 
ENDBRANCH   2   9
BRANCH   4  11
ATOM     11  C   UNL     1     116.125 117.044 114.355  1.00  0.00     0.062 C 
BRANCH  11  12
ATOM     12  C   UNL     1     117.079 116.222 113.534  1.00  0.00    -0.030 C 
ATOM     13  C   UNL     1     116.815 115.899 112.264  1.00  0.00     0.004 C 
ENDBRANCH  11  12
ENDBRANCH   4  11
TORSDOF 4
ENDMDL
