MODEL 1
REMARK VINA RESULT:    -7.220      0.000      0.000
REMARK INTER + INTRA:          -8.754
REMARK INTER:                  -8.486
REMARK INTRA:                  -0.268
REMARK UNBOUND:                -0.268
REMARK SMILES O=c1cc(-c2ccc(O)c(O)c2)oc2cc(O)cc(O)c12
REMARK SMILES IDX 4 1 3 2 2 3 1 4 21 5 19 6 18 7 16 8 15 9 14 10 13 11 5 12
REMARK SMILES IDX 6 13 7 14 8 15 12 16 10 17 9 18 11 20 20 22 17 24
REMARK H PARENT 9 19 11 21 20 23 17 25
REMARK Flexibility Score: inf
ROOT
ATOM      1  C   UNL     1     132.495 128.186 131.657  1.00  0.00     0.138 A 
ATOM      2  C   UNL     1     133.211 128.602 132.788  1.00  0.00     0.100 A 
ATOM      3  C   UNL     1     133.862 127.653 133.579  1.00  0.00     0.197 A 
ATOM      4  O   UNL     1     134.444 128.049 134.621  1.00  0.00    -0.289 OA
ATOM      5  C   UNL     1     133.821 126.286 133.216  1.00  0.00     0.107 A 
ATOM      6  C   UNL     1     134.480 125.237 133.924  1.00  0.00     0.134 A 
ATOM      7  C   UNL     1     134.272 123.907 133.538  1.00  0.00     0.093 A 
ATOM      8  C   UNL     1     133.477 123.593 132.433  1.00  0.00     0.123 A 
ATOM      9  C   UNL     1     132.871 124.613 131.703  1.00  0.00     0.094 A 
ATOM     10  C   UNL     1     133.032 125.948 132.084  1.00  0.00     0.146 A 
ATOM     11  O   UNL     1     132.425 126.890 131.369  1.00  0.00    -0.456 OA
ENDROOT
BRANCH   1  12
ATOM     12  C   UNL     1     131.785 129.152 130.780  1.00  0.00     0.021 A 
ATOM     13  C   UNL     1     130.551 129.683 131.194  1.00  0.00     0.016 A 
ATOM     14  C   UNL     1     129.860 130.587 130.384  1.00  0.00     0.051 A 
ATOM     15  C   UNL     1     130.384 130.969 129.144  1.00  0.00     0.157 A 
ATOM     16  C   UNL     1     132.300 129.529 129.524  1.00  0.00     0.062 A 
ATOM     17  C   UNL     1     131.608 130.434 128.711  1.00  0.00     0.158 A 
BRANCH  15  18
ATOM     18  O   UNL     1     129.691 131.873 128.338  1.00  0.00    -0.504 OA
ATOM     19  H   UNL     1     128.720 131.727 128.090  1.00  0.00     0.293 HD
ENDBRANCH  15  18
BRANCH  17  20
ATOM     20  O   UNL     1     132.151 130.785 127.475  1.00  0.00    -0.504 OA
ATOM     21  H   UNL     1     131.863 131.619 126.978  1.00  0.00     0.293 HD
ENDBRANCH  17  20
ENDBRANCH   1  12
BRANCH   6  22
ATOM     22  O   UNL     1     135.362 125.447 134.987  1.00  0.00    -0.507 OA
ATOM     23  H   UNL     1     135.725 126.346 135.267  1.00  0.00     0.293 HD
ENDBRANCH   6  22
BRANCH   8  24
ATOM     24  O   UNL     1     133.287 122.268 132.047  1.00  0.00    -0.508 OA
ATOM     25  H   UNL     1     133.662 121.911 131.176  1.00  0.00     0.293 HD
ENDBRANCH   8  24
TORSDOF 5
ENDMDL
MODEL 2
REMARK VINA RESULT:    -7.217      5.746      7.974
REMARK INTER + INTRA:          -8.750
REMARK INTER:                  -8.484
REMARK INTRA:                  -0.267
REMARK UNBOUND:                -0.268
REMARK SMILES O=c1cc(-c2ccc(O)c(O)c2)oc2cc(O)cc(O)c12
REMARK SMILES IDX 4 1 3 2 2 3 1 4 21 5 19 6 18 7 16 8 15 9 14 10 13 11 5 12
REMARK SMILES IDX 6 13 7 14 8 15 12 16 10 17 9 18 11 20 20 22 17 24
REMARK H PARENT 9 19 11 21 20 23 17 25
REMARK Flexibility Score: inf
ROOT
ATOM      1  C   UNL     1     128.338 132.367 131.252  1.00  0.00     0.138 A 
ATOM      2  C   UNL     1     127.503 131.786 130.288  1.00  0.00     0.100 A 
ATOM      3  C   UNL     1     128.066 131.158 129.175  1.00  0.00     0.197 A 
ATOM      4  O   UNL     1     127.291 130.701 128.297  1.00  0.00    -0.289 OA
ATOM      5  C   UNL     1     129.474 131.084 129.047  1.00  0.00     0.107 A 
ATOM      6  C   UNL     1     130.159 130.433 127.977  1.00  0.00     0.134 A 
ATOM      7  C   UNL     1     131.553 130.525 127.894  1.00  0.00     0.093 A 
ATOM      8  C   UNL     1     132.292 131.193 128.874  1.00  0.00     0.123 A 
ATOM      9  C   UNL     1     131.636 131.787 129.950  1.00  0.00     0.094 A 
ATOM     10  C   UNL     1     130.242 131.741 130.043  1.00  0.00     0.146 A 
ATOM     11  O   UNL     1     129.655 132.332 131.079  1.00  0.00    -0.456 OA
ENDROOT
BRANCH   1  12
ATOM     12  C   UNL     1     127.792 133.047 132.454  1.00  0.00     0.021 A 
ATOM     13  C   UNL     1     127.777 132.368 133.684  1.00  0.00     0.016 A 
ATOM     14  C   UNL     1     127.261 132.983 134.828  1.00  0.00     0.051 A 
ATOM     15  C   UNL     1     126.745 134.282 134.760  1.00  0.00     0.157 A 
ATOM     16  C   UNL     1     127.258 134.349 132.390  1.00  0.00     0.062 A 
ATOM     17  C   UNL     1     126.740 134.966 133.534  1.00  0.00     0.158 A 
BRANCH  15  18
ATOM     18  O   UNL     1     126.232 134.893 135.905  1.00  0.00    -0.504 OA
ATOM     19  H   UNL     1     126.821 135.433 136.528  1.00  0.00     0.293 HD
ENDBRANCH  15  18
BRANCH  17  20
ATOM     20  O   UNL     1     126.221 136.256 133.431  1.00  0.00    -0.504 OA
ATOM     21  H   UNL     1     125.630 136.538 132.657  1.00  0.00     0.293 HD
ENDBRANCH  17  20
ENDBRANCH   1  12
BRANCH   6  22
ATOM     22  O   UNL     1     129.523 129.669 126.994  1.00  0.00    -0.507 OA
ATOM     23  H   UNL     1     129.913 128.846 126.561  1.00  0.00     0.293 HD
ENDBRANCH   6  22
BRANCH   8  24
ATOM     24  O   UNL     1     133.680 131.267 128.791  1.00  0.00    -0.508 OA
ATOM     25  H   UNL     1     134.249 130.437 128.671  1.00  0.00     0.293 HD
ENDBRANCH   8  24
TORSDOF 5
ENDMDL
MODEL 3
REMARK VINA RESULT:    -7.177      1.507      7.090
REMARK INTER + INTRA:          -8.703
REMARK INTER:                  -8.440
REMARK INTRA:                  -0.263
REMARK UNBOUND:                -0.268
REMARK SMILES O=c1cc(-c2ccc(O)c(O)c2)oc2cc(O)cc(O)c12
REMARK SMILES IDX 4 1 3 2 2 3 1 4 21 5 19 6 18 7 16 8 15 9 14 10 13 11 5 12
REMARK SMILES IDX 6 13 7 14 8 15 12 16 10 17 9 18 11 20 20 22 17 24
REMARK H PARENT 9 19 11 21 20 23 17 25
REMARK Flexibility Score: inf
ROOT
ATOM      1  C   UNL     1     132.077 127.991 131.969  1.00  0.00     0.138 A 
ATOM      2  C   UNL     1     130.960 128.468 132.669  1.00  0.00     0.100 A 
ATOM      3  C   UNL     1     130.126 129.416 132.073  1.00  0.00     0.197 A 
ATOM      4  O   UNL     1     129.168 129.871 132.750  1.00  0.00    -0.289 OA
ATOM      5  C   UNL     1     130.395 129.862 130.757  1.00  0.00     0.107 A 
ATOM      6  C   UNL     1     129.590 130.794 130.035  1.00  0.00     0.134 A 
ATOM      7  C   UNL     1     130.019 131.250 128.783  1.00  0.00     0.093 A 
ATOM      8  C   UNL     1     131.192 130.762 128.201  1.00  0.00     0.123 A 
ATOM      9  C   UNL     1     131.956 129.813 128.874  1.00  0.00     0.094 A 
ATOM     10  C   UNL     1     131.573 129.363 130.141  1.00  0.00     0.146 A 
ATOM     11  O   UNL     1     132.338 128.468 130.756  1.00  0.00    -0.456 OA
ENDROOT
BRANCH   1  12
ATOM     12  C   UNL     1     132.997 126.983 132.554  1.00  0.00     0.021 A 
ATOM     13  C   UNL     1     132.929 125.649 132.117  1.00  0.00     0.016 A 
ATOM     14  C   UNL     1     133.778 124.680 132.658  1.00  0.00     0.051 A 
ATOM     15  C   UNL     1     134.702 125.025 133.651  1.00  0.00     0.157 A 
ATOM     16  C   UNL     1     133.919 127.320 133.564  1.00  0.00     0.062 A 
ATOM     17  C   UNL     1     134.770 126.351 134.108  1.00  0.00     0.158 A 
BRANCH  15  18
ATOM     18  O   UNL     1     135.549 124.056 134.188  1.00  0.00    -0.504 OA
ATOM     19  H   UNL     1     136.546 124.064 134.009  1.00  0.00     0.293 HD
ENDBRANCH  15  18
BRANCH  17  20
ATOM     20  O   UNL     1     135.671 126.724 135.104  1.00  0.00    -0.504 OA
ATOM     21  H   UNL     1     136.027 127.670 135.181  1.00  0.00     0.293 HD
ENDBRANCH  17  20
ENDBRANCH   1  12
BRANCH   6  22
ATOM     22  O   UNL     1     128.360 131.279 130.489  1.00  0.00    -0.507 OA
ATOM     23  H   UNL     1     128.200 132.211 130.838  1.00  0.00     0.293 HD
ENDBRANCH   6  22
BRANCH   8  24
ATOM     24  O   UNL     1     131.603 131.211 126.948  1.00  0.00    -0.508 OA
ATOM     25  H   UNL     1     131.961 130.572 126.247  1.00  0.00     0.293 HD
ENDBRANCH   8  24
TORSDOF 5
ENDMDL
MODEL 4
REMARK VINA RESULT:    -7.143      4.649      7.398
REMARK INTER + INTRA:          -8.664
REMARK INTER:                  -8.401
REMARK INTRA:                  -0.263
REMARK UNBOUND:                -0.268
REMARK SMILES O=c1cc(-c2ccc(O)c(O)c2)oc2cc(O)cc(O)c12
REMARK SMILES IDX 4 1 3 2 2 3 1 4 21 5 19 6 18 7 16 8 15 9 14 10 13 11 5 12
REMARK SMILES IDX 6 13 7 14 8 15 12 16 10 17 9 18 11 20 20 22 17 24
REMARK H PARENT 9 19 11 21 20 23 17 25
REMARK Flexibility Score: inf
ROOT
ATOM      1  C   UNL     1     129.106 133.081 132.017  1.00  0.00     0.138 A 
ATOM      2  C   UNL     1     130.231 132.617 132.714  1.00  0.00     0.100 A 
ATOM      3  C   UNL     1     131.067 131.670 132.120  1.00  0.00     0.197 A 
ATOM      4  O   UNL     1     132.032 131.227 132.794  1.00  0.00    -0.289 OA
ATOM      5  C   UNL     1     130.793 131.211 130.810  1.00  0.00     0.107 A 
ATOM      6  C   UNL     1     131.599 130.278 130.091  1.00  0.00     0.134 A 
ATOM      7  C   UNL     1     131.164 129.809 128.845  1.00  0.00     0.093 A 
ATOM      8  C   UNL     1     129.985 130.284 128.267  1.00  0.00     0.123 A 
ATOM      9  C   UNL     1     129.218 131.234 128.937  1.00  0.00     0.094 A 
ATOM     10  C   UNL     1     129.607 131.697 130.198  1.00  0.00     0.146 A 
ATOM     11  O   UNL     1     128.840 132.593 130.810  1.00  0.00    -0.456 OA
ENDROOT
BRANCH   1  12
ATOM     12  C   UNL     1     128.184 134.089 132.600  1.00  0.00     0.021 A 
ATOM     13  C   UNL     1     128.256 135.424 132.168  1.00  0.00     0.016 A 
ATOM     14  C   UNL     1     127.404 136.392 132.707  1.00  0.00     0.051 A 
ATOM     15  C   UNL     1     126.474 136.044 133.692  1.00  0.00     0.157 A 
ATOM     16  C   UNL     1     127.254 133.749 133.603  1.00  0.00     0.062 A 
ATOM     17  C   UNL     1     126.402 134.717 134.144  1.00  0.00     0.158 A 
BRANCH  15  18
ATOM     18  O   UNL     1     125.624 137.013 134.227  1.00  0.00    -0.504 OA
ATOM     19  H   UNL     1     125.760 137.381 135.161  1.00  0.00     0.293 HD
ENDBRANCH  15  18
BRANCH  17  20
ATOM     20  O   UNL     1     125.493 134.341 135.134  1.00  0.00    -0.504 OA
ATOM     21  H   UNL     1     125.359 133.373 135.401  1.00  0.00     0.293 HD
ENDBRANCH  17  20
ENDBRANCH   1  12
BRANCH   6  22
ATOM     22  O   UNL     1     132.835 129.805 130.540  1.00  0.00    -0.507 OA
ATOM     23  H   UNL     1     133.033 128.846 130.781  1.00  0.00     0.293 HD
ENDBRANCH   6  22
BRANCH   8  24
ATOM     24  O   UNL     1     129.568 129.822 127.020  1.00  0.00    -0.508 OA
ATOM     25  H   UNL     1     128.597 129.876 126.733  1.00  0.00     0.293 HD
ENDBRANCH   8  24
TORSDOF 5
ENDMDL
MODEL 5
REMARK VINA RESULT:    -7.098      5.012      9.343
REMARK INTER + INTRA:          -8.611
REMARK INTER:                  -8.341
REMARK INTRA:                  -0.269
REMARK UNBOUND:                -0.268
REMARK SMILES O=c1cc(-c2ccc(O)c(O)c2)oc2cc(O)cc(O)c12
REMARK SMILES IDX 4 1 3 2 2 3 1 4 21 5 19 6 18 7 16 8 15 9 14 10 13 11 5 12
REMARK SMILES IDX 6 13 7 14 8 15 12 16 10 17 9 18 11 20 20 22 17 24
REMARK H PARENT 9 19 11 21 20 23 17 25
REMARK Flexibility Score: inf
ROOT
ATOM      1  C   UNL     1     128.686 132.746 131.769  1.00  0.00     0.138 A 
ATOM      2  C   UNL     1     127.988 132.308 132.903  1.00  0.00     0.100 A 
ATOM      3  C   UNL     1     127.344 133.241 133.718  1.00  0.00     0.197 A 
ATOM      4  O   UNL     1     126.779 132.824 134.762  1.00  0.00    -0.289 OA
ATOM      5  C   UNL     1     127.372 134.613 133.376  1.00  0.00     0.107 A 
ATOM      6  C   UNL     1     126.716 135.647 134.110  1.00  0.00     0.134 A 
ATOM      7  C   UNL     1     126.911 136.984 133.743  1.00  0.00     0.093 A 
ATOM      8  C   UNL     1     127.689 137.320 132.631  1.00  0.00     0.123 A 
ATOM      9  C   UNL     1     128.290 136.315 131.877  1.00  0.00     0.094 A 
ATOM     10  C   UNL     1     128.142 134.973 132.239  1.00  0.00     0.146 A 
ATOM     11  O   UNL     1     128.743 134.046 131.501  1.00  0.00    -0.456 OA
ENDROOT
BRANCH   1  12
ATOM     12  C   UNL     1     129.388 131.798 130.866  1.00  0.00     0.021 A 
ATOM     13  C   UNL     1     130.614 131.241 131.269  1.00  0.00     0.016 A 
ATOM     14  C   UNL     1     131.299 130.353 130.435  1.00  0.00     0.051 A 
ATOM     15  C   UNL     1     130.775 130.014 129.182  1.00  0.00     0.157 A 
ATOM     16  C   UNL     1     128.874 131.464 129.598  1.00  0.00     0.062 A 
ATOM     17  C   UNL     1     129.559 130.576 128.761  1.00  0.00     0.158 A 
BRANCH  15  18
ATOM     18  O   UNL     1     131.461 129.126 128.353  1.00  0.00    -0.504 OA
ATOM     19  H   UNL     1     132.182 128.512 128.713  1.00  0.00     0.293 HD
ENDBRANCH  15  18
BRANCH  17  20
ATOM     20  O   UNL     1     129.017 130.268 127.514  1.00  0.00    -0.504 OA
ATOM     21  H   UNL     1     129.283 129.434 127.002  1.00  0.00     0.293 HD
ENDBRANCH  17  20
ENDBRANCH   1  12
BRANCH   6  22
ATOM     22  O   UNL     1     125.851 135.414 135.183  1.00  0.00    -0.507 OA
ATOM     23  H   UNL     1     125.285 134.588 135.300  1.00  0.00     0.293 HD
ENDBRANCH   6  22
BRANCH   8  24
ATOM     24  O   UNL     1     127.866 138.652 132.264  1.00  0.00    -0.508 OA
ATOM     25  H   UNL     1     128.162 139.352 132.935  1.00  0.00     0.293 HD
ENDBRANCH   8  24
TORSDOF 5
ENDMDL
MODEL 6
REMARK VINA RESULT:    -7.048      1.608      6.946
REMARK INTER + INTRA:          -8.552
REMARK INTER:                  -8.267
REMARK INTRA:                  -0.285
REMARK UNBOUND:                -0.268
REMARK SMILES O=c1cc(-c2ccc(O)c(O)c2)oc2cc(O)cc(O)c12
REMARK SMILES IDX 4 1 3 2 2 3 1 4 21 5 19 6 18 7 16 8 15 9 14 10 13 11 5 12
REMARK SMILES IDX 6 13 7 14 8 15 12 16 10 17 9 18 11 20 20 22 17 24
REMARK H PARENT 9 19 11 21 20 23 17 25
REMARK Flexibility Score: inf
ROOT
ATOM      1  C   UNL     1     132.975 128.137 131.318  1.00  0.00     0.138 A 
ATOM      2  C   UNL     1     133.987 129.072 131.057  1.00  0.00     0.100 A 
ATOM      3  C   UNL     1     133.735 130.136 130.189  1.00  0.00     0.197 A 
ATOM      4  O   UNL     1     134.681 130.923 129.926  1.00  0.00    -0.289 OA
ATOM      5  C   UNL     1     132.453 130.282 129.607  1.00  0.00     0.107 A 
ATOM      6  C   UNL     1     132.071 131.350 128.741  1.00  0.00     0.134 A 
ATOM      7  C   UNL     1     130.811 131.326 128.131  1.00  0.00     0.093 A 
ATOM      8  C   UNL     1     129.897 130.305 128.404  1.00  0.00     0.123 A 
ATOM      9  C   UNL     1     130.241 129.286 129.289  1.00  0.00     0.094 A 
ATOM     10  C   UNL     1     131.504 129.263 129.887  1.00  0.00     0.146 A 
ATOM     11  O   UNL     1     131.798 128.266 130.714  1.00  0.00    -0.456 OA
ENDROOT
BRANCH   1  12
ATOM     12  C   UNL     1     133.188 126.986 132.232  1.00  0.00     0.021 A 
ATOM     13  C   UNL     1     133.676 127.217 133.530  1.00  0.00     0.016 A 
ATOM     14  C   UNL     1     133.892 126.151 134.407  1.00  0.00     0.051 A 
ATOM     15  C   UNL     1     133.635 124.837 133.999  1.00  0.00     0.157 A 
ATOM     16  C   UNL     1     132.945 125.661 131.824  1.00  0.00     0.062 A 
ATOM     17  C   UNL     1     133.162 124.592 132.700  1.00  0.00     0.158 A 
BRANCH  15  18
ATOM     18  O   UNL     1     133.851 123.775 134.878  1.00  0.00    -0.504 OA
ATOM     19  H   UNL     1     133.975 123.925 135.872  1.00  0.00     0.293 HD
ENDBRANCH  15  18
BRANCH  17  20
ATOM     20  O   UNL     1     132.907 123.293 132.259  1.00  0.00    -0.504 OA
ATOM     21  H   UNL     1     132.954 123.038 131.280  1.00  0.00     0.293 HD
ENDBRANCH  17  20
ENDBRANCH   1  12
BRANCH   6  22
ATOM     22  O   UNL     1     132.875 132.460 128.468  1.00  0.00    -0.507 OA
ATOM     23  H   UNL     1     133.221 133.106 129.161  1.00  0.00     0.293 HD
ENDBRANCH   6  22
BRANCH   8  24
ATOM     24  O   UNL     1     128.639 130.297 127.805  1.00  0.00    -0.508 OA
ATOM     25  H   UNL     1     128.533 130.293 126.797  1.00  0.00     0.293 HD
ENDBRANCH   8  24
TORSDOF 5
ENDMDL
MODEL 7
REMARK VINA RESULT:    -6.860      4.988      6.812
REMARK INTER + INTRA:          -8.330
REMARK INTER:                  -8.013
REMARK INTRA:                  -0.317
REMARK UNBOUND:                -0.268
REMARK SMILES O=c1cc(-c2ccc(O)c(O)c2)oc2cc(O)cc(O)c12
REMARK SMILES IDX 4 1 3 2 2 3 1 4 21 5 19 6 18 7 16 8 15 9 14 10 13 11 5 12
REMARK SMILES IDX 6 13 7 14 8 15 12 16 10 17 9 18 11 20 20 22 17 24
REMARK H PARENT 9 19 11 21 20 23 17 25
REMARK Flexibility Score: inf
ROOT
ATOM      1  C   UNL     1     132.667 131.825 130.519  1.00  0.00     0.138 A 
ATOM      2  C   UNL     1     132.859 132.101 131.881  1.00  0.00     0.100 A 
ATOM      3  C   UNL     1     133.959 132.861 132.282  1.00  0.00     0.197 A 
ATOM      4  O   UNL     1     134.138 133.038 133.514  1.00  0.00    -0.289 OA
ATOM      5  C   UNL     1     134.852 133.373 131.312  1.00  0.00     0.107 A 
ATOM      6  C   UNL     1     135.983 134.194 131.602  1.00  0.00     0.134 A 
ATOM      7  C   UNL     1     136.863 134.545 130.571  1.00  0.00     0.093 A 
ATOM      8  C   UNL     1     136.619 134.157 129.250  1.00  0.00     0.123 A 
ATOM      9  C   UNL     1     135.489 133.401 128.949  1.00  0.00     0.094 A 
ATOM     10  C   UNL     1     134.610 133.005 129.962  1.00  0.00     0.146 A 
ATOM     11  O   UNL     1     133.551 132.272 129.633  1.00  0.00    -0.456 OA
ENDROOT
BRANCH   1  12
ATOM     12  C   UNL     1     131.514 131.023 130.037  1.00  0.00     0.021 A 
ATOM     13  C   UNL     1     130.665 130.403 130.970  1.00  0.00     0.016 A 
ATOM     14  C   UNL     1     129.579 129.636 130.541  1.00  0.00     0.051 A 
ATOM     15  C   UNL     1     129.327 129.469 129.175  1.00  0.00     0.157 A 
ATOM     16  C   UNL     1     131.264 130.838 128.663  1.00  0.00     0.062 A 
ATOM     17  C   UNL     1     130.176 130.070 128.232  1.00  0.00     0.158 A 
BRANCH  15  18
ATOM     18  O   UNL     1     128.241 128.704 128.751  1.00  0.00    -0.504 OA
ATOM     19  H   UNL     1     127.791 128.035 129.364  1.00  0.00     0.293 HD
ENDBRANCH  15  18
BRANCH  17  20
ATOM     20  O   UNL     1     129.960 129.912 126.864  1.00  0.00    -0.504 OA
ATOM     21  H   UNL     1     129.424 130.580 126.322  1.00  0.00     0.293 HD
ENDBRANCH  17  20
ENDBRANCH   1  12
BRANCH   6  22
ATOM     22  O   UNL     1     136.272 134.705 132.870  1.00  0.00    -0.507 OA
ATOM     23  H   UNL     1     135.612 135.186 133.463  1.00  0.00     0.293 HD
ENDBRANCH   6  22
BRANCH   8  24
ATOM     24  O   UNL     1     137.491 134.524 128.228  1.00  0.00    -0.508 OA
ATOM     25  H   UNL     1     137.741 133.879 127.488  1.00  0.00     0.293 HD
ENDBRANCH   8  24
TORSDOF 5
ENDMDL
MODEL 8
REMARK VINA RESULT:    -6.850      5.358      6.700
REMARK INTER + INTRA:          -8.319
REMARK INTER:                  -8.002
REMARK INTRA:                  -0.318
REMARK UNBOUND:                -0.268
REMARK SMILES O=c1cc(-c2ccc(O)c(O)c2)oc2cc(O)cc(O)c12
REMARK SMILES IDX 4 1 3 2 2 3 1 4 21 5 19 6 18 7 16 8 15 9 14 10 13 11 5 12
REMARK SMILES IDX 6 13 7 14 8 15 12 16 10 17 9 18 11 20 20 22 17 24
REMARK H PARENT 9 19 11 21 20 23 17 25
REMARK Flexibility Score: inf
ROOT
ATOM      1  C   UNL     1     128.512 129.323 130.528  1.00  0.00     0.138 A 
ATOM      2  C   UNL     1     128.238 129.138 131.890  1.00  0.00     0.100 A 
ATOM      3  C   UNL     1     127.119 128.395 132.273  1.00  0.00     0.197 A 
ATOM      4  O   UNL     1     126.864 128.299 133.501  1.00  0.00    -0.289 OA
ATOM      5  C   UNL     1     126.291 127.809 131.286  1.00  0.00     0.107 A 
ATOM      6  C   UNL     1     125.149 126.999 131.560  1.00  0.00     0.134 A 
ATOM      7  C   UNL     1     124.338 126.570 130.503  1.00  0.00     0.093 A 
ATOM      8  C   UNL     1     124.662 126.871 129.177  1.00  0.00     0.123 A 
ATOM      9  C   UNL     1     125.804 127.617 128.896  1.00  0.00     0.094 A 
ATOM     10  C   UNL     1     126.615 128.089 129.932  1.00  0.00     0.146 A 
ATOM     11  O   UNL     1     127.688 128.809 129.621  1.00  0.00    -0.456 OA
ENDROOT
BRANCH   1  12
ATOM     12  C   UNL     1     129.689 130.103 130.065  1.00  0.00     0.021 A 
ATOM     13  C   UNL     1     130.527 130.717 131.012  1.00  0.00     0.016 A 
ATOM     14  C   UNL     1     131.635 131.463 130.601  1.00  0.00     0.051 A 
ATOM     15  C   UNL     1     131.919 131.615 129.239  1.00  0.00     0.157 A 
ATOM     16  C   UNL     1     129.972 130.273 128.696  1.00  0.00     0.062 A 
ATOM     17  C   UNL     1     131.081 131.020 128.283  1.00  0.00     0.158 A 
BRANCH  15  18
ATOM     18  O   UNL     1     133.026 132.360 128.834  1.00  0.00    -0.504 OA
ATOM     19  H   UNL     1     133.967 131.987 128.891  1.00  0.00     0.293 HD
ENDBRANCH  15  18
BRANCH  17  20
ATOM     20  O   UNL     1     131.329 131.164 126.918  1.00  0.00    -0.504 OA
ATOM     21  H   UNL     1     130.898 131.897 126.367  1.00  0.00     0.293 HD
ENDBRANCH  17  20
ENDBRANCH   1  12
BRANCH   6  22
ATOM     22  O   UNL     1     124.785 126.570 132.839  1.00  0.00    -0.507 OA
ATOM     23  H   UNL     1     124.492 127.177 133.590  1.00  0.00     0.293 HD
ENDBRANCH   6  22
BRANCH   8  24
ATOM     24  O   UNL     1     123.858 126.428 128.130  1.00  0.00    -0.508 OA
ATOM     25  H   UNL     1     122.871 126.241 128.263  1.00  0.00     0.293 HD
ENDBRANCH   8  24
TORSDOF 5
ENDMDL
MODEL 9
REMARK VINA RESULT:    -6.848      5.013      6.746
REMARK INTER + INTRA:          -8.316
REMARK INTER:                  -8.020
REMARK INTRA:                  -0.297
REMARK UNBOUND:                -0.268
REMARK SMILES O=c1cc(-c2ccc(O)c(O)c2)oc2cc(O)cc(O)c12
REMARK SMILES IDX 4 1 3 2 2 3 1 4 21 5 19 6 18 7 16 8 15 9 14 10 13 11 5 12
REMARK SMILES IDX 6 13 7 14 8 15 12 16 10 17 9 18 11 20 20 22 17 24
REMARK H PARENT 9 19 11 21 20 23 17 25
REMARK Flexibility Score: inf
ROOT
ATOM      1  C   UNL     1     132.862 131.857 130.214  1.00  0.00     0.138 A 
ATOM      2  C   UNL     1     133.748 132.358 129.250  1.00  0.00     0.100 A 
ATOM      3  C   UNL     1     134.863 133.095 129.655  1.00  0.00     0.197 A 
ATOM      4  O   UNL     1     135.605 133.585 128.765  1.00  0.00    -0.289 OA
ATOM      5  C   UNL     1     135.106 133.303 131.034  1.00  0.00     0.107 A 
ATOM      6  C   UNL     1     136.231 134.003 131.564  1.00  0.00     0.134 A 
ATOM      7  C   UNL     1     136.306 134.246 132.940  1.00  0.00     0.093 A 
ATOM      8  C   UNL     1     135.327 133.762 133.813  1.00  0.00     0.123 A 
ATOM      9  C   UNL     1     134.253 133.032 133.311  1.00  0.00     0.094 A 
ATOM     10  C   UNL     1     134.132 132.802 131.938  1.00  0.00     0.146 A 
ATOM     11  O   UNL     1     133.084 132.113 131.499  1.00  0.00    -0.456 OA
ENDROOT
BRANCH   1  12
ATOM     12  C   UNL     1     131.662 131.066 129.839  1.00  0.00     0.021 A 
ATOM     13  C   UNL     1     130.863 130.503 130.848  1.00  0.00     0.016 A 
ATOM     14  C   UNL     1     129.733 129.749 130.521  1.00  0.00     0.051 A 
ATOM     15  C   UNL     1     129.389 129.536 129.181  1.00  0.00     0.157 A 
ATOM     16  C   UNL     1     131.318 130.836 128.492  1.00  0.00     0.062 A 
ATOM     17  C   UNL     1     130.188 130.079 128.163  1.00  0.00     0.158 A 
BRANCH  15  18
ATOM     18  O   UNL     1     128.260 128.783 128.859  1.00  0.00    -0.504 OA
ATOM     19  H   UNL     1     128.246 127.775 128.963  1.00  0.00     0.293 HD
ENDBRANCH  15  18
BRANCH  17  20
ATOM     20  O   UNL     1     129.879 129.875 126.818  1.00  0.00    -0.504 OA
ATOM     21  H   UNL     1     129.166 130.414 126.342  1.00  0.00     0.293 HD
ENDBRANCH  17  20
ENDBRANCH   1  12
BRANCH   6  22
ATOM     22  O   UNL     1     137.305 134.454 130.791  1.00  0.00    -0.507 OA
ATOM     23  H   UNL     1     138.146 134.871 131.158  1.00  0.00     0.293 HD
ENDBRANCH   6  22
BRANCH   8  24
ATOM     24  O   UNL     1     135.417 133.997 135.183  1.00  0.00    -0.508 OA
ATOM     25  H   UNL     1     134.591 134.041 135.768  1.00  0.00     0.293 HD
ENDBRANCH   8  24
TORSDOF 5
ENDMDL
