MODEL 1
REMARK VINA RESULT:    -3.837      0.000      0.000
REMARK INTER + INTRA:         -14.199
REMARK INTER:                  -9.669
REMARK INTRA:                  -4.530
REMARK UNBOUND:                -4.530
REMARK SMILES CCCCCCCCCCCCCCCCCCCCCCCCCCCC(=O)[O-]
REMARK SMILES IDX 15 1 16 2 17 3 18 4 19 5 20 6 21 7 22 8 23 9 24 10 25 11
REMARK SMILES IDX 26 12 27 13 28 14 29 15 30 16 14 17 13 18 12 19 11 20 10 21
REMARK SMILES IDX 9 22 8 23 7 24 6 25 5 26 4 27 3 28 2 29 1 30
REMARK H PARENT
REMARK Flexibility Score: inf
ROOT
ATOM      1  C   UNL     1      15.990 -32.986  -1.759  1.00  0.00     0.000 C 
ENDROOT
BRANCH   1   2
ATOM      2  C   UNL     1      17.243 -33.793  -2.140  1.00  0.00     0.000 C 
BRANCH   2   3
ATOM      3  C   UNL     1      17.415 -35.081  -1.315  1.00  0.00     0.000 C 
BRANCH   3   4
ATOM      4  C   UNL     1      17.787 -36.332  -2.141  1.00  0.00     0.000 C 
BRANCH   4   5
ATOM      5  C   UNL     1      16.663 -37.370  -2.346  1.00  0.00     0.000 C 
BRANCH   5   6
ATOM      6  C   UNL     1      15.255 -36.932  -1.894  1.00  0.00     0.000 C 
BRANCH   6   7
ATOM      7  C   UNL     1      14.095 -37.742  -2.504  1.00  0.00     0.000 C 
BRANCH   7   8
ATOM      8  C   UNL     1      13.411 -38.731  -1.536  1.00  0.00     0.000 C 
BRANCH   8   9
ATOM      9  C   UNL     1      13.401 -38.292  -0.060  1.00  0.00     0.000 C 
BRANCH   9  10
ATOM     10  C   UNL     1      14.002 -39.350   0.883  1.00  0.00     0.000 C 
BRANCH  10  11
ATOM     11  C   UNL     1      15.533 -39.437   0.774  1.00  0.00     0.000 C 
BRANCH  11  12
ATOM     12  C   UNL     1      16.248 -38.607   1.855  1.00  0.00     0.006 C 
BRANCH  12  13
ATOM     13  C   UNL     1      17.463 -37.855   1.298  1.00  0.00     0.053 C 
BRANCH  13  14
ATOM     14  C   UNL     1      18.622 -38.768   1.036  1.00  0.00     0.041 C 
ATOM     15  O   UNL     1      19.394 -38.552   0.063  1.00  0.00    -0.550 OA
ATOM     16  O   UNL     1      18.849 -39.861   1.865  1.00  0.00    -0.550 OA
ENDBRANCH  13  14
ENDBRANCH  12  13
ENDBRANCH  11  12
ENDBRANCH  10  11
ENDBRANCH   9  10
ENDBRANCH   8   9
ENDBRANCH   7   8
ENDBRANCH   6   7
ENDBRANCH   5   6
ENDBRANCH   4   5
ENDBRANCH   3   4
ENDBRANCH   2   3
ENDBRANCH   1   2
BRANCH   1  17
ATOM     17  C   UNL     1      14.729 -33.476  -2.485  1.00  0.00     0.000 C 
BRANCH  17  18
ATOM     18  C   UNL     1      13.546 -33.696  -1.524  1.00  0.00     0.000 C 
BRANCH  18  19
ATOM     19  C   UNL     1      13.917 -33.436  -0.056  1.00  0.00     0.000 C 
BRANCH  19  20
ATOM     20  C   UNL     1      13.731 -34.674   0.833  1.00  0.00     0.000 C 
BRANCH  20  21
ATOM     21  C   UNL     1      15.080 -35.154   1.389  1.00  0.00     0.000 C 
BRANCH  21  22
ATOM     22  C   UNL     1      15.110 -35.180   2.926  1.00  0.00    -0.000 C 
BRANCH  22  23
ATOM     23  C   UNL     1      16.535 -35.049   3.492  1.00  0.00    -0.000 C 
BRANCH  23  24
ATOM     24  C   UNL     1      16.633 -35.549   4.949  1.00  0.00    -0.000 C 
BRANCH  24  25
ATOM     25  C   UNL     1      16.508 -37.074   5.095  1.00  0.00    -0.000 C 
BRANCH  25  26
ATOM     26  C   UNL     1      17.576 -37.680   6.021  1.00  0.00    -0.000 C 
BRANCH  26  27
ATOM     27  C   UNL     1      18.137 -36.645   7.020  1.00  0.00    -0.000 C 
BRANCH  27  28
ATOM     28  C   UNL     1      19.641 -36.816   7.305  1.00  0.00    -0.000 C 
BRANCH  28  29
ATOM     29  C   UNL     1      20.102 -36.271   8.667  1.00  0.00    -0.003 C 
ATOM     30  C   UNL     1      20.555 -34.812   8.601  1.00  0.00     0.004 C 
ENDBRANCH  28  29
ENDBRANCH  27  28
ENDBRANCH  26  27
ENDBRANCH  25  26
ENDBRANCH  24  25
ENDBRANCH  23  24
ENDBRANCH  22  23
ENDBRANCH  21  22
ENDBRANCH  20  21
ENDBRANCH  19  20
ENDBRANCH  18  19
ENDBRANCH  17  18
ENDBRANCH   1  17
TORSDOF 26
ENDMDL
MODEL 2
REMARK VINA RESULT:    -3.835      1.478      3.433
REMARK INTER + INTRA:         -14.195
REMARK INTER:                 -10.209
REMARK INTRA:                  -3.985
REMARK UNBOUND:                -4.530
REMARK SMILES CCCCCCCCCCCCCCCCCCCCCCCCCCCC(=O)[O-]
REMARK SMILES IDX 15 1 16 2 17 3 18 4 19 5 20 6 21 7 22 8 23 9 24 10 25 11
REMARK SMILES IDX 26 12 27 13 28 14 29 15 30 16 14 17 13 18 12 19 11 20 10 21
REMARK SMILES IDX 9 22 8 23 7 24 6 25 5 26 4 27 3 28 2 29 1 30
REMARK H PARENT
REMARK Flexibility Score: inf
ROOT
ATOM      1  C   UNL     1      17.760 -34.890   0.447  1.00  0.00     0.000 C 
ENDROOT
BRANCH   1   2
ATOM      2  C   UNL     1      17.687 -35.844  -0.757  1.00  0.00     0.000 C 
BRANCH   2   3
ATOM      3  C   UNL     1      17.403 -35.126  -2.090  1.00  0.00     0.000 C 
BRANCH   3   4
ATOM      4  C   UNL     1      17.318 -33.587  -1.990  1.00  0.00     0.000 C 
BRANCH   4   5
ATOM      5  C   UNL     1      15.942 -32.961  -2.300  1.00  0.00     0.000 C 
BRANCH   5   6
ATOM      6  C   UNL     1      14.798 -33.342  -1.337  1.00  0.00     0.000 C 
BRANCH   6   7
ATOM      7  C   UNL     1      13.825 -34.409  -1.872  1.00  0.00     0.000 C 
BRANCH   7   8
ATOM      8  C   UNL     1      14.006 -35.817  -1.267  1.00  0.00     0.000 C 
BRANCH   8   9
ATOM      9  C   UNL     1      13.868 -36.978  -2.270  1.00  0.00     0.000 C 
BRANCH   9  10
ATOM     10  C   UNL     1      14.995 -38.017  -2.141  1.00  0.00     0.000 C 
BRANCH  10  11
ATOM     11  C   UNL     1      15.082 -38.621  -0.730  1.00  0.00     0.000 C 
BRANCH  11  12
ATOM     12  C   UNL     1      16.469 -39.216  -0.429  1.00  0.00     0.006 C 
BRANCH  12  13
ATOM     13  C   UNL     1      16.879 -39.017   1.036  1.00  0.00     0.053 C 
BRANCH  13  14
ATOM     14  C   UNL     1      18.365 -39.079   1.221  1.00  0.00     0.041 C 
ATOM     15  O   UNL     1      18.853 -39.372   2.345  1.00  0.00    -0.550 OA
ATOM     16  O   UNL     1      19.211 -38.810   0.151  1.00  0.00    -0.550 OA
ENDBRANCH  13  14
ENDBRANCH  12  13
ENDBRANCH  11  12
ENDBRANCH  10  11
ENDBRANCH   9  10
ENDBRANCH   8   9
ENDBRANCH   7   8
ENDBRANCH   6   7
ENDBRANCH   5   6
ENDBRANCH   4   5
ENDBRANCH   3   4
ENDBRANCH   2   3
ENDBRANCH   1   2
BRANCH   1  17
ATOM     17  C   UNL     1      17.271 -35.544   1.748  1.00  0.00     0.000 C 
BRANCH  17  18
ATOM     18  C   UNL     1      15.763 -35.334   1.981  1.00  0.00     0.000 C 
BRANCH  18  19
ATOM     19  C   UNL     1      15.309 -35.792   3.376  1.00  0.00     0.000 C 
BRANCH  19  20
ATOM     20  C   UNL     1      16.353 -36.669   4.082  1.00  0.00     0.000 C 
BRANCH  20  21
ATOM     21  C   UNL     1      16.797 -36.029   5.407  1.00  0.00     0.000 C 
BRANCH  21  22
ATOM     22  C   UNL     1      15.852 -34.908   5.868  1.00  0.00    -0.000 C 
BRANCH  22  23
ATOM     23  C   UNL     1      16.589 -33.583   6.128  1.00  0.00    -0.000 C 
BRANCH  23  24
ATOM     24  C   UNL     1      16.832 -33.336   7.632  1.00  0.00    -0.000 C 
BRANCH  24  25
ATOM     25  C   UNL     1      18.116 -32.546   7.935  1.00  0.00    -0.000 C 
BRANCH  25  26
ATOM     26  C   UNL     1      18.933 -33.145   9.092  1.00  0.00    -0.000 C 
BRANCH  26  27
ATOM     27  C   UNL     1      20.347 -33.576   8.647  1.00  0.00    -0.000 C 
BRANCH  27  28
ATOM     28  C   UNL     1      20.583 -35.096   8.731  1.00  0.00    -0.000 C 
BRANCH  28  29
ATOM     29  C   UNL     1      19.370 -35.956   8.338  1.00  0.00    -0.003 C 
ATOM     30  C   UNL     1      19.733 -37.090   7.378  1.00  0.00     0.004 C 
ENDBRANCH  28  29
ENDBRANCH  27  28
ENDBRANCH  26  27
ENDBRANCH  25  26
ENDBRANCH  24  25
ENDBRANCH  23  24
ENDBRANCH  22  23
ENDBRANCH  21  22
ENDBRANCH  20  21
ENDBRANCH  19  20
ENDBRANCH  18  19
ENDBRANCH  17  18
ENDBRANCH   1  17
TORSDOF 26
ENDMDL
MODEL 3
REMARK VINA RESULT:    -3.790      2.418      7.242
REMARK INTER + INTRA:         -14.080
REMARK INTER:                  -9.181
REMARK INTRA:                  -4.899
REMARK UNBOUND:                -4.530
REMARK SMILES CCCCCCCCCCCCCCCCCCCCCCCCCCCC(=O)[O-]
REMARK SMILES IDX 15 1 16 2 17 3 18 4 19 5 20 6 21 7 22 8 23 9 24 10 25 11
REMARK SMILES IDX 26 12 27 13 28 14 29 15 30 16 14 17 13 18 12 19 11 20 10 21
REMARK SMILES IDX 9 22 8 23 7 24 6 25 5 26 4 27 3 28 2 29 1 30
REMARK H PARENT
REMARK Flexibility Score: inf
ROOT
ATOM      1  C   UNL     1      17.508 -38.216  -0.904  1.00  0.00     0.000 C 
ENDROOT
BRANCH   1   2
ATOM      2  C   UNL     1      18.888 -38.363  -0.243  1.00  0.00     0.000 C 
BRANCH   2   3
ATOM      3  C   UNL     1      18.834 -38.355   1.296  1.00  0.00     0.000 C 
BRANCH   3   4
ATOM      4  C   UNL     1      17.622 -39.096   1.903  1.00  0.00     0.000 C 
BRANCH   4   5
ATOM      5  C   UNL     1      17.896 -39.907   3.188  1.00  0.00     0.000 C 
BRANCH   5   6
ATOM      6  C   UNL     1      17.792 -39.122   4.512  1.00  0.00     0.000 C 
BRANCH   6   7
ATOM      7  C   UNL     1      16.958 -37.829   4.438  1.00  0.00     0.000 C 
BRANCH   7   8
ATOM      8  C   UNL     1      16.493 -37.275   5.802  1.00  0.00     0.000 C 
BRANCH   8   9
ATOM      9  C   UNL     1      16.837 -35.795   6.052  1.00  0.00     0.000 C 
BRANCH   9  10
ATOM     10  C   UNL     1      17.361 -35.535   7.475  1.00  0.00     0.000 C 
BRANCH  10  11
ATOM     11  C   UNL     1      18.250 -36.676   7.995  1.00  0.00     0.000 C 
BRANCH  11  12
ATOM     12  C   UNL     1      19.718 -36.527   7.557  1.00  0.00     0.006 C 
BRANCH  12  13
ATOM     13  C   UNL     1      20.320 -37.857   7.086  1.00  0.00     0.053 C 
BRANCH  13  14
ATOM     14  C   UNL     1      21.676 -38.104   7.675  1.00  0.00     0.041 C 
ATOM     15  O   UNL     1      22.632 -38.461   6.937  1.00  0.00    -0.550 OA
ATOM     16  O   UNL     1      21.882 -37.941   9.040  1.00  0.00    -0.550 OA
ENDBRANCH  13  14
ENDBRANCH  12  13
ENDBRANCH  11  12
ENDBRANCH  10  11
ENDBRANCH   9  10
ENDBRANCH   8   9
ENDBRANCH   7   8
ENDBRANCH   6   7
ENDBRANCH   5   6
ENDBRANCH   4   5
ENDBRANCH   3   4
ENDBRANCH   2   3
ENDBRANCH   1   2
BRANCH   1  17
ATOM     17  C   UNL     1      17.564 -37.418  -2.216  1.00  0.00     0.000 C 
BRANCH  17  18
ATOM     18  C   UNL     1      16.646 -36.182  -2.191  1.00  0.00     0.000 C 
BRANCH  18  19
ATOM     19  C   UNL     1      17.423 -34.871  -1.994  1.00  0.00     0.000 C 
BRANCH  19  20
ATOM     20  C   UNL     1      17.090 -34.176  -0.666  1.00  0.00     0.000 C 
BRANCH  20  21
ATOM     21  C   UNL     1      17.911 -34.777   0.486  1.00  0.00     0.000 C 
BRANCH  21  22
ATOM     22  C   UNL     1      17.031 -35.260   1.650  1.00  0.00    -0.000 C 
BRANCH  22  23
ATOM     23  C   UNL     1      15.541 -35.332   1.275  1.00  0.00    -0.000 C 
BRANCH  23  24
ATOM     24  C   UNL     1      14.900 -36.674   1.689  1.00  0.00    -0.000 C 
BRANCH  24  25
ATOM     25  C   UNL     1      14.283 -37.457   0.518  1.00  0.00    -0.000 C 
BRANCH  25  26
ATOM     26  C   UNL     1      13.395 -36.588  -0.387  1.00  0.00    -0.000 C 
BRANCH  26  27
ATOM     27  C   UNL     1      13.163 -37.233  -1.770  1.00  0.00    -0.000 C 
BRANCH  27  28
ATOM     28  C   UNL     1      13.773 -38.641  -1.904  1.00  0.00    -0.000 C 
BRANCH  28  29
ATOM     29  C   UNL     1      14.258 -38.999  -3.319  1.00  0.00    -0.003 C 
ATOM     30  C   UNL     1      15.284 -40.133  -3.325  1.00  0.00     0.004 C 
ENDBRANCH  28  29
ENDBRANCH  27  28
ENDBRANCH  26  27
ENDBRANCH  25  26
ENDBRANCH  24  25
ENDBRANCH  23  24
ENDBRANCH  22  23
ENDBRANCH  21  22
ENDBRANCH  20  21
ENDBRANCH  19  20
ENDBRANCH  18  19
ENDBRANCH  17  18
ENDBRANCH   1  17
TORSDOF 26
ENDMDL
MODEL 4
REMARK VINA RESULT:    -3.750      2.547      6.829
REMARK INTER + INTRA:         -13.979
REMARK INTER:                  -8.051
REMARK INTRA:                  -5.928
REMARK UNBOUND:                -4.530
REMARK SMILES CCCCCCCCCCCCCCCCCCCCCCCCCCCC(=O)[O-]
REMARK SMILES IDX 15 1 16 2 17 3 18 4 19 5 20 6 21 7 22 8 23 9 24 10 25 11
REMARK SMILES IDX 26 12 27 13 28 14 29 15 30 16 14 17 13 18 12 19 11 20 10 21
REMARK SMILES IDX 9 22 8 23 7 24 6 25 5 26 4 27 3 28 2 29 1 30
REMARK H PARENT
REMARK Flexibility Score: inf
ROOT
ATOM      1  C   UNL     1      17.485 -36.227  -2.210  1.00  0.00     0.000 C 
ENDROOT
BRANCH   1   2
ATOM      2  C   UNL     1      17.473 -34.961  -1.338  1.00  0.00     0.000 C 
BRANCH   2   3
ATOM      3  C   UNL     1      16.872 -33.734  -2.049  1.00  0.00     0.000 C 
BRANCH   3   4
ATOM      4  C   UNL     1      15.468 -33.323  -1.553  1.00  0.00     0.000 C 
BRANCH   4   5
ATOM      5  C   UNL     1      14.320 -33.459  -2.575  1.00  0.00     0.000 C 
BRANCH   5   6
ATOM      6  C   UNL     1      13.277 -34.554  -2.272  1.00  0.00     0.000 C 
BRANCH   6   7
ATOM      7  C   UNL     1      13.850 -35.978  -2.140  1.00  0.00     0.000 C 
BRANCH   7   8
ATOM      8  C   UNL     1      13.465 -36.717  -0.841  1.00  0.00     0.000 C 
BRANCH   8   9
ATOM      9  C   UNL     1      14.655 -37.222  -0.005  1.00  0.00     0.000 C 
BRANCH   9  10
ATOM     10  C   UNL     1      14.627 -36.708   1.446  1.00  0.00     0.000 C 
BRANCH  10  11
ATOM     11  C   UNL     1      15.269 -35.319   1.592  1.00  0.00     0.000 C 
BRANCH  11  12
ATOM     12  C   UNL     1      16.494 -35.331   2.524  1.00  0.00     0.006 C 
BRANCH  12  13
ATOM     13  C   UNL     1      16.527 -36.575   3.421  1.00  0.00     0.053 C 
BRANCH  13  14
ATOM     14  C   UNL     1      16.470 -36.223   4.877  1.00  0.00     0.041 C 
ATOM     15  O   UNL     1      15.847 -35.196   5.257  1.00  0.00    -0.550 OA
ATOM     16  O   UNL     1      17.107 -37.029   5.814  1.00  0.00    -0.550 OA
ENDBRANCH  13  14
ENDBRANCH  12  13
ENDBRANCH  11  12
ENDBRANCH  10  11
ENDBRANCH   9  10
ENDBRANCH   8   9
ENDBRANCH   7   8
ENDBRANCH   6   7
ENDBRANCH   5   6
ENDBRANCH   4   5
ENDBRANCH   3   4
ENDBRANCH   2   3
ENDBRANCH   1   2
BRANCH   1  17
ATOM     17  C   UNL     1      17.993 -37.462  -1.450  1.00  0.00     0.000 C 
BRANCH  17  18
ATOM     18  C   UNL     1      18.345 -37.146   0.015  1.00  0.00     0.000 C 
BRANCH  18  19
ATOM     19  C   UNL     1      18.588 -38.412   0.852  1.00  0.00     0.000 C 
BRANCH  19  20
ATOM     20  C   UNL     1      17.483 -39.463   0.674  1.00  0.00     0.000 C 
BRANCH  20  21
ATOM     21  C   UNL     1      17.045 -40.030   2.034  1.00  0.00     0.000 C 
BRANCH  21  22
ATOM     22  C   UNL     1      15.521 -40.203   2.138  1.00  0.00    -0.000 C 
BRANCH  22  23
ATOM     23  C   UNL     1      14.966 -41.198   1.104  1.00  0.00    -0.000 C 
BRANCH  23  24
ATOM     24  C   UNL     1      13.628 -40.726   0.498  1.00  0.00    -0.000 C 
BRANCH  24  25
ATOM     25  C   UNL     1      13.622 -40.675  -1.038  1.00  0.00    -0.000 C 
BRANCH  25  26
ATOM     26  C   UNL     1      15.024 -40.831  -1.651  1.00  0.00    -0.000 C 
BRANCH  26  27
ATOM     27  C   UNL     1      15.392 -39.650  -2.575  1.00  0.00    -0.000 C 
BRANCH  27  28
ATOM     28  C   UNL     1      14.407 -39.452  -3.744  1.00  0.00    -0.000 C 
BRANCH  28  29
ATOM     29  C   UNL     1      14.700 -40.315  -4.982  1.00  0.00    -0.003 C 
ATOM     30  C   UNL     1      16.195 -40.555  -5.197  1.00  0.00     0.004 C 
ENDBRANCH  28  29
ENDBRANCH  27  28
ENDBRANCH  26  27
ENDBRANCH  25  26
ENDBRANCH  24  25
ENDBRANCH  23  24
ENDBRANCH  22  23
ENDBRANCH  21  22
ENDBRANCH  20  21
ENDBRANCH  19  20
ENDBRANCH  18  19
ENDBRANCH  17  18
ENDBRANCH   1  17
TORSDOF 26
ENDMDL
MODEL 5
REMARK VINA RESULT:    -3.741      2.554      4.151
REMARK INTER + INTRA:         -13.956
REMARK INTER:                  -9.684
REMARK INTRA:                  -4.272
REMARK UNBOUND:                -4.530
REMARK SMILES CCCCCCCCCCCCCCCCCCCCCCCCCCCC(=O)[O-]
REMARK SMILES IDX 15 1 16 2 17 3 18 4 19 5 20 6 21 7 22 8 23 9 24 10 25 11
REMARK SMILES IDX 26 12 27 13 28 14 29 15 30 16 14 17 13 18 12 19 11 20 10 21
REMARK SMILES IDX 9 22 8 23 7 24 6 25 5 26 4 27 3 28 2 29 1 30
REMARK H PARENT
REMARK Flexibility Score: inf
ROOT
ATOM      1  C   UNL     1      16.576 -34.437  -0.580  1.00  0.00     0.000 C 
ENDROOT
BRANCH   1   2
ATOM      2  C   UNL     1      16.445 -35.301  -1.845  1.00  0.00     0.000 C 
BRANCH   2   3
ATOM      3  C   UNL     1      17.784 -35.894  -2.323  1.00  0.00     0.000 C 
BRANCH   3   4
ATOM      4  C   UNL     1      17.817 -37.436  -2.398  1.00  0.00     0.000 C 
BRANCH   4   5
ATOM      5  C   UNL     1      16.676 -38.176  -1.668  1.00  0.00     0.000 C 
BRANCH   5   6
ATOM      6  C   UNL     1      17.032 -38.764  -0.287  1.00  0.00     0.000 C 
BRANCH   6   7
ATOM      7  C   UNL     1      18.477 -38.506   0.177  1.00  0.00     0.000 C 
BRANCH   7   8
ATOM      8  C   UNL     1      18.698 -38.596   1.702  1.00  0.00     0.000 C 
BRANCH   8   9
ATOM      9  C   UNL     1      17.522 -39.198   2.493  1.00  0.00     0.000 C 
BRANCH   9  10
ATOM     10  C   UNL     1      17.947 -39.761   3.861  1.00  0.00     0.000 C 
BRANCH  10  11
ATOM     11  C   UNL     1      19.402 -40.256   3.870  1.00  0.00     0.000 C 
BRANCH  11  12
ATOM     12  C   UNL     1      20.245 -39.591   4.972  1.00  0.00     0.006 C 
BRANCH  12  13
ATOM     13  C   UNL     1      21.240 -40.569   5.610  1.00  0.00     0.053 C 
BRANCH  13  14
ATOM     14  C   UNL     1      22.530 -39.901   5.980  1.00  0.00     0.041 C 
ATOM     15  O   UNL     1      23.631 -40.439   5.685  1.00  0.00    -0.550 OA
ATOM     16  O   UNL     1      22.516 -38.685   6.654  1.00  0.00    -0.550 OA
ENDBRANCH  13  14
ENDBRANCH  12  13
ENDBRANCH  11  12
ENDBRANCH  10  11
ENDBRANCH   9  10
ENDBRANCH   8   9
ENDBRANCH   7   8
ENDBRANCH   6   7
ENDBRANCH   5   6
ENDBRANCH   4   5
ENDBRANCH   3   4
ENDBRANCH   2   3
ENDBRANCH   1   2
BRANCH   1  17
ATOM     17  C   UNL     1      17.777 -34.841   0.289  1.00  0.00     0.000 C 
BRANCH  17  18
ATOM     18  C   UNL     1      17.362 -35.228   1.721  1.00  0.00     0.000 C 
BRANCH  18  19
ATOM     19  C   UNL     1      15.979 -35.895   1.778  1.00  0.00     0.000 C 
BRANCH  19  20
ATOM     20  C   UNL     1      15.237 -35.612   3.092  1.00  0.00     0.000 C 
BRANCH  20  21
ATOM     21  C   UNL     1      16.228 -35.450   4.255  1.00  0.00     0.000 C 
BRANCH  21  22
ATOM     22  C   UNL     1      16.268 -36.681   5.175  1.00  0.00    -0.000 C 
BRANCH  22  23
ATOM     23  C   UNL     1      17.616 -36.833   5.901  1.00  0.00    -0.000 C 
BRANCH  23  24
ATOM     24  C   UNL     1      17.558 -37.893   7.022  1.00  0.00    -0.000 C 
BRANCH  24  25
ATOM     25  C   UNL     1      18.738 -37.824   8.006  1.00  0.00    -0.000 C 
BRANCH  25  26
ATOM     26  C   UNL     1      19.798 -36.785   7.603  1.00  0.00    -0.000 C 
BRANCH  26  27
ATOM     27  C   UNL     1      20.747 -36.437   8.770  1.00  0.00    -0.000 C 
BRANCH  27  28
ATOM     28  C   UNL     1      20.513 -35.032   9.356  1.00  0.00    -0.000 C 
BRANCH  28  29
ATOM     29  C   UNL     1      19.377 -34.239   8.688  1.00  0.00    -0.003 C 
ATOM     30  C   UNL     1      19.137 -32.879   9.344  1.00  0.00     0.004 C 
ENDBRANCH  28  29
ENDBRANCH  27  28
ENDBRANCH  26  27
ENDBRANCH  25  26
ENDBRANCH  24  25
ENDBRANCH  23  24
ENDBRANCH  22  23
ENDBRANCH  21  22
ENDBRANCH  20  21
ENDBRANCH  19  20
ENDBRANCH  18  19
ENDBRANCH  17  18
ENDBRANCH   1  17
TORSDOF 26
ENDMDL
MODEL 6
REMARK VINA RESULT:    -3.729      3.038      7.397
REMARK INTER + INTRA:         -13.927
REMARK INTER:                  -8.885
REMARK INTRA:                  -5.042
REMARK UNBOUND:                -4.530
REMARK SMILES CCCCCCCCCCCCCCCCCCCCCCCCCCCC(=O)[O-]
REMARK SMILES IDX 15 1 16 2 17 3 18 4 19 5 20 6 21 7 22 8 23 9 24 10 25 11
REMARK SMILES IDX 26 12 27 13 28 14 29 15 30 16 14 17 13 18 12 19 11 20 10 21
REMARK SMILES IDX 9 22 8 23 7 24 6 25 5 26 4 27 3 28 2 29 1 30
REMARK H PARENT
REMARK Flexibility Score: inf
ROOT
ATOM      1  C   UNL     1      17.710 -35.068  -2.089  1.00  0.00     0.000 C 
ENDROOT
BRANCH   1   2
ATOM      2  C   UNL     1      17.143 -33.768  -1.496  1.00  0.00     0.000 C 
BRANCH   2   3
ATOM      3  C   UNL     1      16.199 -33.018  -2.454  1.00  0.00     0.000 C 
BRANCH   3   4
ATOM      4  C   UNL     1      15.082 -32.209  -1.759  1.00  0.00     0.000 C 
BRANCH   4   5
ATOM      5  C   UNL     1      13.646 -32.752  -1.926  1.00  0.00     0.000 C 
BRANCH   5   6
ATOM      6  C   UNL     1      13.527 -34.146  -2.575  1.00  0.00     0.000 C 
BRANCH   6   7
ATOM      7  C   UNL     1      13.045 -35.264  -1.631  1.00  0.00     0.000 C 
BRANCH   7   8
ATOM      8  C   UNL     1      13.764 -35.319  -0.266  1.00  0.00     0.000 C 
BRANCH   8   9
ATOM      9  C   UNL     1      13.261 -36.418   0.689  1.00  0.00     0.000 C 
BRANCH   9  10
ATOM     10  C   UNL     1      14.103 -36.526   1.972  1.00  0.00     0.000 C 
BRANCH  10  11
ATOM     11  C   UNL     1      15.583 -36.187   1.738  1.00  0.00     0.000 C 
BRANCH  11  12
ATOM     12  C   UNL     1      16.497 -37.419   1.861  1.00  0.00     0.006 C 
BRANCH  12  13
ATOM     13  C   UNL     1      17.797 -37.258   1.063  1.00  0.00     0.053 C 
BRANCH  13  14
ATOM     14  C   UNL     1      18.419 -38.579   0.725  1.00  0.00     0.041 C 
ATOM     15  O   UNL     1      19.526 -38.624   0.124  1.00  0.00    -0.550 OA
ATOM     16  O   UNL     1      17.775 -39.762   1.071  1.00  0.00    -0.550 OA
ENDBRANCH  13  14
ENDBRANCH  12  13
ENDBRANCH  11  12
ENDBRANCH  10  11
ENDBRANCH   9  10
ENDBRANCH   8   9
ENDBRANCH   7   8
ENDBRANCH   6   7
ENDBRANCH   5   6
ENDBRANCH   4   5
ENDBRANCH   3   4
ENDBRANCH   2   3
ENDBRANCH   1   2
BRANCH   1  17
ATOM     17  C   UNL     1      16.665 -36.193  -2.152  1.00  0.00     0.000 C 
BRANCH  17  18
ATOM     18  C   UNL     1      17.282 -37.547  -2.549  1.00  0.00     0.000 C 
BRANCH  18  19
ATOM     19  C   UNL     1      16.267 -38.699  -2.497  1.00  0.00     0.000 C 
BRANCH  19  20
ATOM     20  C   UNL     1      14.813 -38.216  -2.601  1.00  0.00     0.000 C 
BRANCH  20  21
ATOM     21  C   UNL     1      13.885 -39.091  -1.745  1.00  0.00     0.000 C 
BRANCH  21  22
ATOM     22  C   UNL     1      14.592 -39.670  -0.508  1.00  0.00    -0.000 C 
BRANCH  22  23
ATOM     23  C   UNL     1      14.423 -41.194  -0.390  1.00  0.00    -0.000 C 
BRANCH  23  24
ATOM     24  C   UNL     1      15.469 -41.963  -1.225  1.00  0.00    -0.000 C 
BRANCH  24  25
ATOM     25  C   UNL     1      14.885 -42.668  -2.461  1.00  0.00    -0.000 C 
BRANCH  25  26
ATOM     26  C   UNL     1      15.484 -42.160  -3.783  1.00  0.00    -0.000 C 
BRANCH  26  27
ATOM     27  C   UNL     1      14.396 -41.709  -4.781  1.00  0.00    -0.000 C 
BRANCH  27  28
ATOM     28  C   UNL     1      14.706 -40.363  -5.464  1.00  0.00    -0.000 C 
BRANCH  28  29
ATOM     29  C   UNL     1      13.680 -39.931  -6.524  1.00  0.00    -0.003 C 
ATOM     30  C   UNL     1      14.330 -39.523  -7.847  1.00  0.00     0.004 C 
ENDBRANCH  28  29
ENDBRANCH  27  28
ENDBRANCH  26  27
ENDBRANCH  25  26
ENDBRANCH  24  25
ENDBRANCH  23  24
ENDBRANCH  22  23
ENDBRANCH  21  22
ENDBRANCH  20  21
ENDBRANCH  19  20
ENDBRANCH  18  19
ENDBRANCH  17  18
ENDBRANCH   1  17
TORSDOF 26
ENDMDL
MODEL 7
REMARK VINA RESULT:    -3.723      2.257      6.006
REMARK INTER + INTRA:         -13.911
REMARK INTER:                 -10.165
REMARK INTRA:                  -3.746
REMARK UNBOUND:                -4.530
REMARK SMILES CCCCCCCCCCCCCCCCCCCCCCCCCCCC(=O)[O-]
REMARK SMILES IDX 15 1 16 2 17 3 18 4 19 5 20 6 21 7 22 8 23 9 24 10 25 11
REMARK SMILES IDX 26 12 27 13 28 14 29 15 30 16 14 17 13 18 12 19 11 20 10 21
REMARK SMILES IDX 9 22 8 23 7 24 6 25 5 26 4 27 3 28 2 29 1 30
REMARK H PARENT
REMARK Flexibility Score: inf
ROOT
ATOM      1  C   UNL     1      17.008 -36.963   5.309  1.00  0.00     0.000 C 
ENDROOT
BRANCH   1   2
ATOM      2  C   UNL     1      16.555 -35.494   5.337  1.00  0.00     0.000 C 
BRANCH   2   3
ATOM      3  C   UNL     1      16.322 -34.898   3.936  1.00  0.00     0.000 C 
BRANCH   3   4
ATOM      4  C   UNL     1      16.716 -35.826   2.766  1.00  0.00     0.000 C 
BRANCH   4   5
ATOM      5  C   UNL     1      16.429 -35.290   1.348  1.00  0.00     0.000 C 
BRANCH   5   6
ATOM      6  C   UNL     1      17.665 -34.867   0.527  1.00  0.00     0.000 C 
BRANCH   6   7
ATOM      7  C   UNL     1      17.350 -34.139  -0.794  1.00  0.00     0.000 C 
BRANCH   7   8
ATOM      8  C   UNL     1      17.606 -34.967  -2.071  1.00  0.00     0.000 C 
BRANCH   8   9
ATOM      9  C   UNL     1      16.816 -36.286  -2.158  1.00  0.00     0.000 C 
BRANCH   9  10
ATOM     10  C   UNL     1      17.718 -37.530  -2.074  1.00  0.00     0.000 C 
BRANCH  10  11
ATOM     11  C   UNL     1      17.531 -38.308  -0.761  1.00  0.00     0.000 C 
BRANCH  11  12
ATOM     12  C   UNL     1      18.788 -38.278   0.126  1.00  0.00     0.006 C 
BRANCH  12  13
ATOM     13  C   UNL     1      18.494 -38.731   1.562  1.00  0.00     0.053 C 
BRANCH  13  14
ATOM     14  C   UNL     1      18.013 -40.150   1.620  1.00  0.00     0.041 C 
ATOM     15  O   UNL     1      18.758 -41.088   1.230  1.00  0.00    -0.550 OA
ATOM     16  O   UNL     1      16.740 -40.434   2.101  1.00  0.00    -0.550 OA
ENDBRANCH  13  14
ENDBRANCH  12  13
ENDBRANCH  11  12
ENDBRANCH  10  11
ENDBRANCH   9  10
ENDBRANCH   8   9
ENDBRANCH   7   8
ENDBRANCH   6   7
ENDBRANCH   5   6
ENDBRANCH   4   5
ENDBRANCH   3   4
ENDBRANCH   2   3
ENDBRANCH   1   2
BRANCH   1  17
ATOM     17  C   UNL     1      17.052 -37.593   6.710  1.00  0.00     0.000 C 
BRANCH  17  18
ATOM     18  C   UNL     1      17.837 -38.918   6.733  1.00  0.00     0.000 C 
BRANCH  18  19
ATOM     19  C   UNL     1      18.209 -39.412   5.326  1.00  0.00     0.000 C 
BRANCH  19  20
ATOM     20  C   UNL     1      19.583 -40.095   5.280  1.00  0.00     0.000 C 
BRANCH  20  21
ATOM     21  C   UNL     1      19.965 -40.648   6.662  1.00  0.00     0.000 C 
BRANCH  21  22
ATOM     22  C   UNL     1      21.421 -40.335   7.043  1.00  0.00    -0.000 C 
BRANCH  22  23
ATOM     23  C   UNL     1      21.873 -38.947   6.559  1.00  0.00    -0.000 C 
BRANCH  23  24
ATOM     24  C   UNL     1      22.206 -38.000   7.732  1.00  0.00    -0.000 C 
BRANCH  24  25
ATOM     25  C   UNL     1      21.367 -38.253   8.995  1.00  0.00    -0.000 C 
BRANCH  25  26
ATOM     26  C   UNL     1      20.231 -37.233   9.177  1.00  0.00    -0.000 C 
BRANCH  26  27
ATOM     27  C   UNL     1      20.142 -36.241   7.997  1.00  0.00    -0.000 C 
BRANCH  27  28
ATOM     28  C   UNL     1      19.641 -34.842   8.404  1.00  0.00    -0.000 C 
BRANCH  28  29
ATOM     29  C   UNL     1      20.749 -33.790   8.579  1.00  0.00    -0.003 C 
ATOM     30  C   UNL     1      21.028 -33.461  10.046  1.00  0.00     0.004 C 
ENDBRANCH  28  29
ENDBRANCH  27  28
ENDBRANCH  26  27
ENDBRANCH  25  26
ENDBRANCH  24  25
ENDBRANCH  23  24
ENDBRANCH  22  23
ENDBRANCH  21  22
ENDBRANCH  20  21
ENDBRANCH  19  20
ENDBRANCH  18  19
ENDBRANCH  17  18
ENDBRANCH   1  17
TORSDOF 26
ENDMDL
MODEL 8
REMARK VINA RESULT:    -3.670      2.776      6.432
REMARK INTER + INTRA:         -13.778
REMARK INTER:                  -9.502
REMARK INTRA:                  -4.276
REMARK UNBOUND:                -4.530
REMARK SMILES CCCCCCCCCCCCCCCCCCCCCCCCCCCC(=O)[O-]
REMARK SMILES IDX 15 1 16 2 17 3 18 4 19 5 20 6 21 7 22 8 23 9 24 10 25 11
REMARK SMILES IDX 26 12 27 13 28 14 29 15 30 16 14 17 13 18 12 19 11 20 10 21
REMARK SMILES IDX 9 22 8 23 7 24 6 25 5 26 4 27 3 28 2 29 1 30
REMARK H PARENT
REMARK Flexibility Score: inf
ROOT
ATOM      1  C   UNL     1      17.366 -36.335  -2.105  1.00  0.00     0.000 C 
ENDROOT
BRANCH   1   2
ATOM      2  C   UNL     1      18.032 -37.536  -1.414  1.00  0.00     0.000 C 
BRANCH   2   3
ATOM      3  C   UNL     1      18.278 -37.317   0.090  1.00  0.00     0.000 C 
BRANCH   3   4
ATOM      4  C   UNL     1      18.469 -38.613   0.909  1.00  0.00     0.000 C 
BRANCH   4   5
ATOM      5  C   UNL     1      17.308 -38.998   1.850  1.00  0.00     0.000 C 
BRANCH   5   6
ATOM      6  C   UNL     1      17.716 -39.630   3.197  1.00  0.00     0.000 C 
BRANCH   6   7
ATOM      7  C   UNL     1      19.228 -39.611   3.493  1.00  0.00     0.000 C 
BRANCH   7   8
ATOM      8  C   UNL     1      19.603 -39.791   4.979  1.00  0.00     0.000 C 
BRANCH   8   9
ATOM      9  C   UNL     1      20.872 -39.040   5.424  1.00  0.00     0.000 C 
BRANCH   9  10
ATOM     10  C   UNL     1      20.837 -38.636   6.908  1.00  0.00     0.000 C 
BRANCH  10  11
ATOM     11  C   UNL     1      19.489 -38.026   7.324  1.00  0.00     0.000 C 
BRANCH  11  12
ATOM     12  C   UNL     1      19.594 -37.182   8.606  1.00  0.00     0.006 C 
BRANCH  12  13
ATOM     13  C   UNL     1      20.713 -36.135   8.521  1.00  0.00     0.053 C 
BRANCH  13  14
ATOM     14  C   UNL     1      20.197 -34.741   8.709  1.00  0.00     0.041 C 
ATOM     15  O   UNL     1      19.049 -34.427   8.294  1.00  0.00    -0.550 OA
ATOM     16  O   UNL     1      20.985 -33.786   9.341  1.00  0.00    -0.550 OA
ENDBRANCH  13  14
ENDBRANCH  12  13
ENDBRANCH  11  12
ENDBRANCH  10  11
ENDBRANCH   9  10
ENDBRANCH   8   9
ENDBRANCH   7   8
ENDBRANCH   6   7
ENDBRANCH   5   6
ENDBRANCH   4   5
ENDBRANCH   3   4
ENDBRANCH   2   3
ENDBRANCH   1   2
BRANCH   1  17
ATOM     17  C   UNL     1      17.447 -35.051  -1.266  1.00  0.00     0.000 C 
BRANCH  17  18
ATOM     18  C   UNL     1      16.996 -33.805  -2.051  1.00  0.00     0.000 C 
BRANCH  18  19
ATOM     19  C   UNL     1      15.722 -33.169  -1.472  1.00  0.00     0.000 C 
BRANCH  19  20
ATOM     20  C   UNL     1      14.526 -33.257  -2.432  1.00  0.00     0.000 C 
BRANCH  20  21
ATOM     21  C   UNL     1      13.445 -34.195  -1.871  1.00  0.00     0.000 C 
BRANCH  21  22
ATOM     22  C   UNL     1      13.205 -35.422  -2.766  1.00  0.00    -0.000 C 
BRANCH  22  23
ATOM     23  C   UNL     1      13.713 -36.726  -2.128  1.00  0.00    -0.000 C 
BRANCH  23  24
ATOM     24  C   UNL     1      13.371 -36.813  -0.625  1.00  0.00    -0.000 C 
BRANCH  24  25
ATOM     25  C   UNL     1      14.590 -37.058   0.279  1.00  0.00    -0.000 C 
BRANCH  25  26
ATOM     26  C   UNL     1      14.515 -36.294   1.611  1.00  0.00    -0.000 C 
BRANCH  26  27
ATOM     27  C   UNL     1      15.640 -35.245   1.746  1.00  0.00    -0.000 C 
BRANCH  27  28
ATOM     28  C   UNL     1      16.583 -35.502   2.937  1.00  0.00    -0.000 C 
BRANCH  28  29
ATOM     29  C   UNL     1      15.996 -36.404   4.036  1.00  0.00    -0.003 C 
ATOM     30  C   UNL     1      16.880 -36.472   5.282  1.00  0.00     0.004 C 
ENDBRANCH  28  29
ENDBRANCH  27  28
ENDBRANCH  26  27
ENDBRANCH  25  26
ENDBRANCH  24  25
ENDBRANCH  23  24
ENDBRANCH  22  23
ENDBRANCH  21  22
ENDBRANCH  20  21
ENDBRANCH  19  20
ENDBRANCH  18  19
ENDBRANCH  17  18
ENDBRANCH   1  17
TORSDOF 26
ENDMDL
MODEL 9
REMARK VINA RESULT:    -3.658      1.108      2.259
REMARK INTER + INTRA:         -13.748
REMARK INTER:                 -10.060
REMARK INTRA:                  -3.688
REMARK UNBOUND:                -4.530
REMARK SMILES CCCCCCCCCCCCCCCCCCCCCCCCCCCC(=O)[O-]
REMARK SMILES IDX 15 1 16 2 17 3 18 4 19 5 20 6 21 7 22 8 23 9 24 10 25 11
REMARK SMILES IDX 26 12 27 13 28 14 29 15 30 16 14 17 13 18 12 19 11 20 10 21
REMARK SMILES IDX 9 22 8 23 7 24 6 25 5 26 4 27 3 28 2 29 1 30
REMARK H PARENT
REMARK Flexibility Score: inf
ROOT
ATOM      1  C   UNL     1      14.151 -34.410  -1.967  1.00  0.00     0.000 C 
ENDROOT
BRANCH   1   2
ATOM      2  C   UNL     1      15.029 -33.205  -1.590  1.00  0.00     0.000 C 
BRANCH   2   3
ATOM      3  C   UNL     1      16.459 -33.291  -2.155  1.00  0.00     0.000 C 
BRANCH   3   4
ATOM      4  C   UNL     1      17.390 -34.275  -1.412  1.00  0.00     0.000 C 
BRANCH   4   5
ATOM      5  C   UNL     1      17.724 -35.585  -2.155  1.00  0.00     0.000 C 
BRANCH   5   6
ATOM      6  C   UNL     1      17.185 -36.879  -1.512  1.00  0.00     0.000 C 
BRANCH   6   7
ATOM      7  C   UNL     1      16.471 -37.840  -2.483  1.00  0.00     0.000 C 
BRANCH   7   8
ATOM      8  C   UNL     1      14.958 -38.010  -2.236  1.00  0.00     0.000 C 
BRANCH   8   9
ATOM      9  C   UNL     1      14.590 -39.001  -1.116  1.00  0.00     0.000 C 
BRANCH   9  10
ATOM     10  C   UNL     1      15.417 -40.298  -1.169  1.00  0.00     0.000 C 
BRANCH  10  11
ATOM     11  C   UNL     1      16.202 -40.552   0.128  1.00  0.00     0.000 C 
BRANCH  11  12
ATOM     12  C   UNL     1      16.218 -39.326   1.058  1.00  0.00     0.006 C 
BRANCH  12  13
ATOM     13  C   UNL     1      16.980 -39.597   2.361  1.00  0.00     0.053 C 
BRANCH  13  14
ATOM     14  C   UNL     1      18.454 -39.371   2.211  1.00  0.00     0.041 C 
ATOM     15  O   UNL     1      19.265 -39.934   2.993  1.00  0.00    -0.550 OA
ATOM     16  O   UNL     1      18.932 -38.535   1.207  1.00  0.00    -0.550 OA
ENDBRANCH  13  14
ENDBRANCH  12  13
ENDBRANCH  11  12
ENDBRANCH  10  11
ENDBRANCH   9  10
ENDBRANCH   8   9
ENDBRANCH   7   8
ENDBRANCH   6   7
ENDBRANCH   5   6
ENDBRANCH   4   5
ENDBRANCH   3   4
ENDBRANCH   2   3
ENDBRANCH   1   2
BRANCH   1  17
ATOM     17  C   UNL     1      13.516 -35.084  -0.741  1.00  0.00     0.000 C 
BRANCH  17  18
ATOM     18  C   UNL     1      14.094 -34.557   0.585  1.00  0.00     0.000 C 
BRANCH  18  19
ATOM     19  C   UNL     1      14.536 -35.686   1.529  1.00  0.00     0.000 C 
BRANCH  19  20
ATOM     20  C   UNL     1      16.049 -35.683   1.793  1.00  0.00     0.000 C 
BRANCH  20  21
ATOM     21  C   UNL     1      16.362 -36.267   3.179  1.00  0.00     0.000 C 
BRANCH  21  22
ATOM     22  C   UNL     1      16.532 -35.180   4.254  1.00  0.00    -0.000 C 
BRANCH  22  23
ATOM     23  C   UNL     1      16.500 -35.751   5.682  1.00  0.00    -0.000 C 
BRANCH  23  24
ATOM     24  C   UNL     1      17.610 -36.798   5.917  1.00  0.00    -0.000 C 
BRANCH  24  25
ATOM     25  C   UNL     1      18.143 -36.828   7.359  1.00  0.00    -0.000 C 
BRANCH  25  26
ATOM     26  C   UNL     1      19.563 -37.409   7.463  1.00  0.00    -0.000 C 
BRANCH  26  27
ATOM     27  C   UNL     1      20.517 -36.482   8.247  1.00  0.00    -0.000 C 
BRANCH  27  28
ATOM     28  C   UNL     1      19.853 -35.177   8.726  1.00  0.00    -0.000 C 
BRANCH  28  29
ATOM     29  C   UNL     1      20.762 -33.939   8.677  1.00  0.00    -0.003 C 
ATOM     30  C   UNL     1      21.024 -33.340  10.060  1.00  0.00     0.004 C 
ENDBRANCH  28  29
ENDBRANCH  27  28
ENDBRANCH  26  27
ENDBRANCH  25  26
ENDBRANCH  24  25
ENDBRANCH  23  24
ENDBRANCH  22  23
ENDBRANCH  21  22
ENDBRANCH  20  21
ENDBRANCH  19  20
ENDBRANCH  18  19
ENDBRANCH  17  18
ENDBRANCH   1  17
TORSDOF 26
ENDMDL
