MODEL 1
REMARK VINA RESULT:    -3.307      0.000      0.000
REMARK INTER + INTRA:          -3.520
REMARK INTER:                  -3.500
REMARK INTRA:                  -0.020
REMARK UNBOUND:                -0.020
REMARK SMILES O=C([O-])c1cccnc1
REMARK SMILES IDX 4 1 5 2 9 3 6 4 8 5 7 6 2 7 1 8 3 9
REMARK H PARENT
REMARK Flexibility Score: inf
ROOT
ATOM      1  C   UNL     1      54.647  26.531  50.108  1.00  0.00     0.016 A 
ATOM      2  C   UNL     1      54.258  27.859  50.347  1.00  0.00     0.013 A 
ATOM      3  C   UNL     1      55.991  26.180  50.325  1.00  0.00     0.120 A 
ATOM      4  C   UNL     1      55.194  28.796  50.786  1.00  0.00     0.021 A 
ATOM      5  N   UNL     1      56.882  27.113  50.755  1.00  0.00    -0.264 NA
ATOM      6  C   UNL     1      56.516  28.401  50.987  1.00  0.00     0.111 A 
ENDROOT
BRANCH   1   7
ATOM      7  C   UNL     1      53.664  25.530  49.642  1.00  0.00     0.073 C 
ATOM      8  O   UNL     1      52.875  25.798  48.696  1.00  0.00    -0.545 OA
ATOM      9  O   UNL     1      53.597  24.277  50.240  1.00  0.00    -0.545 OA
ENDBRANCH   1   7
TORSDOF 1
ENDMDL
MODEL 2
REMARK VINA RESULT:    -3.300     15.275     16.505
REMARK INTER + INTRA:          -3.513
REMARK INTER:                  -3.491
REMARK INTRA:                  -0.021
REMARK UNBOUND:                -0.020
REMARK SMILES O=C([O-])c1cccnc1
REMARK SMILES IDX 4 1 5 2 9 3 6 4 8 5 7 6 2 7 1 8 3 9
REMARK H PARENT
REMARK Flexibility Score: inf
ROOT
ATOM      1  C   UNL     1      63.638  35.177  61.142  1.00  0.00     0.016 A 
ATOM      2  C   UNL     1      62.329  35.640  60.934  1.00  0.00     0.013 A 
ATOM      3  C   UNL     1      63.921  33.828  60.863  1.00  0.00     0.120 A 
ATOM      4  C   UNL     1      61.344  34.770  60.463  1.00  0.00     0.021 A 
ATOM      5  N   UNL     1      62.943  33.002  60.404  1.00  0.00    -0.264 NA
ATOM      6  C   UNL     1      61.673  33.440  60.201  1.00  0.00     0.111 A 
ENDROOT
BRANCH   1   7
ATOM      7  C   UNL     1      64.690  36.089  61.641  1.00  0.00     0.073 C 
ATOM      8  O   UNL     1      64.409  37.003  62.461  1.00  0.00    -0.545 OA
ATOM      9  O   UNL     1      66.005  35.948  61.212  1.00  0.00    -0.545 OA
ENDBRANCH   1   7
TORSDOF 1
ENDMDL
MODEL 3
REMARK VINA RESULT:    -3.220      2.857      3.519
REMARK INTER + INTRA:          -3.428
REMARK INTER:                  -3.405
REMARK INTRA:                  -0.023
REMARK UNBOUND:                -0.020
REMARK SMILES O=C([O-])c1cccnc1
REMARK SMILES IDX 4 1 5 2 9 3 6 4 8 5 7 6 2 7 1 8 3 9
REMARK H PARENT
REMARK Flexibility Score: inf
ROOT
ATOM      1  C   UNL     1      55.409  27.223  50.329  1.00  0.00     0.016 A 
ATOM      2  C   UNL     1      54.313  28.099  50.382  1.00  0.00     0.013 A 
ATOM      3  C   UNL     1      55.194  25.910  49.877  1.00  0.00     0.120 A 
ATOM      4  C   UNL     1      53.046  27.661  49.992  1.00  0.00     0.021 A 
ATOM      5  N   UNL     1      53.950  25.508  49.502  1.00  0.00    -0.264 NA
ATOM      6  C   UNL     1      52.882  26.348  49.551  1.00  0.00     0.111 A 
ENDROOT
BRANCH   1   7
ATOM      7  C   UNL     1      56.756  27.676  50.740  1.00  0.00     0.073 C 
ATOM      8  O   UNL     1      57.031  28.905  50.790  1.00  0.00    -0.545 OA
ATOM      9  O   UNL     1      57.737  26.751  51.076  1.00  0.00    -0.545 OA
ENDBRANCH   1   7
TORSDOF 1
ENDMDL
MODEL 4
REMARK VINA RESULT:    -3.214      2.903      3.845
REMARK INTER + INTRA:          -3.422
REMARK INTER:                  -3.398
REMARK INTRA:                  -0.023
REMARK UNBOUND:                -0.020
REMARK SMILES O=C([O-])c1cccnc1
REMARK SMILES IDX 4 1 5 2 9 3 6 4 8 5 7 6 2 7 1 8 3 9
REMARK H PARENT
REMARK Flexibility Score: inf
ROOT
ATOM      1  C   UNL     1      55.409  27.279  50.373  1.00  0.00     0.016 A 
ATOM      2  C   UNL     1      55.219  25.964  49.918  1.00  0.00     0.013 A 
ATOM      3  C   UNL     1      54.297  28.138  50.416  1.00  0.00     0.120 A 
ATOM      4  C   UNL     1      53.952  25.536  49.520  1.00  0.00     0.021 A 
ATOM      5  N   UNL     1      53.073  27.695  50.024  1.00  0.00    -0.264 NA
ATOM      6  C   UNL     1      52.879  26.425  49.580  1.00  0.00     0.111 A 
ENDROOT
BRANCH   1   7
ATOM      7  C   UNL     1      56.748  27.744  50.797  1.00  0.00     0.073 C 
ATOM      8  O   UNL     1      56.991  28.974  50.912  1.00  0.00    -0.545 OA
ATOM      9  O   UNL     1      57.756  26.828  51.075  1.00  0.00    -0.545 OA
ENDBRANCH   1   7
TORSDOF 1
ENDMDL
MODEL 5
REMARK VINA RESULT:    -3.190     14.778     15.933
REMARK INTER + INTRA:          -3.396
REMARK INTER:                  -3.374
REMARK INTRA:                  -0.022
REMARK UNBOUND:                -0.020
REMARK SMILES O=C([O-])c1cccnc1
REMARK SMILES IDX 4 1 5 2 9 3 6 4 8 5 7 6 2 7 1 8 3 9
REMARK H PARENT
REMARK Flexibility Score: inf
ROOT
ATOM      1  C   UNL     1      63.176  34.503  60.933  1.00  0.00     0.016 A 
ATOM      2  C   UNL     1      62.223  35.533  60.866  1.00  0.00     0.013 A 
ATOM      3  C   UNL     1      64.450  34.805  61.445  1.00  0.00     0.120 A 
ATOM      4  C   UNL     1      62.548  36.818  61.300  1.00  0.00     0.021 A 
ATOM      5  N   UNL     1      64.740  36.066  61.862  1.00  0.00    -0.264 NA
ATOM      6  C   UNL     1      63.826  37.070  61.801  1.00  0.00     0.111 A 
ENDROOT
BRANCH   1   7
ATOM      7  C   UNL     1      62.843  33.137  60.475  1.00  0.00     0.073 C 
ATOM      8  O   UNL     1      63.755  32.327  60.160  1.00  0.00    -0.545 OA
ATOM      9  O   UNL     1      61.517  32.728  60.386  1.00  0.00    -0.545 OA
ENDBRANCH   1   7
TORSDOF 1
ENDMDL
MODEL 6
REMARK VINA RESULT:    -3.173     14.599     15.825
REMARK INTER + INTRA:          -3.378
REMARK INTER:                  -3.354
REMARK INTRA:                  -0.024
REMARK UNBOUND:                -0.020
REMARK SMILES O=C([O-])c1cccnc1
REMARK SMILES IDX 4 1 5 2 9 3 6 4 8 5 7 6 2 7 1 8 3 9
REMARK H PARENT
REMARK Flexibility Score: inf
ROOT
ATOM      1  C   UNL     1      62.928  34.486  60.878  1.00  0.00     0.016 A 
ATOM      2  C   UNL     1      64.261  34.555  61.313  1.00  0.00     0.013 A 
ATOM      3  C   UNL     1      62.154  35.659  60.908  1.00  0.00     0.120 A 
ATOM      4  C   UNL     1      64.790  35.766  61.762  1.00  0.00     0.021 A 
ATOM      5  N   UNL     1      62.694  36.826  61.350  1.00  0.00    -0.264 NA
ATOM      6  C   UNL     1      63.983  36.904  61.774  1.00  0.00     0.111 A 
ENDROOT
BRANCH   1   7
ATOM      7  C   UNL     1      62.356  33.209  60.400  1.00  0.00     0.073 C 
ATOM      8  O   UNL     1      61.170  33.157  59.976  1.00  0.00    -0.545 OA
ATOM      9  O   UNL     1      63.120  32.047  60.412  1.00  0.00    -0.545 OA
ENDBRANCH   1   7
TORSDOF 1
ENDMDL
MODEL 7
REMARK VINA RESULT:    -3.131      8.315      9.273
REMARK INTER + INTRA:          -3.333
REMARK INTER:                  -3.316
REMARK INTRA:                  -0.017
REMARK UNBOUND:                -0.020
REMARK SMILES O=C([O-])c1cccnc1
REMARK SMILES IDX 4 1 5 2 9 3 6 4 8 5 7 6 2 7 1 8 3 9
REMARK H PARENT
REMARK Flexibility Score: inf
ROOT
ATOM      1  C   UNL     1      57.550  18.377  50.953  1.00  0.00     0.016 A 
ATOM      2  C   UNL     1      57.743  17.227  50.171  1.00  0.00     0.013 A 
ATOM      3  C   UNL     1      58.661  19.195  51.225  1.00  0.00     0.120 A 
ATOM      4  C   UNL     1      59.013  16.917  49.682  1.00  0.00     0.021 A 
ATOM      5  N   UNL     1      59.888  18.869  50.736  1.00  0.00    -0.264 NA
ATOM      6  C   UNL     1      60.085  17.758  49.978  1.00  0.00     0.111 A 
ENDROOT
BRANCH   1   7
ATOM      7  C   UNL     1      56.209  18.717  51.477  1.00  0.00     0.073 C 
ATOM      8  O   UNL     1      55.281  19.049  50.693  1.00  0.00    -0.545 OA
ATOM      9  O   UNL     1      55.955  18.672  52.843  1.00  0.00    -0.545 OA
ENDBRANCH   1   7
TORSDOF 1
ENDMDL
MODEL 8
REMARK VINA RESULT:    -3.095      9.018      9.529
REMARK INTER + INTRA:          -3.295
REMARK INTER:                  -3.277
REMARK INTRA:                  -0.019
REMARK UNBOUND:                -0.020
REMARK SMILES O=C([O-])c1cccnc1
REMARK SMILES IDX 4 1 5 2 9 3 6 4 8 5 7 6 2 7 1 8 3 9
REMARK H PARENT
REMARK Flexibility Score: inf
ROOT
ATOM      1  C   UNL     1      57.674  18.055  51.085  1.00  0.00     0.016 A 
ATOM      2  C   UNL     1      58.109  17.933  52.415  1.00  0.00     0.013 A 
ATOM      3  C   UNL     1      56.383  18.558  50.847  1.00  0.00     0.120 A 
ATOM      4  C   UNL     1      57.267  18.305  53.464  1.00  0.00     0.021 A 
ATOM      5  N   UNL     1      55.584  18.914  51.888  1.00  0.00    -0.264 NA
ATOM      6  C   UNL     1      55.994  18.799  53.179  1.00  0.00     0.111 A 
ENDROOT
BRANCH   1   7
ATOM      7  C   UNL     1      58.557  17.663  49.964  1.00  0.00     0.073 C 
ATOM      8  O   UNL     1      58.146  16.876  49.071  1.00  0.00    -0.545 OA
ATOM      9  O   UNL     1      59.853  18.160  49.883  1.00  0.00    -0.545 OA
ENDBRANCH   1   7
TORSDOF 1
ENDMDL
MODEL 9
REMARK VINA RESULT:    -3.040     13.584     14.204
REMARK INTER + INTRA:          -3.237
REMARK INTER:                  -3.219
REMARK INTRA:                  -0.018
REMARK UNBOUND:                -0.020
REMARK SMILES O=C([O-])c1cccnc1
REMARK SMILES IDX 4 1 5 2 9 3 6 4 8 5 7 6 2 7 1 8 3 9
REMARK H PARENT
REMARK Flexibility Score: inf
ROOT
ATOM      1  C   UNL     1      62.107  32.380  60.564  1.00  0.00     0.016 A 
ATOM      2  C   UNL     1      61.142  31.475  61.033  1.00  0.00     0.013 A 
ATOM      3  C   UNL     1      63.446  31.956  60.504  1.00  0.00     0.120 A 
ATOM      4  C   UNL     1      61.518  30.191  61.429  1.00  0.00     0.021 A 
ATOM      5  N   UNL     1      63.786  30.699  60.895  1.00  0.00    -0.264 NA
ATOM      6  C   UNL     1      62.859  29.816  61.353  1.00  0.00     0.111 A 
ENDROOT
BRANCH   1   7
ATOM      7  C   UNL     1      61.721  33.744  60.142  1.00  0.00     0.073 C 
ATOM      8  O   UNL     1      60.950  33.916  59.160  1.00  0.00    -0.545 OA
ATOM      9  O   UNL     1      62.203  34.855  60.824  1.00  0.00    -0.545 OA
ENDBRANCH   1   7
TORSDOF 1
ENDMDL
