MODEL 1
REMARK VINA RESULT:    -3.857      0.000      0.000
REMARK INTER + INTRA:          -7.725
REMARK INTER:                  -6.789
REMARK INTRA:                  -0.937
REMARK UNBOUND:                -0.937
REMARK SMILES CCCCCCCCCCCCCCC(=O)[O-]
REMARK SMILES IDX 9 1 10 2 11 3 12 4 13 5 14 6 15 7 16 8 17 9 8 10 7 11 6 12
REMARK SMILES IDX 5 13 4 14 3 15 2 16 1 17
REMARK H PARENT
REMARK Flexibility Score: inf
ROOT
ATOM      1  C   UNL     1      61.085  27.302  50.033  1.00  0.00     0.000 C 
ENDROOT
BRANCH   1   2
ATOM      2  C   UNL     1      61.208  26.020  50.870  1.00  0.00     0.000 C 
BRANCH   2   3
ATOM      3  C   UNL     1      59.908  25.203  50.812  1.00  0.00     0.000 C 
BRANCH   3   4
ATOM      4  C   UNL     1      60.137  23.695  51.012  1.00  0.00     0.000 C 
BRANCH   4   5
ATOM      5  C   UNL     1      61.408  23.129  50.349  1.00  0.00     0.006 C 
BRANCH   5   6
ATOM      6  C   UNL     1      61.146  21.955  49.386  1.00  0.00     0.053 C 
BRANCH   6   7
ATOM      7  C   UNL     1      60.973  20.650  50.101  1.00  0.00     0.041 C 
ATOM      8  O   UNL     1      59.842  20.101  50.159  1.00  0.00    -0.550 OA
ATOM      9  O   UNL     1      62.055  20.058  50.741  1.00  0.00    -0.550 OA
ENDBRANCH   6   7
ENDBRANCH   5   6
ENDBRANCH   4   5
ENDBRANCH   3   4
ENDBRANCH   2   3
ENDBRANCH   1   2
BRANCH   1  10
ATOM     10  C   UNL     1      59.632  27.619  49.642  1.00  0.00     0.000 C 
BRANCH  10  11
ATOM     11  C   UNL     1      59.266  29.095  49.877  1.00  0.00    -0.000 C 
BRANCH  11  12
ATOM     12  C   UNL     1      58.330  29.287  51.082  1.00  0.00    -0.000 C 
BRANCH  12  13
ATOM     13  C   UNL     1      57.522  28.019  51.410  1.00  0.00    -0.000 C 
BRANCH  13  14
ATOM     14  C   UNL     1      56.247  27.895  50.560  1.00  0.00    -0.000 C 
BRANCH  14  15
ATOM     15  C   UNL     1      55.146  28.878  50.996  1.00  0.00    -0.000 C 
BRANCH  15  16
ATOM     16  C   UNL     1      53.768  28.504  50.430  1.00  0.00    -0.003 C 
ATOM     17  C   UNL     1      53.662  27.025  50.061  1.00  0.00     0.004 C 
ENDBRANCH  15  16
ENDBRANCH  14  15
ENDBRANCH  13  14
ENDBRANCH  12  13
ENDBRANCH  11  12
ENDBRANCH  10  11
ENDBRANCH   1  10
TORSDOF 13
ENDMDL
MODEL 2
REMARK VINA RESULT:    -3.823      1.959      3.630
REMARK INTER + INTRA:          -7.665
REMARK INTER:                  -5.927
REMARK INTRA:                  -1.738
REMARK UNBOUND:                -0.937
REMARK SMILES CCCCCCCCCCCCCCC(=O)[O-]
REMARK SMILES IDX 9 1 10 2 11 3 12 4 13 5 14 6 15 7 16 8 17 9 8 10 7 11 6 12
REMARK SMILES IDX 5 13 4 14 3 15 2 16 1 17
REMARK H PARENT
REMARK Flexibility Score: inf
ROOT
ATOM      1  C   UNL     1      57.332  28.594  50.694  1.00  0.00     0.000 C 
ENDROOT
BRANCH   1   2
ATOM      2  C   UNL     1      58.740  29.204  50.633  1.00  0.00     0.000 C 
BRANCH   2   3
ATOM      3  C   UNL     1      59.609  28.471  49.599  1.00  0.00     0.000 C 
BRANCH   3   4
ATOM      4  C   UNL     1      61.048  28.233  50.085  1.00  0.00     0.000 C 
BRANCH   4   5
ATOM      5  C   UNL     1      61.324  26.834  50.670  1.00  0.00     0.006 C 
BRANCH   5   6
ATOM      6  C   UNL     1      60.395  25.731  50.128  1.00  0.00     0.053 C 
BRANCH   6   7
ATOM      7  C   UNL     1      60.660  24.395  50.753  1.00  0.00     0.041 C 
ATOM      8  O   UNL     1      59.758  23.809  51.407  1.00  0.00    -0.550 OA
ATOM      9  O   UNL     1      61.917  23.813  50.649  1.00  0.00    -0.550 OA
ENDBRANCH   6   7
ENDBRANCH   5   6
ENDBRANCH   4   5
ENDBRANCH   3   4
ENDBRANCH   2   3
ENDBRANCH   1   2
BRANCH   1  10
ATOM     10  C   UNL     1      57.269  27.329  51.565  1.00  0.00     0.000 C 
BRANCH  10  11
ATOM     11  C   UNL     1      56.878  26.077  50.760  1.00  0.00    -0.000 C 
BRANCH  11  12
ATOM     12  C   UNL     1      55.530  26.238  50.037  1.00  0.00    -0.000 C 
BRANCH  12  13
ATOM     13  C   UNL     1      54.332  25.871  50.929  1.00  0.00    -0.000 C 
BRANCH  13  14
ATOM     14  C   UNL     1      53.501  27.098  51.337  1.00  0.00    -0.000 C 
BRANCH  14  15
ATOM     15  C   UNL     1      53.507  28.201  50.263  1.00  0.00    -0.000 C 
BRANCH  15  16
ATOM     16  C   UNL     1      53.900  29.572  50.833  1.00  0.00    -0.003 C 
ATOM     17  C   UNL     1      54.094  29.549  52.348  1.00  0.00     0.004 C 
ENDBRANCH  15  16
ENDBRANCH  14  15
ENDBRANCH  13  14
ENDBRANCH  12  13
ENDBRANCH  11  12
ENDBRANCH  10  11
ENDBRANCH   1  10
TORSDOF 13
ENDMDL
MODEL 3
REMARK VINA RESULT:    -3.773     11.683     13.250
REMARK INTER + INTRA:          -7.577
REMARK INTER:                  -5.796
REMARK INTRA:                  -1.782
REMARK UNBOUND:                -0.937
REMARK SMILES CCCCCCCCCCCCCCC(=O)[O-]
REMARK SMILES IDX 9 1 10 2 11 3 12 4 13 5 14 6 15 7 16 8 17 9 8 10 7 11 6 12
REMARK SMILES IDX 5 13 4 14 3 15 2 16 1 17
REMARK H PARENT
REMARK Flexibility Score: inf
ROOT
ATOM      1  C   UNL     1      61.719  32.919  60.528  1.00  0.00     0.000 C 
ENDROOT
BRANCH   1   2
ATOM      2  C   UNL     1      60.987  31.618  60.171  1.00  0.00     0.000 C 
BRANCH   2   3
ATOM      3  C   UNL     1      60.775  30.748  61.420  1.00  0.00     0.000 C 
BRANCH   3   4
ATOM      4  C   UNL     1      61.945  29.788  61.689  1.00  0.00     0.000 C 
BRANCH   4   5
ATOM      5  C   UNL     1      62.773  29.394  60.449  1.00  0.00     0.006 C 
BRANCH   5   6
ATOM      6  C   UNL     1      64.286  29.635  60.600  1.00  0.00     0.053 C 
BRANCH   6   7
ATOM      7  C   UNL     1      65.105  28.476  60.120  1.00  0.00     0.041 C 
ATOM      8  O   UNL     1      66.095  28.665  59.364  1.00  0.00    -0.550 OA
ATOM      9  O   UNL     1      64.753  27.179  60.473  1.00  0.00    -0.550 OA
ENDBRANCH   6   7
ENDBRANCH   5   6
ENDBRANCH   4   5
ENDBRANCH   3   4
ENDBRANCH   2   3
ENDBRANCH   1   2
BRANCH   1  10
ATOM     10  C   UNL     1      62.976  33.148  59.671  1.00  0.00     0.000 C 
BRANCH  10  11
ATOM     11  C   UNL     1      64.249  33.310  60.521  1.00  0.00    -0.000 C 
BRANCH  11  12
ATOM     12  C   UNL     1      64.226  34.585  61.379  1.00  0.00    -0.000 C 
BRANCH  12  13
ATOM     13  C   UNL     1      64.704  35.827  60.606  1.00  0.00    -0.000 C 
BRANCH  13  14
ATOM     14  C   UNL     1      63.604  36.891  60.460  1.00  0.00    -0.000 C 
BRANCH  14  15
ATOM     15  C   UNL     1      62.360  36.579  61.311  1.00  0.00    -0.000 C 
BRANCH  15  16
ATOM     16  C   UNL     1      61.076  36.511  60.471  1.00  0.00    -0.003 C 
ATOM     17  C   UNL     1      61.356  36.400  58.973  1.00  0.00     0.004 C 
ENDBRANCH  15  16
ENDBRANCH  14  15
ENDBRANCH  13  14
ENDBRANCH  12  13
ENDBRANCH  11  12
ENDBRANCH  10  11
ENDBRANCH   1  10
TORSDOF 13
ENDMDL
MODEL 4
REMARK VINA RESULT:    -3.729     11.600     13.520
REMARK INTER + INTRA:          -7.500
REMARK INTER:                  -5.691
REMARK INTRA:                  -1.808
REMARK UNBOUND:                -0.937
REMARK SMILES CCCCCCCCCCCCCCC(=O)[O-]
REMARK SMILES IDX 9 1 10 2 11 3 12 4 13 5 14 6 15 7 16 8 17 9 8 10 7 11 6 12
REMARK SMILES IDX 5 13 4 14 3 15 2 16 1 17
REMARK H PARENT
REMARK Flexibility Score: inf
ROOT
ATOM      1  C   UNL     1      61.867  33.824  60.518  1.00  0.00     0.000 C 
ENDROOT
BRANCH   1   2
ATOM      2  C   UNL     1      61.340  33.236  59.201  1.00  0.00     0.000 C 
BRANCH   2   3
ATOM      3  C   UNL     1      61.604  31.723  59.133  1.00  0.00     0.000 C 
BRANCH   3   4
ATOM      4  C   UNL     1      60.368  30.882  59.492  1.00  0.00     0.000 C 
BRANCH   4   5
ATOM      5  C   UNL     1      60.422  30.183  60.865  1.00  0.00     0.006 C 
BRANCH   5   6
ATOM      6  C   UNL     1      61.803  30.240  61.545  1.00  0.00     0.053 C 
BRANCH   6   7
ATOM      7  C   UNL     1      62.603  28.990  61.331  1.00  0.00     0.041 C 
ATOM      8  O   UNL     1      62.070  27.860  61.484  1.00  0.00    -0.550 OA
ATOM      9  O   UNL     1      63.950  29.073  61.002  1.00  0.00    -0.550 OA
ENDBRANCH   6   7
ENDBRANCH   5   6
ENDBRANCH   4   5
ENDBRANCH   3   4
ENDBRANCH   2   3
ENDBRANCH   1   2
BRANCH   1  10
ATOM     10  C   UNL     1      61.706  35.352  60.592  1.00  0.00     0.000 C 
BRANCH  10  11
ATOM     11  C   UNL     1      62.903  36.039  61.273  1.00  0.00    -0.000 C 
BRANCH  11  12
ATOM     12  C   UNL     1      64.102  35.092  61.452  1.00  0.00    -0.000 C 
BRANCH  12  13
ATOM     13  C   UNL     1      65.432  35.735  61.018  1.00  0.00    -0.000 C 
BRANCH  13  14
ATOM     14  C   UNL     1      65.500  35.983  59.503  1.00  0.00    -0.000 C 
BRANCH  14  15
ATOM     15  C   UNL     1      65.147  34.732  58.680  1.00  0.00    -0.000 C 
BRANCH  15  16
ATOM     16  C   UNL     1      64.111  35.023  57.584  1.00  0.00    -0.003 C 
ATOM     17  C   UNL     1      63.622  36.471  57.602  1.00  0.00     0.004 C 
ENDBRANCH  15  16
ENDBRANCH  14  15
ENDBRANCH  13  14
ENDBRANCH  12  13
ENDBRANCH  11  12
ENDBRANCH  10  11
ENDBRANCH   1  10
TORSDOF 13
ENDMDL
MODEL 5
REMARK VINA RESULT:    -3.717     11.721     13.196
REMARK INTER + INTRA:          -7.479
REMARK INTER:                  -6.102
REMARK INTRA:                  -1.377
REMARK UNBOUND:                -0.937
REMARK SMILES CCCCCCCCCCCCCCC(=O)[O-]
REMARK SMILES IDX 9 1 10 2 11 3 12 4 13 5 14 6 15 7 16 8 17 9 8 10 7 11 6 12
REMARK SMILES IDX 5 13 4 14 3 15 2 16 1 17
REMARK H PARENT
REMARK Flexibility Score: inf
ROOT
ATOM      1  C   UNL     1      60.921  30.784  61.537  1.00  0.00     0.000 C 
ENDROOT
BRANCH   1   2
ATOM      2  C   UNL     1      61.895  29.597  61.538  1.00  0.00     0.000 C 
BRANCH   2   3
ATOM      3  C   UNL     1      63.350  30.083  61.457  1.00  0.00     0.000 C 
BRANCH   3   4
ATOM      4  C   UNL     1      64.079  29.590  60.196  1.00  0.00     0.000 C 
BRANCH   4   5
ATOM      5  C   UNL     1      64.752  28.209  60.321  1.00  0.00     0.006 C 
BRANCH   5   6
ATOM      6  C   UNL     1      66.108  28.101  59.599  1.00  0.00     0.053 C 
BRANCH   6   7
ATOM      7  C   UNL     1      67.210  27.646  60.507  1.00  0.00     0.041 C 
ATOM      8  O   UNL     1      67.967  26.700  60.164  1.00  0.00    -0.550 OA
ATOM      9  O   UNL     1      67.378  28.240  61.752  1.00  0.00    -0.550 OA
ENDBRANCH   6   7
ENDBRANCH   5   6
ENDBRANCH   4   5
ENDBRANCH   3   4
ENDBRANCH   2   3
ENDBRANCH   1   2
BRANCH   1  10
ATOM     10  C   UNL     1      60.877  31.515  60.185  1.00  0.00     0.000 C 
BRANCH  10  11
ATOM     11  C   UNL     1      61.431  32.949  60.271  1.00  0.00    -0.000 C 
BRANCH  11  12
ATOM     12  C   UNL     1      62.223  33.350  59.015  1.00  0.00    -0.000 C 
BRANCH  12  13
ATOM     13  C   UNL     1      63.672  33.757  59.336  1.00  0.00    -0.000 C 
BRANCH  13  14
ATOM     14  C   UNL     1      64.024  33.568  60.821  1.00  0.00    -0.000 C 
BRANCH  14  15
ATOM     15  C   UNL     1      64.402  34.890  61.514  1.00  0.00    -0.000 C 
BRANCH  15  16
ATOM     16  C   UNL     1      63.876  36.120  60.759  1.00  0.00    -0.003 C 
ATOM     17  C   UNL     1      62.559  36.644  61.329  1.00  0.00     0.004 C 
ENDBRANCH  15  16
ENDBRANCH  14  15
ENDBRANCH  13  14
ENDBRANCH  12  13
ENDBRANCH  11  12
ENDBRANCH  10  11
ENDBRANCH   1  10
TORSDOF 13
ENDMDL
MODEL 6
REMARK VINA RESULT:    -3.703      3.422      6.338
REMARK INTER + INTRA:          -7.454
REMARK INTER:                  -5.549
REMARK INTRA:                  -1.906
REMARK UNBOUND:                -0.937
REMARK SMILES CCCCCCCCCCCCCCC(=O)[O-]
REMARK SMILES IDX 9 1 10 2 11 3 12 4 13 5 14 6 15 7 16 8 17 9 8 10 7 11 6 12
REMARK SMILES IDX 5 13 4 14 3 15 2 16 1 17
REMARK H PARENT
REMARK Flexibility Score: inf
ROOT
ATOM      1  C   UNL     1      58.692  28.165  53.019  1.00  0.00     0.000 C 
ENDROOT
BRANCH   1   2
ATOM      2  C   UNL     1      57.355  27.415  52.933  1.00  0.00     0.000 C 
BRANCH   2   3
ATOM      3  C   UNL     1      57.440  26.259  51.924  1.00  0.00     0.000 C 
BRANCH   3   4
ATOM      4  C   UNL     1      56.529  26.461  50.701  1.00  0.00     0.000 C 
BRANCH   4   5
ATOM      5  C   UNL     1      55.731  27.779  50.685  1.00  0.00     0.006 C 
BRANCH   5   6
ATOM      6  C   UNL     1      54.276  27.627  50.204  1.00  0.00     0.053 C 
BRANCH   6   7
ATOM      7  C   UNL     1      53.807  26.204  50.225  1.00  0.00     0.041 C 
ATOM      8  O   UNL     1      53.771  25.530  49.162  1.00  0.00    -0.550 OA
ATOM      9  O   UNL     1      53.369  25.632  51.413  1.00  0.00    -0.550 OA
ENDBRANCH   6   7
ENDBRANCH   5   6
ENDBRANCH   4   5
ENDBRANCH   3   4
ENDBRANCH   2   3
ENDBRANCH   1   2
BRANCH   1  10
ATOM     10  C   UNL     1      58.665  29.514  52.282  1.00  0.00     0.000 C 
BRANCH  10  11
ATOM     11  C   UNL     1      59.715  29.594  51.159  1.00  0.00    -0.000 C 
BRANCH  11  12
ATOM     12  C   UNL     1      59.237  28.930  49.857  1.00  0.00    -0.000 C 
BRANCH  12  13
ATOM     13  C   UNL     1      59.991  27.625  49.549  1.00  0.00    -0.000 C 
BRANCH  13  14
ATOM     14  C   UNL     1      61.479  27.699  49.925  1.00  0.00    -0.000 C 
BRANCH  14  15
ATOM     15  C   UNL     1      61.987  26.411  50.598  1.00  0.00    -0.000 C 
BRANCH  15  16
ATOM     16  C   UNL     1      60.841  25.537  51.131  1.00  0.00    -0.003 C 
ATOM     17  C   UNL     1      60.877  24.113  50.576  1.00  0.00     0.004 C 
ENDBRANCH  15  16
ENDBRANCH  14  15
ENDBRANCH  13  14
ENDBRANCH  12  13
ENDBRANCH  11  12
ENDBRANCH  10  11
ENDBRANCH   1  10
TORSDOF 13
ENDMDL
MODEL 7
REMARK VINA RESULT:    -3.659     11.212     13.005
REMARK INTER + INTRA:          -7.376
REMARK INTER:                  -5.765
REMARK INTRA:                  -1.611
REMARK UNBOUND:                -0.937
REMARK SMILES CCCCCCCCCCCCCCC(=O)[O-]
REMARK SMILES IDX 9 1 10 2 11 3 12 4 13 5 14 6 15 7 16 8 17 9 8 10 7 11 6 12
REMARK SMILES IDX 5 13 4 14 3 15 2 16 1 17
REMARK H PARENT
REMARK Flexibility Score: inf
ROOT
ATOM      1  C   UNL     1      61.779  32.154  58.535  1.00  0.00     0.000 C 
ENDROOT
BRANCH   1   2
ATOM      2  C   UNL     1      60.882  31.197  59.334  1.00  0.00     0.000 C 
BRANCH   2   3
ATOM      3  C   UNL     1      60.978  31.487  60.840  1.00  0.00     0.000 C 
BRANCH   3   4
ATOM      4  C   UNL     1      61.698  30.375  61.622  1.00  0.00     0.000 C 
BRANCH   4   5
ATOM      5  C   UNL     1      62.235  29.211  60.766  1.00  0.00     0.006 C 
BRANCH   5   6
ATOM      6  C   UNL     1      63.757  28.998  60.877  1.00  0.00     0.053 C 
BRANCH   6   7
ATOM      7  C   UNL     1      64.530  29.857  59.923  1.00  0.00     0.041 C 
ATOM      8  O   UNL     1      64.775  31.060  60.205  1.00  0.00    -0.550 OA
ATOM      9  O   UNL     1      64.947  29.342  58.702  1.00  0.00    -0.550 OA
ENDBRANCH   6   7
ENDBRANCH   5   6
ENDBRANCH   4   5
ENDBRANCH   3   4
ENDBRANCH   2   3
ENDBRANCH   1   2
BRANCH   1  10
ATOM     10  C   UNL     1      61.004  32.940  57.465  1.00  0.00     0.000 C 
BRANCH  10  11
ATOM     11  C   UNL     1      60.154  34.074  58.066  1.00  0.00    -0.000 C 
BRANCH  11  12
ATOM     12  C   UNL     1      61.012  35.191  58.683  1.00  0.00    -0.000 C 
BRANCH  12  13
ATOM     13  C   UNL     1      60.863  35.273  60.212  1.00  0.00    -0.000 C 
BRANCH  13  14
ATOM     14  C   UNL     1      62.182  35.635  60.915  1.00  0.00    -0.000 C 
BRANCH  14  15
ATOM     15  C   UNL     1      63.208  34.488  60.879  1.00  0.00    -0.000 C 
BRANCH  15  16
ATOM     16  C   UNL     1      64.487  34.819  61.663  1.00  0.00    -0.003 C 
ATOM     17  C   UNL     1      64.808  36.313  61.666  1.00  0.00     0.004 C 
ENDBRANCH  15  16
ENDBRANCH  14  15
ENDBRANCH  13  14
ENDBRANCH  12  13
ENDBRANCH  11  12
ENDBRANCH  10  11
ENDBRANCH   1  10
TORSDOF 13
ENDMDL
MODEL 8
REMARK VINA RESULT:    -3.657      2.443      5.212
REMARK INTER + INTRA:          -7.373
REMARK INTER:                  -5.221
REMARK INTRA:                  -2.152
REMARK UNBOUND:                -0.937
REMARK SMILES CCCCCCCCCCCCCCC(=O)[O-]
REMARK SMILES IDX 9 1 10 2 11 3 12 4 13 5 14 6 15 7 16 8 17 9 8 10 7 11 6 12
REMARK SMILES IDX 5 13 4 14 3 15 2 16 1 17
REMARK H PARENT
REMARK Flexibility Score: inf
ROOT
ATOM      1  C   UNL     1      55.959  29.033  51.079  1.00  0.00     0.000 C 
ENDROOT
BRANCH   1   2
ATOM      2  C   UNL     1      55.123  27.770  51.330  1.00  0.00     0.000 C 
BRANCH   2   3
ATOM      3  C   UNL     1      55.449  26.684  50.294  1.00  0.00     0.000 C 
BRANCH   3   4
ATOM      4  C   UNL     1      56.780  25.966  50.573  1.00  0.00     0.000 C 
BRANCH   4   5
ATOM      5  C   UNL     1      57.023  25.579  52.045  1.00  0.00     0.006 C 
BRANCH   5   6
ATOM      6  C   UNL     1      58.510  25.457  52.427  1.00  0.00     0.053 C 
BRANCH   6   7
ATOM      7  C   UNL     1      59.075  24.104  52.118  1.00  0.00     0.041 C 
ATOM      8  O   UNL     1      59.803  23.935  51.104  1.00  0.00    -0.550 OA
ATOM      9  O   UNL     1      58.767  23.018  52.927  1.00  0.00    -0.550 OA
ENDBRANCH   6   7
ENDBRANCH   5   6
ENDBRANCH   4   5
ENDBRANCH   3   4
ENDBRANCH   2   3
ENDBRANCH   1   2
BRANCH   1  10
ATOM     10  C   UNL     1      57.054  29.242  52.139  1.00  0.00     0.000 C 
BRANCH  10  11
ATOM     11  C   UNL     1      58.472  29.138  51.550  1.00  0.00    -0.000 C 
BRANCH  11  12
ATOM     12  C   UNL     1      58.486  29.278  50.018  1.00  0.00    -0.000 C 
BRANCH  12  13
ATOM     13  C   UNL     1      59.759  28.691  49.384  1.00  0.00    -0.000 C 
BRANCH  13  14
ATOM     14  C   UNL     1      60.015  27.237  49.811  1.00  0.00    -0.000 C 
BRANCH  14  15
ATOM     15  C   UNL     1      61.475  26.990  50.230  1.00  0.00    -0.000 C 
BRANCH  15  16
ATOM     16  C   UNL     1      61.723  27.308  51.713  1.00  0.00    -0.003 C 
ATOM     17  C   UNL     1      62.253  26.107  52.494  1.00  0.00     0.004 C 
ENDBRANCH  15  16
ENDBRANCH  14  15
ENDBRANCH  13  14
ENDBRANCH  12  13
ENDBRANCH  11  12
ENDBRANCH  10  11
ENDBRANCH   1  10
TORSDOF 13
ENDMDL
MODEL 9
REMARK VINA RESULT:    -3.646      2.992      4.677
REMARK INTER + INTRA:          -7.354
REMARK INTER:                  -5.280
REMARK INTRA:                  -2.074
REMARK UNBOUND:                -0.937
REMARK SMILES CCCCCCCCCCCCCCC(=O)[O-]
REMARK SMILES IDX 9 1 10 2 11 3 12 4 13 5 14 6 15 7 16 8 17 9 8 10 7 11 6 12
REMARK SMILES IDX 5 13 4 14 3 15 2 16 1 17
REMARK H PARENT
REMARK Flexibility Score: inf
ROOT
ATOM      1  C   UNL     1      58.266  27.752  53.566  1.00  0.00     0.000 C 
ENDROOT
BRANCH   1   2
ATOM      2  C   UNL     1      58.099  29.168  52.996  1.00  0.00     0.000 C 
BRANCH   2   3
ATOM      3  C   UNL     1      59.121  29.432  51.879  1.00  0.00     0.000 C 
BRANCH   3   4
ATOM      4  C   UNL     1      58.544  29.210  50.471  1.00  0.00     0.000 C 
BRANCH   4   5
ATOM      5  C   UNL     1      59.437  28.395  49.515  1.00  0.00     0.006 C 
BRANCH   5   6
ATOM      6  C   UNL     1      59.565  26.907  49.889  1.00  0.00     0.053 C 
BRANCH   6   7
ATOM      7  C   UNL     1      60.971  26.519  50.236  1.00  0.00     0.041 C 
ATOM      8  O   UNL     1      61.196  25.474  50.901  1.00  0.00    -0.550 OA
ATOM      9  O   UNL     1      62.032  27.333  49.860  1.00  0.00    -0.550 OA
ENDBRANCH   6   7
ENDBRANCH   5   6
ENDBRANCH   4   5
ENDBRANCH   3   4
ENDBRANCH   2   3
ENDBRANCH   1   2
BRANCH   1  10
ATOM     10  C   UNL     1      56.970  26.926  53.493  1.00  0.00     0.000 C 
BRANCH  10  11
ATOM     11  C   UNL     1      56.970  25.932  52.318  1.00  0.00    -0.000 C 
BRANCH  11  12
ATOM     12  C   UNL     1      55.619  25.884  51.586  1.00  0.00    -0.000 C 
BRANCH  12  13
ATOM     13  C   UNL     1      55.601  26.757  50.319  1.00  0.00    -0.000 C 
BRANCH  13  14
ATOM     14  C   UNL     1      54.493  27.822  50.352  1.00  0.00    -0.000 C 
BRANCH  14  15
ATOM     15  C   UNL     1      54.989  29.177  50.890  1.00  0.00    -0.000 C 
BRANCH  15  16
ATOM     16  C   UNL     1      54.418  29.500  52.279  1.00  0.00    -0.003 C 
ATOM     17  C   UNL     1      53.388  30.628  52.247  1.00  0.00     0.004 C 
ENDBRANCH  15  16
ENDBRANCH  14  15
ENDBRANCH  13  14
ENDBRANCH  12  13
ENDBRANCH  11  12
ENDBRANCH  10  11
ENDBRANCH   1  10
TORSDOF 13
ENDMDL
