MODEL 1
REMARK VINA RESULT:    -3.101      0.000      0.000
REMARK INTER + INTRA:          -4.042
REMARK INTER:                  -3.645
REMARK INTRA:                  -0.397
REMARK UNBOUND:                -0.397
REMARK SMILES [NH3+][C@@H](CO)C(=O)[O-]
REMARK SMILES IDX 3 1 2 2 1 3 5 7 6 8 7 9 4 10
REMARK H PARENT 1 4 1 5 1 6 4 11
REMARK Flexibility Score: inf
ROOT
ATOM      1  C   UNL     1     194.157 185.763 182.151  1.00  0.00     0.227 C 
ENDROOT
BRANCH   1   2
ATOM      2  C   UNL     1     195.686 185.933 182.226  1.00  0.00     0.253 C 
BRANCH   2   3
ATOM      3  N   UNL     1     196.291 184.915 183.095  1.00  0.00    -0.348 N 
ATOM      4  H   UNL     1     197.331 185.027 183.100  1.00  0.00     0.345 HD
ATOM      5  H   UNL     1     196.069 183.960 182.731  1.00  0.00     0.345 HD
ATOM      6  H   UNL     1     195.931 185.001 184.073  1.00  0.00     0.345 HD
ENDBRANCH   2   3
BRANCH   2   7
ATOM      7  C   UNL     1     196.028 187.314 182.718  1.00  0.00     0.102 C 
ATOM      8  O   UNL     1     196.373 187.499 183.915  1.00  0.00    -0.544 OA
ATOM      9  O   UNL     1     195.946 188.399 181.853  1.00  0.00    -0.544 OA
ENDBRANCH   2   7
ENDBRANCH   1   2
BRANCH   1  10
ATOM     10  O   UNL     1     193.505 186.838 182.771  1.00  0.00    -0.390 OA
ATOM     11  H   UNL     1     194.034 187.652 182.557  1.00  0.00     0.210 HD
ENDBRANCH   1  10
TORSDOF 4
ENDMDL
MODEL 2
REMARK VINA RESULT:    -3.007      1.964      3.024
REMARK INTER + INTRA:          -3.932
REMARK INTER:                  -3.696
REMARK INTRA:                  -0.236
REMARK UNBOUND:                -0.397
REMARK SMILES [NH3+][C@@H](CO)C(=O)[O-]
REMARK SMILES IDX 3 1 2 2 1 3 5 7 6 8 7 9 4 10
REMARK H PARENT 1 4 1 5 1 6 4 11
REMARK Flexibility Score: inf
ROOT
ATOM      1  C   UNL     1     198.293 186.261 184.022  1.00  0.00     0.227 C 
ENDROOT
BRANCH   1   2
ATOM      2  C   UNL     1     196.785 186.039 183.803  1.00  0.00     0.253 C 
BRANCH   2   3
ATOM      3  N   UNL     1     196.497 184.635 183.483  1.00  0.00    -0.348 N 
ATOM      4  H   UNL     1     196.937 184.382 182.569  1.00  0.00     0.345 HD
ATOM      5  H   UNL     1     195.464 184.495 183.397  1.00  0.00     0.345 HD
ATOM      6  H   UNL     1     196.867 184.002 184.229  1.00  0.00     0.345 HD
ENDBRANCH   2   3
BRANCH   2   7
ATOM      7  C   UNL     1     196.284 186.941 182.707  1.00  0.00     0.102 C 
ATOM      8  O   UNL     1     196.410 186.611 181.498  1.00  0.00    -0.544 OA
ATOM      9  O   UNL     1     195.692 188.158 183.026  1.00  0.00    -0.544 OA
ENDBRANCH   2   7
ENDBRANCH   1   2
BRANCH   1  10
ATOM     10  O   UNL     1     199.004 186.061 182.830  1.00  0.00    -0.390 OA
ATOM     11  H   UNL     1     199.797 186.657 182.868  1.00  0.00     0.210 HD
ENDBRANCH   1  10
TORSDOF 4
ENDMDL
MODEL 3
REMARK VINA RESULT:    -2.997      1.445      1.809
REMARK INTER + INTRA:          -3.919
REMARK INTER:                  -3.536
REMARK INTRA:                  -0.383
REMARK UNBOUND:                -0.397
REMARK SMILES [NH3+][C@@H](CO)C(=O)[O-]
REMARK SMILES IDX 3 1 2 2 1 3 5 7 6 8 7 9 4 10
REMARK H PARENT 1 4 1 5 1 6 4 11
REMARK Flexibility Score: inf
ROOT
ATOM      1  C   UNL     1     194.887 187.006 183.762  1.00  0.00     0.227 C 
ENDROOT
BRANCH   1   2
ATOM      2  C   UNL     1     195.215 186.068 182.585  1.00  0.00     0.253 C 
BRANCH   2   3
ATOM      3  N   UNL     1     196.153 185.014 182.993  1.00  0.00    -0.348 N 
ATOM      4  H   UNL     1     197.077 185.438 183.239  1.00  0.00     0.345 HD
ATOM      5  H   UNL     1     196.303 184.345 182.204  1.00  0.00     0.345 HD
ATOM      6  H   UNL     1     195.785 184.491 183.821  1.00  0.00     0.345 HD
ENDBRANCH   2   3
BRANCH   2   7
ATOM      7  C   UNL     1     195.781 186.859 181.436  1.00  0.00     0.102 C 
ATOM      8  O   UNL     1     196.986 187.221 181.441  1.00  0.00    -0.544 OA
ATOM      9  O   UNL     1     194.964 187.209 180.367  1.00  0.00    -0.544 OA
ENDBRANCH   2   7
ENDBRANCH   1   2
BRANCH   1  10
ATOM     10  O   UNL     1     194.963 188.348 183.364  1.00  0.00    -0.390 OA
ATOM     11  H   UNL     1     194.030 188.689 183.334  1.00  0.00     0.210 HD
ENDBRANCH   1  10
TORSDOF 4
ENDMDL
MODEL 4
REMARK VINA RESULT:    -2.983      2.371      3.124
REMARK INTER + INTRA:          -3.903
REMARK INTER:                  -3.558
REMARK INTRA:                  -0.345
REMARK UNBOUND:                -0.397
REMARK SMILES [NH3+][C@@H](CO)C(=O)[O-]
REMARK SMILES IDX 3 1 2 2 1 3 5 7 6 8 7 9 4 10
REMARK H PARENT 1 4 1 5 1 6 4 11
REMARK Flexibility Score: inf
ROOT
ATOM      1  C   UNL     1     191.838 185.489 180.448  1.00  0.00     0.227 C 
ENDROOT
BRANCH   1   2
ATOM      2  C   UNL     1     193.079 184.909 181.153  1.00  0.00     0.253 C 
BRANCH   2   3
ATOM      3  N   UNL     1     192.695 184.086 182.308  1.00  0.00    -0.348 N 
ATOM      4  H   UNL     1     193.275 184.349 183.138  1.00  0.00     0.345 HD
ATOM      5  H   UNL     1     192.868 183.076 182.098  1.00  0.00     0.345 HD
ATOM      6  H   UNL     1     191.684 184.220 182.539  1.00  0.00     0.345 HD
ENDBRANCH   2   3
BRANCH   2   7
ATOM      7  C   UNL     1     193.997 186.022 181.583  1.00  0.00     0.102 C 
ATOM      8  O   UNL     1     194.717 186.618 180.740  1.00  0.00    -0.544 OA
ATOM      9  O   UNL     1     194.066 186.385 182.922  1.00  0.00    -0.544 OA
ENDBRANCH   2   7
ENDBRANCH   1   2
BRANCH   1  10
ATOM     10  O   UNL     1     191.624 186.820 180.833  1.00  0.00    -0.390 OA
ATOM     11  H   UNL     1     192.439 187.108 181.324  1.00  0.00     0.210 HD
ENDBRANCH   1  10
TORSDOF 4
ENDMDL
MODEL 5
REMARK VINA RESULT:    -2.956      1.304      1.906
REMARK INTER + INTRA:          -3.871
REMARK INTER:                  -3.466
REMARK INTRA:                  -0.405
REMARK UNBOUND:                -0.397
REMARK SMILES [NH3+][C@@H](CO)C(=O)[O-]
REMARK SMILES IDX 3 1 2 2 1 3 5 7 6 8 7 9 4 10
REMARK H PARENT 1 4 1 5 1 6 4 11
REMARK Flexibility Score: inf
ROOT
ATOM      1  C   UNL     1     196.092 186.889 181.315  1.00  0.00     0.227 C 
ENDROOT
BRANCH   1   2
ATOM      2  C   UNL     1     196.265 186.521 182.801  1.00  0.00     0.253 C 
BRANCH   2   3
ATOM      3  N   UNL     1     196.086 185.079 183.015  1.00  0.00    -0.348 N 
ATOM      4  H   UNL     1     195.552 184.666 182.215  1.00  0.00     0.345 HD
ATOM      5  H   UNL     1     195.539 184.915 183.890  1.00  0.00     0.345 HD
ATOM      6  H   UNL     1     197.011 184.599 183.094  1.00  0.00     0.345 HD
ENDBRANCH   2   3
BRANCH   2   7
ATOM      7  C   UNL     1     195.292 187.302 183.643  1.00  0.00     0.102 C 
ATOM      8  O   UNL     1     194.154 186.832 183.908  1.00  0.00    -0.544 OA
ATOM      9  O   UNL     1     195.640 188.561 184.118  1.00  0.00    -0.544 OA
ENDBRANCH   2   7
ENDBRANCH   1   2
BRANCH   1  10
ATOM     10  O   UNL     1     195.182 187.945 181.167  1.00  0.00    -0.390 OA
ATOM     11  H   UNL     1     195.336 188.327 180.263  1.00  0.00     0.210 HD
ENDBRANCH   1  10
TORSDOF 4
ENDMDL
MODEL 6
REMARK VINA RESULT:    -2.941      1.940      2.354
REMARK INTER + INTRA:          -3.854
REMARK INTER:                  -3.842
REMARK INTRA:                  -0.012
REMARK UNBOUND:                -0.397
REMARK SMILES [NH3+][C@@H](CO)C(=O)[O-]
REMARK SMILES IDX 3 1 2 2 1 3 5 7 6 8 7 9 4 10
REMARK H PARENT 1 4 1 5 1 6 4 11
REMARK Flexibility Score: inf
ROOT
ATOM      1  C   UNL     1     195.682 185.718 182.360  1.00  0.00     0.227 C 
ENDROOT
BRANCH   1   2
ATOM      2  C   UNL     1     195.084 186.760 183.326  1.00  0.00     0.253 C 
BRANCH   2   3
ATOM      3  N   UNL     1     193.617 186.773 183.249  1.00  0.00    -0.348 N 
ATOM      4  H   UNL     1     193.252 187.680 183.620  1.00  0.00     0.345 HD
ATOM      5  H   UNL     1     193.224 186.001 183.834  1.00  0.00     0.345 HD
ATOM      6  H   UNL     1     193.297 186.651 182.261  1.00  0.00     0.345 HD
ENDBRANCH   2   3
BRANCH   2   7
ATOM      7  C   UNL     1     195.639 188.125 183.020  1.00  0.00     0.102 C 
ATOM      8  O   UNL     1     195.998 188.423 181.850  1.00  0.00    -0.544 OA
ATOM      9  O   UNL     1     195.774 189.062 184.037  1.00  0.00    -0.544 OA
ENDBRANCH   2   7
ENDBRANCH   1   2
BRANCH   1  10
ATOM     10  O   UNL     1     196.166 184.607 183.065  1.00  0.00    -0.390 OA
ATOM     11  H   UNL     1     196.019 183.816 182.482  1.00  0.00     0.210 HD
ENDBRANCH   1  10
TORSDOF 4
ENDMDL
MODEL 7
REMARK VINA RESULT:    -2.931      1.861      2.294
REMARK INTER + INTRA:          -3.842
REMARK INTER:                  -3.630
REMARK INTRA:                  -0.211
REMARK UNBOUND:                -0.397
REMARK SMILES [NH3+][C@@H](CO)C(=O)[O-]
REMARK SMILES IDX 3 1 2 2 1 3 5 7 6 8 7 9 4 10
REMARK H PARENT 1 4 1 5 1 6 4 11
REMARK Flexibility Score: inf
ROOT
ATOM      1  C   UNL     1     193.279 185.618 181.187  1.00  0.00     0.227 C 
ENDROOT
BRANCH   1   2
ATOM      2  C   UNL     1     194.353 186.113 182.174  1.00  0.00     0.253 C 
BRANCH   2   3
ATOM      3  N   UNL     1     193.746 186.846 183.294  1.00  0.00    -0.348 N 
ATOM      4  H   UNL     1     194.472 187.432 183.767  1.00  0.00     0.345 HD
ATOM      5  H   UNL     1     193.365 186.172 183.995  1.00  0.00     0.345 HD
ATOM      6  H   UNL     1     192.973 187.464 182.956  1.00  0.00     0.345 HD
ENDBRANCH   2   3
BRANCH   2   7
ATOM      7  C   UNL     1     195.352 186.981 181.458  1.00  0.00     0.102 C 
ATOM      8  O   UNL     1     195.111 187.411 180.299  1.00  0.00    -0.544 OA
ATOM      9  O   UNL     1     196.559 187.300 182.069  1.00  0.00    -0.544 OA
ENDBRANCH   2   7
ENDBRANCH   1   2
BRANCH   1  10
ATOM     10  O   UNL     1     192.255 186.566 181.049  1.00  0.00    -0.390 OA
ATOM     11  H   UNL     1     192.392 187.239 181.767  1.00  0.00     0.210 HD
ENDBRANCH   1  10
TORSDOF 4
ENDMDL
MODEL 8
REMARK VINA RESULT:    -2.897      2.023      2.837
REMARK INTER + INTRA:          -3.801
REMARK INTER:                  -3.511
REMARK INTRA:                  -0.290
REMARK UNBOUND:                -0.397
REMARK SMILES [NH3+][C@@H](CO)C(=O)[O-]
REMARK SMILES IDX 3 1 2 2 1 3 5 7 6 8 7 9 4 10
REMARK H PARENT 1 4 1 5 1 6 4 11
REMARK Flexibility Score: inf
ROOT
ATOM      1  C   UNL     1     196.327 186.056 184.017  1.00  0.00     0.227 C 
ENDROOT
BRANCH   1   2
ATOM      2  C   UNL     1     195.128 186.802 183.403  1.00  0.00     0.253 C 
BRANCH   2   3
ATOM      3  N   UNL     1     193.886 186.495 184.125  1.00  0.00    -0.348 N 
ATOM      4  H   UNL     1     193.937 185.528 184.520  1.00  0.00     0.345 HD
ATOM      5  H   UNL     1     193.074 186.535 183.469  1.00  0.00     0.345 HD
ATOM      6  H   UNL     1     193.732 187.176 184.903  1.00  0.00     0.345 HD
ENDBRANCH   2   3
BRANCH   2   7
ATOM      7  C   UNL     1     194.990 186.447 181.946  1.00  0.00     0.102 C 
ATOM      8  O   UNL     1     195.814 186.885 181.101  1.00  0.00    -0.544 OA
ATOM      9  O   UNL     1     193.937 185.645 181.524  1.00  0.00    -0.544 OA
ENDBRANCH   2   7
ENDBRANCH   1   2
BRANCH   1  10
ATOM     10  O   UNL     1     196.500 184.805 183.408  1.00  0.00    -0.390 OA
ATOM     11  H   UNL     1     196.906 184.976 182.518  1.00  0.00     0.210 HD
ENDBRANCH   1  10
TORSDOF 4
ENDMDL
MODEL 9
REMARK VINA RESULT:    -2.858      1.845      2.090
REMARK INTER + INTRA:          -3.756
REMARK INTER:                  -3.405
REMARK INTRA:                  -0.352
REMARK UNBOUND:                -0.397
REMARK SMILES [NH3+][C@@H](CO)C(=O)[O-]
REMARK SMILES IDX 3 1 2 2 1 3 5 7 6 8 7 9 4 10
REMARK H PARENT 1 4 1 5 1 6 4 11
REMARK Flexibility Score: inf
ROOT
ATOM      1  C   UNL     1     194.742 186.783 180.747  1.00  0.00     0.227 C 
ENDROOT
BRANCH   1   2
ATOM      2  C   UNL     1     194.823 186.468 182.253  1.00  0.00     0.253 C 
BRANCH   2   3
ATOM      3  N   UNL     1     193.509 186.607 182.894  1.00  0.00    -0.348 N 
ATOM      4  H   UNL     1     192.839 187.065 182.234  1.00  0.00     0.345 HD
ATOM      5  H   UNL     1     193.590 187.210 183.745  1.00  0.00     0.345 HD
ATOM      6  H   UNL     1     193.131 185.672 183.172  1.00  0.00     0.345 HD
ENDBRANCH   2   3
BRANCH   2   7
ATOM      7  C   UNL     1     195.829 187.370 182.916  1.00  0.00     0.102 C 
ATOM      8  O   UNL     1     195.453 188.385 183.558  1.00  0.00    -0.544 OA
ATOM      9  O   UNL     1     197.187 187.093 182.805  1.00  0.00    -0.544 OA
ENDBRANCH   2   7
ENDBRANCH   1   2
BRANCH   1  10
ATOM     10  O   UNL     1     195.168 188.094 180.489  1.00  0.00    -0.390 OA
ATOM     11  H   UNL     1     194.373 188.590 180.158  1.00  0.00     0.210 HD
ENDBRANCH   1  10
TORSDOF 4
ENDMDL
