MODEL 1
REMARK VINA RESULT:    -4.211      0.000      0.000
REMARK INTER + INTRA:          -5.662
REMARK INTER:                  -5.688
REMARK INTRA:                   0.026
REMARK UNBOUND:                 0.026
REMARK SMILES O=c1c(-c2ccc(O)cc2)coc2c([C@@H]3O[C@@H](CO)[C@H](O)[C@H](O)[C@@H]3O)c(O)ccc12
REMARK SMILES IDX 3 1 11 2 12 3 13 4 30 5 2 6 1 7 29 8 28 9 26 10 14 11 4 12
REMARK SMILES IDX 5 13 6 14 7 15 10 16 9 17 8 18 15 20 24 21 16 22 22 23 17 24
REMARK SMILES IDX 20 25 25 26 23 28 18 30 19 31 21 33 27 35
REMARK H PARENT 8 19 25 27 23 29 19 32 21 34 27 36
REMARK Flexibility Score: inf
ROOT
ATOM      1  C   UNL     1      84.873  -1.949  -7.201  1.00  0.00     0.065 A 
ATOM      2  C   UNL     1      85.056  -2.683  -6.022  1.00  0.00     0.208 A 
ATOM      3  O   UNL     1      84.620  -3.933  -5.921  1.00  0.00    -0.463 OA
ATOM      4  C   UNL     1      83.992  -4.570  -6.908  1.00  0.00     0.147 A 
ATOM      5  C   UNL     1      83.764  -3.900  -8.134  1.00  0.00     0.066 A 
ATOM      6  C   UNL     1      84.222  -2.578  -8.277  1.00  0.00     0.200 A 
ATOM      7  O   UNL     1      84.065  -1.964  -9.370  1.00  0.00    -0.288 OA
ATOM      8  C   UNL     1      83.094  -4.562  -9.169  1.00  0.00     0.020 A 
ATOM      9  C   UNL     1      82.641  -5.865  -8.988  1.00  0.00     0.047 A 
ATOM     10  C   UNL     1      82.855  -6.539  -7.779  1.00  0.00     0.125 A 
ATOM     11  C   UNL     1      83.551  -5.908  -6.721  1.00  0.00     0.069 A 
ENDROOT
BRANCH   1  12
ATOM     12  C   UNL     1      85.365  -0.550  -7.287  1.00  0.00    -0.011 A 
ATOM     13  C   UNL     1      86.662  -0.227  -6.854  1.00  0.00     0.013 A 
ATOM     14  C   UNL     1      87.125   1.090  -6.926  1.00  0.00     0.047 A 
ATOM     15  C   UNL     1      86.294   2.101  -7.425  1.00  0.00     0.115 A 
ATOM     16  C   UNL     1      84.534   0.471  -7.779  1.00  0.00     0.013 A 
ATOM     17  C   UNL     1      84.999   1.788  -7.849  1.00  0.00     0.047 A 
BRANCH  15  18
ATOM     18  O   UNL     1      86.743   3.418  -7.500  1.00  0.00    -0.508 OA
ATOM     19  H   UNL     1      86.384   4.136  -6.881  1.00  0.00     0.293 HD
ENDBRANCH  15  18
ENDBRANCH   1  12
BRANCH  11  20
ATOM     20  C   UNL     1      83.799  -6.589  -5.364  1.00  0.00     0.188 C 
ATOM     21  C   UNL     1      84.948  -7.642  -5.382  1.00  0.00     0.179 C 
ATOM     22  O   UNL     1      83.733  -5.684  -4.261  1.00  0.00    -0.362 OA
ATOM     23  C   UNL     1      86.243  -7.108  -4.785  1.00  0.00     0.177 C 
ATOM     24  C   UNL     1      84.920  -5.392  -3.522  1.00  0.00     0.176 C 
ATOM     25  C   UNL     1      85.926  -6.558  -3.402  1.00  0.00     0.177 C 
BRANCH  21  26
ATOM     26  O   UNL     1      85.173  -8.125  -6.683  1.00  0.00    -0.387 OA
ATOM     27  H   UNL     1      86.075  -8.540  -6.688  1.00  0.00     0.211 HD
ENDBRANCH  21  26
BRANCH  23  28
ATOM     28  O   UNL     1      86.803  -6.107  -5.598  1.00  0.00    -0.387 OA
ATOM     29  H   UNL     1      86.513  -6.295  -6.529  1.00  0.00     0.211 HD
ENDBRANCH  23  28
BRANCH  24  30
ATOM     30  C   UNL     1      84.474  -4.916  -2.128  1.00  0.00     0.191 C 
BRANCH  30  31
ATOM     31  O   UNL     1      84.486  -5.965  -1.196  1.00  0.00    -0.394 OA
ATOM     32  H   UNL     1      85.264  -5.807  -0.599  1.00  0.00     0.210 HD
ENDBRANCH  30  31
ENDBRANCH  24  30
BRANCH  25  33
ATOM     33  O   UNL     1      87.113  -6.104  -2.799  1.00  0.00    -0.388 OA
ATOM     34  H   UNL     1      87.749  -6.867  -2.807  1.00  0.00     0.211 HD
ENDBRANCH  25  33
ENDBRANCH  11  20
BRANCH  10  35
ATOM     35  O   UNL     1      82.369  -7.833  -7.648  1.00  0.00    -0.507 OA
ATOM     36  H   UNL     1      81.591  -8.056  -7.038  1.00  0.00     0.293 HD
ENDBRANCH  10  35
TORSDOF 9
ENDMDL
MODEL 2
REMARK VINA RESULT:    -3.632      4.377      8.477
REMARK INTER + INTRA:          -4.880
REMARK INTER:                  -4.468
REMARK INTRA:                  -0.411
REMARK UNBOUND:                 0.026
REMARK SMILES O=c1c(-c2ccc(O)cc2)coc2c([C@@H]3O[C@@H](CO)[C@H](O)[C@H](O)[C@@H]3O)c(O)ccc12
REMARK SMILES IDX 3 1 11 2 12 3 13 4 30 5 2 6 1 7 29 8 28 9 26 10 14 11 4 12
REMARK SMILES IDX 5 13 6 14 7 15 10 16 9 17 8 18 15 20 24 21 16 22 22 23 17 24
REMARK SMILES IDX 20 25 25 26 23 28 18 30 19 31 21 33 27 35
REMARK H PARENT 8 19 25 27 23 29 19 32 21 34 27 36
REMARK Flexibility Score: inf
ROOT
ATOM      1  C   UNL     1      85.393   0.583  -6.138  1.00  0.00     0.065 A 
ATOM      2  C   UNL     1      85.425   0.513  -4.739  1.00  0.00     0.208 A 
ATOM      3  O   UNL     1      85.746   1.576  -4.010  1.00  0.00    -0.463 OA
ATOM      4  C   UNL     1      86.054   2.759  -4.538  1.00  0.00     0.147 A 
ATOM      5  C   UNL     1      86.048   2.915  -5.944  1.00  0.00     0.066 A 
ATOM      6  C   UNL     1      85.703   1.813  -6.746  1.00  0.00     0.200 A 
ATOM      7  O   UNL     1      85.655   1.928  -8.003  1.00  0.00    -0.288 OA
ATOM      8  C   UNL     1      86.384   4.154  -6.504  1.00  0.00     0.020 A 
ATOM      9  C   UNL     1      86.735   5.220  -5.681  1.00  0.00     0.047 A 
ATOM     10  C   UNL     1      86.749   5.079  -4.288  1.00  0.00     0.125 A 
ATOM     11  C   UNL     1      86.391   3.847  -3.689  1.00  0.00     0.069 A 
ENDROOT
BRANCH   1  12
ATOM     12  C   UNL     1      85.036  -0.620  -6.932  1.00  0.00    -0.011 A 
ATOM     13  C   UNL     1      85.890  -1.737  -6.950  1.00  0.00     0.013 A 
ATOM     14  C   UNL     1      85.560  -2.868  -7.703  1.00  0.00     0.047 A 
ATOM     15  C   UNL     1      84.377  -2.893  -8.451  1.00  0.00     0.115 A 
ATOM     16  C   UNL     1      83.854  -0.651  -7.692  1.00  0.00     0.013 A 
ATOM     17  C   UNL     1      83.527  -1.783  -8.445  1.00  0.00     0.047 A 
BRANCH  15  18
ATOM     18  O   UNL     1      84.038  -4.015  -9.207  1.00  0.00    -0.508 OA
ATOM     19  H   UNL     1      84.683  -4.787  -9.327  1.00  0.00     0.293 HD
ENDBRANCH  15  18
ENDBRANCH   1  12
BRANCH  11  20
ATOM     20  C   UNL     1      86.408   3.626  -2.167  1.00  0.00     0.188 C 
ATOM     21  C   UNL     1      85.096   4.061  -1.447  1.00  0.00     0.179 C 
ATOM     22  O   UNL     1      87.003   2.385  -1.787  1.00  0.00    -0.362 OA
ATOM     23  C   UNL     1      84.195   2.883  -1.105  1.00  0.00     0.177 C 
ATOM     24  C   UNL     1      86.189   1.366  -1.205  1.00  0.00     0.176 C 
ATOM     25  C   UNL     1      85.025   1.873  -0.326  1.00  0.00     0.177 C 
BRANCH  21  26
ATOM     26  O   UNL     1      84.391   5.010  -2.208  1.00  0.00    -0.387 OA
ATOM     27  H   UNL     1      83.559   4.570  -2.525  1.00  0.00     0.211 HD
ENDBRANCH  21  26
BRANCH  23  28
ATOM     28  O   UNL     1      83.664   2.295  -2.267  1.00  0.00    -0.387 OA
ATOM     29  H   UNL     1      82.905   1.723  -1.980  1.00  0.00     0.211 HD
ENDBRANCH  23  28
BRANCH  24  30
ATOM     30  C   UNL     1      87.125   0.455  -0.390  1.00  0.00     0.191 C 
BRANCH  30  31
ATOM     31  O   UNL     1      86.879   0.560   0.987  1.00  0.00    -0.394 OA
ATOM     32  H   UNL     1      86.993  -0.350   1.367  1.00  0.00     0.210 HD
ENDBRANCH  30  31
ENDBRANCH  24  30
BRANCH  25  33
ATOM     33  O   UNL     1      84.207   0.794   0.053  1.00  0.00    -0.388 OA
ATOM     34  H   UNL     1      83.711   0.509  -0.760  1.00  0.00     0.211 HD
ENDBRANCH  25  33
ENDBRANCH  11  20
BRANCH  10  35
ATOM     35  O   UNL     1      87.121   6.172  -3.516  1.00  0.00    -0.507 OA
ATOM     36  H   UNL     1      86.998   7.125  -3.839  1.00  0.00     0.293 HD
ENDBRANCH  10  35
TORSDOF 9
ENDMDL
MODEL 3
REMARK VINA RESULT:    -2.874      8.331     10.460
REMARK INTER + INTRA:          -3.857
REMARK INTER:                  -4.619
REMARK INTRA:                   0.762
REMARK UNBOUND:                 0.026
REMARK SMILES O=c1c(-c2ccc(O)cc2)coc2c([C@@H]3O[C@@H](CO)[C@H](O)[C@H](O)[C@@H]3O)c(O)ccc12
REMARK SMILES IDX 3 1 11 2 12 3 13 4 30 5 2 6 1 7 29 8 28 9 26 10 14 11 4 12
REMARK SMILES IDX 5 13 6 14 7 15 10 16 9 17 8 18 15 20 24 21 16 22 22 23 17 24
REMARK SMILES IDX 20 25 25 26 23 28 18 30 19 31 21 33 27 35
REMARK H PARENT 8 19 25 27 23 29 19 32 21 34 27 36
REMARK Flexibility Score: inf
ROOT
ATOM      1  C   UNL     1      81.245   1.518  -0.246  1.00  0.00     0.065 A 
ATOM      2  C   UNL     1      82.221   0.701   0.340  1.00  0.00     0.208 A 
ATOM      3  O   UNL     1      83.503   1.046   0.316  1.00  0.00    -0.463 OA
ATOM      4  C   UNL     1      83.948   2.166  -0.251  1.00  0.00     0.147 A 
ATOM      5  C   UNL     1      83.028   3.047  -0.867  1.00  0.00     0.066 A 
ATOM      6  C   UNL     1      81.661   2.716  -0.852  1.00  0.00     0.200 A 
ATOM      7  O   UNL     1      80.810   3.498  -1.362  1.00  0.00    -0.288 OA
ATOM      8  C   UNL     1      83.493   4.219  -1.475  1.00  0.00     0.020 A 
ATOM      9  C   UNL     1      84.854   4.508  -1.485  1.00  0.00     0.047 A 
ATOM     10  C   UNL     1      85.777   3.643  -0.883  1.00  0.00     0.125 A 
ATOM     11  C   UNL     1      85.338   2.462  -0.238  1.00  0.00     0.069 A 
ENDROOT
BRANCH   1  12
ATOM     12  C   UNL     1      79.818   1.107  -0.211  1.00  0.00    -0.011 A 
ATOM     13  C   UNL     1      79.462  -0.239  -0.405  1.00  0.00     0.013 A 
ATOM     14  C   UNL     1      78.119  -0.627  -0.381  1.00  0.00     0.047 A 
ATOM     15  C   UNL     1      77.115   0.327  -0.169  1.00  0.00     0.115 A 
ATOM     16  C   UNL     1      78.804   2.059  -0.006  1.00  0.00     0.013 A 
ATOM     17  C   UNL     1      77.461   1.669   0.017  1.00  0.00     0.047 A 
BRANCH  15  18
ATOM     18  O   UNL     1      75.773  -0.047  -0.143  1.00  0.00    -0.508 OA
ATOM     19  H   UNL     1      75.459  -0.856   0.380  1.00  0.00     0.293 HD
ENDBRANCH  15  18
ENDBRANCH   1  12
BRANCH  11  20
ATOM     20  C   UNL     1      86.305   1.465   0.421  1.00  0.00     0.188 C 
ATOM     21  C   UNL     1      87.016   2.017   1.694  1.00  0.00     0.179 C 
ATOM     22  O   UNL     1      85.795   0.131   0.462  1.00  0.00    -0.362 OA
ATOM     23  C   UNL     1      86.396   1.501   2.984  1.00  0.00     0.177 C 
ATOM     24  C   UNL     1      85.465  -0.456   1.721  1.00  0.00     0.176 C 
ATOM     25  C   UNL     1      86.354  -0.018   2.906  1.00  0.00     0.177 C 
BRANCH  21  26
ATOM     26  O   UNL     1      87.040   3.423   1.692  1.00  0.00    -0.387 OA
ATOM     27  H   UNL     1      87.921   3.699   1.326  1.00  0.00     0.211 HD
ENDBRANCH  21  26
BRANCH  23  28
ATOM     28  O   UNL     1      85.103   2.021   3.171  1.00  0.00    -0.387 OA
ATOM     29  H   UNL     1      85.169   2.710   3.883  1.00  0.00     0.211 HD
ENDBRANCH  23  28
BRANCH  24  30
ATOM     30  C   UNL     1      85.525  -1.982   1.534  1.00  0.00     0.191 C 
BRANCH  30  31
ATOM     31  O   UNL     1      86.642  -2.538   2.176  1.00  0.00    -0.394 OA
ATOM     32  H   UNL     1      86.846  -3.389   1.707  1.00  0.00     0.210 HD
ENDBRANCH  30  31
ENDBRANCH  24  30
BRANCH  25  33
ATOM     33  O   UNL     1      85.835  -0.532   4.108  1.00  0.00    -0.388 OA
ATOM     34  H   UNL     1      85.301   0.196   4.524  1.00  0.00     0.211 HD
ENDBRANCH  25  33
ENDBRANCH  11  20
BRANCH  10  35
ATOM     35  O   UNL     1      87.125   3.974  -0.936  1.00  0.00    -0.507 OA
ATOM     36  H   UNL     1      87.797   3.597  -0.277  1.00  0.00     0.293 HD
ENDBRANCH  10  35
TORSDOF 9
ENDMDL
MODEL 4
REMARK VINA RESULT:    -2.475      2.314      3.845
REMARK INTER + INTRA:          -3.317
REMARK INTER:                  -6.251
REMARK INTRA:                   2.933
REMARK UNBOUND:                 0.026
REMARK SMILES O=c1c(-c2ccc(O)cc2)coc2c([C@@H]3O[C@@H](CO)[C@H](O)[C@H](O)[C@@H]3O)c(O)ccc12
REMARK SMILES IDX 3 1 11 2 12 3 13 4 30 5 2 6 1 7 29 8 28 9 26 10 14 11 4 12
REMARK SMILES IDX 5 13 6 14 7 15 10 16 9 17 8 18 15 20 24 21 16 22 22 23 17 24
REMARK SMILES IDX 20 25 25 26 23 28 18 30 19 31 21 33 27 35
REMARK H PARENT 8 19 25 27 23 29 19 32 21 34 27 36
REMARK Flexibility Score: inf
ROOT
ATOM      1  C   UNL     1      85.453   1.241  -6.670  1.00  0.00     0.065 A 
ATOM      2  C   UNL     1      85.806  -0.003  -6.131  1.00  0.00     0.208 A 
ATOM      3  O   UNL     1      85.416  -1.133  -6.709  1.00  0.00    -0.463 OA
ATOM      4  C   UNL     1      84.679  -1.170  -7.818  1.00  0.00     0.147 A 
ATOM      5  C   UNL     1      84.277   0.042  -8.426  1.00  0.00     0.066 A 
ATOM      6  C   UNL     1      84.680   1.257  -7.845  1.00  0.00     0.200 A 
ATOM      7  O   UNL     1      84.368   2.356  -8.383  1.00  0.00    -0.288 OA
ATOM      8  C   UNL     1      83.491   0.007  -9.585  1.00  0.00     0.020 A 
ATOM      9  C   UNL     1      83.096  -1.214 -10.124  1.00  0.00     0.047 A 
ATOM     10  C   UNL     1      83.483  -2.421  -9.530  1.00  0.00     0.125 A 
ATOM     11  C   UNL     1      84.298  -2.422  -8.373  1.00  0.00     0.069 A 
ENDROOT
BRANCH   1  12
ATOM     12  C   UNL     1      85.897   2.491  -6.002  1.00  0.00    -0.011 A 
ATOM     13  C   UNL     1      85.970   2.559  -4.600  1.00  0.00     0.013 A 
ATOM     14  C   UNL     1      86.379   3.737  -3.969  1.00  0.00     0.047 A 
ATOM     15  C   UNL     1      86.715   4.863  -4.731  1.00  0.00     0.115 A 
ATOM     16  C   UNL     1      86.228   3.628  -6.760  1.00  0.00     0.013 A 
ATOM     17  C   UNL     1      86.637   4.805  -6.125  1.00  0.00     0.047 A 
BRANCH  15  18
ATOM     18  O   UNL     1      87.124   6.043  -4.112  1.00  0.00    -0.508 OA
ATOM     19  H   UNL     1      87.149   6.130  -3.103  1.00  0.00     0.293 HD
ENDBRANCH  15  18
ENDBRANCH   1  12
BRANCH  11  20
ATOM     20  C   UNL     1      84.737  -3.715  -7.665  1.00  0.00     0.188 C 
ATOM     21  C   UNL     1      86.278  -3.945  -7.661  1.00  0.00     0.179 C 
ATOM     22  O   UNL     1      84.017  -3.965  -6.456  1.00  0.00    -0.362 OA
ATOM     23  C   UNL     1      86.923  -3.589  -6.329  1.00  0.00     0.177 C 
ATOM     24  C   UNL     1      84.702  -3.896  -5.205  1.00  0.00     0.176 C 
ATOM     25  C   UNL     1      86.180  -4.344  -5.236  1.00  0.00     0.177 C 
BRANCH  21  26
ATOM     26  O   UNL     1      86.899  -3.240  -8.708  1.00  0.00    -0.387 OA
ATOM     27  H   UNL     1      86.514  -2.324  -8.711  1.00  0.00     0.211 HD
ENDBRANCH  21  26
BRANCH  23  28
ATOM     28  O   UNL     1      86.874  -2.204  -6.094  1.00  0.00    -0.387 OA
ATOM     29  H   UNL     1      86.063  -1.862  -6.554  1.00  0.00     0.211 HD
ENDBRANCH  23  28
BRANCH  24  30
ATOM     30  C   UNL     1      83.899  -4.748  -4.207  1.00  0.00     0.191 C 
BRANCH  30  31
ATOM     31  O   UNL     1      82.793  -5.356  -4.819  1.00  0.00    -0.394 OA
ATOM     32  H   UNL     1      83.047  -6.300  -4.995  1.00  0.00     0.210 HD
ENDBRANCH  30  31
ENDBRANCH  24  30
BRANCH  25  33
ATOM     33  O   UNL     1      86.786  -4.078  -3.995  1.00  0.00    -0.388 OA
ATOM     34  H   UNL     1      87.593  -3.530  -4.180  1.00  0.00     0.211 HD
ENDBRANCH  25  33
ENDBRANCH  11  20
BRANCH  10  35
ATOM     35  O   UNL     1      83.048  -3.609 -10.103  1.00  0.00    -0.507 OA
ATOM     36  H   UNL     1      82.690  -3.650 -11.051  1.00  0.00     0.293 HD
ENDBRANCH  10  35
TORSDOF 9
ENDMDL
MODEL 5
REMARK VINA RESULT:    -2.033     10.310     13.324
REMARK INTER + INTRA:          -2.720
REMARK INTER:                  -2.550
REMARK INTRA:                  -0.170
REMARK UNBOUND:                 0.026
REMARK SMILES O=c1c(-c2ccc(O)cc2)coc2c([C@@H]3O[C@@H](CO)[C@H](O)[C@H](O)[C@@H]3O)c(O)ccc12
REMARK SMILES IDX 3 1 11 2 12 3 13 4 30 5 2 6 1 7 29 8 28 9 26 10 14 11 4 12
REMARK SMILES IDX 5 13 6 14 7 15 10 16 9 17 8 18 15 20 24 21 16 22 22 23 17 24
REMARK SMILES IDX 20 25 25 26 23 28 18 30 19 31 21 33 27 35
REMARK H PARENT 8 19 25 27 23 29 19 32 21 34 27 36
REMARK Flexibility Score: inf
ROOT
ATOM      1  C   UNL     1      85.915   1.539   2.610  1.00  0.00     0.065 A 
ATOM      2  C   UNL     1      85.334   2.367   3.579  1.00  0.00     0.208 A 
ATOM      3  O   UNL     1      85.275   1.992   4.852  1.00  0.00    -0.463 OA
ATOM      4  C   UNL     1      85.752   0.829   5.294  1.00  0.00     0.147 A 
ATOM      5  C   UNL     1      86.354  -0.068   4.380  1.00  0.00     0.066 A 
ATOM      6  C   UNL     1      86.441   0.303   3.027  1.00  0.00     0.200 A 
ATOM      7  O   UNL     1      87.004  -0.460   2.192  1.00  0.00    -0.288 OA
ATOM      8  C   UNL     1      86.846  -1.296   4.839  1.00  0.00     0.020 A 
ATOM      9  C   UNL     1      86.729  -1.637   6.183  1.00  0.00     0.047 A 
ATOM     10  C   UNL     1      86.132  -0.761   7.098  1.00  0.00     0.125 A 
ATOM     11  C   UNL     1      85.647   0.499   6.672  1.00  0.00     0.069 A 
ENDROOT
BRANCH   1  12
ATOM     12  C   UNL     1      85.964   1.979   1.193  1.00  0.00    -0.011 A 
ATOM     13  C   UNL     1      87.079   2.683   0.707  1.00  0.00     0.013 A 
ATOM     14  C   UNL     1      87.124   3.106  -0.625  1.00  0.00     0.047 A 
ATOM     15  C   UNL     1      86.052   2.836  -1.485  1.00  0.00     0.115 A 
ATOM     16  C   UNL     1      84.889   1.719   0.325  1.00  0.00     0.013 A 
ATOM     17  C   UNL     1      84.936   2.144  -1.006  1.00  0.00     0.047 A 
BRANCH  15  18
ATOM     18  O   UNL     1      86.085   3.253  -2.814  1.00  0.00    -0.508 OA
ATOM     19  H   UNL     1      85.426   2.898  -3.497  1.00  0.00     0.293 HD
ENDBRANCH  15  18
ENDBRANCH   1  12
BRANCH  11  20
ATOM     20  C   UNL     1      84.963   1.493   7.626  1.00  0.00     0.188 C 
ATOM     21  C   UNL     1      85.943   2.217   8.598  1.00  0.00     0.179 C 
ATOM     22  O   UNL     1      83.949   2.273   6.990  1.00  0.00    -0.362 OA
ATOM     23  C   UNL     1      86.270   3.636   8.156  1.00  0.00     0.177 C 
ATOM     24  C   UNL     1      84.148   3.677   6.820  1.00  0.00     0.176 C 
ATOM     25  C   UNL     1      84.955   4.371   7.939  1.00  0.00     0.177 C 
BRANCH  21  26
ATOM     26  O   UNL     1      87.125   1.475   8.771  1.00  0.00    -0.387 OA
ATOM     27  H   UNL     1      87.630   1.900   9.513  1.00  0.00     0.211 HD
ENDBRANCH  21  26
BRANCH  23  28
ATOM     28  O   UNL     1      87.036   3.637   6.977  1.00  0.00    -0.387 OA
ATOM     29  H   UNL     1      86.952   4.542   6.578  1.00  0.00     0.211 HD
ENDBRANCH  23  28
BRANCH  24  30
ATOM     30  C   UNL     1      82.753   4.314   6.683  1.00  0.00     0.191 C 
BRANCH  30  31
ATOM     31  O   UNL     1      82.304   4.840   7.904  1.00  0.00    -0.394 OA
ATOM     32  H   UNL     1      82.971   5.519   8.185  1.00  0.00     0.210 HD
ENDBRANCH  30  31
ENDBRANCH  24  30
BRANCH  25  33
ATOM     33  O   UNL     1      85.221   5.704   7.581  1.00  0.00    -0.388 OA
ATOM     34  H   UNL     1      86.009   5.993   8.112  1.00  0.00     0.211 HD
ENDBRANCH  25  33
ENDBRANCH  11  20
BRANCH  10  35
ATOM     35  O   UNL     1      86.029  -1.159   8.424  1.00  0.00    -0.507 OA
ATOM     36  H   UNL     1      86.569  -1.932   8.797  1.00  0.00     0.293 HD
ENDBRANCH  10  35
TORSDOF 9
ENDMDL
MODEL 6
REMARK VINA RESULT:    -1.888      5.480      9.212
REMARK INTER + INTRA:          -2.525
REMARK INTER:                  -7.461
REMARK INTRA:                   4.937
REMARK UNBOUND:                 0.026
REMARK SMILES O=c1c(-c2ccc(O)cc2)coc2c([C@@H]3O[C@@H](CO)[C@H](O)[C@H](O)[C@@H]3O)c(O)ccc12
REMARK SMILES IDX 3 1 11 2 12 3 13 4 30 5 2 6 1 7 29 8 28 9 26 10 14 11 4 12
REMARK SMILES IDX 5 13 6 14 7 15 10 16 9 17 8 18 15 20 24 21 16 22 22 23 17 24
REMARK SMILES IDX 20 25 25 26 23 28 18 30 19 31 21 33 27 35
REMARK H PARENT 8 19 25 27 23 29 19 32 21 34 27 36
REMARK Flexibility Score: inf
ROOT
ATOM      1  C   UNL     1      86.071   2.348  -2.479  1.00  0.00     0.065 A 
ATOM      2  C   UNL     1      85.826   1.459  -3.534  1.00  0.00     0.208 A 
ATOM      3  O   UNL     1      85.897   1.863  -4.797  1.00  0.00    -0.463 OA
ATOM      4  C   UNL     1      86.198   3.112  -5.150  1.00  0.00     0.147 A 
ATOM      5  C   UNL     1      86.459   4.074  -4.146  1.00  0.00     0.066 A 
ATOM      6  C   UNL     1      86.402   3.677  -2.798  1.00  0.00     0.200 A 
ATOM      7  O   UNL     1      86.663   4.504  -1.879  1.00  0.00    -0.288 OA
ATOM      8  C   UNL     1      86.764   5.391  -4.512  1.00  0.00     0.020 A 
ATOM      9  C   UNL     1      86.796   5.752  -5.855  1.00  0.00     0.047 A 
ATOM     10  C   UNL     1      86.537   4.811  -6.860  1.00  0.00     0.125 A 
ATOM     11  C   UNL     1      86.249   3.467  -6.525  1.00  0.00     0.069 A 
ENDROOT
BRANCH   1  12
ATOM     12  C   UNL     1      85.981   1.874  -1.075  1.00  0.00    -0.011 A 
ATOM     13  C   UNL     1      87.100   1.300  -0.447  1.00  0.00     0.013 A 
ATOM     14  C   UNL     1      87.015   0.844   0.872  1.00  0.00     0.047 A 
ATOM     15  C   UNL     1      85.810   0.951   1.577  1.00  0.00     0.115 A 
ATOM     16  C   UNL     1      84.773   1.971  -0.363  1.00  0.00     0.013 A 
ATOM     17  C   UNL     1      84.691   1.513   0.956  1.00  0.00     0.047 A 
BRANCH  15  18
ATOM     18  O   UNL     1      85.713   0.500   2.892  1.00  0.00    -0.508 OA
ATOM     19  H   UNL     1      85.673  -0.489   3.111  1.00  0.00     0.293 HD
ENDBRANCH  15  18
ENDBRANCH   1  12
BRANCH  11  20
ATOM     20  C   UNL     1      85.936   2.394  -7.582  1.00  0.00     0.188 C 
ATOM     21  C   UNL     1      86.194   0.934  -7.103  1.00  0.00     0.179 C 
ATOM     22  O   UNL     1      84.738   2.660  -8.313  1.00  0.00    -0.362 OA
ATOM     23  C   UNL     1      84.913   0.209  -6.713  1.00  0.00     0.177 C 
ATOM     24  C   UNL     1      83.609   1.801  -8.146  1.00  0.00     0.176 C 
ATOM     25  C   UNL     1      83.943   0.317  -7.880  1.00  0.00     0.177 C 
BRANCH  21  26
ATOM     26  O   UNL     1      87.114   0.905  -6.040  1.00  0.00    -0.387 OA
ATOM     27  H   UNL     1      87.917   0.417  -6.363  1.00  0.00     0.211 HD
ENDBRANCH  21  26
BRANCH  23  28
ATOM     28  O   UNL     1      84.350   0.763  -5.549  1.00  0.00    -0.387 OA
ATOM     29  H   UNL     1      84.947   0.520  -4.795  1.00  0.00     0.211 HD
ENDBRANCH  23  28
BRANCH  24  30
ATOM     30  C   UNL     1      82.746   1.944  -9.412  1.00  0.00     0.191 C 
BRANCH  30  31
ATOM     31  O   UNL     1      82.544   0.706 -10.042  1.00  0.00    -0.394 OA
ATOM     32  H   UNL     1      82.180   0.091  -9.353  1.00  0.00     0.210 HD
ENDBRANCH  30  31
ENDBRANCH  24  30
BRANCH  25  33
ATOM     33  O   UNL     1      82.767  -0.390  -7.574  1.00  0.00    -0.388 OA
ATOM     34  H   UNL     1      83.026  -1.342  -7.455  1.00  0.00     0.211 HD
ENDBRANCH  25  33
ENDBRANCH  11  20
BRANCH  10  35
ATOM     35  O   UNL     1      86.569   5.231  -8.183  1.00  0.00    -0.507 OA
ATOM     36  H   UNL     1      85.725   5.467  -8.693  1.00  0.00     0.293 HD
ENDBRANCH  10  35
TORSDOF 9
ENDMDL
MODEL 7
REMARK VINA RESULT:    -1.462      7.704     10.555
REMARK INTER + INTRA:          -1.949
REMARK INTER:                  -2.422
REMARK INTRA:                   0.473
REMARK UNBOUND:                 0.026
REMARK SMILES O=c1c(-c2ccc(O)cc2)coc2c([C@@H]3O[C@@H](CO)[C@H](O)[C@H](O)[C@@H]3O)c(O)ccc12
REMARK SMILES IDX 3 1 11 2 12 3 13 4 30 5 2 6 1 7 29 8 28 9 26 10 14 11 4 12
REMARK SMILES IDX 5 13 6 14 7 15 10 16 9 17 8 18 15 20 24 21 16 22 22 23 17 24
REMARK SMILES IDX 20 25 25 26 23 28 18 30 19 31 21 33 27 35
REMARK H PARENT 8 19 25 27 23 29 19 32 21 34 27 36
REMARK Flexibility Score: inf
ROOT
ATOM      1  C   UNL     1      80.962   1.259   0.168  1.00  0.00     0.065 A 
ATOM      2  C   UNL     1      81.810   2.228  -0.383  1.00  0.00     0.208 A 
ATOM      3  O   UNL     1      83.128   2.135  -0.251  1.00  0.00    -0.463 OA
ATOM      4  C   UNL     1      83.730   1.139   0.397  1.00  0.00     0.147 A 
ATOM      5  C   UNL     1      82.945   0.119   0.986  1.00  0.00     0.066 A 
ATOM      6  C   UNL     1      81.547   0.182   0.857  1.00  0.00     0.200 A 
ATOM      7  O   UNL     1      80.820  -0.731   1.341  1.00  0.00    -0.288 OA
ATOM      8  C   UNL     1      83.573  -0.923   1.679  1.00  0.00     0.020 A 
ATOM      9  C   UNL     1      84.959  -0.946   1.801  1.00  0.00     0.047 A 
ATOM     10  C   UNL     1      85.748   0.059   1.227  1.00  0.00     0.125 A 
ATOM     11  C   UNL     1      85.147   1.113   0.498  1.00  0.00     0.069 A 
ENDROOT
BRANCH   1  12
ATOM     12  C   UNL     1      79.490   1.388   0.011  1.00  0.00    -0.011 A 
ATOM     13  C   UNL     1      78.826   2.538   0.472  1.00  0.00     0.013 A 
ATOM     14  C   UNL     1      77.440   2.659   0.334  1.00  0.00     0.047 A 
ATOM     15  C   UNL     1      76.701   1.628  -0.262  1.00  0.00     0.115 A 
ATOM     16  C   UNL     1      78.740   0.356  -0.578  1.00  0.00     0.013 A 
ATOM     17  C   UNL     1      77.354   0.478  -0.714  1.00  0.00     0.047 A 
BRANCH  15  18
ATOM     18  O   UNL     1      75.319   1.737  -0.404  1.00  0.00    -0.508 OA
ATOM     19  H   UNL     1      74.708   1.813   0.401  1.00  0.00     0.293 HD
ENDBRANCH  15  18
ENDBRANCH   1  12
BRANCH  11  20
ATOM     20  C   UNL     1      85.959   2.255  -0.136  1.00  0.00     0.188 C 
ATOM     21  C   UNL     1      86.844   1.813  -1.340  1.00  0.00     0.179 C 
ATOM     22  O   UNL     1      85.218   3.471  -0.258  1.00  0.00    -0.362 OA
ATOM     23  C   UNL     1      86.230   2.173  -2.685  1.00  0.00     0.177 C 
ATOM     24  C   UNL     1      84.874   3.955  -1.556  1.00  0.00     0.176 C 
ATOM     25  C   UNL     1      85.907   3.660  -2.666  1.00  0.00     0.177 C 
BRANCH  21  26
ATOM     26  O   UNL     1      87.125   0.436  -1.284  1.00  0.00    -0.387 OA
ATOM     27  H   UNL     1      88.093   0.343  -1.085  1.00  0.00     0.211 HD
ENDBRANCH  21  26
BRANCH  23  28
ATOM     28  O   UNL     1      85.070   1.418  -2.933  1.00  0.00    -0.387 OA
ATOM     29  H   UNL     1      85.232   0.510  -2.565  1.00  0.00     0.211 HD
ENDBRANCH  23  28
BRANCH  24  30
ATOM     30  C   UNL     1      84.641   5.470  -1.423  1.00  0.00     0.191 C 
BRANCH  30  31
ATOM     31  O   UNL     1      85.779   6.203  -1.792  1.00  0.00    -0.394 OA
ATOM     32  H   UNL     1      86.532   5.557  -1.834  1.00  0.00     0.210 HD
ENDBRANCH  30  31
ENDBRANCH  24  30
BRANCH  25  33
ATOM     33  O   UNL     1      85.386   4.038  -3.916  1.00  0.00    -0.388 OA
ATOM     34  H   UNL     1      84.821   3.284  -4.233  1.00  0.00     0.211 HD
ENDBRANCH  25  33
ENDBRANCH  11  20
BRANCH  10  35
ATOM     35  O   UNL     1      87.125  -0.006   1.392  1.00  0.00    -0.507 OA
ATOM     36  H   UNL     1      87.729   0.782   1.186  1.00  0.00     0.293 HD
ENDBRANCH  10  35
TORSDOF 9
ENDMDL
