MODEL 1
REMARK VINA RESULT:    43.061      0.000      0.000
REMARK INTER + INTRA:          57.577
REMARK INTER:                  58.165
REMARK INTRA:                  -0.587
REMARK UNBOUND:                -0.587
REMARK SMILES O=c1c(-c2ccc(O)cc2)coc2c([C@@H]3O[C@H](CO)[C@H](O)[C@@H](O)[C@H]3O)c(O)ccc12
REMARK SMILES IDX 3 1 11 2 12 3 13 4 30 5 2 6 1 7 29 8 28 9 26 10 14 11 4 12
REMARK SMILES IDX 5 13 6 14 7 15 10 16 9 17 8 18 15 20 24 21 16 22 22 23 17 24
REMARK SMILES IDX 20 25 25 26 23 28 18 30 19 31 21 33 27 35
REMARK H PARENT 8 19 25 27 23 29 19 32 21 34 27 36
REMARK Flexibility Score: inf
ROOT
ATOM      1  C   UNL     1      39.483  35.514  -6.133  1.00  0.00     0.065 A 
ATOM      2  C   UNL     1      38.507  34.656  -6.657  1.00  0.00     0.208 A 
ATOM      3  O   UNL     1      38.273  34.608  -7.963  1.00  0.00    -0.463 OA
ATOM      4  C   UNL     1      38.931  35.350  -8.849  1.00  0.00     0.147 A 
ATOM      5  C   UNL     1      39.934  36.244  -8.406  1.00  0.00     0.066 A 
ATOM      6  C   UNL     1      40.213  36.316  -7.030  1.00  0.00     0.200 A 
ATOM      7  O   UNL     1      41.125  37.078  -6.603  1.00  0.00    -0.288 OA
ATOM      8  C   UNL     1      40.620  37.035  -9.341  1.00  0.00     0.020 A 
ATOM      9  C   UNL     1      40.307  36.950 -10.696  1.00  0.00     0.047 A 
ATOM     10  C   UNL     1      39.314  36.073 -11.146  1.00  0.00     0.125 A 
ATOM     11  C   UNL     1      38.626  35.246 -10.228  1.00  0.00     0.069 A 
ENDROOT
BRANCH   1  12
ATOM     12  C   UNL     1      39.723  35.555  -4.668  1.00  0.00    -0.011 A 
ATOM     13  C   UNL     1      40.657  34.686  -4.077  1.00  0.00     0.013 A 
ATOM     14  C   UNL     1      40.878  34.715  -2.697  1.00  0.00     0.047 A 
ATOM     15  C   UNL     1      40.168  35.609  -1.890  1.00  0.00     0.115 A 
ATOM     16  C   UNL     1      39.007  36.447  -3.849  1.00  0.00     0.013 A 
ATOM     17  C   UNL     1      39.230  36.474  -2.469  1.00  0.00     0.047 A 
BRANCH  15  18
ATOM     18  O   UNL     1      40.399  35.629  -0.516  1.00  0.00    -0.508 OA
ATOM     19  H   UNL     1      39.768  36.100   0.120  1.00  0.00     0.293 HD
ENDBRANCH  15  18
ENDBRANCH   1  12
BRANCH  11  20
ATOM     20  C   UNL     1      37.530  34.303 -10.704  1.00  0.00     0.188 C 
ATOM     21  C   UNL     1      38.021  32.838 -10.632  1.00  0.00     0.179 C 
ATOM     22  O   UNL     1      36.372  34.490  -9.902  1.00  0.00    -0.362 OA
ATOM     23  C   UNL     1      36.888  31.875 -11.038  1.00  0.00     0.177 C 
ATOM     24  C   UNL     1      35.289  33.715 -10.389  1.00  0.00     0.176 C 
ATOM     25  C   UNL     1      35.604  32.206 -10.253  1.00  0.00     0.177 C 
BRANCH  21  26
ATOM     26  O   UNL     1      39.127  32.667 -11.482  1.00  0.00    -0.387 OA
ATOM     27  H   UNL     1      38.980  31.817 -11.975  1.00  0.00     0.211 HD
ENDBRANCH  21  26
BRANCH  23  28
ATOM     28  O   UNL     1      36.651  31.978 -12.420  1.00  0.00    -0.387 OA
ATOM     29  H   UNL     1      35.741  31.614 -12.583  1.00  0.00     0.211 HD
ENDBRANCH  23  28
BRANCH  24  30
ATOM     30  C   UNL     1      34.024  34.101  -9.613  1.00  0.00     0.191 C 
BRANCH  30  31
ATOM     31  O   UNL     1      34.213  33.891  -8.241  1.00  0.00    -0.394 OA
ATOM     32  H   UNL     1      34.703  34.685  -7.905  1.00  0.00     0.210 HD
ENDBRANCH  30  31
ENDBRANCH  24  30
BRANCH  25  33
ATOM     33  O   UNL     1      35.775  31.875  -8.896  1.00  0.00    -0.388 OA
ATOM     34  H   UNL     1      36.490  32.468  -8.545  1.00  0.00     0.211 HD
ENDBRANCH  25  33
ENDBRANCH  11  20
BRANCH  10  35
ATOM     35  O   UNL     1      39.007  36.026 -12.506  1.00  0.00    -0.507 OA
ATOM     36  H   UNL     1      38.108  35.697 -12.839  1.00  0.00     0.293 HD
ENDBRANCH  10  35
TORSDOF 9
ENDMDL
