MODEL 1
REMARK VINA RESULT:    -7.738      0.000      0.000
REMARK INTER + INTRA:         -13.973
REMARK INTER:                 -11.584
REMARK INTRA:                  -2.390
REMARK UNBOUND:                -2.390
REMARK SMILES C=C(CC[C@@H](C(=O)[O-])[C@@H]1[C@@H](O)C[C@]2(C)C3=C(CC[C@@]12C)[C@]1(C)CC[C@H](OC(C)=O)C(C)(C)[C@H]1CC3)C(C)C
REMARK SMILES IDX 4 1 5 2 6 3 7 4 8 5 9 6 10 7 19 8 12 9 13 10 18 11 20 12
REMARK SMILES IDX 14 13 15 14 17 15 16 16 35 17 21 18 34 19 33 20 23 21 22 22
REMARK SMILES IDX 30 23 24 24 25 25 31 26 32 27 11 28 26 30 27 31 29 32 28 33
REMARK SMILES IDX 3 34 2 35 1 36 36 37 37 38 38 39
REMARK H PARENT 11 29
REMARK Flexibility Score: inf
ROOT
ATOM      1  C   UNL     1     160.011 161.972 155.063  1.00  0.00     0.014 C 
ENDROOT
BRANCH   1   2
ATOM      2  C   UNL     1     159.960 161.602 153.557  1.00  0.00     0.042 C 
BRANCH   2   3
ATOM      3  C   UNL     1     160.875 162.522 152.775  1.00  0.00     0.045 C 
ATOM      4  O   UNL     1     161.918 163.001 153.293  1.00  0.00    -0.550 OA
ATOM      5  O   UNL     1     160.516 162.928 151.494  1.00  0.00    -0.550 OA
ENDBRANCH   2   3
BRANCH   2   6
ATOM      6  C   UNL     1     160.185 160.061 153.341  1.00  0.00     0.033 C 
ATOM      7  C   UNL     1     161.353 159.632 152.406  1.00  0.00     0.119 C 
ATOM      8  C   UNL     1     158.973 159.215 152.861  1.00  0.00    -0.017 C 
ATOM      9  C   UNL     1     160.894 158.328 151.713  1.00  0.00     0.043 C 
ATOM     10  C   UNL     1     159.647 157.863 152.493  1.00  0.00    -0.003 C 
ATOM     11  C   UNL     1     157.892 158.945 153.922  1.00  0.00     0.012 C 
ATOM     12  C   UNL     1     158.289 159.895 151.628  1.00  0.00     0.013 C 
ATOM     13  C   UNL     1     160.152 157.013 153.705  1.00  0.00     0.017 C 
ATOM     14  C   UNL     1     158.632 156.986 151.776  1.00  0.00    -0.064 C 
ATOM     15  C   UNL     1     156.939 157.787 153.502  1.00  0.00     0.032 C 
ATOM     16  C   UNL     1     157.375 156.869 152.323  1.00  0.00    -0.064 C 
ATOM     17  C   UNL     1     159.108 156.143 150.600  1.00  0.00     0.032 C 
ATOM     18  C   UNL     1     156.311 155.922 151.712  1.00  0.00    -0.008 C 
ATOM     19  C   UNL     1     158.014 155.350 149.892  1.00  0.00     0.009 C 
ATOM     20  C   UNL     1     157.002 154.773 150.898  1.00  0.00     0.009 C 
ATOM     21  C   UNL     1     155.475 155.268 152.868  1.00  0.00     0.015 C 
ATOM     22  C   UNL     1     155.400 156.820 150.828  1.00  0.00     0.016 C 
ATOM     23  C   UNL     1     156.028 153.676 150.279  1.00  0.00     0.005 C 
ATOM     24  C   UNL     1     154.935 153.850 152.596  1.00  0.00     0.047 C 
ATOM     25  C   UNL     1     154.698 153.562 151.112  1.00  0.00     0.182 C 
ATOM     26  C   UNL     1     155.667 153.967 148.797  1.00  0.00     0.015 C 
ATOM     27  C   UNL     1     156.769 152.308 150.295  1.00  0.00     0.015 C 
BRANCH   7  28
ATOM     28  O   UNL     1     162.519 159.392 153.150  1.00  0.00    -0.393 OA
ATOM     29  H   UNL     1     162.238 158.980 154.008  1.00  0.00     0.210 HD
ENDBRANCH   7  28
BRANCH  25  30
ATOM     30  O   UNL     1     154.119 152.255 151.000  1.00  0.00    -0.462 OA
BRANCH  30  31
ATOM     31  C   UNL     1     152.783 151.956 151.298  1.00  0.00     0.302 C 
ATOM     32  O   UNL     1     152.490 151.158 152.228  1.00  0.00    -0.253 OA
ATOM     33  C   UNL     1     151.694 152.567 150.483  1.00  0.00     0.139 C 
ENDBRANCH  30  31
ENDBRANCH  25  30
ENDBRANCH   2   6
ENDBRANCH   1   2
BRANCH   1  34
ATOM     34  C   UNL     1     160.537 160.817 155.932  1.00  0.00     0.031 C 
BRANCH  34  35
ATOM     35  C   UNL     1     159.471 160.337 156.895  1.00  0.00    -0.075 C 
ATOM     36  C   UNL     1     159.542 159.087 157.386  1.00  0.00     0.008 C 
BRANCH  35  37
ATOM     37  C   UNL     1     158.329 161.269 157.282  1.00  0.00     0.008 C 
ATOM     38  C   UNL     1     158.570 161.892 158.658  1.00  0.00     0.012 C 
ATOM     39  C   UNL     1     156.975 160.548 157.230  1.00  0.00     0.012 C 
ENDBRANCH  35  37
ENDBRANCH  34  35
ENDBRANCH   1  34
TORSDOF 9
ENDMDL
MODEL 2
REMARK VINA RESULT:    -7.730      3.167      9.980
REMARK INTER + INTRA:         -13.961
REMARK INTER:                 -11.607
REMARK INTRA:                  -2.354
REMARK UNBOUND:                -2.390
REMARK SMILES C=C(CC[C@@H](C(=O)[O-])[C@@H]1[C@@H](O)C[C@]2(C)C3=C(CC[C@@]12C)[C@]1(C)CC[C@H](OC(C)=O)C(C)(C)[C@H]1CC3)C(C)C
REMARK SMILES IDX 4 1 5 2 6 3 7 4 8 5 9 6 10 7 19 8 12 9 13 10 18 11 20 12
REMARK SMILES IDX 14 13 15 14 17 15 16 16 35 17 21 18 34 19 33 20 23 21 22 22
REMARK SMILES IDX 30 23 24 24 25 25 31 26 32 27 11 28 26 30 27 31 29 32 28 33
REMARK SMILES IDX 3 34 2 35 1 36 36 37 37 38 38 39
REMARK H PARENT 11 29
REMARK Flexibility Score: inf
ROOT
ATOM      1  C   UNL     1     151.899 150.024 155.111  1.00  0.00     0.014 C 
ENDROOT
BRANCH   1   2
ATOM      2  C   UNL     1     151.945 150.360 153.597  1.00  0.00     0.042 C 
BRANCH   2   3
ATOM      3  C   UNL     1     151.030 149.423 152.838  1.00  0.00     0.045 C 
ATOM      4  O   UNL     1     149.990 148.951 153.371  1.00  0.00    -0.550 OA
ATOM      5  O   UNL     1     151.383 148.991 151.565  1.00  0.00    -0.550 OA
ENDBRANCH   2   3
BRANCH   2   6
ATOM      6  C   UNL     1     151.718 151.896 153.347  1.00  0.00     0.033 C 
ATOM      7  C   UNL     1     150.575 152.301 152.371  1.00  0.00     0.119 C 
ATOM      8  C   UNL     1     152.938 152.742 152.890  1.00  0.00    -0.017 C 
ATOM      9  C   UNL     1     151.047 153.596 151.669  1.00  0.00     0.043 C 
ATOM     10  C   UNL     1     152.268 154.083 152.478  1.00  0.00    -0.003 C 
ATOM     11  C   UNL     1     153.986 153.037 153.978  1.00  0.00     0.012 C 
ATOM     12  C   UNL     1     153.664 152.045 151.690  1.00  0.00     0.013 C 
ATOM     13  C   UNL     1     151.721 154.950 153.660  1.00  0.00     0.017 C 
ATOM     14  C   UNL     1     153.298 154.954 151.776  1.00  0.00    -0.064 C 
ATOM     15  C   UNL     1     154.944 154.194 153.566  1.00  0.00     0.032 C 
ATOM     16  C   UNL     1     154.538 155.089 152.359  1.00  0.00    -0.064 C 
ATOM     17  C   UNL     1     152.853 155.773 150.573  1.00  0.00     0.032 C 
ATOM     18  C   UNL     1     155.614 156.032 151.764  1.00  0.00    -0.008 C 
ATOM     19  C   UNL     1     153.963 156.562 149.884  1.00  0.00     0.009 C 
ATOM     20  C   UNL     1     154.941 157.162 150.910  1.00  0.00     0.009 C 
ATOM     21  C   UNL     1     156.410 156.712 152.933  1.00  0.00     0.015 C 
ATOM     22  C   UNL     1     156.557 155.125 150.923  1.00  0.00     0.016 C 
ATOM     23  C   UNL     1     155.926 158.255 150.301  1.00  0.00     0.005 C 
ATOM     24  C   UNL     1     156.949 158.128 152.653  1.00  0.00     0.047 C 
ATOM     25  C   UNL     1     157.230 158.392 151.172  1.00  0.00     0.182 C 
ATOM     26  C   UNL     1     156.334 157.941 148.836  1.00  0.00     0.015 C 
ATOM     27  C   UNL     1     155.177 159.618 150.272  1.00  0.00     0.015 C 
BRANCH   7  28
ATOM     28  O   UNL     1     149.386 152.546 153.075  1.00  0.00    -0.393 OA
ATOM     29  H   UNL     1     148.680 151.989 152.658  1.00  0.00     0.210 HD
ENDBRANCH   7  28
BRANCH  25  30
ATOM     30  O   UNL     1     157.804 159.700 151.055  1.00  0.00    -0.462 OA
BRANCH  30  31
ATOM     31  C   UNL     1     159.148 159.998 151.314  1.00  0.00     0.302 C 
ATOM     32  O   UNL     1     159.470 160.794 152.236  1.00  0.00    -0.253 OA
ATOM     33  C   UNL     1     160.212 159.389 150.465  1.00  0.00     0.139 C 
ENDBRANCH  30  31
ENDBRANCH  25  30
ENDBRANCH   2   6
ENDBRANCH   1   2
BRANCH   1  34
ATOM     34  C   UNL     1     151.390 151.203 155.957  1.00  0.00     0.031 C 
BRANCH  34  35
ATOM     35  C   UNL     1     152.434 151.635 156.965  1.00  0.00    -0.075 C 
ATOM     36  C   UNL     1     152.330 152.845 157.542  1.00  0.00     0.008 C 
BRANCH  35  37
ATOM     37  C   UNL     1     153.591 150.702 157.301  1.00  0.00     0.008 C 
ATOM     38  C   UNL     1     153.374 150.019 158.652  1.00  0.00     0.012 C 
ATOM     39  C   UNL     1     154.936 151.441 157.264  1.00  0.00     0.012 C 
ENDBRANCH  35  37
ENDBRANCH  34  35
ENDBRANCH   1  34
TORSDOF 9
ENDMDL
MODEL 3
REMARK VINA RESULT:    -7.417      3.605     10.027
REMARK INTER + INTRA:         -13.492
REMARK INTER:                 -11.582
REMARK INTRA:                  -1.910
REMARK UNBOUND:                -2.390
REMARK SMILES C=C(CC[C@@H](C(=O)[O-])[C@@H]1[C@@H](O)C[C@]2(C)C3=C(CC[C@@]12C)[C@]1(C)CC[C@H](OC(C)=O)C(C)(C)[C@H]1CC3)C(C)C
REMARK SMILES IDX 4 1 5 2 6 3 7 4 8 5 9 6 10 7 19 8 12 9 13 10 18 11 20 12
REMARK SMILES IDX 14 13 15 14 17 15 16 16 35 17 21 18 34 19 33 20 23 21 22 22
REMARK SMILES IDX 30 23 24 24 25 25 31 26 32 27 11 28 26 30 27 31 29 32 28 33
REMARK SMILES IDX 3 34 2 35 1 36 36 37 37 38 38 39
REMARK H PARENT 11 29
REMARK Flexibility Score: inf
ROOT
ATOM      1  C   UNL     1     154.584 155.440 155.595  1.00  0.00     0.014 C 
ENDROOT
BRANCH   1   2
ATOM      2  C   UNL     1     155.073 156.423 156.690  1.00  0.00     0.042 C 
BRANCH   2   3
ATOM      3  C   UNL     1     154.311 156.176 157.975  1.00  0.00     0.045 C 
ATOM      4  O   UNL     1     154.014 157.124 158.751  1.00  0.00    -0.550 OA
ATOM      5  O   UNL     1     154.013 154.875 158.364  1.00  0.00    -0.550 OA
ENDBRANCH   2   3
BRANCH   2   6
ATOM      6  C   UNL     1     156.641 156.413 156.807  1.00  0.00     0.033 C 
ATOM      7  C   UNL     1     157.254 155.999 158.177  1.00  0.00     0.119 C 
ATOM      8  C   UNL     1     157.403 157.709 156.415  1.00  0.00    -0.017 C 
ATOM      9  C   UNL     1     158.560 156.814 158.327  1.00  0.00     0.043 C 
ATOM     10  C   UNL     1     158.839 157.409 156.931  1.00  0.00    -0.003 C 
ATOM     11  C   UNL     1     157.482 158.001 154.906  1.00  0.00     0.012 C 
ATOM     12  C   UNL     1     156.763 158.951 157.120  1.00  0.00     0.013 C 
ATOM     13  C   UNL     1     159.632 156.331 156.121  1.00  0.00     0.017 C 
ATOM     14  C   UNL     1     159.671 158.680 156.841  1.00  0.00    -0.064 C 
ATOM     15  C   UNL     1     158.574 159.061 154.573  1.00  0.00     0.032 C 
ATOM     16  C   UNL     1     159.622 159.404 155.672  1.00  0.00    -0.064 C 
ATOM     17  C   UNL     1     160.647 158.986 157.968  1.00  0.00     0.032 C 
ATOM     18  C   UNL     1     160.509 160.656 155.458  1.00  0.00    -0.008 C 
ATOM     19  C   UNL     1     161.387 160.313 157.835  1.00  0.00     0.009 C 
ATOM     20  C   UNL     1     161.781 160.590 156.374  1.00  0.00     0.009 C 
ATOM     21  C   UNL     1     160.984 160.706 153.964  1.00  0.00     0.015 C 
ATOM     22  C   UNL     1     159.603 161.879 155.778  1.00  0.00     0.016 C 
ATOM     23  C   UNL     1     162.827 161.779 156.199  1.00  0.00     0.005 C 
ATOM     24  C   UNL     1     162.362 161.350 153.710  1.00  0.00     0.047 C 
ATOM     25  C   UNL     1     162.745 162.400 154.756  1.00  0.00     0.182 C 
ATOM     26  C   UNL     1     162.624 162.910 157.243  1.00  0.00     0.015 C 
ATOM     27  C   UNL     1     164.253 161.205 156.437  1.00  0.00     0.015 C 
BRANCH   7  28
ATOM     28  O   UNL     1     157.543 154.626 158.194  1.00  0.00    -0.393 OA
ATOM     29  H   UNL     1     156.678 154.145 158.127  1.00  0.00     0.210 HD
ENDBRANCH   7  28
BRANCH  25  30
ATOM     30  O   UNL     1     163.995 162.982 154.363  1.00  0.00    -0.462 OA
BRANCH  30  31
ATOM     31  C   UNL     1     164.164 164.329 154.017  1.00  0.00     0.302 C 
ATOM     32  O   UNL     1     163.602 164.812 152.998  1.00  0.00    -0.253 OA
ATOM     33  C   UNL     1     165.047 165.195 154.849  1.00  0.00     0.139 C 
ENDBRANCH  30  31
ENDBRANCH  25  30
ENDBRANCH   2   6
ENDBRANCH   1   2
BRANCH   1  34
ATOM     34  C   UNL     1     155.622 154.349 155.282  1.00  0.00     0.031 C 
BRANCH  34  35
ATOM     35  C   UNL     1     154.946 153.091 154.776  1.00  0.00    -0.075 C 
ATOM     36  C   UNL     1     154.687 152.967 153.462  1.00  0.00     0.008 C 
BRANCH  35  37
ATOM     37  C   UNL     1     154.559 151.994 155.760  1.00  0.00     0.008 C 
ATOM     38  C   UNL     1     153.094 152.126 156.182  1.00  0.00     0.012 C 
ATOM     39  C   UNL     1     155.488 151.984 156.982  1.00  0.00     0.012 C 
ENDBRANCH  35  37
ENDBRANCH  34  35
ENDBRANCH   1  34
TORSDOF 9
ENDMDL
MODEL 4
REMARK VINA RESULT:    -7.397      4.499     10.814
REMARK INTER + INTRA:         -13.462
REMARK INTER:                 -11.876
REMARK INTRA:                  -1.586
REMARK UNBOUND:                -2.390
REMARK SMILES C=C(CC[C@@H](C(=O)[O-])[C@@H]1[C@@H](O)C[C@]2(C)C3=C(CC[C@@]12C)[C@]1(C)CC[C@H](OC(C)=O)C(C)(C)[C@H]1CC3)C(C)C
REMARK SMILES IDX 4 1 5 2 6 3 7 4 8 5 9 6 10 7 19 8 12 9 13 10 18 11 20 12
REMARK SMILES IDX 14 13 15 14 17 15 16 16 35 17 21 18 34 19 33 20 23 21 22 22
REMARK SMILES IDX 30 23 24 24 25 25 31 26 32 27 11 28 26 30 27 31 29 32 28 33
REMARK SMILES IDX 3 34 2 35 1 36 36 37 37 38 38 39
REMARK H PARENT 11 29
REMARK Flexibility Score: inf
ROOT
ATOM      1  C   UNL     1     153.660 151.953 157.467  1.00  0.00     0.014 C 
ENDROOT
BRANCH   1   2
ATOM      2  C   UNL     1     153.338 153.299 156.767  1.00  0.00     0.042 C 
BRANCH   2   3
ATOM      3  C   UNL     1     151.884 153.317 156.340  1.00  0.00     0.045 C 
ATOM      4  O   UNL     1     151.553 153.633 155.166  1.00  0.00    -0.550 OA
ATOM      5  O   UNL     1     150.885 153.077 157.277  1.00  0.00    -0.550 OA
ENDBRANCH   2   3
BRANCH   2   6
ATOM      6  C   UNL     1     153.815 154.521 157.633  1.00  0.00     0.033 C 
ATOM      7  C   UNL     1     152.769 155.631 157.943  1.00  0.00     0.119 C 
ATOM      8  C   UNL     1     155.075 155.295 157.156  1.00  0.00    -0.017 C 
ATOM      9  C   UNL     1     153.558 156.960 158.008  1.00  0.00     0.043 C 
ATOM     10  C   UNL     1     155.046 156.555 158.069  1.00  0.00    -0.003 C 
ATOM     11  C   UNL     1     156.417 154.574 157.370  1.00  0.00     0.012 C 
ATOM     12  C   UNL     1     154.950 155.656 155.638  1.00  0.00     0.013 C 
ATOM     13  C   UNL     1     155.393 156.302 159.573  1.00  0.00     0.017 C 
ATOM     14  C   UNL     1     156.086 157.547 157.571  1.00  0.00    -0.064 C 
ATOM     15  C   UNL     1     157.628 155.546 157.249  1.00  0.00     0.032 C 
ATOM     16  C   UNL     1     157.347 157.076 157.286  1.00  0.00    -0.064 C 
ATOM     17  C   UNL     1     155.737 159.029 157.589  1.00  0.00     0.032 C 
ATOM     18  C   UNL     1     158.492 158.032 156.867  1.00  0.00    -0.008 C 
ATOM     19  C   UNL     1     156.806 159.949 157.007  1.00  0.00     0.009 C 
ATOM     20  C   UNL     1     158.219 159.482 157.398  1.00  0.00     0.009 C 
ATOM     21  C   UNL     1     159.841 157.529 157.491  1.00  0.00     0.015 C 
ATOM     22  C   UNL     1     158.557 157.964 155.315  1.00  0.00     0.016 C 
ATOM     23  C   UNL     1     159.359 160.556 157.109  1.00  0.00     0.005 C 
ATOM     24  C   UNL     1     160.877 158.617 157.835  1.00  0.00     0.047 C 
ATOM     25  C   UNL     1     160.764 159.866 156.958  1.00  0.00     0.182 C 
ATOM     26  C   UNL     1     159.075 161.399 155.836  1.00  0.00     0.015 C 
ATOM     27  C   UNL     1     159.396 161.553 158.303  1.00  0.00     0.015 C 
BRANCH   7  28
ATOM     28  O   UNL     1     152.141 155.389 159.174  1.00  0.00    -0.393 OA
ATOM     29  H   UNL     1     151.477 156.113 159.310  1.00  0.00     0.210 HD
ENDBRANCH   7  28
BRANCH  25  30
ATOM     30  O   UNL     1     161.828 160.758 157.315  1.00  0.00    -0.462 OA
BRANCH  30  31
ATOM     31  C   UNL     1     162.632 161.437 156.391  1.00  0.00     0.302 C 
ATOM     32  O   UNL     1     162.632 162.696 156.335  1.00  0.00    -0.253 OA
ATOM     33  C   UNL     1     163.477 160.659 155.441  1.00  0.00     0.139 C 
ENDBRANCH  30  31
ENDBRANCH  25  30
ENDBRANCH   2   6
ENDBRANCH   1   2
BRANCH   1  34
ATOM     34  C   UNL     1     153.423 150.743 156.547  1.00  0.00     0.031 C 
BRANCH  34  35
ATOM     35  C   UNL     1     152.375 149.818 157.131  1.00  0.00    -0.075 C 
ATOM     36  C   UNL     1     151.542 149.163 156.303  1.00  0.00     0.008 C 
BRANCH  35  37
ATOM     37  C   UNL     1     152.271 149.654 158.642  1.00  0.00     0.008 C 
ATOM     38  C   UNL     1     152.782 148.281 159.083  1.00  0.00     0.012 C 
ATOM     39  C   UNL     1     150.837 149.894 159.134  1.00  0.00     0.012 C 
ENDBRANCH  35  37
ENDBRANCH  34  35
ENDBRANCH   1  34
TORSDOF 9
ENDMDL
MODEL 5
REMARK VINA RESULT:    -7.261      4.408      6.175
REMARK INTER + INTRA:         -13.259
REMARK INTER:                 -11.574
REMARK INTRA:                  -1.685
REMARK UNBOUND:                -2.390
REMARK SMILES C=C(CC[C@@H](C(=O)[O-])[C@@H]1[C@@H](O)C[C@]2(C)C3=C(CC[C@@]12C)[C@]1(C)CC[C@H](OC(C)=O)C(C)(C)[C@H]1CC3)C(C)C
REMARK SMILES IDX 4 1 5 2 6 3 7 4 8 5 9 6 10 7 19 8 12 9 13 10 18 11 20 12
REMARK SMILES IDX 14 13 15 14 17 15 16 16 35 17 21 18 34 19 33 20 23 21 22 22
REMARK SMILES IDX 30 23 24 24 25 25 31 26 32 27 11 28 26 30 27 31 29 32 28 33
REMARK SMILES IDX 3 34 2 35 1 36 36 37 37 38 38 39
REMARK H PARENT 11 29
REMARK Flexibility Score: inf
ROOT
ATOM      1  C   UNL     1     158.217 160.097 157.678  1.00  0.00     0.014 C 
ENDROOT
BRANCH   1   2
ATOM      2  C   UNL     1     158.705 158.794 156.992  1.00  0.00     0.042 C 
BRANCH   2   3
ATOM      3  C   UNL     1     160.185 158.901 156.688  1.00  0.00     0.045 C 
ATOM      4  O   UNL     1     161.021 159.150 157.597  1.00  0.00    -0.550 OA
ATOM      5  O   UNL     1     160.629 158.821 155.373  1.00  0.00    -0.550 OA
ENDBRANCH   2   3
BRANCH   2   6
ATOM      6  C   UNL     1     158.257 157.522 157.800  1.00  0.00     0.033 C 
ATOM      7  C   UNL     1     159.314 156.398 158.008  1.00  0.00     0.119 C 
ATOM      8  C   UNL     1     156.983 156.773 157.321  1.00  0.00    -0.017 C 
ATOM      9  C   UNL     1     158.529 155.066 158.021  1.00  0.00     0.043 C 
ATOM     10  C   UNL     1     157.044 155.463 158.156  1.00  0.00    -0.003 C 
ATOM     11  C   UNL     1     155.648 157.477 157.622  1.00  0.00     0.012 C 
ATOM     12  C   UNL     1     157.056 156.503 155.781  1.00  0.00     0.013 C 
ATOM     13  C   UNL     1     156.747 155.625 159.683  1.00  0.00     0.017 C 
ATOM     14  C   UNL     1     155.988 154.498 157.637  1.00  0.00    -0.064 C 
ATOM     15  C   UNL     1     154.434 156.511 157.485  1.00  0.00     0.032 C 
ATOM     16  C   UNL     1     154.718 154.982 157.422  1.00  0.00    -0.064 C 
ATOM     17  C   UNL     1     156.339 153.019 157.555  1.00  0.00     0.032 C 
ATOM     18  C   UNL     1     153.560 154.049 156.987  1.00  0.00    -0.008 C 
ATOM     19  C   UNL     1     155.251 152.132 156.956  1.00  0.00     0.009 C 
ATOM     20  C   UNL     1     153.852 152.571 157.422  1.00  0.00     0.009 C 
ATOM     21  C   UNL     1     152.233 154.511 157.685  1.00  0.00     0.015 C 
ATOM     22  C   UNL     1     153.442 154.208 155.444  1.00  0.00     0.016 C 
ATOM     23  C   UNL     1     152.704 151.513 157.109  1.00  0.00     0.005 C 
ATOM     24  C   UNL     1     151.209 153.402 157.999  1.00  0.00     0.047 C 
ATOM     25  C   UNL     1     151.293 152.207 157.046  1.00  0.00     0.182 C 
ATOM     26  C   UNL     1     152.945 150.748 155.779  1.00  0.00     0.015 C 
ATOM     27  C   UNL     1     152.708 150.448 158.242  1.00  0.00     0.015 C 
BRANCH   7  28
ATOM     28  O   UNL     1     159.984 156.569 159.230  1.00  0.00    -0.393 OA
ATOM     29  H   UNL     1     160.849 156.089 159.157  1.00  0.00     0.210 HD
ENDBRANCH   7  28
BRANCH  25  30
ATOM     30  O   UNL     1     150.243 151.293 157.386  1.00  0.00    -0.462 OA
BRANCH  30  31
ATOM     31  C   UNL     1     149.277 150.830 156.484  1.00  0.00     0.302 C 
ATOM     32  O   UNL     1     148.437 151.618 155.972  1.00  0.00    -0.253 OA
ATOM     33  C   UNL     1     149.222 149.379 156.147  1.00  0.00     0.139 C 
ENDBRANCH  30  31
ENDBRANCH  25  30
ENDBRANCH   2   6
ENDBRANCH   1   2
BRANCH   1  34
ATOM     34  C   UNL     1     158.431 161.339 156.796  1.00  0.00     0.031 C 
BRANCH  34  35
ATOM     35  C   UNL     1     159.375 162.318 157.463  1.00  0.00    -0.075 C 
ATOM     36  C   UNL     1     159.168 162.659 158.747  1.00  0.00     0.008 C 
BRANCH  35  37
ATOM     37  C   UNL     1     160.531 162.912 156.668  1.00  0.00     0.008 C 
ATOM     38  C   UNL     1     160.502 162.436 155.215  1.00  0.00     0.012 C 
ATOM     39  C   UNL     1     161.882 162.599 157.325  1.00  0.00     0.012 C 
ENDBRANCH  35  37
ENDBRANCH  34  35
ENDBRANCH   1  34
TORSDOF 9
ENDMDL
MODEL 6
REMARK VINA RESULT:    -7.243      3.955      8.960
REMARK INTER + INTRA:         -13.231
REMARK INTER:                 -12.214
REMARK INTRA:                  -1.017
REMARK UNBOUND:                -2.390
REMARK SMILES C=C(CC[C@@H](C(=O)[O-])[C@@H]1[C@@H](O)C[C@]2(C)C3=C(CC[C@@]12C)[C@]1(C)CC[C@H](OC(C)=O)C(C)(C)[C@H]1CC3)C(C)C
REMARK SMILES IDX 4 1 5 2 6 3 7 4 8 5 9 6 10 7 19 8 12 9 13 10 18 11 20 12
REMARK SMILES IDX 14 13 15 14 17 15 16 16 35 17 21 18 34 19 33 20 23 21 22 22
REMARK SMILES IDX 30 23 24 24 25 25 31 26 32 27 11 28 26 30 27 31 29 32 28 33
REMARK SMILES IDX 3 34 2 35 1 36 36 37 37 38 38 39
REMARK H PARENT 11 29
REMARK Flexibility Score: inf
ROOT
ATOM      1  C   UNL     1     158.746 158.719 147.105  1.00  0.00     0.014 C 
ENDROOT
BRANCH   1   2
ATOM      2  C   UNL     1     158.755 157.412 147.940  1.00  0.00     0.042 C 
BRANCH   2   3
ATOM      3  C   UNL     1     158.953 156.222 147.024  1.00  0.00     0.045 C 
ATOM      4  O   UNL     1     159.938 156.158 146.241  1.00  0.00    -0.550 OA
ATOM      5  O   UNL     1     157.987 155.224 146.967  1.00  0.00    -0.550 OA
ENDBRANCH   2   3
BRANCH   2   6
ATOM      6  C   UNL     1     159.749 157.518 149.154  1.00  0.00     0.033 C 
ATOM      7  C   UNL     1     160.594 156.257 149.500  1.00  0.00     0.119 C 
ATOM      8  C   UNL     1     159.174 157.987 150.519  1.00  0.00    -0.017 C 
ATOM      9  C   UNL     1     160.787 156.276 151.034  1.00  0.00     0.043 C 
ATOM     10  C   UNL     1     160.352 157.685 151.489  1.00  0.00    -0.003 C 
ATOM     11  C   UNL     1     158.838 159.485 150.618  1.00  0.00     0.012 C 
ATOM     12  C   UNL     1     157.885 157.172 150.876  1.00  0.00     0.013 C 
ATOM     13  C   UNL     1     161.597 158.621 151.344  1.00  0.00     0.017 C 
ATOM     14  C   UNL     1     159.871 157.865 152.920  1.00  0.00    -0.064 C 
ATOM     15  C   UNL     1     158.657 159.947 152.094  1.00  0.00     0.032 C 
ATOM     16  C   UNL     1     159.155 159.001 153.225  1.00  0.00    -0.064 C 
ATOM     17  C   UNL     1     160.357 156.882 153.976  1.00  0.00     0.032 C 
ATOM     18  C   UNL     1     158.710 159.312 154.676  1.00  0.00    -0.008 C 
ATOM     19  C   UNL     1     159.771 157.090 155.369  1.00  0.00     0.009 C 
ATOM     20  C   UNL     1     159.647 158.586 155.704  1.00  0.00     0.009 C 
ATOM     21  C   UNL     1     158.811 160.857 154.929  1.00  0.00     0.015 C 
ATOM     22  C   UNL     1     157.231 158.843 154.777  1.00  0.00     0.016 C 
ATOM     23  C   UNL     1     159.354 158.882 157.242  1.00  0.00     0.005 C 
ATOM     24  C   UNL     1     159.138 161.289 156.372  1.00  0.00     0.047 C 
ATOM     25  C   UNL     1     158.669 160.287 157.430  1.00  0.00     0.182 C 
ATOM     26  C   UNL     1     158.458 157.797 157.898  1.00  0.00     0.015 C 
ATOM     27  C   UNL     1     160.709 158.860 158.004  1.00  0.00     0.015 C 
BRANCH   7  28
ATOM     28  O   UNL     1     161.843 156.308 148.861  1.00  0.00    -0.393 OA
ATOM     29  H   UNL     1     161.740 156.892 148.066  1.00  0.00     0.210 HD
ENDBRANCH   7  28
BRANCH  25  30
ATOM     30  O   UNL     1     158.952 160.840 158.721  1.00  0.00    -0.462 OA
BRANCH  30  31
ATOM     31  C   UNL     1     159.556 162.086 158.932  1.00  0.00     0.302 C 
ATOM     32  O   UNL     1     158.870 163.142 158.967  1.00  0.00    -0.253 OA
ATOM     33  C   UNL     1     161.037 162.167 159.086  1.00  0.00     0.139 C 
ENDBRANCH  30  31
ENDBRANCH  25  30
ENDBRANCH   2   6
ENDBRANCH   1   2
BRANCH   1  34
ATOM     34  C   UNL     1     157.455 158.880 146.284  1.00  0.00     0.031 C 
BRANCH  34  35
ATOM     35  C   UNL     1     157.730 159.605 144.983  1.00  0.00    -0.075 C 
ATOM     36  C   UNL     1     159.000 159.883 144.641  1.00  0.00     0.008 C 
BRANCH  35  37
ATOM     37  C   UNL     1     156.567 160.020 144.090  1.00  0.00     0.008 C 
ATOM     38  C   UNL     1     156.912 161.274 143.285  1.00  0.00     0.012 C 
ATOM     39  C   UNL     1     155.281 160.221 144.903  1.00  0.00     0.012 C 
ENDBRANCH  35  37
ENDBRANCH  34  35
ENDBRANCH   1  34
TORSDOF 9
ENDMDL
MODEL 7
REMARK VINA RESULT:    -7.238      4.230     10.023
REMARK INTER + INTRA:         -13.224
REMARK INTER:                 -10.975
REMARK INTRA:                  -2.249
REMARK UNBOUND:                -2.390
REMARK SMILES C=C(CC[C@@H](C(=O)[O-])[C@@H]1[C@@H](O)C[C@]2(C)C3=C(CC[C@@]12C)[C@]1(C)CC[C@H](OC(C)=O)C(C)(C)[C@H]1CC3)C(C)C
REMARK SMILES IDX 4 1 5 2 6 3 7 4 8 5 9 6 10 7 19 8 12 9 13 10 18 11 20 12
REMARK SMILES IDX 14 13 15 14 17 15 16 16 35 17 21 18 34 19 33 20 23 21 22 22
REMARK SMILES IDX 30 23 24 24 25 25 31 26 32 27 11 28 26 30 27 31 29 32 28 33
REMARK SMILES IDX 3 34 2 35 1 36 36 37 37 38 38 39
REMARK H PARENT 11 29
REMARK Flexibility Score: inf
ROOT
ATOM      1  C   UNL     1     151.885 152.468 157.882  1.00  0.00     0.014 C 
ENDROOT
BRANCH   1   2
ATOM      2  C   UNL     1     153.417 152.452 157.646  1.00  0.00     0.042 C 
BRANCH   2   3
ATOM      3  C   UNL     1     153.890 151.026 157.453  1.00  0.00     0.045 C 
ATOM      4  O   UNL     1     155.098 150.711 157.620  1.00  0.00    -0.550 OA
ATOM      5  O   UNL     1     153.004 150.060 156.991  1.00  0.00    -0.550 OA
ENDBRANCH   2   3
BRANCH   2   6
ATOM      6  C   UNL     1     153.832 153.472 156.523  1.00  0.00     0.033 C 
ATOM      7  C   UNL     1     154.409 152.886 155.201  1.00  0.00     0.119 C 
ATOM      8  C   UNL     1     154.818 154.609 156.907  1.00  0.00    -0.017 C 
ATOM      9  C   UNL     1     155.440 153.918 154.687  1.00  0.00     0.043 C 
ATOM     10  C   UNL     1     155.195 155.195 155.517  1.00  0.00    -0.003 C 
ATOM     11  C   UNL     1     154.224 155.740 157.765  1.00  0.00     0.012 C 
ATOM     12  C   UNL     1     156.057 154.022 157.663  1.00  0.00     0.013 C 
ATOM     13  C   UNL     1     154.064 156.002 154.799  1.00  0.00     0.017 C 
ATOM     14  C   UNL     1     156.346 156.174 155.691  1.00  0.00    -0.064 C 
ATOM     15  C   UNL     1     155.130 157.007 157.769  1.00  0.00     0.032 C 
ATOM     16  C   UNL     1     156.258 157.106 156.700  1.00  0.00    -0.064 C 
ATOM     17  C   UNL     1     157.444 156.195 154.636  1.00  0.00     0.032 C 
ATOM     18  C   UNL     1     157.337 158.201 156.888  1.00  0.00    -0.008 C 
ATOM     19  C   UNL     1     158.596 157.153 154.924  1.00  0.00     0.009 C 
ATOM     20  C   UNL     1     158.087 158.469 155.537  1.00  0.00     0.009 C 
ATOM     21  C   UNL     1     156.648 159.536 157.338  1.00  0.00     0.015 C 
ATOM     22  C   UNL     1     158.284 157.678 158.006  1.00  0.00     0.016 C 
ATOM     23  C   UNL     1     159.175 159.633 155.564  1.00  0.00     0.005 C 
ATOM     24  C   UNL     1     157.333 160.840 156.885  1.00  0.00     0.047 C 
ATOM     25  C   UNL     1     158.842 160.696 156.676  1.00  0.00     0.182 C 
ATOM     26  C   UNL     1     160.614 159.099 155.796  1.00  0.00     0.015 C 
ATOM     27  C   UNL     1     159.176 160.324 154.170  1.00  0.00     0.015 C 
BRANCH   7  28
ATOM     28  O   UNL     1     153.391 152.713 154.250  1.00  0.00    -0.393 OA
ATOM     29  H   UNL     1     152.908 153.576 154.181  1.00  0.00     0.210 HD
ENDBRANCH   7  28
BRANCH  25  30
ATOM     30  O   UNL     1     159.371 161.986 156.343  1.00  0.00    -0.462 OA
BRANCH  30  31
ATOM     31  C   UNL     1     160.141 162.771 157.211  1.00  0.00     0.302 C 
ATOM     32  O   UNL     1     161.305 163.136 156.894  1.00  0.00    -0.253 OA
ATOM     33  C   UNL     1     159.587 163.155 158.541  1.00  0.00     0.139 C 
ENDBRANCH  30  31
ENDBRANCH  25  30
ENDBRANCH   2   6
ENDBRANCH   1   2
BRANCH   1  34
ATOM     34  C   UNL     1     151.161 153.469 156.965  1.00  0.00     0.031 C 
BRANCH  34  35
ATOM     35  C   UNL     1     150.099 154.231 157.730  1.00  0.00    -0.075 C 
ATOM     36  C   UNL     1     149.080 153.555 158.290  1.00  0.00     0.008 C 
BRANCH  35  37
ATOM     37  C   UNL     1     150.192 155.748 157.843  1.00  0.00     0.008 C 
ATOM     38  C   UNL     1     150.847 156.353 156.600  1.00  0.00     0.012 C 
ATOM     39  C   UNL     1     150.933 156.170 159.119  1.00  0.00     0.012 C 
ENDBRANCH  35  37
ENDBRANCH  34  35
ENDBRANCH   1  34
TORSDOF 9
ENDMDL
MODEL 8
REMARK VINA RESULT:    -7.215      3.722      5.786
REMARK INTER + INTRA:         -13.190
REMARK INTER:                 -11.067
REMARK INTRA:                  -2.123
REMARK UNBOUND:                -2.390
REMARK SMILES C=C(CC[C@@H](C(=O)[O-])[C@@H]1[C@@H](O)C[C@]2(C)C3=C(CC[C@@]12C)[C@]1(C)CC[C@H](OC(C)=O)C(C)(C)[C@H]1CC3)C(C)C
REMARK SMILES IDX 4 1 5 2 6 3 7 4 8 5 9 6 10 7 19 8 12 9 13 10 18 11 20 12
REMARK SMILES IDX 14 13 15 14 17 15 16 16 35 17 21 18 34 19 33 20 23 21 22 22
REMARK SMILES IDX 30 23 24 24 25 25 31 26 32 27 11 28 26 30 27 31 29 32 28 33
REMARK SMILES IDX 3 34 2 35 1 36 36 37 37 38 38 39
REMARK H PARENT 11 29
REMARK Flexibility Score: inf
ROOT
ATOM      1  C   UNL     1     163.024 160.371 154.583  1.00  0.00     0.014 C 
ENDROOT
BRANCH   1   2
ATOM      2  C   UNL     1     162.205 160.257 155.895  1.00  0.00     0.042 C 
BRANCH   2   3
ATOM      3  C   UNL     1     162.673 161.307 156.882  1.00  0.00     0.045 C 
ATOM      4  O   UNL     1     162.641 161.096 158.123  1.00  0.00    -0.550 OA
ATOM      5  O   UNL     1     163.053 162.564 156.426  1.00  0.00    -0.550 OA
ENDBRANCH   2   3
BRANCH   2   6
ATOM      6  C   UNL     1     160.661 160.227 155.602  1.00  0.00     0.033 C 
ATOM      7  C   UNL     1     159.813 161.432 156.107  1.00  0.00     0.119 C 
ATOM      8  C   UNL     1     159.863 158.973 156.056  1.00  0.00    -0.017 C 
ATOM      9  C   UNL     1     158.423 160.858 156.470  1.00  0.00     0.043 C 
ATOM     10  C   UNL     1     158.392 159.438 155.865  1.00  0.00    -0.003 C 
ATOM     11  C   UNL     1     160.084 157.706 155.211  1.00  0.00     0.012 C 
ATOM     12  C   UNL     1     160.192 158.630 157.547  1.00  0.00     0.013 C 
ATOM     13  C   UNL     1     157.919 159.580 154.381  1.00  0.00     0.017 C 
ATOM     14  C   UNL     1     157.464 158.407 156.491  1.00  0.00    -0.064 C 
ATOM     15  C   UNL     1     158.981 156.637 155.464  1.00  0.00     0.032 C 
ATOM     16  C   UNL     1     157.686 157.079 156.207  1.00  0.00    -0.064 C 
ATOM     17  C   UNL     1     156.237 158.902 157.244  1.00  0.00     0.032 C 
ATOM     18  C   UNL     1     156.734 155.971 156.723  1.00  0.00    -0.008 C 
ATOM     19  C   UNL     1     155.402 157.808 157.902  1.00  0.00     0.009 C 
ATOM     20  C   UNL     1     155.309 156.561 157.006  1.00  0.00     0.009 C 
ATOM     21  C   UNL     1     156.595 154.857 155.627  1.00  0.00     0.015 C 
ATOM     22  C   UNL     1     157.408 155.392 158.000  1.00  0.00     0.016 C 
ATOM     23  C   UNL     1     154.201 155.513 157.467  1.00  0.00     0.005 C 
ATOM     24  C   UNL     1     155.243 154.117 155.580  1.00  0.00     0.047 C 
ATOM     25  C   UNL     1     154.527 154.070 156.932  1.00  0.00     0.182 C 
ATOM     26  C   UNL     1     154.044 155.452 159.011  1.00  0.00     0.015 C 
ATOM     27  C   UNL     1     152.830 155.979 156.899  1.00  0.00     0.015 C 
BRANCH   7  28
ATOM     28  O   UNL     1     159.681 162.400 155.100  1.00  0.00    -0.393 OA
ATOM     29  H   UNL     1     158.711 162.581 154.995  1.00  0.00     0.210 HD
ENDBRANCH   7  28
BRANCH  25  30
ATOM     30  O   UNL     1     153.336 153.287 156.777  1.00  0.00    -0.462 OA
BRANCH  30  31
ATOM     31  C   UNL     1     153.045 152.136 157.522  1.00  0.00     0.302 C 
ATOM     32  O   UNL     1     152.025 152.084 158.260  1.00  0.00    -0.253 OA
ATOM     33  C   UNL     1     153.971 150.970 157.464  1.00  0.00     0.139 C 
ENDBRANCH  30  31
ENDBRANCH  25  30
ENDBRANCH   2   6
ENDBRANCH   1   2
BRANCH   1  34
ATOM     34  C   UNL     1     162.150 160.199 153.330  1.00  0.00     0.031 C 
BRANCH  34  35
ATOM     35  C   UNL     1     162.022 161.507 152.576  1.00  0.00    -0.075 C 
ATOM     36  C   UNL     1     162.697 162.585 153.013  1.00  0.00     0.008 C 
BRANCH  35  37
ATOM     37  C   UNL     1     161.124 161.586 151.348  1.00  0.00     0.008 C 
ATOM     38  C   UNL     1     160.864 163.040 150.949  1.00  0.00     0.012 C 
ATOM     39  C   UNL     1     159.808 160.828 151.566  1.00  0.00     0.012 C 
ENDBRANCH  35  37
ENDBRANCH  34  35
ENDBRANCH   1  34
TORSDOF 9
ENDMDL
MODEL 9
REMARK VINA RESULT:    -7.113      4.985      8.574
REMARK INTER + INTRA:         -13.037
REMARK INTER:                 -10.776
REMARK INTRA:                  -2.262
REMARK UNBOUND:                -2.390
REMARK SMILES C=C(CC[C@@H](C(=O)[O-])[C@@H]1[C@@H](O)C[C@]2(C)C3=C(CC[C@@]12C)[C@]1(C)CC[C@H](OC(C)=O)C(C)(C)[C@H]1CC3)C(C)C
REMARK SMILES IDX 4 1 5 2 6 3 7 4 8 5 9 6 10 7 19 8 12 9 13 10 18 11 20 12
REMARK SMILES IDX 14 13 15 14 17 15 16 16 35 17 21 18 34 19 33 20 23 21 22 22
REMARK SMILES IDX 30 23 24 24 25 25 31 26 32 27 11 28 26 30 27 31 29 32 28 33
REMARK SMILES IDX 3 34 2 35 1 36 36 37 37 38 38 39
REMARK H PARENT 11 29
REMARK Flexibility Score: inf
ROOT
ATOM      1  C   UNL     1     155.889 156.412 152.790  1.00  0.00     0.014 C 
ENDROOT
BRANCH   1   2
ATOM      2  C   UNL     1     156.399 156.266 154.247  1.00  0.00     0.042 C 
BRANCH   2   3
ATOM      3  C   UNL     1     157.358 157.394 154.567  1.00  0.00     0.045 C 
ATOM      4  O   UNL     1     158.593 157.182 154.702  1.00  0.00    -0.550 OA
ATOM      5  O   UNL     1     156.868 158.671 154.814  1.00  0.00    -0.550 OA
ENDBRANCH   2   3
BRANCH   2   6
ATOM      6  C   UNL     1     155.206 156.072 155.252  1.00  0.00     0.033 C 
ATOM      7  C   UNL     1     155.525 156.180 156.772  1.00  0.00     0.119 C 
ATOM      8  C   UNL     1     154.357 154.777 155.125  1.00  0.00    -0.017 C 
ATOM      9  C   UNL     1     154.561 155.203 157.485  1.00  0.00     0.043 C 
ATOM     10  C   UNL     1     153.507 154.816 156.427  1.00  0.00    -0.003 C 
ATOM     11  C   UNL     1     153.398 154.728 153.922  1.00  0.00     0.012 C 
ATOM     12  C   UNL     1     155.288 153.521 155.058  1.00  0.00     0.013 C 
ATOM     13  C   UNL     1     152.391 155.911 156.467  1.00  0.00     0.017 C 
ATOM     14  C   UNL     1     152.782 153.488 156.582  1.00  0.00    -0.064 C 
ATOM     15  C   UNL     1     152.320 153.616 154.080  1.00  0.00     0.032 C 
ATOM     16  C   UNL     1     152.126 152.976 155.486  1.00  0.00    -0.064 C 
ATOM     17  C   UNL     1     152.663 152.888 157.976  1.00  0.00     0.032 C 
ATOM     18  C   UNL     1     151.283 151.680 155.580  1.00  0.00    -0.008 C 
ATOM     19  C   UNL     1     151.986 151.522 158.033  1.00  0.00     0.009 C 
ATOM     20  C   UNL     1     150.802 151.444 157.054  1.00  0.00     0.009 C 
ATOM     21  C   UNL     1     150.014 151.820 154.668  1.00  0.00     0.015 C 
ATOM     22  C   UNL     1     152.200 150.537 155.058  1.00  0.00     0.016 C 
ATOM     23  C   UNL     1     149.854 150.185 157.284  1.00  0.00     0.005 C 
ATOM     24  C   UNL     1     148.754 151.067 155.138  1.00  0.00     0.047 C 
ATOM     25  C   UNL     1     149.063 149.822 155.973  1.00  0.00     0.182 C 
ATOM     26  C   UNL     1     150.635 148.930 157.760  1.00  0.00     0.015 C 
ATOM     27  C   UNL     1     148.848 150.539 158.416  1.00  0.00     0.015 C 
BRANCH   7  28
ATOM     28  O   UNL     1     155.306 157.488 157.232  1.00  0.00    -0.393 OA
ATOM     29  H   UNL     1     156.089 157.737 157.787  1.00  0.00     0.210 HD
ENDBRANCH   7  28
BRANCH  25  30
ATOM     30  O   UNL     1     147.823 149.169 156.272  1.00  0.00    -0.462 OA
BRANCH  30  31
ATOM     31  C   UNL     1     147.516 147.852 155.907  1.00  0.00     0.302 C 
ATOM     32  O   UNL     1     147.357 147.535 154.698  1.00  0.00    -0.253 OA
ATOM     33  C   UNL     1     147.347 146.816 156.966  1.00  0.00     0.139 C 
ENDBRANCH  30  31
ENDBRANCH  25  30
ENDBRANCH   2   6
ENDBRANCH   1   2
BRANCH   1  34
ATOM     34  C   UNL     1     156.574 155.427 151.828  1.00  0.00     0.031 C 
BRANCH  34  35
ATOM     35  C   UNL     1     155.553 154.542 151.143  1.00  0.00    -0.075 C 
ATOM     36  C   UNL     1     154.610 155.107 150.369  1.00  0.00     0.008 C 
BRANCH  35  37
ATOM     37  C   UNL     1     155.601 153.034 151.350  1.00  0.00     0.008 C 
ATOM     38  C   UNL     1     156.671 152.390 150.466  1.00  0.00     0.012 C 
ATOM     39  C   UNL     1     154.227 152.392 151.111  1.00  0.00     0.012 C 
ENDBRANCH  35  37
ENDBRANCH  34  35
ENDBRANCH   1  34
TORSDOF 9
ENDMDL
