MODEL 1
REMARK VINA RESULT:    -6.977      0.000      0.000
REMARK INTER + INTRA:          -8.955
REMARK INTER:                  -8.609
REMARK INTRA:                  -0.346
REMARK UNBOUND:                -0.346
REMARK SMILES COc1cc(-c2oc3cc(O)cc(O)c3c(=O)c2O)ccc1O
REMARK SMILES IDX 6 1 18 2 16 3 17 4 15 5 13 6 12 7 10 8 9 9 8 10 7 11 5 12
REMARK SMILES IDX 3 13 22 14 4 15 21 16 20 17 2 18 1 19 23 20 19 22 14 24
REMARK SMILES IDX 11 26
REMARK H PARENT 23 21 19 23 14 25 11 27
REMARK Flexibility Score: inf
ROOT
ATOM      1  C   UNL     1      20.478 -36.937  -7.595  1.00  0.00     0.180 A 
ATOM      2  C   UNL     1      20.933 -35.640  -7.286  1.00  0.00     0.208 A 
ATOM      3  C   UNL     1      21.978 -35.089  -8.046  1.00  0.00     0.238 A 
ATOM      4  O   UNL     1      22.387 -33.925  -7.785  1.00  0.00    -0.285 OA
ATOM      5  C   UNL     1      22.560 -35.847  -9.082  1.00  0.00     0.111 A 
ATOM      6  C   UNL     1      23.620 -35.367  -9.891  1.00  0.00     0.134 A 
ATOM      7  C   UNL     1      24.152 -36.186 -10.897  1.00  0.00     0.093 A 
ATOM      8  C   UNL     1      23.650 -37.471 -11.110  1.00  0.00     0.123 A 
ATOM      9  C   UNL     1      22.603 -37.950 -10.315  1.00  0.00     0.094 A 
ATOM     10  C   UNL     1      22.058 -37.149  -9.308  1.00  0.00     0.146 A 
ATOM     11  O   UNL     1      21.062 -37.627  -8.570  1.00  0.00    -0.452 OA
ENDROOT
BRANCH   1  12
ATOM     12  C   UNL     1      19.369 -37.578  -6.853  1.00  0.00     0.025 A 
ATOM     13  C   UNL     1      16.969 -37.771  -6.418  1.00  0.00     0.161 A 
ATOM     14  C   UNL     1      17.236 -38.729  -5.423  1.00  0.00     0.157 A 
ATOM     15  C   UNL     1      18.045 -37.195  -7.123  1.00  0.00     0.062 A 
ATOM     16  C   UNL     1      18.555 -39.095  -5.140  1.00  0.00     0.051 A 
ATOM     17  C   UNL     1      19.615 -38.521  -5.843  1.00  0.00     0.016 A 
BRANCH  13  18
ATOM     18  O   UNL     1      15.636 -37.416  -6.675  1.00  0.00    -0.493 OA
ATOM     19  C   UNL     1      15.196 -36.709  -7.830  1.00  0.00     0.278 C 
ENDBRANCH  13  18
BRANCH  14  20
ATOM     20  O   UNL     1      16.203 -39.326  -4.701  1.00  0.00    -0.504 OA
ATOM     21  H   UNL     1      15.420 -38.795  -4.339  1.00  0.00     0.293 HD
ENDBRANCH  14  20
ENDBRANCH   1  12
BRANCH   2  22
ATOM     22  O   UNL     1      20.372 -34.929  -6.222  1.00  0.00    -0.502 OA
ATOM     23  H   UNL     1      19.445 -35.125  -5.868  1.00  0.00     0.293 HD
ENDBRANCH   2  22
BRANCH   6  24
ATOM     24  O   UNL     1      24.145 -34.088  -9.702  1.00  0.00    -0.507 OA
ATOM     25  H   UNL     1      24.538 -33.798  -8.815  1.00  0.00     0.293 HD
ENDBRANCH   6  24
BRANCH   8  26
ATOM     26  O   UNL     1      24.198 -38.265 -12.116  1.00  0.00    -0.508 OA
ATOM     27  H   UNL     1      25.200 -38.344 -12.242  1.00  0.00     0.293 HD
ENDBRANCH   8  26
TORSDOF 6
ENDMDL
MODEL 2
REMARK VINA RESULT:    -6.619      3.147      8.184
REMARK INTER + INTRA:          -8.513
REMARK INTER:                  -8.217
REMARK INTRA:                  -0.296
REMARK UNBOUND:                -0.346
REMARK SMILES COc1cc(-c2oc3cc(O)cc(O)c3c(=O)c2O)ccc1O
REMARK SMILES IDX 6 1 18 2 16 3 17 4 15 5 13 6 12 7 10 8 9 9 8 10 7 11 5 12
REMARK SMILES IDX 3 13 22 14 4 15 21 16 20 17 2 18 1 19 23 20 19 22 14 24
REMARK SMILES IDX 11 26
REMARK H PARENT 23 21 19 23 14 25 11 27
REMARK Flexibility Score: inf
ROOT
ATOM      1  C   UNL     1      22.584 -33.985  -9.964  1.00  0.00     0.180 A 
ATOM      2  C   UNL     1      23.109 -35.282 -10.124  1.00  0.00     0.208 A 
ATOM      3  C   UNL     1      22.540 -36.339  -9.396  1.00  0.00     0.238 A 
ATOM      4  O   UNL     1      22.995 -37.507  -9.539  1.00  0.00    -0.285 OA
ATOM      5  C   UNL     1      21.474 -36.080  -8.510  1.00  0.00     0.111 A 
ATOM      6  C   UNL     1      20.848 -37.087  -7.735  1.00  0.00     0.134 A 
ATOM      7  C   UNL     1      19.799 -36.747  -6.869  1.00  0.00     0.093 A 
ATOM      8  C   UNL     1      19.366 -35.425  -6.760  1.00  0.00     0.123 A 
ATOM      9  C   UNL     1      19.980 -34.425  -7.522  1.00  0.00     0.094 A 
ATOM     10  C   UNL     1      21.026 -34.744  -8.393  1.00  0.00     0.146 A 
ATOM     11  O   UNL     1      21.589 -33.777  -9.108  1.00  0.00    -0.452 OA
ENDROOT
BRANCH   1  12
ATOM     12  C   UNL     1      23.118 -32.824 -10.711  1.00  0.00     0.025 A 
ATOM     13  C   UNL     1      24.261 -30.661 -10.691  1.00  0.00     0.161 A 
ATOM     14  C   UNL     1      24.094 -30.570 -12.085  1.00  0.00     0.157 A 
ATOM     15  C   UNL     1      23.763 -31.790 -10.012  1.00  0.00     0.062 A 
ATOM     16  C   UNL     1      23.434 -31.589 -12.778  1.00  0.00     0.051 A 
ATOM     17  C   UNL     1      22.943 -32.704 -12.098  1.00  0.00     0.016 A 
BRANCH  13  18
ATOM     18  O   UNL     1      24.920 -29.619 -10.019  1.00  0.00    -0.493 OA
ATOM     19  C   UNL     1      26.318 -29.586  -9.752  1.00  0.00     0.278 C 
ENDBRANCH  13  18
BRANCH  14  20
ATOM     20  O   UNL     1      24.572 -29.471 -12.799  1.00  0.00    -0.504 OA
ATOM     21  H   UNL     1      24.604 -29.458 -13.811  1.00  0.00     0.293 HD
ENDBRANCH  14  20
ENDBRANCH   1  12
BRANCH   2  22
ATOM     22  O   UNL     1      24.198 -35.505 -10.972  1.00  0.00    -0.502 OA
ATOM     23  H   UNL     1      25.090 -35.046 -10.841  1.00  0.00     0.293 HD
ENDBRANCH   2  22
BRANCH   6  24
ATOM     24  O   UNL     1      21.259 -38.418  -7.821  1.00  0.00    -0.507 OA
ATOM     25  H   UNL     1      21.909 -38.819  -7.155  1.00  0.00     0.293 HD
ENDBRANCH   6  24
BRANCH   8  26
ATOM     26  O   UNL     1      18.322 -35.113  -5.890  1.00  0.00    -0.508 OA
ATOM     27  H   UNL     1      17.377 -35.435  -6.060  1.00  0.00     0.293 HD
ENDBRANCH   8  26
TORSDOF 6
ENDMDL
MODEL 3
REMARK VINA RESULT:    -6.472      3.040      7.991
REMARK INTER + INTRA:          -8.331
REMARK INTER:                  -7.976
REMARK INTRA:                  -0.355
REMARK UNBOUND:                -0.346
REMARK SMILES COc1cc(-c2oc3cc(O)cc(O)c3c(=O)c2O)ccc1O
REMARK SMILES IDX 6 1 18 2 16 3 17 4 15 5 13 6 12 7 10 8 9 9 8 10 7 11 5 12
REMARK SMILES IDX 3 13 22 14 4 15 21 16 20 17 2 18 1 19 23 20 19 22 14 24
REMARK SMILES IDX 11 26
REMARK H PARENT 23 21 19 23 14 25 11 27
REMARK Flexibility Score: inf
ROOT
ATOM      1  C   UNL     1      23.205 -33.980  -8.466  1.00  0.00     0.180 A 
ATOM      2  C   UNL     1      23.570 -35.276  -8.879  1.00  0.00     0.208 A 
ATOM      3  C   UNL     1      22.716 -36.349  -8.579  1.00  0.00     0.238 A 
ATOM      4  O   UNL     1      23.027 -37.512  -8.954  1.00  0.00    -0.285 OA
ATOM      5  C   UNL     1      21.528 -36.113  -7.857  1.00  0.00     0.111 A 
ATOM      6  C   UNL     1      20.616 -37.140  -7.510  1.00  0.00     0.134 A 
ATOM      7  C   UNL     1      19.460 -36.826  -6.780  1.00  0.00     0.093 A 
ATOM      8  C   UNL     1      19.198 -35.511  -6.391  1.00  0.00     0.123 A 
ATOM      9  C   UNL     1      20.095 -34.493  -6.732  1.00  0.00     0.094 A 
ATOM     10  C   UNL     1      21.253 -34.784  -7.459  1.00  0.00     0.146 A 
ATOM     11  O   UNL     1      22.085 -33.798  -7.773  1.00  0.00    -0.452 OA
ENDROOT
BRANCH   1  12
ATOM     12  C   UNL     1      24.043 -32.795  -8.761  1.00  0.00     0.025 A 
ATOM     13  C   UNL     1      24.501 -30.845 -10.166  1.00  0.00     0.161 A 
ATOM     14  C   UNL     1      25.643 -30.568  -9.393  1.00  0.00     0.157 A 
ATOM     15  C   UNL     1      23.710 -31.967  -9.846  1.00  0.00     0.062 A 
ATOM     16  C   UNL     1      25.986 -31.404  -8.326  1.00  0.00     0.051 A 
ATOM     17  C   UNL     1      25.198 -32.514  -8.015  1.00  0.00     0.016 A 
BRANCH  13  18
ATOM     18  O   UNL     1      24.185 -29.994 -11.236  1.00  0.00    -0.493 OA
ATOM     19  C   UNL     1      24.467 -30.275 -12.603  1.00  0.00     0.278 C 
ENDBRANCH  13  18
BRANCH  14  20
ATOM     20  O   UNL     1      26.454 -29.468  -9.672  1.00  0.00    -0.504 OA
ATOM     21  H   UNL     1      27.261 -29.534 -10.281  1.00  0.00     0.293 HD
ENDBRANCH  14  20
ENDBRANCH   1  12
BRANCH   2  22
ATOM     22  O   UNL     1      24.776 -35.490  -9.552  1.00  0.00    -0.502 OA
ATOM     23  H   UNL     1      25.206 -34.782 -10.134  1.00  0.00     0.293 HD
ENDBRANCH   2  22
BRANCH   6  24
ATOM     24  O   UNL     1      20.850 -38.465  -7.883  1.00  0.00    -0.507 OA
ATOM     25  H   UNL     1      20.234 -38.955  -8.521  1.00  0.00     0.293 HD
ENDBRANCH   6  24
BRANCH   8  26
ATOM     26  O   UNL     1      18.043 -35.226  -5.666  1.00  0.00    -0.508 OA
ATOM     27  H   UNL     1      17.857 -34.296  -5.310  1.00  0.00     0.293 HD
ENDBRANCH   8  26
TORSDOF 6
ENDMDL
MODEL 4
REMARK VINA RESULT:    -6.305      3.546      8.161
REMARK INTER + INTRA:          -8.125
REMARK INTER:                  -7.882
REMARK INTRA:                  -0.243
REMARK UNBOUND:                -0.346
REMARK SMILES COc1cc(-c2oc3cc(O)cc(O)c3c(=O)c2O)ccc1O
REMARK SMILES IDX 6 1 18 2 16 3 17 4 15 5 13 6 12 7 10 8 9 9 8 10 7 11 5 12
REMARK SMILES IDX 3 13 22 14 4 15 21 16 20 17 2 18 1 19 23 20 19 22 14 24
REMARK SMILES IDX 11 26
REMARK H PARENT 23 21 19 23 14 25 11 27
REMARK Flexibility Score: inf
ROOT
ATOM      1  C   UNL     1      22.408 -32.796  -9.551  1.00  0.00     0.180 A 
ATOM      2  C   UNL     1      21.523 -32.221  -8.619  1.00  0.00     0.208 A 
ATOM      3  C   UNL     1      20.812 -33.063  -7.748  1.00  0.00     0.238 A 
ATOM      4  O   UNL     1      20.025 -32.558  -6.902  1.00  0.00    -0.285 OA
ATOM      5  C   UNL     1      20.983 -34.460  -7.837  1.00  0.00     0.111 A 
ATOM      6  C   UNL     1      20.301 -35.378  -7.001  1.00  0.00     0.134 A 
ATOM      7  C   UNL     1      20.518 -36.754  -7.158  1.00  0.00     0.093 A 
ATOM      8  C   UNL     1      21.397 -37.231  -8.131  1.00  0.00     0.123 A 
ATOM      9  C   UNL     1      22.074 -36.329  -8.960  1.00  0.00     0.094 A 
ATOM     10  C   UNL     1      21.873 -34.953  -8.819  1.00  0.00     0.146 A 
ATOM     11  O   UNL     1      22.531 -34.118  -9.615  1.00  0.00    -0.452 OA
ENDROOT
BRANCH   1  12
ATOM     12  C   UNL     1      23.206 -31.974 -10.489  1.00  0.00     0.025 A 
ATOM     13  C   UNL     1      24.961 -30.308 -10.849  1.00  0.00     0.161 A 
ATOM     14  C   UNL     1      24.704 -30.350 -12.231  1.00  0.00     0.157 A 
ATOM     15  C   UNL     1      24.200 -31.120  -9.984  1.00  0.00     0.062 A 
ATOM     16  C   UNL     1      23.700 -31.185 -12.731  1.00  0.00     0.051 A 
ATOM     17  C   UNL     1      22.951 -31.986 -11.869  1.00  0.00     0.016 A 
BRANCH  13  18
ATOM     18  O   UNL     1      25.968 -29.454 -10.373  1.00  0.00    -0.493 OA
ATOM     19  C   UNL     1      25.934 -28.784  -9.117  1.00  0.00     0.278 C 
ENDBRANCH  13  18
BRANCH  14  20
ATOM     20  O   UNL     1      25.433 -29.565 -13.125  1.00  0.00    -0.504 OA
ATOM     21  H   UNL     1      25.075 -28.691 -13.491  1.00  0.00     0.293 HD
ENDBRANCH  14  20
ENDBRANCH   1  12
BRANCH   2  22
ATOM     22  O   UNL     1      21.335 -30.836  -8.584  1.00  0.00    -0.502 OA
ATOM     23  H   UNL     1      22.003 -30.188  -8.980  1.00  0.00     0.293 HD
ENDBRANCH   2  22
BRANCH   6  24
ATOM     24  O   UNL     1      19.414 -34.933  -6.019  1.00  0.00    -0.507 OA
ATOM     25  H   UNL     1      19.498 -35.228  -5.053  1.00  0.00     0.293 HD
ENDBRANCH   6  24
BRANCH   8  26
ATOM     26  O   UNL     1      21.594 -38.604  -8.267  1.00  0.00    -0.508 OA
ATOM     27  H   UNL     1      22.485 -38.985  -8.562  1.00  0.00     0.293 HD
ENDBRANCH   8  26
TORSDOF 6
ENDMDL
MODEL 5
REMARK VINA RESULT:    -6.254      3.581      5.539
REMARK INTER + INTRA:          -8.062
REMARK INTER:                  -7.856
REMARK INTRA:                  -0.206
REMARK UNBOUND:                -0.346
REMARK SMILES COc1cc(-c2oc3cc(O)cc(O)c3c(=O)c2O)ccc1O
REMARK SMILES IDX 6 1 18 2 16 3 17 4 15 5 13 6 12 7 10 8 9 9 8 10 7 11 5 12
REMARK SMILES IDX 3 13 22 14 4 15 21 16 20 17 2 18 1 19 23 20 19 22 14 24
REMARK SMILES IDX 11 26
REMARK H PARENT 23 21 19 23 14 25 11 27
REMARK Flexibility Score: inf
ROOT
ATOM      1  C   UNL     1      22.611 -33.306  -9.352  1.00  0.00     0.180 A 
ATOM      2  C   UNL     1      21.941 -33.047 -10.563  1.00  0.00     0.208 A 
ATOM      3  C   UNL     1      22.462 -32.073 -11.431  1.00  0.00     0.238 A 
ATOM      4  O   UNL     1      21.876 -31.840 -12.524  1.00  0.00    -0.285 OA
ATOM      5  C   UNL     1      23.625 -31.365 -11.066  1.00  0.00     0.111 A 
ATOM      6  C   UNL     1      24.211 -30.366 -11.881  1.00  0.00     0.134 A 
ATOM      7  C   UNL     1      25.364 -29.699 -11.442  1.00  0.00     0.093 A 
ATOM      8  C   UNL     1      25.942 -30.009 -10.210  1.00  0.00     0.123 A 
ATOM      9  C   UNL     1      25.368 -30.996  -9.401  1.00  0.00     0.094 A 
ATOM     10  C   UNL     1      24.219 -31.673  -9.820  1.00  0.00     0.146 A 
ATOM     11  O   UNL     1      23.697 -32.608  -9.035  1.00  0.00    -0.452 OA
ENDROOT
BRANCH   1  12
ATOM     12  C   UNL     1      22.135 -34.331  -8.394  1.00  0.00     0.025 A 
ATOM     13  C   UNL     1      20.431 -35.096  -6.814  1.00  0.00     0.161 A 
ATOM     14  C   UNL     1      21.222 -36.223  -6.522  1.00  0.00     0.157 A 
ATOM     15  C   UNL     1      20.901 -34.151  -7.748  1.00  0.00     0.062 A 
ATOM     16  C   UNL     1      22.459 -36.391  -7.151  1.00  0.00     0.051 A 
ATOM     17  C   UNL     1      22.918 -35.451  -8.074  1.00  0.00     0.016 A 
BRANCH  13  18
ATOM     18  O   UNL     1      19.197 -34.948  -6.162  1.00  0.00    -0.493 OA
ATOM     19  C   UNL     1      17.964 -35.483  -6.633  1.00  0.00     0.278 C 
ENDBRANCH  13  18
BRANCH  14  20
ATOM     20  O   UNL     1      20.796 -37.185  -5.606  1.00  0.00    -0.504 OA
ATOM     21  H   UNL     1      20.393 -36.936  -4.711  1.00  0.00     0.293 HD
ENDBRANCH  14  20
ENDBRANCH   1  12
BRANCH   2  22
ATOM     22  O   UNL     1      20.762 -33.728 -10.879  1.00  0.00    -0.502 OA
ATOM     23  H   UNL     1      19.909 -33.246 -11.134  1.00  0.00     0.293 HD
ENDBRANCH   2  22
BRANCH   6  24
ATOM     24  O   UNL     1      23.658 -30.032 -13.118  1.00  0.00    -0.507 OA
ATOM     25  H   UNL     1      23.081 -29.208 -13.239  1.00  0.00     0.293 HD
ENDBRANCH   6  24
BRANCH   8  26
ATOM     26  O   UNL     1      27.087 -29.331  -9.797  1.00  0.00    -0.508 OA
ATOM     27  H   UNL     1      27.038 -28.398  -9.406  1.00  0.00     0.293 HD
ENDBRANCH   8  26
TORSDOF 6
ENDMDL
MODEL 6
REMARK VINA RESULT:    -6.243      2.270      7.275
REMARK INTER + INTRA:          -8.048
REMARK INTER:                  -7.660
REMARK INTRA:                  -0.388
REMARK UNBOUND:                -0.346
REMARK SMILES COc1cc(-c2oc3cc(O)cc(O)c3c(=O)c2O)ccc1O
REMARK SMILES IDX 6 1 18 2 16 3 17 4 15 5 13 6 12 7 10 8 9 9 8 10 7 11 5 12
REMARK SMILES IDX 3 13 22 14 4 15 21 16 20 17 2 18 1 19 23 20 19 22 14 24
REMARK SMILES IDX 11 26
REMARK H PARENT 23 21 19 23 14 25 11 27
REMARK Flexibility Score: inf
ROOT
ATOM      1  C   UNL     1      20.602 -35.903  -7.485  1.00  0.00     0.180 A 
ATOM      2  C   UNL     1      20.807 -37.294  -7.573  1.00  0.00     0.208 A 
ATOM      3  C   UNL     1      19.848 -38.157  -7.019  1.00  0.00     0.238 A 
ATOM      4  O   UNL     1      20.016 -39.404  -7.101  1.00  0.00    -0.285 OA
ATOM      5  C   UNL     1      18.718 -37.619  -6.371  1.00  0.00     0.111 A 
ATOM      6  C   UNL     1      17.708 -38.419  -5.782  1.00  0.00     0.134 A 
ATOM      7  C   UNL     1      16.618 -37.807  -5.147  1.00  0.00     0.093 A 
ATOM      8  C   UNL     1      16.517 -36.416  -5.087  1.00  0.00     0.123 A 
ATOM      9  C   UNL     1      17.510 -35.620  -5.668  1.00  0.00     0.094 A 
ATOM     10  C   UNL     1      18.605 -36.210  -6.307  1.00  0.00     0.146 A 
ATOM     11  O   UNL     1      19.531 -35.432  -6.853  1.00  0.00    -0.452 OA
ENDROOT
BRANCH   1  12
ATOM     12  C   UNL     1      21.557 -34.930  -8.061  1.00  0.00     0.025 A 
ATOM     13  C   UNL     1      22.243 -33.525  -9.943  1.00  0.00     0.161 A 
ATOM     14  C   UNL     1      23.380 -33.124  -9.218  1.00  0.00     0.157 A 
ATOM     15  C   UNL     1      21.340 -34.435  -9.358  1.00  0.00     0.062 A 
ATOM     16  C   UNL     1      23.607 -33.633  -7.935  1.00  0.00     0.051 A 
ATOM     17  C   UNL     1      22.708 -34.534  -7.362  1.00  0.00     0.016 A 
BRANCH  13  18
ATOM     18  O   UNL     1      22.045 -33.005 -11.232  1.00  0.00    -0.493 OA
ATOM     19  C   UNL     1      21.224 -31.882 -11.533  1.00  0.00     0.278 C 
ENDBRANCH  13  18
BRANCH  14  20
ATOM     20  O   UNL     1      24.300 -32.225  -9.756  1.00  0.00    -0.504 OA
ATOM     21  H   UNL     1      24.441 -32.130 -10.755  1.00  0.00     0.293 HD
ENDBRANCH  14  20
ENDBRANCH   1  12
BRANCH   2  22
ATOM     22  O   UNL     1      21.960 -37.801  -8.177  1.00  0.00    -0.502 OA
ATOM     23  H   UNL     1      22.146 -37.695  -9.166  1.00  0.00     0.293 HD
ENDBRANCH   2  22
BRANCH   6  24
ATOM     24  O   UNL     1      17.781 -39.812  -5.823  1.00  0.00    -0.507 OA
ATOM     25  H   UNL     1      17.057 -40.396  -5.420  1.00  0.00     0.293 HD
ENDBRANCH   6  24
BRANCH   8  26
ATOM     26  O   UNL     1      15.424 -35.833  -4.449  1.00  0.00    -0.508 OA
ATOM     27  H   UNL     1      14.807 -35.192  -4.935  1.00  0.00     0.293 HD
ENDBRANCH   8  26
TORSDOF 6
ENDMDL
MODEL 7
REMARK VINA RESULT:    -6.240      1.584      3.276
REMARK INTER + INTRA:          -8.045
REMARK INTER:                  -7.905
REMARK INTRA:                  -0.140
REMARK UNBOUND:                -0.346
REMARK SMILES COc1cc(-c2oc3cc(O)cc(O)c3c(=O)c2O)ccc1O
REMARK SMILES IDX 6 1 18 2 16 3 17 4 15 5 13 6 12 7 10 8 9 9 8 10 7 11 5 12
REMARK SMILES IDX 3 13 22 14 4 15 21 16 20 17 2 18 1 19 23 20 19 22 14 24
REMARK SMILES IDX 11 26
REMARK H PARENT 23 21 19 23 14 25 11 27
REMARK Flexibility Score: inf
ROOT
ATOM      1  C   UNL     1      20.213 -36.472  -7.376  1.00  0.00     0.180 A 
ATOM      2  C   UNL     1      21.339 -36.958  -8.069  1.00  0.00     0.208 A 
ATOM      3  C   UNL     1      22.233 -36.038  -8.640  1.00  0.00     0.238 A 
ATOM      4  O   UNL     1      23.250 -36.462  -9.254  1.00  0.00    -0.285 OA
ATOM      5  C   UNL     1      21.978 -34.656  -8.526  1.00  0.00     0.111 A 
ATOM      6  C   UNL     1      22.826 -33.664  -9.076  1.00  0.00     0.134 A 
ATOM      7  C   UNL     1      22.498 -32.309  -8.928  1.00  0.00     0.093 A 
ATOM      8  C   UNL     1      21.343 -31.926  -8.245  1.00  0.00     0.123 A 
ATOM      9  C   UNL     1      20.501 -32.901  -7.699  1.00  0.00     0.094 A 
ATOM     10  C   UNL     1      20.811 -34.257  -7.834  1.00  0.00     0.146 A 
ATOM     11  O   UNL     1      19.998 -35.162  -7.302  1.00  0.00    -0.452 OA
ENDROOT
BRANCH   1  12
ATOM     12  C   UNL     1      19.236 -37.378  -6.731  1.00  0.00     0.025 A 
ATOM     13  C   UNL     1      16.910 -38.060  -6.394  1.00  0.00     0.161 A 
ATOM     14  C   UNL     1      17.339 -39.039  -5.480  1.00  0.00     0.157 A 
ATOM     15  C   UNL     1      17.867 -37.228  -7.010  1.00  0.00     0.062 A 
ATOM     16  C   UNL     1      18.700 -39.175  -5.188  1.00  0.00     0.051 A 
ATOM     17  C   UNL     1      19.642 -38.348  -5.801  1.00  0.00     0.016 A 
BRANCH  13  18
ATOM     18  O   UNL     1      15.538 -37.940  -6.663  1.00  0.00    -0.493 OA
ATOM     19  C   UNL     1      14.936 -36.829  -7.320  1.00  0.00     0.278 C 
ENDBRANCH  13  18
BRANCH  14  20
ATOM     20  O   UNL     1      16.428 -39.886  -4.849  1.00  0.00    -0.504 OA
ATOM     21  H   UNL     1      15.710 -40.384  -5.361  1.00  0.00     0.293 HD
ENDBRANCH  14  20
ENDBRANCH   1  12
BRANCH   2  22
ATOM     22  O   UNL     1      21.543 -38.333  -8.210  1.00  0.00    -0.502 OA
ATOM     23  H   UNL     1      22.212 -38.718  -8.864  1.00  0.00     0.293 HD
ENDBRANCH   2  22
BRANCH   6  24
ATOM     24  O   UNL     1      23.988 -34.014  -9.766  1.00  0.00    -0.507 OA
ATOM     25  H   UNL     1      24.825 -34.316  -9.281  1.00  0.00     0.293 HD
ENDBRANCH   6  24
BRANCH   8  26
ATOM     26  O   UNL     1      21.039 -30.572  -8.113  1.00  0.00    -0.508 OA
ATOM     27  H   UNL     1      20.458 -30.091  -8.789  1.00  0.00     0.293 HD
ENDBRANCH   8  26
TORSDOF 6
ENDMDL
MODEL 8
REMARK VINA RESULT:    -4.589      1.021      1.928
REMARK INTER + INTRA:          -6.007
REMARK INTER:                  -5.982
REMARK INTRA:                  -0.025
REMARK UNBOUND:                -0.346
REMARK SMILES COc1cc(-c2oc3cc(O)cc(O)c3c(=O)c2O)ccc1O
REMARK SMILES IDX 6 1 18 2 16 3 17 4 15 5 13 6 12 7 10 8 9 9 8 10 7 11 5 12
REMARK SMILES IDX 3 13 22 14 4 15 21 16 20 17 2 18 1 19 23 20 19 22 14 24
REMARK SMILES IDX 11 26
REMARK H PARENT 23 21 19 23 14 25 11 27
REMARK Flexibility Score: inf
ROOT
ATOM      1  C   UNL     1      20.397 -36.182  -7.390  1.00  0.00     0.180 A 
ATOM      2  C   UNL     1      21.003 -34.941  -7.119  1.00  0.00     0.208 A 
ATOM      3  C   UNL     1      22.152 -34.575  -7.839  1.00  0.00     0.238 A 
ATOM      4  O   UNL     1      22.698 -33.461  -7.611  1.00  0.00    -0.285 OA
ATOM      5  C   UNL     1      22.684 -35.460  -8.799  1.00  0.00     0.111 A 
ATOM      6  C   UNL     1      23.840 -35.170  -9.563  1.00  0.00     0.134 A 
ATOM      7  C   UNL     1      24.313 -36.108 -10.493  1.00  0.00     0.093 A 
ATOM      8  C   UNL     1      23.656 -37.327 -10.672  1.00  0.00     0.123 A 
ATOM      9  C   UNL     1      22.513 -37.619  -9.920  1.00  0.00     0.094 A 
ATOM     10  C   UNL     1      22.025 -36.697  -8.989  1.00  0.00     0.146 A 
ATOM     11  O   UNL     1      20.935 -36.998  -8.292  1.00  0.00    -0.452 OA
ENDROOT
BRANCH   1  12
ATOM     12  C   UNL     1      19.173 -36.630  -6.687  1.00  0.00     0.025 A 
ATOM     13  C   UNL     1      17.928 -38.416  -5.570  1.00  0.00     0.161 A 
ATOM     14  C   UNL     1      16.842 -37.539  -5.399  1.00  0.00     0.157 A 
ATOM     15  C   UNL     1      19.088 -37.953  -6.223  1.00  0.00     0.062 A 
ATOM     16  C   UNL     1      16.918 -36.228  -5.879  1.00  0.00     0.051 A 
ATOM     17  C   UNL     1      18.071 -35.777  -6.525  1.00  0.00     0.016 A 
BRANCH  13  18
ATOM     18  O   UNL     1      17.821 -39.729  -5.086  1.00  0.00    -0.493 OA
ATOM     19  C   UNL     1      18.117 -40.125  -3.751  1.00  0.00     0.278 C 
ENDBRANCH  13  18
BRANCH  14  20
ATOM     20  O   UNL     1      15.675 -37.953  -4.758  1.00  0.00    -0.504 OA
ATOM     21  H   UNL     1      15.151 -38.765  -5.061  1.00  0.00     0.293 HD
ENDBRANCH  14  20
ENDBRANCH   1  12
BRANCH   2  22
ATOM     22  O   UNL     1      20.485 -34.103  -6.128  1.00  0.00    -0.502 OA
ATOM     23  H   UNL     1      20.796 -33.147  -6.009  1.00  0.00     0.293 HD
ENDBRANCH   2  22
BRANCH   6  24
ATOM     24  O   UNL     1      24.520 -33.962  -9.407  1.00  0.00    -0.507 OA
ATOM     25  H   UNL     1      25.414 -33.910  -8.932  1.00  0.00     0.293 HD
ENDBRANCH   6  24
BRANCH   8  26
ATOM     26  O   UNL     1      24.146 -38.242 -11.601  1.00  0.00    -0.508 OA
ATOM     27  H   UNL     1      23.656 -38.433 -12.467  1.00  0.00     0.293 HD
ENDBRANCH   8  26
TORSDOF 6
ENDMDL
