MODEL 1
REMARK VINA RESULT:    -2.982      0.000      0.000
REMARK INTER + INTRA:          -3.370
REMARK INTER:                  -3.243
REMARK INTRA:                  -0.127
REMARK UNBOUND:                -0.127
REMARK SMILES Cc1ccc(C(C)C)cc1O
REMARK SMILES IDX 1 1 2 2 10 3 9 4 5 5 4 6 3 7 11 8 6 10 7 11 8 12
REMARK H PARENT 11 9
REMARK Flexibility Score: inf
ROOT
ATOM      1  C   UNL     1     115.179 129.433 117.596  1.00  0.00     0.048 C 
ATOM      2  C   UNL     1     116.239 128.435 117.224  1.00  0.00    -0.009 A 
ATOM      3  C   UNL     1     116.464 128.112 115.875  1.00  0.00     0.118 A 
ATOM      4  C   UNL     1     117.456 127.179 115.534  1.00  0.00     0.050 A 
ATOM      5  C   UNL     1     118.230 126.560 116.529  1.00  0.00    -0.042 A 
ATOM      6  C   UNL     1     117.997 126.890 117.877  1.00  0.00     0.004 A 
ATOM      7  C   UNL     1     117.012 127.818 118.219  1.00  0.00     0.007 A 
ENDROOT
BRANCH   3   8
ATOM      8  O   UNL     1     115.703 128.718 114.875  1.00  0.00    -0.508 OA
ATOM      9  H   UNL     1     116.021 129.553 114.398  1.00  0.00     0.293 HD
ENDBRANCH   3   8
BRANCH   5  10
ATOM     10  C   UNL     1     119.298 125.553 116.144  1.00  0.00     0.013 C 
ATOM     11  C   UNL     1     120.044 125.994 114.879  1.00  0.00     0.012 C 
ATOM     12  C   UNL     1     120.272 125.308 117.303  1.00  0.00     0.012 C 
ENDBRANCH   5  10
TORSDOF 2
ENDMDL
MODEL 2
REMARK VINA RESULT:    -2.962     11.374     11.719
REMARK INTER + INTRA:          -3.348
REMARK INTER:                  -3.221
REMARK INTRA:                  -0.127
REMARK UNBOUND:                -0.127
REMARK SMILES Cc1ccc(C(C)C)cc1O
REMARK SMILES IDX 1 1 2 2 10 3 9 4 5 5 4 6 3 7 11 8 6 10 7 11 8 12
REMARK H PARENT 11 9
REMARK Flexibility Score: inf
ROOT
ATOM      1  C   UNL     1     129.541 124.252 117.621  1.00  0.00     0.048 C 
ATOM      2  C   UNL     1     128.599 123.136 117.265  1.00  0.00    -0.009 A 
ATOM      3  C   UNL     1     128.313 122.854 115.918  1.00  0.00     0.118 A 
ATOM      4  C   UNL     1     127.432 121.811 115.594  1.00  0.00     0.050 A 
ATOM      5  C   UNL     1     126.827 121.042 116.603  1.00  0.00    -0.042 A 
ATOM      6  C   UNL     1     127.120 121.333 117.947  1.00  0.00     0.004 A 
ATOM      7  C   UNL     1     127.997 122.370 118.274  1.00  0.00     0.007 A 
ENDROOT
BRANCH   3   8
ATOM      8  O   UNL     1     128.904 123.608 114.906  1.00  0.00    -0.508 OA
ATOM      9  H   UNL     1     129.834 123.998 115.008  1.00  0.00     0.293 HD
ENDBRANCH   3   8
BRANCH   5  10
ATOM     10  C   UNL     1     125.877 119.918 116.235  1.00  0.00     0.013 C 
ATOM     11  C   UNL     1     126.352 119.180 114.978  1.00  0.00     0.012 C 
ATOM     12  C   UNL     1     125.687 118.948 117.407  1.00  0.00     0.012 C 
ENDBRANCH   5  10
TORSDOF 2
ENDMDL
MODEL 3
REMARK VINA RESULT:    -2.946     11.377     11.815
REMARK INTER + INTRA:          -3.331
REMARK INTER:                  -3.205
REMARK INTRA:                  -0.126
REMARK UNBOUND:                -0.127
REMARK SMILES Cc1ccc(C(C)C)cc1O
REMARK SMILES IDX 1 1 2 2 10 3 9 4 5 5 4 6 3 7 11 8 6 10 7 11 8 12
REMARK H PARENT 11 9
REMARK Flexibility Score: inf
ROOT
ATOM      1  C   UNL     1     109.875 114.839 117.648  1.00  0.00     0.048 C 
ATOM      2  C   UNL     1     110.739 116.005 117.258  1.00  0.00    -0.009 A 
ATOM      3  C   UNL     1     110.944 116.313 115.902  1.00  0.00     0.118 A 
ATOM      4  C   UNL     1     111.751 117.403 115.545  1.00  0.00     0.050 A 
ATOM      5  C   UNL     1     112.363 118.195 116.531  1.00  0.00    -0.042 A 
ATOM      6  C   UNL     1     112.152 117.880 117.885  1.00  0.00     0.004 A 
ATOM      7  C   UNL     1     111.348 116.796 118.244  1.00  0.00     0.007 A 
ENDROOT
BRANCH   3   8
ATOM      8  O   UNL     1     110.344 115.534 114.912  1.00  0.00    -0.508 OA
ATOM      9  H   UNL     1     109.861 114.672 115.134  1.00  0.00     0.293 HD
ENDBRANCH   3   8
BRANCH   5  10
ATOM     10  C   UNL     1     113.234 119.370 116.128  1.00  0.00     0.013 C 
ATOM     11  C   UNL     1     112.674 120.075 114.886  1.00  0.00     0.012 C 
ATOM     12  C   UNL     1     113.408 120.355 117.290  1.00  0.00     0.012 C 
ENDBRANCH   5  10
TORSDOF 2
ENDMDL
MODEL 4
REMARK VINA RESULT:    -2.921     10.239     11.221
REMARK INTER + INTRA:          -3.303
REMARK INTER:                  -3.178
REMARK INTRA:                  -0.126
REMARK UNBOUND:                -0.127
REMARK SMILES Cc1ccc(C(C)C)cc1O
REMARK SMILES IDX 1 1 2 2 10 3 9 4 5 5 4 6 3 7 11 8 6 10 7 11 8 12
REMARK H PARENT 11 9
REMARK Flexibility Score: inf
ROOT
ATOM      1  C   UNL     1     127.579 127.878 117.603  1.00  0.00     0.048 C 
ATOM      2  C   UNL     1     128.002 126.499 117.181  1.00  0.00    -0.009 A 
ATOM      3  C   UNL     1     127.924 126.117 115.831  1.00  0.00     0.118 A 
ATOM      4  C   UNL     1     128.320 124.828 115.444  1.00  0.00     0.050 A 
ATOM      5  C   UNL     1     128.795 123.908 116.394  1.00  0.00    -0.042 A 
ATOM      6  C   UNL     1     128.870 124.300 117.743  1.00  0.00     0.004 A 
ATOM      7  C   UNL     1     128.477 125.583 118.132  1.00  0.00     0.007 A 
ENDROOT
BRANCH   3   8
ATOM      8  O   UNL     1     127.454 127.018 114.876  1.00  0.00    -0.508 OA
ATOM      9  H   UNL     1     128.067 127.417 114.175  1.00  0.00     0.293 HD
ENDBRANCH   3   8
BRANCH   5  10
ATOM     10  C   UNL     1     129.220 122.518 115.960  1.00  0.00     0.013 C 
ATOM     11  C   UNL     1     130.124 121.862 117.010  1.00  0.00     0.012 C 
ATOM     12  C   UNL     1     128.002 121.638 115.653  1.00  0.00     0.012 C 
ENDBRANCH   5  10
TORSDOF 2
ENDMDL
MODEL 5
REMARK VINA RESULT:    -2.868      9.652     11.740
REMARK INTER + INTRA:          -3.246
REMARK INTER:                  -3.145
REMARK INTRA:                  -0.100
REMARK UNBOUND:                -0.127
REMARK SMILES Cc1ccc(C(C)C)cc1O
REMARK SMILES IDX 1 1 2 2 10 3 9 4 5 5 4 6 3 7 11 8 6 10 7 11 8 12
REMARK H PARENT 11 9
REMARK Flexibility Score: inf
ROOT
ATOM      1  C   UNL     1     129.888 123.575 114.890  1.00  0.00     0.048 C 
ATOM      2  C   UNL     1     129.171 124.681 115.612  1.00  0.00    -0.009 A 
ATOM      3  C   UNL     1     129.132 124.700 117.017  1.00  0.00     0.118 A 
ATOM      4  C   UNL     1     128.462 125.736 117.685  1.00  0.00     0.050 A 
ATOM      5  C   UNL     1     127.824 126.759 116.964  1.00  0.00    -0.042 A 
ATOM      6  C   UNL     1     127.869 126.731 115.558  1.00  0.00     0.004 A 
ATOM      7  C   UNL     1     128.536 125.702 114.890  1.00  0.00     0.007 A 
ENDROOT
BRANCH   3   8
ATOM      8  O   UNL     1     129.760 123.691 117.747  1.00  0.00    -0.508 OA
ATOM      9  H   UNL     1     130.277 123.892 118.594  1.00  0.00     0.293 HD
ENDBRANCH   3   8
BRANCH   5  10
ATOM     10  C   UNL     1     127.103 127.872 117.701  1.00  0.00     0.013 C 
ATOM     11  C   UNL     1     126.176 127.308 118.785  1.00  0.00     0.012 C 
ATOM     12  C   UNL     1     128.096 128.879 118.293  1.00  0.00     0.012 C 
ENDBRANCH   5  10
TORSDOF 2
ENDMDL
MODEL 6
REMARK VINA RESULT:    -2.867      4.074      6.195
REMARK INTER + INTRA:          -3.245
REMARK INTER:                  -3.145
REMARK INTRA:                  -0.100
REMARK UNBOUND:                -0.127
REMARK SMILES Cc1ccc(C(C)C)cc1O
REMARK SMILES IDX 1 1 2 2 10 3 9 4 5 5 4 6 3 7 11 8 6 10 7 11 8 12
REMARK H PARENT 11 9
REMARK Flexibility Score: inf
ROOT
ATOM      1  C   UNL     1     115.651 129.590 115.071  1.00  0.00     0.048 C 
ATOM      2  C   UNL     1     114.458 128.971 115.743  1.00  0.00    -0.009 A 
ATOM      3  C   UNL     1     114.317 129.040 117.139  1.00  0.00     0.118 A 
ATOM      4  C   UNL     1     113.200 128.460 117.760  1.00  0.00     0.050 A 
ATOM      5  C   UNL     1     112.216 127.807 116.999  1.00  0.00    -0.042 A 
ATOM      6  C   UNL     1     112.366 127.743 115.602  1.00  0.00     0.004 A 
ATOM      7  C   UNL     1     113.476 128.320 114.981  1.00  0.00     0.007 A 
ENDROOT
BRANCH   3   8
ATOM      8  O   UNL     1     115.286 129.685 117.908  1.00  0.00    -0.508 OA
ATOM      9  H   UNL     1     115.101 129.976 118.861  1.00  0.00     0.293 HD
ENDBRANCH   3   8
BRANCH   5  10
ATOM     10  C   UNL     1     111.014 127.184 117.685  1.00  0.00     0.013 C 
ATOM     11  C   UNL     1     111.394 125.875 118.388  1.00  0.00     0.012 C 
ATOM     12  C   UNL     1     110.365 128.168 118.666  1.00  0.00     0.012 C 
ENDBRANCH   5  10
TORSDOF 2
ENDMDL
MODEL 7
REMARK VINA RESULT:    -2.864      8.150     10.630
REMARK INTER + INTRA:          -3.242
REMARK INTER:                  -3.141
REMARK INTRA:                  -0.101
REMARK UNBOUND:                -0.127
REMARK SMILES Cc1ccc(C(C)C)cc1O
REMARK SMILES IDX 1 1 2 2 10 3 9 4 5 5 4 6 3 7 11 8 6 10 7 11 8 12
REMARK H PARENT 11 9
REMARK Flexibility Score: inf
ROOT
ATOM      1  C   UNL     1     129.582 124.683 116.268  1.00  0.00     0.048 C 
ATOM      2  C   UNL     1     128.640 125.596 117.001  1.00  0.00    -0.009 A 
ATOM      3  C   UNL     1     127.976 126.627 116.314  1.00  0.00     0.118 A 
ATOM      4  C   UNL     1     127.098 127.476 117.005  1.00  0.00     0.050 A 
ATOM      5  C   UNL     1     126.874 127.309 118.382  1.00  0.00    -0.042 A 
ATOM      6  C   UNL     1     127.543 126.275 119.060  1.00  0.00     0.004 A 
ATOM      7  C   UNL     1     128.417 125.427 118.376  1.00  0.00     0.007 A 
ENDROOT
BRANCH   3   8
ATOM      8  O   UNL     1     128.189 126.806 114.948  1.00  0.00    -0.508 OA
ATOM      9  H   UNL     1     128.664 127.625 114.587  1.00  0.00     0.293 HD
ENDBRANCH   3   8
BRANCH   5  10
ATOM     10  C   UNL     1     125.921 128.236 119.114  1.00  0.00     0.013 C 
ATOM     11  C   UNL     1     126.161 129.699 118.721  1.00  0.00     0.012 C 
ATOM     12  C   UNL     1     124.462 127.832 118.875  1.00  0.00     0.012 C 
ENDBRANCH   5  10
TORSDOF 2
ENDMDL
MODEL 8
REMARK VINA RESULT:    -2.857      2.823      4.199
REMARK INTER + INTRA:          -3.234
REMARK INTER:                  -3.108
REMARK INTRA:                  -0.126
REMARK UNBOUND:                -0.127
REMARK SMILES Cc1ccc(C(C)C)cc1O
REMARK SMILES IDX 1 1 2 2 10 3 9 4 5 5 4 6 3 7 11 8 6 10 7 11 8 12
REMARK H PARENT 11 9
REMARK Flexibility Score: inf
ROOT
ATOM      1  C   UNL     1     111.231 127.267 117.565  1.00  0.00     0.048 C 
ATOM      2  C   UNL     1     112.575 127.852 117.235  1.00  0.00    -0.009 A 
ATOM      3  C   UNL     1     113.009 127.919 115.899  1.00  0.00     0.118 A 
ATOM      4  C   UNL     1     114.265 128.467 115.598  1.00  0.00     0.050 A 
ATOM      5  C   UNL     1     115.099 128.952 116.619  1.00  0.00    -0.042 A 
ATOM      6  C   UNL     1     114.655 128.882 117.952  1.00  0.00     0.004 A 
ATOM      7  C   UNL     1     113.406 128.337 118.256  1.00  0.00     0.007 A 
ENDROOT
BRANCH   3   8
ATOM      8  O   UNL     1     112.193 127.440 114.875  1.00  0.00    -0.508 OA
ATOM      9  H   UNL     1     111.935 126.462 114.814  1.00  0.00     0.293 HD
ENDBRANCH   3   8
BRANCH   5  10
ATOM     10  C   UNL     1     116.455 129.542 116.277  1.00  0.00     0.013 C 
ATOM     11  C   UNL     1     117.140 130.115 117.523  1.00  0.00     0.012 C 
ATOM     12  C   UNL     1     117.348 128.508 115.581  1.00  0.00     0.012 C 
ENDBRANCH   5  10
TORSDOF 2
ENDMDL
MODEL 9
REMARK VINA RESULT:    -2.773     10.438     12.424
REMARK INTER + INTRA:          -3.143
REMARK INTER:                  -3.018
REMARK INTRA:                  -0.125
REMARK UNBOUND:                -0.127
REMARK SMILES Cc1ccc(C(C)C)cc1O
REMARK SMILES IDX 1 1 2 2 10 3 9 4 5 5 4 6 3 7 11 8 6 10 7 11 8 12
REMARK H PARENT 11 9
REMARK Flexibility Score: inf
ROOT
ATOM      1  C   UNL     1     129.960 121.067 116.934  1.00  0.00     0.048 C 
ATOM      2  C   UNL     1     129.569 122.496 116.678  1.00  0.00    -0.009 A 
ATOM      3  C   UNL     1     128.655 122.807 115.656  1.00  0.00     0.118 A 
ATOM      4  C   UNL     1     128.294 124.142 115.422  1.00  0.00     0.050 A 
ATOM      5  C   UNL     1     128.838 125.178 116.199  1.00  0.00    -0.042 A 
ATOM      6  C   UNL     1     129.752 124.857 117.219  1.00  0.00     0.004 A 
ATOM      7  C   UNL     1     130.113 123.529 117.455  1.00  0.00     0.007 A 
ENDROOT
BRANCH   3   8
ATOM      8  O   UNL     1     128.107 121.789 114.876  1.00  0.00    -0.508 OA
ATOM      9  H   UNL     1     128.085 121.848 113.865  1.00  0.00     0.293 HD
ENDBRANCH   3   8
BRANCH   5  10
ATOM     10  C   UNL     1     128.438 126.618 115.933  1.00  0.00     0.013 C 
ATOM     11  C   UNL     1     127.532 127.155 117.048  1.00  0.00     0.012 C 
ATOM     12  C   UNL     1     129.671 127.510 115.745  1.00  0.00     0.012 C 
ENDBRANCH   5  10
TORSDOF 2
ENDMDL
