MODEL 1
REMARK VINA RESULT:    -6.229      0.000      0.000
REMARK INTER + INTRA:          -9.475
REMARK INTER:                  -8.778
REMARK INTRA:                  -0.697
REMARK UNBOUND:                -0.697
REMARK SMILES C[C@H](CO)CCC(=O)[C@H](C)[C@H]1C(=O)C[C@H]2[C@H]3CC=C4C[C@H](O)CC[C@]4(C)[C@H]3CC[C@@]12C
REMARK SMILES IDX 6 1 5 2 2 3 1 4 3 5 4 6 7 8 8 9 9 10 10 11 11 12 12 13 30 14
REMARK SMILES IDX 13 15 14 16 15 17 29 18 31 19 16 20 28 21 27 22 17 23 25 24
REMARK SMILES IDX 18 25 19 26 24 27 26 28 20 29 23 30 21 31 22 32
REMARK H PARENT 4 7 22 33
REMARK Flexibility Score: inf
ROOT
ATOM      1  C   UNL     1     164.411 161.454 188.445  1.00  0.00     0.076 C 
ENDROOT
BRANCH   1   2
ATOM      2  C   UNL     1     162.936 160.994 188.479  1.00  0.00     0.013 C 
BRANCH   2   3
ATOM      3  C   UNL     1     161.915 161.970 187.837  1.00  0.00     0.012 C 
ATOM      4  C   UNL     1     160.489 161.752 188.362  1.00  0.00     0.010 C 
BRANCH   3   5
ATOM      5  C   UNL     1     161.965 161.937 186.293  1.00  0.00     0.159 C 
BRANCH   5   6
ATOM      6  O   UNL     1     162.194 160.634 185.828  1.00  0.00    -0.396 OA
ATOM      7  H   UNL     1     161.317 160.175 185.810  1.00  0.00     0.210 HD
ENDBRANCH   5   6
ENDBRANCH   3   5
ENDBRANCH   2   3
ENDBRANCH   1   2
BRANCH   1   8
ATOM      8  C   UNL     1     165.321 160.591 187.593  1.00  0.00     0.136 C 
ATOM      9  O   UNL     1     164.861 159.898 186.693  1.00  0.00    -0.299 OA
BRANCH   8  10
ATOM     10  C   UNL     1     166.797 160.494 187.927  1.00  0.00     0.064 C 
ATOM     11  C   UNL     1     166.976 160.364 189.454  1.00  0.00     0.017 C 
BRANCH  10  12
ATOM     12  C   UNL     1     167.582 161.680 187.270  1.00  0.00     0.072 C 
ATOM     13  C   UNL     1     168.172 162.682 188.204  1.00  0.00     0.137 C 
ATOM     14  C   UNL     1     168.751 161.342 186.278  1.00  0.00    -0.019 C 
ATOM     15  O   UNL     1     167.600 163.101 189.199  1.00  0.00    -0.299 OA
ATOM     16  C   UNL     1     169.450 163.253 187.726  1.00  0.00     0.080 C 
ATOM     17  C   UNL     1     169.660 162.619 186.339  1.00  0.00     0.007 C 
ATOM     18  C   UNL     1     169.571 160.045 186.626  1.00  0.00     0.008 C 
ATOM     19  C   UNL     1     168.170 161.169 184.852  1.00  0.00     0.012 C 
ATOM     20  C   UNL     1     171.151 162.360 185.969  1.00  0.00     0.001 C 
ATOM     21  C   UNL     1     170.799 160.303 187.508  1.00  0.00     0.005 C 
ATOM     22  C   UNL     1     171.830 161.164 186.739  1.00  0.00     0.003 C 
ATOM     23  C   UNL     1     171.979 163.664 185.965  1.00  0.00     0.031 C 
ATOM     24  C   UNL     1     173.153 161.526 187.528  1.00  0.00    -0.008 C 
ATOM     25  C   UNL     1     173.448 163.374 185.867  1.00  0.00    -0.027 C 
ATOM     26  C   UNL     1     174.015 162.404 186.613  1.00  0.00    -0.065 C 
ATOM     27  C   UNL     1     173.940 160.216 187.856  1.00  0.00     0.014 C 
ATOM     28  C   UNL     1     172.887 162.280 188.858  1.00  0.00     0.016 C 
ATOM     29  C   UNL     1     175.480 162.083 186.419  1.00  0.00     0.063 C 
ATOM     30  C   UNL     1     175.387 160.436 188.362  1.00  0.00     0.033 C 
ATOM     31  C   UNL     1     176.099 161.667 187.758  1.00  0.00     0.118 C 
BRANCH  31  32
ATOM     32  O   UNL     1     177.465 161.388 187.586  1.00  0.00    -0.393 OA
ATOM     33  H   UNL     1     177.925 162.263 187.499  1.00  0.00     0.210 HD
ENDBRANCH  31  32
ENDBRANCH  10  12
ENDBRANCH   8  10
ENDBRANCH   1   8
TORSDOF 8
ENDMDL
MODEL 2
REMARK VINA RESULT:    -6.158      8.626     12.607
REMARK INTER + INTRA:          -9.374
REMARK INTER:                  -8.493
REMARK INTRA:                  -0.881
REMARK UNBOUND:                -0.697
REMARK SMILES C[C@H](CO)CCC(=O)[C@H](C)[C@H]1C(=O)C[C@H]2[C@H]3CC=C4C[C@H](O)CC[C@]4(C)[C@H]3CC[C@@]12C
REMARK SMILES IDX 6 1 5 2 2 3 1 4 3 5 4 6 7 8 8 9 9 10 10 11 11 12 12 13 30 14
REMARK SMILES IDX 13 15 14 16 15 17 29 18 31 19 16 20 28 21 27 22 17 23 25 24
REMARK SMILES IDX 18 25 19 26 24 27 26 28 20 29 23 30 21 31 22 32
REMARK H PARENT 4 7 22 33
REMARK Flexibility Score: inf
ROOT
ATOM      1  C   UNL     1     175.041 162.111 183.557  1.00  0.00     0.076 C 
ENDROOT
BRANCH   1   2
ATOM      2  C   UNL     1     175.579 163.391 184.236  1.00  0.00     0.013 C 
BRANCH   2   3
ATOM      3  C   UNL     1     175.964 163.243 185.732  1.00  0.00     0.012 C 
ATOM      4  C   UNL     1     175.022 164.027 186.657  1.00  0.00     0.010 C 
BRANCH   3   5
ATOM      5  C   UNL     1     177.445 163.599 185.993  1.00  0.00     0.159 C 
BRANCH   5   6
ATOM      6  O   UNL     1     178.294 162.591 185.513  1.00  0.00    -0.396 OA
ATOM      7  H   UNL     1     179.189 162.998 185.398  1.00  0.00     0.210 HD
ENDBRANCH   5   6
ENDBRANCH   3   5
ENDBRANCH   2   3
ENDBRANCH   1   2
BRANCH   1   8
ATOM      8  C   UNL     1     176.081 161.029 183.337  1.00  0.00     0.136 C 
ATOM      9  O   UNL     1     176.409 160.284 184.253  1.00  0.00    -0.299 OA
BRANCH   8  10
ATOM     10  C   UNL     1     176.804 160.938 182.008  1.00  0.00     0.064 C 
ATOM     11  C   UNL     1     178.299 161.264 182.208  1.00  0.00     0.017 C 
BRANCH  10  12
ATOM     12  C   UNL     1     176.077 161.815 180.933  1.00  0.00     0.072 C 
ATOM     13  C   UNL     1     176.777 163.062 180.510  1.00  0.00     0.137 C 
ATOM     14  C   UNL     1     175.650 161.137 179.582  1.00  0.00    -0.019 C 
ATOM     15  O   UNL     1     177.363 163.806 181.283  1.00  0.00    -0.299 OA
ATOM     16  C   UNL     1     176.556 163.411 179.090  1.00  0.00     0.080 C 
ATOM     17  C   UNL     1     175.577 162.340 178.578  1.00  0.00     0.007 C 
ATOM     18  C   UNL     1     176.625 160.019 179.057  1.00  0.00     0.008 C 
ATOM     19  C   UNL     1     174.248 160.501 179.756  1.00  0.00     0.012 C 
ATOM     20  C   UNL     1     175.782 161.940 177.086  1.00  0.00     0.001 C 
ATOM     21  C   UNL     1     177.710 160.536 178.104  1.00  0.00     0.005 C 
ATOM     22  C   UNL     1     177.060 161.064 176.801  1.00  0.00     0.003 C 
ATOM     23  C   UNL     1     175.617 163.149 176.138  1.00  0.00     0.031 C 
ATOM     24  C   UNL     1     178.057 161.645 175.719  1.00  0.00    -0.008 C 
ATOM     25  C   UNL     1     176.069 162.813 174.747  1.00  0.00    -0.027 C 
ATOM     26  C   UNL     1     177.219 162.143 174.535  1.00  0.00    -0.065 C 
ATOM     27  C   UNL     1     179.008 160.510 175.221  1.00  0.00     0.014 C 
ATOM     28  C   UNL     1     178.930 162.812 176.253  1.00  0.00     0.016 C 
ATOM     29  C   UNL     1     177.594 161.746 173.125  1.00  0.00     0.063 C 
ATOM     30  C   UNL     1     179.834 160.859 173.958  1.00  0.00     0.033 C 
ATOM     31  C   UNL     1     179.117 161.797 172.962  1.00  0.00     0.118 C 
BRANCH  31  32
ATOM     32  O   UNL     1     179.468 161.449 171.646  1.00  0.00    -0.393 OA
ATOM     33  H   UNL     1     178.747 160.861 171.305  1.00  0.00     0.210 HD
ENDBRANCH  31  32
ENDBRANCH  10  12
ENDBRANCH   8  10
ENDBRANCH   1   8
TORSDOF 8
ENDMDL
MODEL 3
REMARK VINA RESULT:    -6.092      8.651     12.381
REMARK INTER + INTRA:          -9.281
REMARK INTER:                  -8.444
REMARK INTRA:                  -0.837
REMARK UNBOUND:                -0.697
REMARK SMILES C[C@H](CO)CCC(=O)[C@H](C)[C@H]1C(=O)C[C@H]2[C@H]3CC=C4C[C@H](O)CC[C@]4(C)[C@H]3CC[C@@]12C
REMARK SMILES IDX 6 1 5 2 2 3 1 4 3 5 4 6 7 8 8 9 9 10 10 11 11 12 12 13 30 14
REMARK SMILES IDX 13 15 14 16 15 17 29 18 31 19 16 20 28 21 27 22 17 23 25 24
REMARK SMILES IDX 18 25 19 26 24 27 26 28 20 29 23 30 21 31 22 32
REMARK H PARENT 4 7 22 33
REMARK Flexibility Score: inf
ROOT
ATOM      1  C   UNL     1     177.248 163.184 186.302  1.00  0.00     0.076 C 
ENDROOT
BRANCH   1   2
ATOM      2  C   UNL     1     176.223 162.496 187.232  1.00  0.00     0.013 C 
BRANCH   2   3
ATOM      3  C   UNL     1     176.553 162.548 188.747  1.00  0.00     0.012 C 
ATOM      4  C   UNL     1     177.153 163.897 189.167  1.00  0.00     0.010 C 
BRANCH   3   5
ATOM      5  C   UNL     1     177.442 161.365 189.193  1.00  0.00     0.159 C 
BRANCH   5   6
ATOM      6  O   UNL     1     177.951 161.580 190.482  1.00  0.00    -0.396 OA
ATOM      7  H   UNL     1     178.794 162.090 190.378  1.00  0.00     0.210 HD
ENDBRANCH   5   6
ENDBRANCH   3   5
ENDBRANCH   2   3
ENDBRANCH   1   2
BRANCH   1   8
ATOM      8  C   UNL     1     176.657 164.232 185.379  1.00  0.00     0.136 C 
ATOM      9  O   UNL     1     176.465 163.985 184.195  1.00  0.00    -0.299 OA
BRANCH   8  10
ATOM     10  C   UNL     1     176.406 165.635 185.896  1.00  0.00     0.064 C 
ATOM     11  C   UNL     1     175.078 166.169 185.323  1.00  0.00     0.017 C 
BRANCH  10  12
ATOM     12  C   UNL     1     177.653 166.545 185.626  1.00  0.00     0.072 C 
ATOM     13  C   UNL     1     177.462 167.661 184.656  1.00  0.00     0.137 C 
ATOM     14  C   UNL     1     178.364 167.220 186.854  1.00  0.00    -0.019 C 
ATOM     15  O   UNL     1     176.830 167.553 183.615  1.00  0.00    -0.299 OA
ATOM     16  C   UNL     1     178.251 168.868 184.981  1.00  0.00     0.080 C 
ATOM     17  C   UNL     1     179.070 168.470 186.222  1.00  0.00     0.007 C 
ATOM     18  C   UNL     1     177.409 167.641 188.031  1.00  0.00     0.008 C 
ATOM     19  C   UNL     1     179.421 166.242 187.426  1.00  0.00     0.012 C 
ATOM     20  C   UNL     1     179.325 169.634 187.227  1.00  0.00     0.001 C 
ATOM     21  C   UNL     1     176.889 169.081 187.926  1.00  0.00     0.005 C 
ATOM     22  C   UNL     1     178.066 170.078 188.064  1.00  0.00     0.003 C 
ATOM     23  C   UNL     1     180.095 170.802 186.571  1.00  0.00     0.031 C 
ATOM     24  C   UNL     1     177.687 171.611 187.964  1.00  0.00    -0.008 C 
ATOM     25  C   UNL     1     180.105 172.011 187.460  1.00  0.00    -0.027 C 
ATOM     26  C   UNL     1     178.984 172.420 188.088  1.00  0.00    -0.065 C 
ATOM     27  C   UNL     1     176.740 171.994 189.147  1.00  0.00     0.014 C 
ATOM     28  C   UNL     1     176.979 171.981 186.634  1.00  0.00     0.016 C 
ATOM     29  C   UNL     1     179.056 173.589 189.044  1.00  0.00     0.063 C 
ATOM     30  C   UNL     1     176.526 173.515 189.343  1.00  0.00     0.033 C 
ATOM     31  C   UNL     1     177.749 174.387 188.983  1.00  0.00     0.118 C 
BRANCH  31  32
ATOM     32  O   UNL     1     177.821 175.487 189.855  1.00  0.00    -0.393 OA
ATOM     33  H   UNL     1     176.929 175.920 189.840  1.00  0.00     0.210 HD
ENDBRANCH  31  32
ENDBRANCH  10  12
ENDBRANCH   8  10
ENDBRANCH   1   8
TORSDOF 8
ENDMDL
MODEL 4
REMARK VINA RESULT:    -6.067      6.427      9.297
REMARK INTER + INTRA:          -9.247
REMARK INTER:                  -8.105
REMARK INTRA:                  -1.141
REMARK UNBOUND:                -0.697
REMARK SMILES C[C@H](CO)CCC(=O)[C@H](C)[C@H]1C(=O)C[C@H]2[C@H]3CC=C4C[C@H](O)CC[C@]4(C)[C@H]3CC[C@@]12C
REMARK SMILES IDX 6 1 5 2 2 3 1 4 3 5 4 6 7 8 8 9 9 10 10 11 11 12 12 13 30 14
REMARK SMILES IDX 13 15 14 16 15 17 29 18 31 19 16 20 28 21 27 22 17 23 25 24
REMARK SMILES IDX 18 25 19 26 24 27 26 28 20 29 23 30 21 31 22 32
REMARK H PARENT 4 7 22 33
REMARK Flexibility Score: inf
ROOT
ATOM      1  C   UNL     1     173.771 163.658 188.695  1.00  0.00     0.076 C 
ENDROOT
BRANCH   1   2
ATOM      2  C   UNL     1     174.551 163.945 189.999  1.00  0.00     0.013 C 
BRANCH   2   3
ATOM      3  C   UNL     1     175.901 164.689 189.821  1.00  0.00     0.012 C 
ATOM      4  C   UNL     1     176.069 165.262 188.406  1.00  0.00     0.010 C 
BRANCH   3   5
ATOM      5  C   UNL     1     177.109 163.815 190.228  1.00  0.00     0.159 C 
BRANCH   5   6
ATOM      6  O   UNL     1     177.054 162.562 189.601  1.00  0.00    -0.396 OA
ATOM      7  H   UNL     1     177.312 162.701 188.655  1.00  0.00     0.210 HD
ENDBRANCH   5   6
ENDBRANCH   3   5
ENDBRANCH   2   3
ENDBRANCH   1   2
BRANCH   1   8
ATOM      8  C   UNL     1     173.586 162.185 188.383  1.00  0.00     0.136 C 
ATOM      9  O   UNL     1     173.018 161.446 189.178  1.00  0.00    -0.299 OA
BRANCH   8  10
ATOM     10  C   UNL     1     174.207 161.597 187.132  1.00  0.00     0.064 C 
ATOM     11  C   UNL     1     175.039 160.352 187.502  1.00  0.00     0.017 C 
BRANCH  10  12
ATOM     12  C   UNL     1     174.989 162.701 186.342  1.00  0.00     0.072 C 
ATOM     13  C   UNL     1     176.439 162.446 186.106  1.00  0.00     0.137 C 
ATOM     14  C   UNL     1     174.442 163.142 184.937  1.00  0.00    -0.019 C 
ATOM     15  O   UNL     1     177.189 161.967 186.945  1.00  0.00    -0.299 OA
ATOM     16  C   UNL     1     176.931 162.983 184.819  1.00  0.00     0.080 C 
ATOM     17  C   UNL     1     175.715 163.704 184.212  1.00  0.00     0.007 C 
ATOM     18  C   UNL     1     173.766 161.999 184.093  1.00  0.00     0.008 C 
ATOM     19  C   UNL     1     173.398 164.270 185.132  1.00  0.00     0.012 C 
ATOM     20  C   UNL     1     175.641 163.645 182.657  1.00  0.00     0.001 C 
ATOM     21  C   UNL     1     174.730 161.267 183.151  1.00  0.00     0.005 C 
ATOM     22  C   UNL     1     175.244 162.240 182.062  1.00  0.00     0.003 C 
ATOM     23  C   UNL     1     176.882 164.285 181.997  1.00  0.00     0.031 C 
ATOM     24  C   UNL     1     176.263 161.631 181.017  1.00  0.00    -0.008 C 
ATOM     25  C   UNL     1     176.926 163.993 180.525  1.00  0.00    -0.027 C 
ATOM     26  C   UNL     1     176.673 162.754 180.057  1.00  0.00    -0.065 C 
ATOM     27  C   UNL     1     175.559 160.501 180.198  1.00  0.00     0.014 C 
ATOM     28  C   UNL     1     177.534 161.033 181.677  1.00  0.00     0.016 C 
ATOM     29  C   UNL     1     176.639 162.521 178.563  1.00  0.00     0.063 C 
ATOM     30  C   UNL     1     176.339 160.019 178.949  1.00  0.00     0.033 C 
ATOM     31  C   UNL     1     177.168 161.117 178.247  1.00  0.00     0.118 C 
BRANCH  31  32
ATOM     32  O   UNL     1     177.159 160.905 176.859  1.00  0.00    -0.393 OA
ATOM     33  H   UNL     1     176.868 159.968 176.716  1.00  0.00     0.210 HD
ENDBRANCH  31  32
ENDBRANCH  10  12
ENDBRANCH   8  10
ENDBRANCH   1   8
TORSDOF 8
ENDMDL
MODEL 5
REMARK VINA RESULT:    -6.023     14.464     15.894
REMARK INTER + INTRA:          -9.185
REMARK INTER:                  -9.083
REMARK INTRA:                  -0.102
REMARK UNBOUND:                -0.697
REMARK SMILES C[C@H](CO)CCC(=O)[C@H](C)[C@H]1C(=O)C[C@H]2[C@H]3CC=C4C[C@H](O)CC[C@]4(C)[C@H]3CC[C@@]12C
REMARK SMILES IDX 6 1 5 2 2 3 1 4 3 5 4 6 7 8 8 9 9 10 10 11 11 12 12 13 30 14
REMARK SMILES IDX 13 15 14 16 15 17 29 18 31 19 16 20 28 21 27 22 17 23 25 24
REMARK SMILES IDX 18 25 19 26 24 27 26 28 20 29 23 30 21 31 22 32
REMARK H PARENT 4 7 22 33
REMARK Flexibility Score: inf
ROOT
ATOM      1  C   UNL     1     163.903 175.989 187.225  1.00  0.00     0.076 C 
ENDROOT
BRANCH   1   2
ATOM      2  C   UNL     1     162.428 175.783 187.640  1.00  0.00     0.013 C 
BRANCH   2   3
ATOM      3  C   UNL     1     161.422 176.818 187.070  1.00  0.00     0.012 C 
ATOM      4  C   UNL     1     160.240 177.067 188.018  1.00  0.00     0.010 C 
BRANCH   3   5
ATOM      5  C   UNL     1     160.943 176.447 185.649  1.00  0.00     0.159 C 
BRANCH   5   6
ATOM      6  O   UNL     1     161.380 177.394 184.710  1.00  0.00    -0.396 OA
ATOM      7  H   UNL     1     161.445 178.261 185.184  1.00  0.00     0.210 HD
ENDBRANCH   5   6
ENDBRANCH   3   5
ENDBRANCH   2   3
ENDBRANCH   1   2
BRANCH   1   8
ATOM      8  C   UNL     1     164.516 177.291 187.703  1.00  0.00     0.136 C 
ATOM      9  O   UNL     1     163.950 178.358 187.501  1.00  0.00    -0.299 OA
BRANCH   8  10
ATOM     10  C   UNL     1     165.894 177.287 188.336  1.00  0.00     0.064 C 
ATOM     11  C   UNL     1     166.299 178.729 188.705  1.00  0.00     0.017 C 
BRANCH  10  12
ATOM     12  C   UNL     1     166.913 176.532 187.414  1.00  0.00     0.072 C 
ATOM     13  C   UNL     1     167.369 177.259 186.195  1.00  0.00     0.137 C 
ATOM     14  C   UNL     1     168.239 175.989 188.057  1.00  0.00    -0.019 C 
ATOM     15  O   UNL     1     166.628 177.926 185.487  1.00  0.00    -0.299 OA
ATOM     16  C   UNL     1     168.768 176.963 185.820  1.00  0.00     0.080 C 
ATOM     17  C   UNL     1     169.225 175.906 186.840  1.00  0.00     0.007 C 
ATOM     18  C   UNL     1     168.836 176.877 189.211  1.00  0.00     0.008 C 
ATOM     19  C   UNL     1     167.980 174.574 188.632  1.00  0.00     0.012 C 
ATOM     20  C   UNL     1     170.731 175.996 187.231  1.00  0.00     0.001 C 
ATOM     21  C   UNL     1     169.853 177.921 188.732  1.00  0.00     0.005 C 
ATOM     22  C   UNL     1     171.105 177.213 188.160  1.00  0.00     0.003 C 
ATOM     23  C   UNL     1     171.655 175.825 186.006  1.00  0.00     0.031 C 
ATOM     24  C   UNL     1     172.245 178.163 187.611  1.00  0.00    -0.008 C 
ATOM     25  C   UNL     1     173.075 176.171 186.345  1.00  0.00    -0.027 C 
ATOM     26  C   UNL     1     173.368 177.274 187.063  1.00  0.00    -0.065 C 
ATOM     27  C   UNL     1     172.814 179.028 188.782  1.00  0.00     0.014 C 
ATOM     28  C   UNL     1     171.758 179.121 186.491  1.00  0.00     0.016 C 
ATOM     29  C   UNL     1     174.803 177.539 187.460  1.00  0.00     0.063 C 
ATOM     30  C   UNL     1     174.124 179.786 188.455  1.00  0.00     0.033 C 
ATOM     31  C   UNL     1     175.064 179.050 187.474  1.00  0.00     0.118 C 
BRANCH  31  32
ATOM     32  O   UNL     1     176.402 179.299 187.822  1.00  0.00    -0.393 OA
ATOM     33  H   UNL     1     176.934 179.208 186.990  1.00  0.00     0.210 HD
ENDBRANCH  31  32
ENDBRANCH  10  12
ENDBRANCH   8  10
ENDBRANCH   1   8
TORSDOF 8
ENDMDL
MODEL 6
REMARK VINA RESULT:    -5.977      5.648      9.396
REMARK INTER + INTRA:          -9.120
REMARK INTER:                  -7.763
REMARK INTRA:                  -1.357
REMARK UNBOUND:                -0.697
REMARK SMILES C[C@H](CO)CCC(=O)[C@H](C)[C@H]1C(=O)C[C@H]2[C@H]3CC=C4C[C@H](O)CC[C@]4(C)[C@H]3CC[C@@]12C
REMARK SMILES IDX 6 1 5 2 2 3 1 4 3 5 4 6 7 8 8 9 9 10 10 11 11 12 12 13 30 14
REMARK SMILES IDX 13 15 14 16 15 17 29 18 31 19 16 20 28 21 27 22 17 23 25 24
REMARK SMILES IDX 18 25 19 26 24 27 26 28 20 29 23 30 21 31 22 32
REMARK H PARENT 4 7 22 33
REMARK Flexibility Score: inf
ROOT
ATOM      1  C   UNL     1     173.057 161.706 188.777  1.00  0.00     0.076 C 
ENDROOT
BRANCH   1   2
ATOM      2  C   UNL     1     173.253 160.241 188.322  1.00  0.00     0.013 C 
BRANCH   2   3
ATOM      3  C   UNL     1     174.683 159.875 187.844  1.00  0.00     0.012 C 
ATOM      4  C   UNL     1     175.765 160.712 188.542  1.00  0.00     0.010 C 
BRANCH   3   5
ATOM      5  C   UNL     1     174.820 159.937 186.306  1.00  0.00     0.159 C 
BRANCH   5   6
ATOM      6  O   UNL     1     176.023 160.554 185.935  1.00  0.00    -0.396 OA
ATOM      7  H   UNL     1     175.908 160.875 185.005  1.00  0.00     0.210 HD
ENDBRANCH   5   6
ENDBRANCH   3   5
ENDBRANCH   2   3
ENDBRANCH   1   2
BRANCH   1   8
ATOM      8  C   UNL     1     172.490 162.625 187.713  1.00  0.00     0.136 C 
ATOM      9  O   UNL     1     171.561 162.260 187.002  1.00  0.00    -0.299 OA
BRANCH   8  10
ATOM     10  C   UNL     1     173.148 163.965 187.446  1.00  0.00     0.064 C 
ATOM     11  C   UNL     1     172.599 164.560 186.133  1.00  0.00     0.017 C 
BRANCH  10  12
ATOM     12  C   UNL     1     174.708 163.825 187.504  1.00  0.00     0.072 C 
ATOM     13  C   UNL     1     175.427 163.872 186.198  1.00  0.00     0.137 C 
ATOM     14  C   UNL     1     175.512 164.814 188.422  1.00  0.00    -0.019 C 
ATOM     15  O   UNL     1     175.027 163.320 185.184  1.00  0.00    -0.299 OA
ATOM     16  C   UNL     1     176.760 164.508 186.281  1.00  0.00     0.080 C 
ATOM     17  C   UNL     1     176.940 164.830 187.775  1.00  0.00     0.007 C 
ATOM     18  C   UNL     1     174.917 166.267 188.522  1.00  0.00     0.008 C 
ATOM     19  C   UNL     1     175.582 164.229 189.855  1.00  0.00     0.012 C 
ATOM     20  C   UNL     1     177.755 166.128 188.059  1.00  0.00     0.001 C 
ATOM     21  C   UNL     1     175.485 167.246 187.487  1.00  0.00     0.005 C 
ATOM     22  C   UNL     1     176.994 167.473 187.748  1.00  0.00     0.003 C 
ATOM     23  C   UNL     1     179.180 166.054 187.469  1.00  0.00     0.031 C 
ATOM     24  C   UNL     1     177.728 168.455 186.748  1.00  0.00    -0.008 C 
ATOM     25  C   UNL     1     179.858 167.392 187.519  1.00  0.00    -0.027 C 
ATOM     26  C   UNL     1     179.206 168.514 187.154  1.00  0.00    -0.065 C 
ATOM     27  C   UNL     1     177.113 169.886 186.875  1.00  0.00     0.014 C 
ATOM     28  C   UNL     1     177.623 168.010 185.265  1.00  0.00     0.016 C 
ATOM     29  C   UNL     1     179.894 169.852 187.304  1.00  0.00     0.063 C 
ATOM     30  C   UNL     1     177.922 171.007 186.175  1.00  0.00     0.033 C 
ATOM     31  C   UNL     1     179.452 170.790 186.176  1.00  0.00     0.118 C 
BRANCH  31  32
ATOM     32  O   UNL     1     180.106 172.027 186.299  1.00  0.00    -0.393 OA
ATOM     33  H   UNL     1     180.771 171.926 187.027  1.00  0.00     0.210 HD
ENDBRANCH  31  32
ENDBRANCH  10  12
ENDBRANCH   8  10
ENDBRANCH   1   8
TORSDOF 8
ENDMDL
MODEL 7
REMARK VINA RESULT:    -5.977      6.703     10.889
REMARK INTER + INTRA:          -9.119
REMARK INTER:                  -8.462
REMARK INTRA:                  -0.657
REMARK UNBOUND:                -0.697
REMARK SMILES C[C@H](CO)CCC(=O)[C@H](C)[C@H]1C(=O)C[C@H]2[C@H]3CC=C4C[C@H](O)CC[C@]4(C)[C@H]3CC[C@@]12C
REMARK SMILES IDX 6 1 5 2 2 3 1 4 3 5 4 6 7 8 8 9 9 10 10 11 11 12 12 13 30 14
REMARK SMILES IDX 13 15 14 16 15 17 29 18 31 19 16 20 28 21 27 22 17 23 25 24
REMARK SMILES IDX 18 25 19 26 24 27 26 28 20 29 23 30 21 31 22 32
REMARK H PARENT 4 7 22 33
REMARK Flexibility Score: inf
ROOT
ATOM      1  C   UNL     1     177.315 160.726 178.940  1.00  0.00     0.076 C 
ENDROOT
BRANCH   1   2
ATOM      2  C   UNL     1     177.617 160.596 177.429  1.00  0.00     0.013 C 
BRANCH   2   3
ATOM      3  C   UNL     1     177.653 161.929 176.636  1.00  0.00     0.012 C 
ATOM      4  C   UNL     1     176.319 162.229 175.938  1.00  0.00     0.010 C 
BRANCH   3   5
ATOM      5  C   UNL     1     178.840 161.990 175.648  1.00  0.00     0.159 C 
BRANCH   5   6
ATOM      6  O   UNL     1     179.839 162.855 176.118  1.00  0.00    -0.396 OA
ATOM      7  H   UNL     1     180.674 162.616 175.643  1.00  0.00     0.210 HD
ENDBRANCH   5   6
ENDBRANCH   3   5
ENDBRANCH   2   3
ENDBRANCH   1   2
BRANCH   1   8
ATOM      8  C   UNL     1     175.916 160.300 179.341  1.00  0.00     0.136 C 
ATOM      9  O   UNL     1     175.118 159.905 178.499  1.00  0.00    -0.299 OA
BRANCH   8  10
ATOM     10  C   UNL     1     175.460 160.470 180.777  1.00  0.00     0.064 C 
ATOM     11  C   UNL     1     173.920 160.557 180.825  1.00  0.00     0.017 C 
BRANCH  10  12
ATOM     12  C   UNL     1     176.208 161.674 181.446  1.00  0.00     0.072 C 
ATOM     13  C   UNL     1     175.436 162.942 181.580  1.00  0.00     0.137 C 
ATOM     14  C   UNL     1     176.846 161.459 182.865  1.00  0.00    -0.019 C 
ATOM     15  O   UNL     1     174.698 163.382 180.711  1.00  0.00    -0.299 OA
ATOM     16  C   UNL     1     175.775 163.713 182.796  1.00  0.00     0.080 C 
ATOM     17  C   UNL     1     176.907 162.909 183.459  1.00  0.00     0.007 C 
ATOM     18  C   UNL     1     176.053 160.489 183.816  1.00  0.00     0.008 C 
ATOM     19  C   UNL     1     178.278 160.891 182.695  1.00  0.00     0.012 C 
ATOM     20  C   UNL     1     176.908 162.961 185.016  1.00  0.00     0.001 C 
ATOM     21  C   UNL     1     175.032 161.196 184.716  1.00  0.00     0.005 C 
ATOM     22  C   UNL     1     175.763 162.130 185.711  1.00  0.00     0.003 C 
ATOM     23  C   UNL     1     177.053 164.406 185.544  1.00  0.00     0.031 C 
ATOM     24  C   UNL     1     174.838 162.943 186.703  1.00  0.00    -0.008 C 
ATOM     25  C   UNL     1     176.792 164.472 187.021  1.00  0.00    -0.027 C 
ATOM     26  C   UNL     1     175.745 163.824 187.570  1.00  0.00    -0.065 C 
ATOM     27  C   UNL     1     174.066 161.950 187.631  1.00  0.00     0.014 C 
ATOM     28  C   UNL     1     173.798 163.838 185.977  1.00  0.00     0.016 C 
ATOM     29  C   UNL     1     175.569 163.843 189.071  1.00  0.00     0.063 C 
ATOM     30  C   UNL     1     173.352 162.607 188.838  1.00  0.00     0.033 C 
ATOM     31  C   UNL     1     174.075 163.843 189.416  1.00  0.00     0.118 C 
BRANCH  31  32
ATOM     32  O   UNL     1     173.907 163.883 190.810  1.00  0.00    -0.393 OA
ATOM     33  H   UNL     1     174.346 164.714 191.126  1.00  0.00     0.210 HD
ENDBRANCH  31  32
ENDBRANCH  10  12
ENDBRANCH   8  10
ENDBRANCH   1   8
TORSDOF 8
ENDMDL
MODEL 8
REMARK VINA RESULT:    -5.962     14.631     18.184
REMARK INTER + INTRA:          -9.098
REMARK INTER:                  -8.631
REMARK INTRA:                  -0.467
REMARK UNBOUND:                -0.697
REMARK SMILES C[C@H](CO)CCC(=O)[C@H](C)[C@H]1C(=O)C[C@H]2[C@H]3CC=C4C[C@H](O)CC[C@]4(C)[C@H]3CC[C@@]12C
REMARK SMILES IDX 6 1 5 2 2 3 1 4 3 5 4 6 7 8 8 9 9 10 10 11 11 12 12 13 30 14
REMARK SMILES IDX 13 15 14 16 15 17 29 18 31 19 16 20 28 21 27 22 17 23 25 24
REMARK SMILES IDX 18 25 19 26 24 27 26 28 20 29 23 30 21 31 22 32
REMARK H PARENT 4 7 22 33
REMARK Flexibility Score: inf
ROOT
ATOM      1  C   UNL     1     171.927 178.525 188.764  1.00  0.00     0.076 C 
ENDROOT
BRANCH   1   2
ATOM      2  C   UNL     1     173.072 179.526 188.490  1.00  0.00     0.013 C 
BRANCH   2   3
ATOM      3  C   UNL     1     174.025 179.151 187.325  1.00  0.00     0.012 C 
ATOM      4  C   UNL     1     175.503 179.198 187.740  1.00  0.00     0.010 C 
BRANCH   3   5
ATOM      5  C   UNL     1     173.762 179.997 186.058  1.00  0.00     0.159 C 
BRANCH   5   6
ATOM      6  O   UNL     1     174.593 179.591 185.004  1.00  0.00    -0.396 OA
ATOM      7  H   UNL     1     174.335 180.124 184.211  1.00  0.00     0.210 HD
ENDBRANCH   5   6
ENDBRANCH   3   5
ENDBRANCH   2   3
ENDBRANCH   1   2
BRANCH   1   8
ATOM      8  C   UNL     1     170.596 178.904 188.143  1.00  0.00     0.136 C 
ATOM      9  O   UNL     1     170.309 180.080 187.953  1.00  0.00    -0.299 OA
BRANCH   8  10
ATOM     10  C   UNL     1     169.565 177.831 187.856  1.00  0.00     0.064 C 
ATOM     11  C   UNL     1     169.973 177.041 186.596  1.00  0.00     0.017 C 
BRANCH  10  12
ATOM     12  C   UNL     1     168.129 178.457 187.806  1.00  0.00     0.072 C 
ATOM     13  C   UNL     1     167.562 178.703 186.449  1.00  0.00     0.137 C 
ATOM     14  C   UNL     1     166.972 177.732 188.581  1.00  0.00    -0.019 C 
ATOM     15  O   UNL     1     168.210 179.148 185.513  1.00  0.00    -0.299 OA
ATOM     16  C   UNL     1     166.095 178.522 186.381  1.00  0.00     0.080 C 
ATOM     17  C   UNL     1     165.679 178.202 187.827  1.00  0.00     0.007 C 
ATOM     18  C   UNL     1     167.069 176.162 188.616  1.00  0.00     0.008 C 
ATOM     19  C   UNL     1     166.949 178.239 190.046  1.00  0.00     0.012 C 
ATOM     20  C   UNL     1     164.476 177.219 187.949  1.00  0.00     0.001 C 
ATOM     21  C   UNL     1     166.327 175.466 187.469  1.00  0.00     0.005 C 
ATOM     22  C   UNL     1     164.804 175.718 187.596  1.00  0.00     0.003 C 
ATOM     23  C   UNL     1     163.209 177.771 187.259  1.00  0.00     0.031 C 
ATOM     24  C   UNL     1     163.901 175.070 186.471  1.00  0.00    -0.008 C 
ATOM     25  C   UNL     1     162.146 176.717 187.155  1.00  0.00    -0.027 C 
ATOM     26  C   UNL     1     162.447 175.465 186.757  1.00  0.00    -0.065 C 
ATOM     27  C   UNL     1     164.022 173.514 186.535  1.00  0.00     0.014 C 
ATOM     28  C   UNL     1     164.282 175.529 185.038  1.00  0.00     0.016 C 
ATOM     29  C   UNL     1     161.363 174.410 186.752  1.00  0.00     0.063 C 
ATOM     30  C   UNL     1     162.975 172.743 185.692  1.00  0.00     0.033 C 
ATOM     31  C   UNL     1     161.597 173.435 185.592  1.00  0.00     0.118 C 
BRANCH  31  32
ATOM     32  O   UNL     1     160.580 172.466 185.571  1.00  0.00    -0.393 OA
ATOM     33  H   UNL     1     160.581 172.073 184.660  1.00  0.00     0.210 HD
ENDBRANCH  31  32
ENDBRANCH  10  12
ENDBRANCH   8  10
ENDBRANCH   1   8
TORSDOF 8
ENDMDL
MODEL 9
REMARK VINA RESULT:    -5.843      8.316     12.739
REMARK INTER + INTRA:          -8.931
REMARK INTER:                  -8.158
REMARK INTRA:                  -0.774
REMARK UNBOUND:                -0.697
REMARK SMILES C[C@H](CO)CCC(=O)[C@H](C)[C@H]1C(=O)C[C@H]2[C@H]3CC=C4C[C@H](O)CC[C@]4(C)[C@H]3CC[C@@]12C
REMARK SMILES IDX 6 1 5 2 2 3 1 4 3 5 4 6 7 8 8 9 9 10 10 11 11 12 12 13 30 14
REMARK SMILES IDX 13 15 14 16 15 17 29 18 31 19 16 20 28 21 27 22 17 23 25 24
REMARK SMILES IDX 18 25 19 26 24 27 26 28 20 29 23 30 21 31 22 32
REMARK H PARENT 4 7 22 33
REMARK Flexibility Score: inf
ROOT
ATOM      1  C   UNL     1     176.674 161.022 174.544  1.00  0.00     0.076 C 
ENDROOT
BRANCH   1   2
ATOM      2  C   UNL     1     177.528 161.814 173.528  1.00  0.00     0.013 C 
BRANCH   2   3
ATOM      3  C   UNL     1     178.995 162.084 173.954  1.00  0.00     0.012 C 
ATOM      4  C   UNL     1     180.007 161.374 173.044  1.00  0.00     0.010 C 
BRANCH   3   5
ATOM      5  C   UNL     1     179.241 161.758 175.444  1.00  0.00     0.159 C 
BRANCH   5   6
ATOM      6  O   UNL     1     179.749 162.874 176.124  1.00  0.00    -0.396 OA
ATOM      7  H   UNL     1     180.737 162.823 176.066  1.00  0.00     0.210 HD
ENDBRANCH   5   6
ENDBRANCH   3   5
ENDBRANCH   2   3
ENDBRANCH   1   2
BRANCH   1   8
ATOM      8  C   UNL     1     175.563 161.823 175.195  1.00  0.00     0.136 C 
ATOM      9  O   UNL     1     175.140 162.845 174.667  1.00  0.00    -0.299 OA
BRANCH   8  10
ATOM     10  C   UNL     1     175.047 161.424 176.563  1.00  0.00     0.064 C 
ATOM     11  C   UNL     1     173.622 161.978 176.762  1.00  0.00     0.017 C 
BRANCH  10  12
ATOM     12  C   UNL     1     176.075 161.835 177.672  1.00  0.00     0.072 C 
ATOM     13  C   UNL     1     175.786 163.100 178.407  1.00  0.00     0.137 C 
ATOM     14  C   UNL     1     176.404 160.797 178.805  1.00  0.00    -0.019 C 
ATOM     15  O   UNL     1     175.371 164.116 177.871  1.00  0.00    -0.299 OA
ATOM     16  C   UNL     1     176.211 163.069 179.824  1.00  0.00     0.080 C 
ATOM     17  C   UNL     1     176.891 161.699 179.993  1.00  0.00     0.007 C 
ATOM     18  C   UNL     1     175.202 159.881 179.244  1.00  0.00     0.008 C 
ATOM     19  C   UNL     1     177.555 159.876 178.328  1.00  0.00     0.012 C 
ATOM     20  C   UNL     1     176.704 161.056 181.400  1.00  0.00     0.001 C 
ATOM     21  C   UNL     1     174.385 160.444 180.414  1.00  0.00     0.005 C 
ATOM     22  C   UNL     1     175.260 160.497 181.690  1.00  0.00     0.003 C 
ATOM     23  C   UNL     1     177.276 161.951 182.522  1.00  0.00     0.031 C 
ATOM     24  C   UNL     1     174.556 161.070 182.986  1.00  0.00    -0.008 C 
ATOM     25  C   UNL     1     176.862 161.453 183.876  1.00  0.00    -0.027 C 
ATOM     26  C   UNL     1     175.592 161.072 184.117  1.00  0.00    -0.065 C 
ATOM     27  C   UNL     1     173.370 160.137 183.392  1.00  0.00     0.014 C 
ATOM     28  C   UNL     1     174.002 162.507 182.798  1.00  0.00     0.016 C 
ATOM     29  C   UNL     1     175.237 160.492 185.468  1.00  0.00     0.063 C 
ATOM     30  C   UNL     1     172.779 160.408 184.798  1.00  0.00     0.033 C 
ATOM     31  C   UNL     1     173.807 160.896 185.843  1.00  0.00     0.118 C 
BRANCH  31  32
ATOM     32  O   UNL     1     173.481 160.378 187.107  1.00  0.00    -0.393 OA
ATOM     33  H   UNL     1     172.495 160.446 187.197  1.00  0.00     0.210 HD
ENDBRANCH  31  32
ENDBRANCH  10  12
ENDBRANCH   8  10
ENDBRANCH   1   8
TORSDOF 8
ENDMDL
