MODEL 1
REMARK VINA RESULT:    -4.105      0.000      0.000
REMARK INTER + INTRA:          -4.441
REMARK INTER:                  -4.345
REMARK INTRA:                  -0.096
REMARK UNBOUND:                -0.096
REMARK SMILES C=C(C)[C@H]1CC=C(C)C(=O)C1
REMARK SMILES IDX 8 1 7 2 6 3 5 4 4 5 11 6 9 7 10 8 2 9 1 10 3 11
REMARK H PARENT
REMARK Flexibility Score: inf
ROOT
ATOM      1  C   UNL     1     -13.064  27.465  12.352  1.00  0.00     0.048 C 
ATOM      2  C   UNL     1     -13.394  27.743  13.793  1.00  0.00    -0.012 C 
ATOM      3  C   UNL     1     -13.377  26.747  14.694  1.00  0.00    -0.019 C 
ATOM      4  C   UNL     1     -13.778  26.961  16.130  1.00  0.00     0.036 C 
ATOM      5  C   UNL     1     -13.460  28.399  16.589  1.00  0.00     0.025 C 
ATOM      6  C   UNL     1     -14.117  29.419  15.640  1.00  0.00     0.089 C 
ATOM      7  C   UNL     1     -13.762  29.120  14.209  1.00  0.00     0.158 C 
ATOM      8  O   UNL     1     -13.825  30.044  13.355  1.00  0.00    -0.295 OA
ENDROOT
BRANCH   5   9
ATOM      9  C   UNL     1     -13.872  28.632  18.037  1.00  0.00    -0.077 C 
ATOM     10  C   UNL     1     -14.678  27.770  18.681  1.00  0.00     0.008 C 
ATOM     11  C   UNL     1     -13.375  29.845  18.777  1.00  0.00     0.039 C 
ENDBRANCH   5   9
TORSDOF 1
ENDMDL
MODEL 2
REMARK VINA RESULT:    -4.040      2.398      4.949
REMARK INTER + INTRA:          -4.371
REMARK INTER:                  -4.275
REMARK INTRA:                  -0.096
REMARK UNBOUND:                -0.096
REMARK SMILES C=C(C)[C@H]1CC=C(C)C(=O)C1
REMARK SMILES IDX 8 1 7 2 6 3 5 4 4 5 11 6 9 7 10 8 2 9 1 10 3 11
REMARK H PARENT
REMARK Flexibility Score: inf
ROOT
ATOM      1  C   UNL     1     -14.396  28.555  20.624  1.00  0.00     0.048 C 
ATOM      2  C   UNL     1     -14.327  28.344  19.137  1.00  0.00    -0.012 C 
ATOM      3  C   UNL     1     -13.761  29.272  18.348  1.00  0.00    -0.019 C 
ATOM      4  C   UNL     1     -13.739  29.142  16.848  1.00  0.00     0.036 C 
ATOM      5  C   UNL     1     -13.701  27.662  16.418  1.00  0.00     0.025 C 
ATOM      6  C   UNL     1     -14.872  26.890  17.055  1.00  0.00     0.089 C 
ATOM      7  C   UNL     1     -14.910  27.115  18.542  1.00  0.00     0.158 C 
ATOM      8  O   UNL     1     -15.484  26.267  19.277  1.00  0.00    -0.295 OA
ENDROOT
BRANCH   5   9
ATOM      9  C   UNL     1     -13.692  27.517  14.901  1.00  0.00    -0.077 C 
ATOM     10  C   UNL     1     -13.659  26.307  14.315  1.00  0.00     0.008 C 
ATOM     11  C   UNL     1     -13.720  28.741  14.025  1.00  0.00     0.039 C 
ENDBRANCH   5   9
TORSDOF 1
ENDMDL
MODEL 3
REMARK VINA RESULT:    -4.006      4.664      6.012
REMARK INTER + INTRA:          -4.336
REMARK INTER:                  -4.244
REMARK INTRA:                  -0.092
REMARK UNBOUND:                -0.096
REMARK SMILES C=C(C)[C@H]1CC=C(C)C(=O)C1
REMARK SMILES IDX 8 1 7 2 6 3 5 4 4 5 11 6 9 7 10 8 2 9 1 10 3 11
REMARK H PARENT
REMARK Flexibility Score: inf
ROOT
ATOM      1  C   UNL     1     -13.887  28.138  20.171  1.00  0.00     0.048 C 
ATOM      2  C   UNL     1     -14.688  29.369  19.846  1.00  0.00    -0.012 C 
ATOM      3  C   UNL     1     -16.007  29.402  20.097  1.00  0.00    -0.019 C 
ATOM      4  C   UNL     1     -16.865  30.579  19.716  1.00  0.00     0.036 C 
ATOM      5  C   UNL     1     -16.056  31.892  19.753  1.00  0.00     0.025 C 
ATOM      6  C   UNL     1     -14.802  31.772  18.869  1.00  0.00     0.089 C 
ATOM      7  C   UNL     1     -14.018  30.538  19.223  1.00  0.00     0.158 C 
ATOM      8  O   UNL     1     -12.790  30.488  18.942  1.00  0.00    -0.295 OA
ENDROOT
BRANCH   5   9
ATOM      9  C   UNL     1     -16.910  33.090  19.358  1.00  0.00    -0.077 C 
ATOM     10  C   UNL     1     -16.645  34.322  19.826  1.00  0.00     0.008 C 
ATOM     11  C   UNL     1     -18.078  32.909  18.424  1.00  0.00     0.039 C 
ENDBRANCH   5   9
TORSDOF 1
ENDMDL
MODEL 4
REMARK VINA RESULT:    -3.940      3.586      5.839
REMARK INTER + INTRA:          -4.266
REMARK INTER:                  -4.177
REMARK INTRA:                  -0.090
REMARK UNBOUND:                -0.096
REMARK SMILES C=C(C)[C@H]1CC=C(C)C(=O)C1
REMARK SMILES IDX 8 1 7 2 6 3 5 4 4 5 11 6 9 7 10 8 2 9 1 10 3 11
REMARK H PARENT
REMARK Flexibility Score: inf
ROOT
ATOM      1  C   UNL     1     -16.552  33.848  19.731  1.00  0.00     0.048 C 
ATOM      2  C   UNL     1     -15.958  32.493  19.460  1.00  0.00    -0.012 C 
ATOM      3  C   UNL     1     -14.628  32.314  19.524  1.00  0.00    -0.019 C 
ATOM      4  C   UNL     1     -13.981  30.997  19.183  1.00  0.00     0.036 C 
ATOM      5  C   UNL     1     -14.918  29.816  19.505  1.00  0.00     0.025 C 
ATOM      6  C   UNL     1     -16.274  30.002  18.798  1.00  0.00     0.089 C 
ATOM      7  C   UNL     1     -16.847  31.361  19.095  1.00  0.00     0.158 C 
ATOM      8  O   UNL     1     -18.089  31.541  18.987  1.00  0.00    -0.295 OA
ENDROOT
BRANCH   5   9
ATOM      9  C   UNL     1     -14.280  28.479  19.153  1.00  0.00    -0.077 C 
ATOM     10  C   UNL     1     -14.323  27.438  20.003  1.00  0.00     0.008 C 
ATOM     11  C   UNL     1     -13.581  28.300  17.830  1.00  0.00     0.039 C 
ENDBRANCH   5   9
TORSDOF 1
ENDMDL
MODEL 5
REMARK VINA RESULT:    -3.917      1.458      2.081
REMARK INTER + INTRA:          -4.241
REMARK INTER:                  -4.148
REMARK INTRA:                  -0.093
REMARK UNBOUND:                -0.096
REMARK SMILES C=C(C)[C@H]1CC=C(C)C(=O)C1
REMARK SMILES IDX 8 1 7 2 6 3 5 4 4 5 11 6 9 7 10 8 2 9 1 10 3 11
REMARK H PARENT
REMARK Flexibility Score: inf
ROOT
ATOM      1  C   UNL     1     -13.660  28.459  12.484  1.00  0.00     0.048 C 
ATOM      2  C   UNL     1     -13.703  28.330  13.982  1.00  0.00    -0.012 C 
ATOM      3  C   UNL     1     -13.783  29.427  14.752  1.00  0.00    -0.019 C 
ATOM      4  C   UNL     1     -13.748  29.353  16.256  1.00  0.00     0.036 C 
ATOM      5  C   UNL     1     -14.356  28.030  16.762  1.00  0.00     0.025 C 
ATOM      6  C   UNL     1     -13.652  26.831  16.101  1.00  0.00     0.089 C 
ATOM      7  C   UNL     1     -13.632  26.984  14.605  1.00  0.00     0.158 C 
ATOM      8  O   UNL     1     -13.508  25.958  13.883  1.00  0.00    -0.295 OA
ENDROOT
BRANCH   5   9
ATOM      9  C   UNL     1     -14.316  27.937  18.282  1.00  0.00    -0.077 C 
ATOM     10  C   UNL     1     -15.189  27.171  18.959  1.00  0.00     0.008 C 
ATOM     11  C   UNL     1     -13.284  28.712  19.059  1.00  0.00     0.039 C 
ENDBRANCH   5   9
TORSDOF 1
ENDMDL
MODEL 6
REMARK VINA RESULT:    -3.846      2.797      4.618
REMARK INTER + INTRA:          -4.166
REMARK INTER:                  -4.076
REMARK INTRA:                  -0.090
REMARK UNBOUND:                -0.096
REMARK SMILES C=C(C)[C@H]1CC=C(C)C(=O)C1
REMARK SMILES IDX 8 1 7 2 6 3 5 4 4 5 11 6 9 7 10 8 2 9 1 10 3 11
REMARK H PARENT
REMARK Flexibility Score: inf
ROOT
ATOM      1  C   UNL     1     -13.015  30.285  18.934  1.00  0.00     0.048 C 
ATOM      2  C   UNL     1     -13.687  28.941  18.855  1.00  0.00    -0.012 C 
ATOM      3  C   UNL     1     -13.940  28.246  19.976  1.00  0.00    -0.019 C 
ATOM      4  C   UNL     1     -14.537  26.864  19.943  1.00  0.00     0.036 C 
ATOM      5  C   UNL     1     -15.459  26.685  18.720  1.00  0.00     0.025 C 
ATOM      6  C   UNL     1     -14.700  27.026  17.424  1.00  0.00     0.089 C 
ATOM      7  C   UNL     1     -14.047  28.377  17.530  1.00  0.00     0.158 C 
ATOM      8  O   UNL     1     -13.765  29.008  16.476  1.00  0.00    -0.295 OA
ENDROOT
BRANCH   5   9
ATOM      9  C   UNL     1     -16.060  25.286  18.667  1.00  0.00    -0.077 C 
ATOM     10  C   UNL     1     -17.359  25.094  18.377  1.00  0.00     0.008 C 
ATOM     11  C   UNL     1     -15.197  24.083  18.943  1.00  0.00     0.039 C 
ENDBRANCH   5   9
TORSDOF 1
ENDMDL
MODEL 7
REMARK VINA RESULT:    -3.823      2.771      4.808
REMARK INTER + INTRA:          -4.142
REMARK INTER:                  -4.045
REMARK INTRA:                  -0.096
REMARK UNBOUND:                -0.096
REMARK SMILES C=C(C)[C@H]1CC=C(C)C(=O)C1
REMARK SMILES IDX 8 1 7 2 6 3 5 4 4 5 11 6 9 7 10 8 2 9 1 10 3 11
REMARK H PARENT
REMARK Flexibility Score: inf
ROOT
ATOM      1  C   UNL     1     -13.386  30.475  19.121  1.00  0.00     0.048 C 
ATOM      2  C   UNL     1     -13.834  29.289  18.312  1.00  0.00    -0.012 C 
ATOM      3  C   UNL     1     -13.725  29.303  16.973  1.00  0.00    -0.019 C 
ATOM      4  C   UNL     1     -14.233  28.174  16.117  1.00  0.00     0.036 C 
ATOM      5  C   UNL     1     -14.153  26.828  16.866  1.00  0.00     0.025 C 
ATOM      6  C   UNL     1     -14.895  26.920  18.212  1.00  0.00     0.089 C 
ATOM      7  C   UNL     1     -14.420  28.111  19.000  1.00  0.00     0.158 C 
ATOM      8  O   UNL     1     -14.567  28.117  20.252  1.00  0.00    -0.295 OA
ENDROOT
BRANCH   5   9
ATOM      9  C   UNL     1     -14.675  25.678  16.014  1.00  0.00    -0.077 C 
ATOM     10  C   UNL     1     -15.186  25.892  14.789  1.00  0.00     0.008 C 
ATOM     11  C   UNL     1     -14.625  24.267  16.538  1.00  0.00     0.039 C 
ENDBRANCH   5   9
TORSDOF 1
ENDMDL
MODEL 8
REMARK VINA RESULT:    -3.797      2.625      4.973
REMARK INTER + INTRA:          -4.114
REMARK INTER:                  -4.021
REMARK INTRA:                  -0.094
REMARK UNBOUND:                -0.096
REMARK SMILES C=C(C)[C@H]1CC=C(C)C(=O)C1
REMARK SMILES IDX 8 1 7 2 6 3 5 4 4 5 11 6 9 7 10 8 2 9 1 10 3 11
REMARK H PARENT
REMARK Flexibility Score: inf
ROOT
ATOM      1  C   UNL     1     -14.826  32.553  19.876  1.00  0.00     0.048 C 
ATOM      2  C   UNL     1     -14.711  31.263  19.111  1.00  0.00    -0.012 C 
ATOM      3  C   UNL     1     -13.561  30.570  19.124  1.00  0.00    -0.019 C 
ATOM      4  C   UNL     1     -13.373  29.317  18.309  1.00  0.00     0.036 C 
ATOM      5  C   UNL     1     -14.706  28.563  18.132  1.00  0.00     0.025 C 
ATOM      6  C   UNL     1     -15.772  29.497  17.530  1.00  0.00     0.089 C 
ATOM      7  C   UNL     1     -15.869  30.773  18.321  1.00  0.00     0.158 C 
ATOM      8  O   UNL     1     -16.932  31.448  18.270  1.00  0.00    -0.295 OA
ENDROOT
BRANCH   5   9
ATOM      9  C   UNL     1     -14.531  27.299  17.300  1.00  0.00    -0.077 C 
ATOM     10  C   UNL     1     -13.769  27.292  16.191  1.00  0.00     0.008 C 
ATOM     11  C   UNL     1     -15.216  26.023  17.711  1.00  0.00     0.039 C 
ENDBRANCH   5   9
TORSDOF 1
ENDMDL
