MODEL 1
REMARK VINA RESULT:    -6.523      0.000      0.000
REMARK INTER + INTRA:          -8.511
REMARK INTER:                  -8.238
REMARK INTRA:                  -0.272
REMARK UNBOUND:                -0.272
REMARK SMILES CC(C)=CCCC(C)=CCO
REMARK SMILES IDX 7 1 9 2 8 3 6 4 5 5 4 6 1 7 2 8 3 9 10 10 11 11
REMARK H PARENT 11 12
REMARK Flexibility Score: inf
ROOT
ATOM      1  C   UNL     1      10.416 -20.433  36.150  1.00  0.00    -0.075 C 
ATOM      2  C   UNL     1      10.317 -21.067  34.960  1.00  0.00    -0.000 C 
ATOM      3  C   UNL     1      11.193 -21.098  37.256  1.00  0.00     0.039 C 
ENDROOT
BRANCH   1   4
ATOM      4  C   UNL     1       9.720 -19.118  36.442  1.00  0.00     0.034 C 
BRANCH   4   5
ATOM      5  C   UNL     1      10.747 -18.015  36.724  1.00  0.00     0.032 C 
BRANCH   5   6
ATOM      6  C   UNL     1      10.381 -17.251  37.971  1.00  0.00    -0.028 C 
ATOM      7  C   UNL     1      11.077 -15.042  37.014  1.00  0.00     0.039 C 
ATOM      8  C   UNL     1      10.500 -15.911  38.108  1.00  0.00    -0.080 C 
ATOM      9  C   UNL     1      10.055 -15.278  39.401  1.00  0.00     0.039 C 
ENDBRANCH   5   6
ENDBRANCH   4   5
ENDBRANCH   1   4
BRANCH   2  10
ATOM     10  C   UNL     1       9.562 -20.535  33.773  1.00  0.00     0.183 C 
BRANCH  10  11
ATOM     11  O   UNL     1       8.849 -21.575  33.162  1.00  0.00    -0.392 OA
ATOM     12  H   UNL     1       8.219 -21.915  33.849  1.00  0.00     0.210 HD
ENDBRANCH  10  11
ENDBRANCH   2  10
TORSDOF 5
ENDMDL
MODEL 2
REMARK VINA RESULT:    -6.307      1.910      2.447
REMARK INTER + INTRA:          -8.238
REMARK INTER:                  -7.994
REMARK INTRA:                  -0.245
REMARK UNBOUND:                -0.272
REMARK SMILES CC(C)=CCCC(C)=CCO
REMARK SMILES IDX 7 1 9 2 8 3 6 4 5 5 4 6 1 7 2 8 3 9 10 10 11 11
REMARK H PARENT 11 12
REMARK Flexibility Score: inf
ROOT
ATOM      1  C   UNL     1      10.428 -20.343  36.216  1.00  0.00    -0.075 C 
ATOM      2  C   UNL     1      10.435 -21.687  36.362  1.00  0.00    -0.000 C 
ATOM      3  C   UNL     1       9.985 -19.767  34.896  1.00  0.00     0.039 C 
ENDROOT
BRANCH   1   4
ATOM      4  C   UNL     1      10.913 -19.395  37.296  1.00  0.00     0.034 C 
BRANCH   4   5
ATOM      5  C   UNL     1      10.736 -17.938  36.853  1.00  0.00     0.032 C 
BRANCH   5   6
ATOM      6  C   UNL     1      10.460 -17.049  38.039  1.00  0.00    -0.028 C 
ATOM      7  C   UNL     1      11.245 -14.976  36.871  1.00  0.00     0.039 C 
ATOM      8  C   UNL     1      10.660 -15.712  38.054  1.00  0.00    -0.080 C 
ATOM      9  C   UNL     1      10.300 -14.946  39.301  1.00  0.00     0.039 C 
ENDBRANCH   5   6
ENDBRANCH   4   5
ENDBRANCH   1   4
BRANCH   2  10
ATOM     10  C   UNL     1      10.867 -22.404  37.612  1.00  0.00     0.183 C 
BRANCH  10  11
ATOM     11  O   UNL     1      12.249 -22.632  37.572  1.00  0.00    -0.392 OA
ATOM     12  H   UNL     1      12.361 -23.609  37.439  1.00  0.00     0.210 HD
ENDBRANCH  10  11
ENDBRANCH   2  10
TORSDOF 5
ENDMDL
MODEL 3
REMARK VINA RESULT:    -6.278      2.342      5.340
REMARK INTER + INTRA:          -8.202
REMARK INTER:                  -7.822
REMARK INTRA:                  -0.380
REMARK UNBOUND:                -0.272
REMARK SMILES CC(C)=CCCC(C)=CCO
REMARK SMILES IDX 7 1 9 2 8 3 6 4 5 5 4 6 1 7 2 8 3 9 10 10 11 11
REMARK H PARENT 11 12
REMARK Flexibility Score: inf
ROOT
ATOM      1  C   UNL     1      11.039 -15.890  39.005  1.00  0.00    -0.075 C 
ATOM      2  C   UNL     1      10.750 -15.096  37.950  1.00  0.00    -0.000 C 
ATOM      3  C   UNL     1      10.130 -15.847  40.207  1.00  0.00     0.039 C 
ENDROOT
BRANCH   1   4
ATOM      4  C   UNL     1      12.275 -16.766  39.062  1.00  0.00     0.034 C 
BRANCH   4   5
ATOM      5  C   UNL     1      11.885 -18.249  39.072  1.00  0.00     0.032 C 
BRANCH   5   6
ATOM      6  C   UNL     1      11.111 -18.606  37.829  1.00  0.00    -0.028 C 
ATOM      7  C   UNL     1      11.763 -21.023  37.924  1.00  0.00     0.039 C 
ATOM      8  C   UNL     1      11.025 -19.853  37.314  1.00  0.00    -0.080 C 
ATOM      9  C   UNL     1      10.179 -20.067  36.086  1.00  0.00     0.039 C 
ENDBRANCH   5   6
ENDBRANCH   4   5
ENDBRANCH   1   4
BRANCH   2  10
ATOM     10  C   UNL     1      11.573 -15.019  36.694  1.00  0.00     0.183 C 
BRANCH  10  11
ATOM     11  O   UNL     1      11.059 -15.904  35.738  1.00  0.00    -0.392 OA
ATOM     12  H   UNL     1      11.328 -16.813  36.034  1.00  0.00     0.210 HD
ENDBRANCH  10  11
ENDBRANCH   2  10
TORSDOF 5
ENDMDL
MODEL 4
REMARK VINA RESULT:    -6.225      1.982      2.419
REMARK INTER + INTRA:          -8.135
REMARK INTER:                  -7.883
REMARK INTRA:                  -0.252
REMARK UNBOUND:                -0.272
REMARK SMILES CC(C)=CCCC(C)=CCO
REMARK SMILES IDX 7 1 9 2 8 3 6 4 5 5 4 6 1 7 2 8 3 9 10 10 11 11
REMARK H PARENT 11 12
REMARK Flexibility Score: inf
ROOT
ATOM      1  C   UNL     1      10.856 -20.178  35.640  1.00  0.00    -0.075 C 
ATOM      2  C   UNL     1      11.673 -21.163  35.203  1.00  0.00    -0.000 C 
ATOM      3  C   UNL     1       9.731 -19.728  34.744  1.00  0.00     0.039 C 
ENDROOT
BRANCH   1   4
ATOM      4  C   UNL     1      11.065 -19.460  36.959  1.00  0.00     0.034 C 
BRANCH   4   5
ATOM      5  C   UNL     1      10.852 -17.951  36.791  1.00  0.00     0.032 C 
BRANCH   5   6
ATOM      6  C   UNL     1      10.401 -17.328  38.087  1.00  0.00    -0.028 C 
ATOM      7  C   UNL     1      11.026 -15.008  37.375  1.00  0.00     0.039 C 
ATOM      8  C   UNL     1      10.450 -16.004  38.355  1.00  0.00    -0.080 C 
ATOM      9  C   UNL     1       9.926 -15.519  39.683  1.00  0.00     0.039 C 
ENDBRANCH   5   6
ENDBRANCH   4   5
ENDBRANCH   1   4
BRANCH   2  10
ATOM     10  C   UNL     1      12.844 -21.703  35.978  1.00  0.00     0.183 C 
BRANCH  10  11
ATOM     11  O   UNL     1      14.039 -21.267  35.392  1.00  0.00    -0.392 OA
ATOM     12  H   UNL     1      14.443 -22.067  34.967  1.00  0.00     0.210 HD
ENDBRANCH  10  11
ENDBRANCH   2  10
TORSDOF 5
ENDMDL
MODEL 5
REMARK VINA RESULT:    -6.116      2.886      5.657
REMARK INTER + INTRA:          -7.998
REMARK INTER:                  -7.628
REMARK INTRA:                  -0.370
REMARK UNBOUND:                -0.272
REMARK SMILES CC(C)=CCCC(C)=CCO
REMARK SMILES IDX 7 1 9 2 8 3 6 4 5 5 4 6 1 7 2 8 3 9 10 10 11 11
REMARK H PARENT 11 12
REMARK Flexibility Score: inf
ROOT
ATOM      1  C   UNL     1      11.216 -16.502  37.412  1.00  0.00    -0.075 C 
ATOM      2  C   UNL     1      12.250 -16.175  38.219  1.00  0.00    -0.000 C 
ATOM      3  C   UNL     1      10.997 -15.691  36.161  1.00  0.00     0.039 C 
ENDROOT
BRANCH   1   4
ATOM      4  C   UNL     1      10.227 -17.601  37.746  1.00  0.00     0.034 C 
BRANCH   4   5
ATOM      5  C   UNL     1      10.725 -18.953  37.222  1.00  0.00     0.032 C 
BRANCH   5   6
ATOM      6  C   UNL     1       9.987 -19.346  35.968  1.00  0.00    -0.028 C 
ATOM      7  C   UNL     1      11.888 -20.718  35.086  1.00  0.00     0.039 C 
ATOM      8  C   UNL     1      10.486 -20.158  35.011  1.00  0.00    -0.080 C 
ATOM      9  C   UNL     1       9.615 -20.497  33.828  1.00  0.00     0.039 C 
ENDBRANCH   5   6
ENDBRANCH   4   5
ENDBRANCH   1   4
BRANCH   2  10
ATOM     10  C   UNL     1      12.581 -16.881  39.505  1.00  0.00     0.183 C 
BRANCH  10  11
ATOM     11  O   UNL     1      13.571 -17.843  39.275  1.00  0.00    -0.392 OA
ATOM     12  H   UNL     1      13.300 -18.645  39.793  1.00  0.00     0.210 HD
ENDBRANCH  10  11
ENDBRANCH   2  10
TORSDOF 5
ENDMDL
MODEL 6
REMARK VINA RESULT:    -5.915      3.198      5.824
REMARK INTER + INTRA:          -7.743
REMARK INTER:                  -7.504
REMARK INTRA:                  -0.239
REMARK UNBOUND:                -0.272
REMARK SMILES CC(C)=CCCC(C)=CCO
REMARK SMILES IDX 7 1 9 2 8 3 6 4 5 5 4 6 1 7 2 8 3 9 10 10 11 11
REMARK H PARENT 11 12
REMARK Flexibility Score: inf
ROOT
ATOM      1  C   UNL     1      11.449 -17.404  38.599  1.00  0.00    -0.075 C 
ATOM      2  C   UNL     1      11.632 -16.146  39.058  1.00  0.00    -0.000 C 
ATOM      3  C   UNL     1      12.207 -18.527  39.260  1.00  0.00     0.039 C 
ENDROOT
BRANCH   1   4
ATOM      4  C   UNL     1      10.571 -17.726  37.405  1.00  0.00     0.034 C 
BRANCH   4   5
ATOM      5  C   UNL     1      10.704 -19.203  37.021  1.00  0.00     0.032 C 
BRANCH   5   6
ATOM      6  C   UNL     1       9.964 -19.490  35.739  1.00  0.00    -0.028 C 
ATOM      7  C   UNL     1      11.636 -21.189  34.967  1.00  0.00     0.039 C 
ATOM      8  C   UNL     1      10.357 -20.398  34.817  1.00  0.00    -0.080 C 
ATOM      9  C   UNL     1       9.493 -20.606  33.600  1.00  0.00     0.039 C 
ENDBRANCH   5   6
ENDBRANCH   4   5
ENDBRANCH   1   4
BRANCH   2  10
ATOM     10  C   UNL     1      10.959 -14.927  38.489  1.00  0.00     0.183 C 
BRANCH  10  11
ATOM     11  O   UNL     1      10.271 -14.250  39.504  1.00  0.00    -0.392 OA
ATOM     12  H   UNL     1      10.539 -14.686  40.354  1.00  0.00     0.210 HD
ENDBRANCH  10  11
ENDBRANCH   2  10
TORSDOF 5
ENDMDL
MODEL 7
REMARK VINA RESULT:    -5.877      3.055      5.536
REMARK INTER + INTRA:          -7.695
REMARK INTER:                  -7.028
REMARK INTRA:                  -0.667
REMARK UNBOUND:                -0.272
REMARK SMILES CC(C)=CCCC(C)=CCO
REMARK SMILES IDX 7 1 9 2 8 3 6 4 5 5 4 6 1 7 2 8 3 9 10 10 11 11
REMARK H PARENT 11 12
REMARK Flexibility Score: inf
ROOT
ATOM      1  C   UNL     1      11.339 -15.642  38.792  1.00  0.00    -0.075 C 
ATOM      2  C   UNL     1      11.628 -16.702  39.579  1.00  0.00    -0.000 C 
ATOM      3  C   UNL     1      10.447 -14.559  39.344  1.00  0.00     0.039 C 
ENDROOT
BRANCH   1   4
ATOM      4  C   UNL     1      11.813 -15.529  37.356  1.00  0.00     0.034 C 
BRANCH   4   5
ATOM      5  C   UNL     1      10.721 -15.997  36.388  1.00  0.00     0.032 C 
BRANCH   5   6
ATOM      6  C   UNL     1      11.108 -17.298  35.734  1.00  0.00    -0.028 C 
ATOM      7  C   UNL     1       9.537 -18.656  37.136  1.00  0.00     0.039 C 
ATOM      8  C   UNL     1      10.567 -18.498  36.041  1.00  0.00    -0.080 C 
ATOM      9  C   UNL     1      11.025 -19.711  35.273  1.00  0.00     0.039 C 
ENDBRANCH   5   6
ENDBRANCH   4   5
ENDBRANCH   1   4
BRANCH   2  10
ATOM     10  C   UNL     1      12.487 -17.863  39.160  1.00  0.00     0.183 C 
BRANCH  10  11
ATOM     11  O   UNL     1      13.834 -17.569  39.410  1.00  0.00    -0.392 OA
ATOM     12  H   UNL     1      13.849 -17.064  40.265  1.00  0.00     0.210 HD
ENDBRANCH  10  11
ENDBRANCH   2  10
TORSDOF 5
ENDMDL
MODEL 8
REMARK VINA RESULT:    -5.852      4.049      6.371
REMARK INTER + INTRA:          -7.664
REMARK INTER:                  -7.284
REMARK INTRA:                  -0.380
REMARK UNBOUND:                -0.272
REMARK SMILES CC(C)=CCCC(C)=CCO
REMARK SMILES IDX 7 1 9 2 8 3 6 4 5 5 4 6 1 7 2 8 3 9 10 10 11 11
REMARK H PARENT 11 12
REMARK Flexibility Score: inf
ROOT
ATOM      1  C   UNL     1      10.740 -25.767  33.584  1.00  0.00    -0.075 C 
ATOM      2  C   UNL     1      11.297 -26.307  34.691  1.00  0.00    -0.000 C 
ATOM      3  C   UNL     1      11.000 -26.427  32.254  1.00  0.00     0.039 C 
ENDROOT
BRANCH   1   4
ATOM      4  C   UNL     1       9.924 -24.490  33.612  1.00  0.00     0.034 C 
BRANCH   4   5
ATOM      5  C   UNL     1      10.709 -23.334  32.982  1.00  0.00     0.032 C 
BRANCH   5   6
ATOM      6  C   UNL     1      11.088 -22.314  34.025  1.00  0.00    -0.028 C 
ATOM      7  C   UNL     1       9.335 -20.679  33.295  1.00  0.00     0.039 C 
ATOM      8  C   UNL     1      10.464 -21.127  34.195  1.00  0.00    -0.080 C 
ATOM      9  C   UNL     1      10.928 -20.224  35.309  1.00  0.00     0.039 C 
ENDBRANCH   5   6
ENDBRANCH   4   5
ENDBRANCH   1   4
BRANCH   2  10
ATOM     10  C   UNL     1      11.141 -25.750  36.080  1.00  0.00     0.183 C 
BRANCH  10  11
ATOM     11  O   UNL     1      10.274 -26.564  36.820  1.00  0.00    -0.392 OA
ATOM     12  H   UNL     1      10.278 -27.449  36.369  1.00  0.00     0.210 HD
ENDBRANCH  10  11
ENDBRANCH   2  10
TORSDOF 5
ENDMDL
MODEL 9
REMARK VINA RESULT:    -5.822      2.997      5.845
REMARK INTER + INTRA:          -7.625
REMARK INTER:                  -7.685
REMARK INTRA:                   0.060
REMARK UNBOUND:                -0.272
REMARK SMILES CC(C)=CCCC(C)=CCO
REMARK SMILES IDX 7 1 9 2 8 3 6 4 5 5 4 6 1 7 2 8 3 9 10 10 11 11
REMARK H PARENT 11 12
REMARK Flexibility Score: inf
ROOT
ATOM      1  C   UNL     1      11.516 -15.448  37.671  1.00  0.00    -0.075 C 
ATOM      2  C   UNL     1      10.653 -14.608  38.286  1.00  0.00    -0.000 C 
ATOM      3  C   UNL     1      11.632 -15.384  36.169  1.00  0.00     0.039 C 
ENDROOT
BRANCH   1   4
ATOM      4  C   UNL     1      12.319 -16.496  38.416  1.00  0.00     0.034 C 
BRANCH   4   5
ATOM      5  C   UNL     1      11.510 -17.790  38.565  1.00  0.00     0.032 C 
BRANCH   5   6
ATOM      6  C   UNL     1      10.865 -18.170  37.256  1.00  0.00    -0.028 C 
ATOM      7  C   UNL     1      11.391 -20.605  37.522  1.00  0.00     0.039 C 
ATOM      8  C   UNL     1      10.781 -19.435  36.786  1.00  0.00    -0.080 C 
ATOM      9  C   UNL     1      10.070 -19.669  35.478  1.00  0.00     0.039 C 
ENDBRANCH   5   6
ENDBRANCH   4   5
ENDBRANCH   1   4
BRANCH   2  10
ATOM     10  C   UNL     1      10.420 -14.569  39.772  1.00  0.00     0.183 C 
BRANCH  10  11
ATOM     11  O   UNL     1       9.551 -15.605  40.141  1.00  0.00    -0.392 OA
ATOM     12  H   UNL     1       8.671 -15.379  39.742  1.00  0.00     0.210 HD
ENDBRANCH  10  11
ENDBRANCH   2  10
TORSDOF 5
ENDMDL
