MODEL 1
REMARK VINA RESULT:    -2.661      0.000      0.000
REMARK INTER + INTRA:          -2.963
REMARK INTER:                  -2.895
REMARK INTRA:                  -0.068
REMARK UNBOUND:                -0.068
REMARK SMILES C=C(C)[C@@H]1CC[C@@H](C)C[C@@H]1O
REMARK SMILES IDX 8 1 7 2 6 3 5 4 4 5 10 6 9 7 11 8 2 10 1 11 3 12
REMARK H PARENT 11 9
REMARK Flexibility Score: inf
ROOT
ATOM      1  C   UNL     1     -42.124  25.936   3.472  1.00  0.00     0.008 C 
ATOM      2  C   UNL     1     -42.064  24.991   4.677  1.00  0.00    -0.012 C 
ATOM      3  C   UNL     1     -42.125  25.791   5.994  1.00  0.00     0.004 C 
ATOM      4  C   UNL     1     -42.037  24.862   7.211  1.00  0.00     0.011 C 
ATOM      5  C   UNL     1     -40.757  24.003   7.152  1.00  0.00     0.043 C 
ATOM      6  C   UNL     1     -40.687  23.186   5.840  1.00  0.00     0.121 C 
ATOM      7  C   UNL     1     -40.786  24.126   4.623  1.00  0.00     0.035 C 
ENDROOT
BRANCH   6   8
ATOM      8  O   UNL     1     -41.720  22.233   5.792  1.00  0.00    -0.392 OA
ATOM      9  H   UNL     1     -42.289  22.388   6.590  1.00  0.00     0.210 HD
ENDBRANCH   6   8
BRANCH   5  10
ATOM     10  C   UNL     1     -40.592  23.125   8.388  1.00  0.00    -0.075 C 
ATOM     11  C   UNL     1     -39.385  22.873   8.923  1.00  0.00     0.008 C 
ATOM     12  C   UNL     1     -41.804  22.507   9.040  1.00  0.00     0.039 C 
ENDBRANCH   5  10
TORSDOF 2
ENDMDL
MODEL 2
REMARK VINA RESULT:    -1.340     18.097     19.465
REMARK INTER + INTRA:          -1.525
REMARK INTER:                  -1.374
REMARK INTRA:                  -0.152
REMARK UNBOUND:                -0.068
REMARK SMILES C=C(C)[C@@H]1CC[C@@H](C)C[C@@H]1O
REMARK SMILES IDX 8 1 7 2 6 3 5 4 4 5 10 6 9 7 11 8 2 10 1 11 3 12
REMARK H PARENT 11 9
REMARK Flexibility Score: inf
ROOT
ATOM      1  C   UNL     1     -21.915  27.708   8.234  1.00  0.00     0.008 C 
ATOM      2  C   UNL     1     -22.478  29.124   8.067  1.00  0.00    -0.012 C 
ATOM      3  C   UNL     1     -21.877  30.071   9.124  1.00  0.00     0.004 C 
ATOM      4  C   UNL     1     -22.452  31.487   8.990  1.00  0.00     0.011 C 
ATOM      5  C   UNL     1     -23.992  31.464   9.089  1.00  0.00     0.043 C 
ATOM      6  C   UNL     1     -24.610  30.524   8.026  1.00  0.00     0.121 C 
ATOM      7  C   UNL     1     -24.019  29.107   8.163  1.00  0.00     0.035 C 
ENDROOT
BRANCH   6   8
ATOM      8  O   UNL     1     -24.376  31.016   6.730  1.00  0.00    -0.392 OA
ATOM      9  H   UNL     1     -24.527  31.997   6.764  1.00  0.00     0.210 HD
ENDBRANCH   6   8
BRANCH   5  10
ATOM     10  C   UNL     1     -24.595  32.864   9.042  1.00  0.00    -0.075 C 
ATOM     11  C   UNL     1     -25.924  33.061   8.991  1.00  0.00     0.008 C 
ATOM     12  C   UNL     1     -23.695  34.073   9.045  1.00  0.00     0.039 C 
ENDBRANCH   5  10
TORSDOF 2
ENDMDL
MODEL 3
REMARK VINA RESULT:    -0.861      1.219      4.184
REMARK INTER + INTRA:          -1.004
REMARK INTER:                  -1.461
REMARK INTRA:                   0.457
REMARK UNBOUND:                -0.068
REMARK SMILES C=C(C)[C@@H]1CC[C@@H](C)C[C@@H]1O
REMARK SMILES IDX 8 1 7 2 6 3 5 4 4 5 10 6 9 7 11 8 2 10 1 11 3 12
REMARK H PARENT 11 9
REMARK Flexibility Score: inf
ROOT
ATOM      1  C   UNL     1     -40.385  21.537   9.085  1.00  0.00     0.008 C 
ATOM      2  C   UNL     1     -40.488  22.488   7.887  1.00  0.00    -0.012 C 
ATOM      3  C   UNL     1     -40.342  23.952   8.347  1.00  0.00     0.004 C 
ATOM      4  C   UNL     1     -40.472  24.920   7.163  1.00  0.00     0.011 C 
ATOM      5  C   UNL     1     -41.813  24.708   6.429  1.00  0.00     0.043 C 
ATOM      6  C   UNL     1     -41.969  23.244   5.953  1.00  0.00     0.121 C 
ATOM      7  C   UNL     1     -41.827  22.279   7.146  1.00  0.00     0.035 C 
ENDROOT
BRANCH   6   8
ATOM      8  O   UNL     1     -41.010  22.936   4.972  1.00  0.00    -0.392 OA
ATOM      9  H   UNL     1     -40.729  23.796   4.565  1.00  0.00     0.210 HD
ENDBRANCH   6   8
BRANCH   5  10
ATOM     10  C   UNL     1     -42.015  25.709   5.295  1.00  0.00    -0.075 C 
ATOM     11  C   UNL     1     -42.125  27.028   5.527  1.00  0.00     0.008 C 
ATOM     12  C   UNL     1     -42.102  25.224   3.870  1.00  0.00     0.039 C 
ENDBRANCH   5  10
TORSDOF 2
ENDMDL
MODEL 4
REMARK VINA RESULT:    -0.780     17.501     18.543
REMARK INTER + INTRA:          -0.916
REMARK INTER:                  -0.722
REMARK INTRA:                  -0.194
REMARK UNBOUND:                -0.068
REMARK SMILES C=C(C)[C@@H]1CC[C@@H](C)C[C@@H]1O
REMARK SMILES IDX 8 1 7 2 6 3 5 4 4 5 10 6 9 7 11 8 2 10 1 11 3 12
REMARK H PARENT 11 9
REMARK Flexibility Score: inf
ROOT
ATOM      1  C   UNL     1     -25.872  28.473   5.193  1.00  0.00     0.008 C 
ATOM      2  C   UNL     1     -25.506  29.414   6.346  1.00  0.00    -0.012 C 
ATOM      3  C   UNL     1     -25.635  30.885   5.903  1.00  0.00     0.004 C 
ATOM      4  C   UNL     1     -25.245  31.842   7.037  1.00  0.00     0.011 C 
ATOM      5  C   UNL     1     -23.815  31.544   7.535  1.00  0.00     0.043 C 
ATOM      6  C   UNL     1     -23.672  30.073   7.993  1.00  0.00     0.121 C 
ATOM      7  C   UNL     1     -24.077  29.120   6.850  1.00  0.00     0.035 C 
ENDROOT
BRANCH   6   8
ATOM      8  O   UNL     1     -24.468  29.825   9.125  1.00  0.00    -0.392 OA
ATOM      9  H   UNL     1     -25.356  30.231   8.946  1.00  0.00     0.210 HD
ENDBRANCH   6   8
BRANCH   5  10
ATOM     10  C   UNL     1     -23.360  32.529   8.608  1.00  0.00    -0.075 C 
ATOM     11  C   UNL     1     -24.194  33.448   9.125  1.00  0.00     0.008 C 
ATOM     12  C   UNL     1     -21.939  32.491   9.111  1.00  0.00     0.039 C 
ENDBRANCH   5  10
TORSDOF 2
ENDMDL
