MODEL 1
REMARK VINA RESULT:    -3.874      0.000      0.000
REMARK INTER + INTRA:          -4.809
REMARK INTER:                  -4.667
REMARK INTRA:                  -0.142
REMARK UNBOUND:                -0.142
REMARK SMILES NC(=O)C[C@H]([NH3+])C(=O)[O-]
REMARK SMILES IDX 4 1 5 2 6 3 7 7 8 8 9 9 2 10 3 11 1 12
REMARK H PARENT 6 4 6 5 6 6 1 13 1 14
REMARK Flexibility Score: inf
ROOT
ATOM      1  C   UNL     1      30.028   5.074 143.787  1.00  0.00     0.171 C 
ENDROOT
BRANCH   1   2
ATOM      2  C   UNL     1      29.696   3.623 144.187  1.00  0.00     0.237 C 
BRANCH   2   3
ATOM      3  N   UNL     1      30.908   2.919 144.620  1.00  0.00    -0.350 N 
ATOM      4  H   UNL     1      31.569   3.595 145.069  1.00  0.00     0.345 HD
ATOM      5  H   UNL     1      30.674   2.163 145.304  1.00  0.00     0.345 HD
ATOM      6  H   UNL     1      31.387   2.495 143.793  1.00  0.00     0.345 HD
ENDBRANCH   2   3
BRANCH   2   7
ATOM      7  C   UNL     1      29.051   2.883 143.042  1.00  0.00     0.100 C 
ATOM      8  O   UNL     1      29.643   1.911 142.504  1.00  0.00    -0.544 OA
ATOM      9  O   UNL     1      27.797   3.263 142.579  1.00  0.00    -0.544 OA
ENDBRANCH   2   7
ENDBRANCH   1   2
BRANCH   1  10
ATOM     10  C   UNL     1      29.118   6.057 144.463  1.00  0.00     0.223 C 
ATOM     11  O   UNL     1      28.128   5.645 145.124  1.00  0.00    -0.275 OA
ATOM     12  N   UNL     1      29.386   7.458 144.392  1.00  0.00    -0.369 N 
ATOM     13  H   UNL     1      28.760   8.140 144.874  1.00  0.00     0.159 HD
ATOM     14  H   UNL     1      30.212   7.814 143.861  1.00  0.00     0.159 HD
ENDBRANCH   1  10
TORSDOF 4
ENDMDL
MODEL 2
REMARK VINA RESULT:    -3.786      1.976      3.825
REMARK INTER + INTRA:          -4.703
REMARK INTER:                  -4.433
REMARK INTRA:                  -0.270
REMARK UNBOUND:                -0.142
REMARK SMILES NC(=O)C[C@H]([NH3+])C(=O)[O-]
REMARK SMILES IDX 4 1 5 2 6 3 7 7 8 8 9 9 2 10 3 11 1 12
REMARK H PARENT 6 4 6 5 6 6 1 13 1 14
REMARK Flexibility Score: inf
ROOT
ATOM      1  C   UNL     1      29.140   4.507 144.218  1.00  0.00     0.171 C 
ENDROOT
BRANCH   1   2
ATOM      2  C   UNL     1      27.853   4.172 144.998  1.00  0.00     0.237 C 
BRANCH   2   3
ATOM      3  N   UNL     1      27.149   3.050 144.369  1.00  0.00    -0.350 N 
ATOM      4  H   UNL     1      27.567   2.850 143.431  1.00  0.00     0.345 HD
ATOM      5  H   UNL     1      27.213   2.192 144.964  1.00  0.00     0.345 HD
ATOM      6  H   UNL     1      26.142   3.295 144.232  1.00  0.00     0.345 HD
ENDBRANCH   2   3
BRANCH   2   7
ATOM      7  C   UNL     1      26.945   5.374 145.076  1.00  0.00     0.100 C 
ATOM      8  O   UNL     1      27.432   6.534 145.089  1.00  0.00    -0.544 OA
ATOM      9  O   UNL     1      25.566   5.208 145.125  1.00  0.00    -0.544 OA
ENDBRANCH   2   7
ENDBRANCH   1   2
BRANCH   1  10
ATOM     10  C   UNL     1      29.943   3.274 143.920  1.00  0.00     0.223 C 
ATOM     11  O   UNL     1      29.648   2.558 142.926  1.00  0.00    -0.275 OA
ATOM     12  N   UNL     1      31.063   2.926 144.735  1.00  0.00    -0.369 N 
ATOM     13  H   UNL     1      31.629   2.076 144.518  1.00  0.00     0.159 HD
ATOM     14  H   UNL     1      31.330   3.518 145.552  1.00  0.00     0.159 HD
ENDBRANCH   1  10
TORSDOF 4
ENDMDL
MODEL 3
REMARK VINA RESULT:    -3.744      1.390      3.747
REMARK INTER + INTRA:          -4.652
REMARK INTER:                  -4.578
REMARK INTRA:                  -0.074
REMARK UNBOUND:                -0.142
REMARK SMILES NC(=O)C[C@H]([NH3+])C(=O)[O-]
REMARK SMILES IDX 4 1 5 2 6 3 7 7 8 8 9 9 2 10 3 11 1 12
REMARK H PARENT 6 4 6 5 6 6 1 13 1 14
REMARK Flexibility Score: inf
ROOT
ATOM      1  C   UNL     1      28.877   4.120 144.416  1.00  0.00     0.171 C 
ENDROOT
BRANCH   1   2
ATOM      2  C   UNL     1      29.197   5.536 143.895  1.00  0.00     0.237 C 
BRANCH   2   3
ATOM      3  N   UNL     1      30.051   6.252 144.849  1.00  0.00    -0.350 N 
ATOM      4  H   UNL     1      30.033   7.277 144.641  1.00  0.00     0.345 HD
ATOM      5  H   UNL     1      29.725   6.094 145.830  1.00  0.00     0.345 HD
ATOM      6  H   UNL     1      31.038   5.919 144.760  1.00  0.00     0.345 HD
ENDBRANCH   2   3
BRANCH   2   7
ATOM      7  C   UNL     1      27.930   6.316 143.649  1.00  0.00     0.100 C 
ATOM      8  O   UNL     1      27.990   7.524 143.299  1.00  0.00    -0.544 OA
ATOM      9  O   UNL     1      26.691   5.707 143.797  1.00  0.00    -0.544 OA
ENDBRANCH   2   7
ENDBRANCH   1   2
BRANCH   1  10
ATOM     10  C   UNL     1      29.890   3.116 143.947  1.00  0.00     0.223 C 
ATOM     11  O   UNL     1      29.705   2.495 142.867  1.00  0.00    -0.275 OA
ATOM     12  N   UNL     1      31.082   2.887 144.699  1.00  0.00    -0.369 N 
ATOM     13  H   UNL     1      31.793   2.199 144.365  1.00  0.00     0.159 HD
ATOM     14  H   UNL     1      31.258   3.407 145.588  1.00  0.00     0.159 HD
ENDBRANCH   1  10
TORSDOF 4
ENDMDL
MODEL 4
REMARK VINA RESULT:    -3.681      2.391      3.017
REMARK INTER + INTRA:          -4.576
REMARK INTER:                  -4.323
REMARK INTRA:                  -0.253
REMARK UNBOUND:                -0.142
REMARK SMILES NC(=O)C[C@H]([NH3+])C(=O)[O-]
REMARK SMILES IDX 4 1 5 2 6 3 7 7 8 8 9 9 2 10 3 11 1 12
REMARK H PARENT 6 4 6 5 6 6 1 13 1 14
REMARK Flexibility Score: inf
ROOT
ATOM      1  C   UNL     1      29.310   2.603 142.877  1.00  0.00     0.171 C 
ENDROOT
BRANCH   1   2
ATOM      2  C   UNL     1      27.779   2.648 143.050  1.00  0.00     0.237 C 
BRANCH   2   3
ATOM      3  N   UNL     1      27.429   3.074 144.410  1.00  0.00    -0.350 N 
ATOM      4  H   UNL     1      26.546   2.602 144.713  1.00  0.00     0.345 HD
ATOM      5  H   UNL     1      28.195   2.835 145.081  1.00  0.00     0.345 HD
ATOM      6  H   UNL     1      27.270   4.107 144.428  1.00  0.00     0.345 HD
ENDBRANCH   2   3
BRANCH   2   7
ATOM      7  C   UNL     1      27.165   1.302 142.756  1.00  0.00     0.100 C 
ATOM      8  O   UNL     1      27.788   0.462 142.057  1.00  0.00    -0.544 OA
ATOM      9  O   UNL     1      25.913   0.977 143.263  1.00  0.00    -0.544 OA
ENDBRANCH   2   7
ENDBRANCH   1   2
BRANCH   1  10
ATOM     10  C   UNL     1      30.006   3.492 143.866  1.00  0.00     0.223 C 
ATOM     11  O   UNL     1      29.668   4.701 143.969  1.00  0.00    -0.275 OA
ATOM     12  N   UNL     1      31.024   2.967 144.718  1.00  0.00    -0.369 N 
ATOM     13  H   UNL     1      31.498   3.583 145.416  1.00  0.00     0.159 HD
ATOM     14  H   UNL     1      31.303   1.963 144.656  1.00  0.00     0.159 HD
ENDBRANCH   1  10
TORSDOF 4
ENDMDL
MODEL 5
REMARK VINA RESULT:    -3.605      1.810      3.803
REMARK INTER + INTRA:          -4.485
REMARK INTER:                  -3.988
REMARK INTRA:                  -0.497
REMARK UNBOUND:                -0.142
REMARK SMILES NC(=O)C[C@H]([NH3+])C(=O)[O-]
REMARK SMILES IDX 4 1 5 2 6 3 7 7 8 8 9 9 2 10 3 11 1 12
REMARK H PARENT 6 4 6 5 6 6 1 13 1 14
REMARK Flexibility Score: inf
ROOT
ATOM      1  C   UNL     1      28.867   3.753 142.577  1.00  0.00     0.171 C 
ENDROOT
BRANCH   1   2
ATOM      2  C   UNL     1      29.454   4.362 143.866  1.00  0.00     0.237 C 
BRANCH   2   3
ATOM      3  N   UNL     1      30.224   3.355 144.605  1.00  0.00    -0.350 N 
ATOM      4  H   UNL     1      30.723   3.808 145.405  1.00  0.00     0.345 HD
ATOM      5  H   UNL     1      29.594   2.604 144.972  1.00  0.00     0.345 HD
ATOM      6  H   UNL     1      30.939   2.924 143.976  1.00  0.00     0.345 HD
ENDBRANCH   2   3
BRANCH   2   7
ATOM      7  C   UNL     1      28.362   4.923 144.741  1.00  0.00     0.100 C 
ATOM      8  O   UNL     1      28.410   6.121 145.123  1.00  0.00    -0.544 OA
ATOM      9  O   UNL     1      27.291   4.124 145.123  1.00  0.00    -0.544 OA
ENDBRANCH   2   7
ENDBRANCH   1   2
BRANCH   1  10
ATOM     10  C   UNL     1      28.730   2.261 142.682  1.00  0.00     0.223 C 
ATOM     11  O   UNL     1      29.670   1.516 142.298  1.00  0.00    -0.275 OA
ATOM     12  N   UNL     1      27.555   1.682 143.250  1.00  0.00    -0.369 N 
ATOM     13  H   UNL     1      27.467   0.645 143.335  1.00  0.00     0.159 HD
ATOM     14  H   UNL     1      26.774   2.287 143.589  1.00  0.00     0.159 HD
ENDBRANCH   1  10
TORSDOF 4
ENDMDL
MODEL 6
REMARK VINA RESULT:    -3.591     16.123     16.962
REMARK INTER + INTRA:          -4.468
REMARK INTER:                  -4.128
REMARK INTRA:                  -0.340
REMARK UNBOUND:                -0.142
REMARK SMILES NC(=O)C[C@H]([NH3+])C(=O)[O-]
REMARK SMILES IDX 4 1 5 2 6 3 7 7 8 8 9 9 2 10 3 11 1 12
REMARK H PARENT 6 4 6 5 6 6 1 13 1 14
REMARK Flexibility Score: inf
ROOT
ATOM      1  C   UNL     1      27.302  17.177 133.953  1.00  0.00     0.171 C 
ENDROOT
BRANCH   1   2
ATOM      2  C   UNL     1      25.914  17.677 134.399  1.00  0.00     0.237 C 
BRANCH   2   3
ATOM      3  N   UNL     1      25.777  19.114 134.133  1.00  0.00    -0.350 N 
ATOM      4  H   UNL     1      26.710  19.520 133.894  1.00  0.00     0.345 HD
ATOM      5  H   UNL     1      25.114  19.282 133.342  1.00  0.00     0.345 HD
ATOM      6  H   UNL     1      25.419  19.599 134.988  1.00  0.00     0.345 HD
ENDBRANCH   2   3
BRANCH   2   7
ATOM      7  C   UNL     1      25.687  17.398 135.863  1.00  0.00     0.100 C 
ATOM      8  O   UNL     1      26.577  16.824 136.543  1.00  0.00    -0.544 OA
ATOM      9  O   UNL     1      24.499  17.781 136.474  1.00  0.00    -0.544 OA
ENDBRANCH   2   7
ENDBRANCH   1   2
BRANCH   1  10
ATOM     10  C   UNL     1      28.214  18.316 133.601  1.00  0.00     0.223 C 
ATOM     11  O   UNL     1      28.629  19.091 134.504  1.00  0.00    -0.275 OA
ATOM     12  N   UNL     1      28.646  18.506 132.253  1.00  0.00    -0.369 N 
ATOM     13  H   UNL     1      29.291  19.290 132.011  1.00  0.00     0.159 HD
ATOM     14  H   UNL     1      28.325  17.862 131.496  1.00  0.00     0.159 HD
ENDBRANCH   1  10
TORSDOF 4
ENDMDL
MODEL 7
REMARK VINA RESULT:    -3.436     12.868     13.772
REMARK INTER + INTRA:          -4.281
REMARK INTER:                  -3.871
REMARK INTRA:                  -0.410
REMARK UNBOUND:                -0.142
REMARK SMILES NC(=O)C[C@H]([NH3+])C(=O)[O-]
REMARK SMILES IDX 4 1 5 2 6 3 7 7 8 8 9 9 2 10 3 11 1 12
REMARK H PARENT 6 4 6 5 6 6 1 13 1 14
REMARK Flexibility Score: inf
ROOT
ATOM      1  C   UNL     1      35.619  14.387 139.470  1.00  0.00     0.171 C 
ENDROOT
BRANCH   1   2
ATOM      2  C   UNL     1      36.594  15.056 138.481  1.00  0.00     0.237 C 
BRANCH   2   3
ATOM      3  N   UNL     1      36.746  16.481 138.796  1.00  0.00    -0.350 N 
ATOM      4  H   UNL     1      36.526  17.056 137.950  1.00  0.00     0.345 HD
ATOM      5  H   UNL     1      36.107  16.758 139.577  1.00  0.00     0.345 HD
ATOM      6  H   UNL     1      37.734  16.678 139.077  1.00  0.00     0.345 HD
ENDBRANCH   2   3
BRANCH   2   7
ATOM      7  C   UNL     1      36.118  14.889 137.060  1.00  0.00     0.100 C 
ATOM      8  O   UNL     1      36.210  15.844 136.246  1.00  0.00    -0.544 OA
ATOM      9  O   UNL     1      35.584  13.678 136.638  1.00  0.00    -0.544 OA
ENDBRANCH   2   7
ENDBRANCH   1   2
BRANCH   1  10
ATOM     10  C   UNL     1      34.241  14.972 139.370  1.00  0.00     0.223 C 
ATOM     11  O   UNL     1      34.038  16.163 139.727  1.00  0.00    -0.275 OA
ATOM     12  N   UNL     1      33.164  14.200 138.838  1.00  0.00    -0.369 N 
ATOM     13  H   UNL     1      32.209  14.613 138.756  1.00  0.00     0.159 HD
ATOM     14  H   UNL     1      33.320  13.217 138.522  1.00  0.00     0.159 HD
ENDBRANCH   1  10
TORSDOF 4
ENDMDL
MODEL 8
REMARK VINA RESULT:    -3.420     11.753     12.586
REMARK INTER + INTRA:          -4.262
REMARK INTER:                  -3.801
REMARK INTRA:                  -0.461
REMARK UNBOUND:                -0.142
REMARK SMILES NC(=O)C[C@H]([NH3+])C(=O)[O-]
REMARK SMILES IDX 4 1 5 2 6 3 7 7 8 8 9 9 2 10 3 11 1 12
REMARK H PARENT 6 4 6 5 6 6 1 13 1 14
REMARK Flexibility Score: inf
ROOT
ATOM      1  C   UNL     1      24.157  15.322 143.822  1.00  0.00     0.171 C 
ENDROOT
BRANCH   1   2
ATOM      2  C   UNL     1      25.642  15.173 143.435  1.00  0.00     0.237 C 
BRANCH   2   3
ATOM      3  N   UNL     1      26.430  16.280 143.989  1.00  0.00    -0.350 N 
ATOM      4  H   UNL     1      27.403  16.247 143.608  1.00  0.00     0.345 HD
ATOM      5  H   UNL     1      25.995  17.201 143.747  1.00  0.00     0.345 HD
ATOM      6  H   UNL     1      26.483  16.191 145.030  1.00  0.00     0.345 HD
ENDBRANCH   2   3
BRANCH   2   7
ATOM      7  C   UNL     1      25.804  15.122 141.937  1.00  0.00     0.100 C 
ATOM      8  O   UNL     1      26.953  15.085 141.427  1.00  0.00    -0.544 OA
ATOM      9  O   UNL     1      24.687  15.106 141.111  1.00  0.00    -0.544 OA
ENDBRANCH   2   7
ENDBRANCH   1   2
BRANCH   1  10
ATOM     10  C   UNL     1      23.730  16.761 143.836  1.00  0.00     0.223 C 
ATOM     11  O   UNL     1      23.934  17.466 144.860  1.00  0.00    -0.275 OA
ATOM     12  N   UNL     1      23.127  17.347 142.683  1.00  0.00    -0.369 N 
ATOM     13  H   UNL     1      22.843  18.352 142.688  1.00  0.00     0.159 HD
ATOM     14  H   UNL     1      22.967  16.780 141.820  1.00  0.00     0.159 HD
ENDBRANCH   1  10
TORSDOF 4
ENDMDL
MODEL 9
REMARK VINA RESULT:    -3.385     15.377     16.228
REMARK INTER + INTRA:          -4.219
REMARK INTER:                  -3.708
REMARK INTRA:                  -0.511
REMARK UNBOUND:                -0.142
REMARK SMILES NC(=O)C[C@H]([NH3+])C(=O)[O-]
REMARK SMILES IDX 4 1 5 2 6 3 7 7 8 8 9 9 2 10 3 11 1 12
REMARK H PARENT 6 4 6 5 6 6 1 13 1 14
REMARK Flexibility Score: inf
ROOT
ATOM      1  C   UNL     1      26.555  16.647 134.514  1.00  0.00     0.171 C 
ENDROOT
BRANCH   1   2
ATOM      2  C   UNL     1      27.814  16.628 135.404  1.00  0.00     0.237 C 
BRANCH   2   3
ATOM      3  N   UNL     1      27.529  17.236 136.709  1.00  0.00    -0.350 N 
ATOM      4  H   UNL     1      27.498  18.277 136.616  1.00  0.00     0.345 HD
ATOM      5  H   UNL     1      26.612  16.896 137.083  1.00  0.00     0.345 HD
ATOM      6  H   UNL     1      28.286  16.990 137.387  1.00  0.00     0.345 HD
ENDBRANCH   2   3
BRANCH   2   7
ATOM      7  C   UNL     1      28.956  17.352 134.736  1.00  0.00     0.100 C 
ATOM      8  O   UNL     1      29.882  16.701 134.187  1.00  0.00    -0.544 OA
ATOM      9  O   UNL     1      28.988  18.741 134.714  1.00  0.00    -0.544 OA
ENDBRANCH   2   7
ENDBRANCH   1   2
BRANCH   1  10
ATOM     10  C   UNL     1      25.671  17.819 134.830  1.00  0.00     0.223 C 
ATOM     11  O   UNL     1      24.770  17.708 135.703  1.00  0.00    -0.275 OA
ATOM     12  N   UNL     1      25.869  19.071 134.173  1.00  0.00    -0.369 N 
ATOM     13  H   UNL     1      25.263  19.889 134.404  1.00  0.00     0.159 HD
ATOM     14  H   UNL     1      26.622  19.184 133.459  1.00  0.00     0.159 HD
ENDBRANCH   1  10
TORSDOF 4
ENDMDL
