MODEL 1
REMARK VINA RESULT:    -4.133      0.000      0.000
REMARK INTER + INTRA:          -6.445
REMARK INTER:                  -6.308
REMARK INTRA:                  -0.138
REMARK UNBOUND:                -0.138
REMARK SMILES CC1=CCC[C@@H](C)C(=O)C[C@H](C(C)C)C(=O)C1
REMARK SMILES IDX 8 1 9 2 6 3 7 4 5 5 4 6 3 7 2 8 1 9 10 11 11 12 15 13 16 14
REMARK SMILES IDX 17 15 12 17 13 18 14 19
REMARK H PARENT
REMARK Flexibility Score: 70.00
ROOT
ATOM      1  C   UNL     1       7.012 -18.909  24.728  1.00  0.00     0.136 C 
ATOM      2  O   UNL     1       7.309 -18.527  25.851  1.00  0.00    -0.299 OA
ENDROOT
BRANCH   1   3
ATOM      3  C   UNL     1       6.624 -20.364  24.493  1.00  0.00     0.053 C 
ATOM      4  C   UNL     1       6.688 -21.199  25.783  1.00  0.00     0.016 C 
BRANCH   3   5
ATOM      5  C   UNL     1       7.457 -21.018  23.368  1.00  0.00     0.015 C 
BRANCH   5   6
ATOM      6  C   UNL     1       6.698 -21.127  22.031  1.00  0.00     0.028 C 
BRANCH   6   7
ATOM      7  C   UNL     1       7.611 -21.065  20.833  1.00  0.00    -0.028 C 
ATOM      8  C   UNL     1       8.210 -19.949  20.344  1.00  0.00    -0.070 CG0
ATOM      9  C   UNL     1       9.177 -20.131  19.199  1.00  0.00     0.039 C 
ATOM     10  G   UNL     1       7.922 -18.532  20.834  1.00  0.00     0.000 G0
ENDBRANCH   6   7
ENDBRANCH   5   6
ENDBRANCH   3   5
ENDBRANCH   1   3
BRANCH   1  11
ATOM     11  C   UNL     1       7.001 -17.908  23.596  1.00  0.00     0.087 C 
BRANCH  11  12
ATOM     12  C   UNL     1       8.429 -17.445  23.189  1.00  0.00     0.066 C 
BRANCH  12  13
ATOM     13  C   UNL     1       8.872 -17.951  21.819  1.00  0.00     0.140 C 
ATOM     14  O   UNL     1      10.033 -17.771  21.478  1.00  0.00    -0.299 OA
BRANCH  13  15
ATOM     15  C   UNL     1       7.905 -18.524  20.810  1.00  0.00     0.106 CG0
ATOM     16  G   UNL     1       8.230 -19.948  20.366  1.00  0.00     0.000 G0
ENDBRANCH  13  15
ENDBRANCH  12  13
BRANCH  12  17
ATOM     17  C   UNL     1       8.651 -15.902  23.320  1.00  0.00    -0.006 C 
ATOM     18  C   UNL     1       7.476 -15.049  22.808  1.00  0.00     0.008 C 
ATOM     19  C   UNL     1       8.983 -15.503  24.767  1.00  0.00     0.008 C 
ENDBRANCH  12  17
ENDBRANCH  11  12
ENDBRANCH   1  11
TORSDOF 1
ENDMDL
MODEL 2
REMARK VINA RESULT:    -3.961      1.547      2.379
REMARK INTER + INTRA:          -6.182
REMARK INTER:                  -6.077
REMARK INTRA:                  -0.105
REMARK UNBOUND:                -0.138
REMARK SMILES CC1=CCC[C@@H](C)C(=O)C[C@H](C(C)C)C(=O)C1
REMARK SMILES IDX 8 1 9 2 6 3 7 4 5 5 4 6 3 7 2 8 1 9 10 11 11 12 15 13 16 14
REMARK SMILES IDX 17 15 12 17 13 18 14 19
REMARK H PARENT
REMARK Flexibility Score: 70.00
ROOT
ATOM      1  C   UNL     1       9.045 -18.036  23.183  1.00  0.00     0.136 C 
ATOM      2  O   UNL     1       9.956 -18.849  23.245  1.00  0.00    -0.299 OA
ENDROOT
BRANCH   1   3
ATOM      3  C   UNL     1       7.723 -18.314  23.889  1.00  0.00     0.053 C 
ATOM      4  C   UNL     1       7.636 -17.619  25.259  1.00  0.00     0.016 C 
BRANCH   3   5
ATOM      5  C   UNL     1       7.434 -19.826  24.016  1.00  0.00     0.015 C 
BRANCH   5   6
ATOM      6  C   UNL     1       6.584 -20.384  22.858  1.00  0.00     0.028 C 
BRANCH   6   7
ATOM      7  C   UNL     1       7.413 -21.062  21.797  1.00  0.00    -0.028 C 
ATOM      8  C   UNL     1       7.903 -20.477  20.673  1.00  0.00    -0.070 CG0
ATOM      9  C   UNL     1       8.806 -21.313  19.799  1.00  0.00     0.039 C 
ATOM     10  G   UNL     1       7.550 -19.065  20.213  1.00  0.00     0.000 G0
ENDBRANCH   6   7
ENDBRANCH   5   6
ENDBRANCH   3   5
ENDBRANCH   1   3
BRANCH   1  11
ATOM     11  C   UNL     1       9.269 -16.745  22.431  1.00  0.00     0.087 C 
BRANCH  11  12
ATOM     12  C   UNL     1       8.594 -16.740  21.029  1.00  0.00     0.066 C 
BRANCH  12  13
ATOM     13  C   UNL     1       8.694 -18.074  20.295  1.00  0.00     0.140 C 
ATOM     14  O   UNL     1       9.702 -18.305  19.640  1.00  0.00    -0.299 OA
BRANCH  13  15
ATOM     15  C   UNL     1       7.544 -19.050  20.217  1.00  0.00     0.106 CG0
ATOM     16  G   UNL     1       7.894 -20.470  20.656  1.00  0.00     0.000 G0
ENDBRANCH  13  15
ENDBRANCH  12  13
BRANCH  12  17
ATOM     17  C   UNL     1       7.122 -16.211  21.042  1.00  0.00    -0.006 C 
ATOM     18  C   UNL     1       6.801 -15.266  22.214  1.00  0.00     0.008 C 
ATOM     19  C   UNL     1       6.760 -15.525  19.714  1.00  0.00     0.008 C 
ENDBRANCH  12  17
ENDBRANCH  11  12
ENDBRANCH   1  11
TORSDOF 1
ENDMDL
MODEL 3
REMARK VINA RESULT:    -3.956      2.800      4.145
REMARK INTER + INTRA:          -6.174
REMARK INTER:                  -5.822
REMARK INTRA:                  -0.352
REMARK UNBOUND:                -0.138
REMARK SMILES CC1=CCC[C@@H](C)C(=O)C[C@H](C(C)C)C(=O)C1
REMARK SMILES IDX 8 1 9 2 6 3 7 4 5 5 4 6 3 7 2 8 1 9 10 11 11 12 15 13 16 14
REMARK SMILES IDX 17 15 12 17 13 18 14 19
REMARK H PARENT
REMARK Flexibility Score: 70.00
ROOT
ATOM      1  C   UNL     1       8.130 -16.021  23.337  1.00  0.00     0.136 C 
ATOM      2  O   UNL     1       7.856 -14.831  23.271  1.00  0.00    -0.299 OA
ENDROOT
BRANCH   1   3
ATOM      3  C   UNL     1       9.133 -16.519  24.370  1.00  0.00     0.053 C 
ATOM      4  C   UNL     1       8.627 -16.330  25.811  1.00  0.00     0.016 C 
BRANCH   3   5
ATOM      5  C   UNL     1      10.529 -15.883  24.186  1.00  0.00     0.015 C 
BRANCH   5   6
ATOM      6  C   UNL     1      11.306 -16.455  22.984  1.00  0.00     0.028 C 
BRANCH   6   7
ATOM      7  C   UNL     1      11.471 -17.952  23.053  1.00  0.00    -0.028 C 
ATOM      8  C   UNL     1      11.161 -18.834  22.067  1.00  0.00    -0.070 CG0
ATOM      9  C   UNL     1      11.512 -20.283  22.304  1.00  0.00     0.039 C 
ATOM     10  G   UNL     1      10.432 -18.463  20.778  1.00  0.00     0.000 G0
ENDBRANCH   6   7
ENDBRANCH   5   6
ENDBRANCH   3   5
ENDBRANCH   1   3
BRANCH   1  11
ATOM     11  C   UNL     1       7.431 -16.983  22.404  1.00  0.00     0.087 C 
BRANCH  11  12
ATOM     12  C   UNL     1       8.158 -17.132  21.037  1.00  0.00     0.066 C 
BRANCH  12  13
ATOM     13  C   UNL     1       8.924 -18.443  20.889  1.00  0.00     0.140 C 
ATOM     14  O   UNL     1       8.308 -19.494  21.000  1.00  0.00    -0.299 OA
BRANCH  13  15
ATOM     15  C   UNL     1      10.428 -18.498  20.765  1.00  0.00     0.106 CG0
ATOM     16  G   UNL     1      11.154 -18.854  22.060  1.00  0.00     0.000 G0
ENDBRANCH  13  15
ENDBRANCH  12  13
BRANCH  12  17
ATOM     17  C   UNL     1       7.233 -16.875  19.802  1.00  0.00    -0.006 C 
ATOM     18  C   UNL     1       6.475 -15.536  19.848  1.00  0.00     0.008 C 
ATOM     19  C   UNL     1       8.016 -16.978  18.483  1.00  0.00     0.008 C 
ENDBRANCH  12  17
ENDBRANCH  11  12
ENDBRANCH   1  11
TORSDOF 1
ENDMDL
MODEL 4
REMARK VINA RESULT:    -3.939      2.270      5.083
REMARK INTER + INTRA:          -6.149
REMARK INTER:                  -5.931
REMARK INTRA:                  -0.219
REMARK UNBOUND:                -0.138
REMARK SMILES CC1=CCC[C@@H](C)C(=O)C[C@H](C(C)C)C(=O)C1
REMARK SMILES IDX 8 1 9 2 6 3 7 4 5 5 4 6 3 7 2 8 1 9 10 11 11 12 15 13 16 14
REMARK SMILES IDX 17 15 12 17 13 18 14 19
REMARK H PARENT
REMARK Flexibility Score: 70.00
ROOT
ATOM      1  C   UNL     1      10.884 -19.055  23.328  1.00  0.00     0.136 C 
ATOM      2  O   UNL     1      11.747 -19.879  23.596  1.00  0.00    -0.299 OA
ENDROOT
BRANCH   1   3
ATOM      3  C   UNL     1      10.997 -17.631  23.855  1.00  0.00     0.053 C 
ATOM      4  C   UNL     1      12.352 -16.988  23.513  1.00  0.00     0.016 C 
BRANCH   3   5
ATOM      5  C   UNL     1      10.709 -17.543  25.371  1.00  0.00     0.015 C 
BRANCH   5   6
ATOM      6  C   UNL     1       9.463 -16.701  25.708  1.00  0.00     0.028 C 
BRANCH   6   7
ATOM      7  C   UNL     1       9.130 -15.693  24.638  1.00  0.00    -0.028 C 
ATOM      8  C   UNL     1       8.072 -15.752  23.788  1.00  0.00    -0.070 CG0
ATOM      9  C   UNL     1       7.863 -14.576  22.866  1.00  0.00     0.039 C 
ATOM     10  G   UNL     1       7.131 -16.948  23.667  1.00  0.00     0.000 G0
ENDBRANCH   6   7
ENDBRANCH   5   6
ENDBRANCH   3   5
ENDBRANCH   1   3
BRANCH   1  11
ATOM     11  C   UNL     1       9.734 -19.468  22.439  1.00  0.00     0.087 C 
BRANCH  11  12
ATOM     12  C   UNL     1       8.348 -19.266  23.116  1.00  0.00     0.066 C 
BRANCH  12  13
ATOM     13  C   UNL     1       7.619 -18.005  22.661  1.00  0.00     0.140 C 
ATOM     14  O   UNL     1       7.542 -17.777  21.461  1.00  0.00    -0.299 OA
BRANCH  13  15
ATOM     15  C   UNL     1       7.125 -16.955  23.627  1.00  0.00     0.106 CG0
ATOM     16  G   UNL     1       8.062 -15.760  23.790  1.00  0.00     0.000 G0
ENDBRANCH  13  15
ENDBRANCH  12  13
BRANCH  12  17
ATOM     17  C   UNL     1       7.417 -20.520  23.028  1.00  0.00    -0.006 C 
ATOM     18  C   UNL     1       8.070 -21.746  22.365  1.00  0.00     0.008 C 
ATOM     19  C   UNL     1       6.870 -20.913  24.410  1.00  0.00     0.008 C 
ENDBRANCH  12  17
ENDBRANCH  11  12
ENDBRANCH   1  11
TORSDOF 1
ENDMDL
MODEL 5
REMARK VINA RESULT:    -3.923      2.080      5.454
REMARK INTER + INTRA:          -6.125
REMARK INTER:                  -5.721
REMARK INTRA:                  -0.404
REMARK UNBOUND:                -0.138
REMARK SMILES CC1=CCC[C@@H](C)C(=O)C[C@H](C(C)C)C(=O)C1
REMARK SMILES IDX 8 1 9 2 6 3 7 4 5 5 4 6 3 7 2 8 1 9 10 11 11 12 15 13 16 14
REMARK SMILES IDX 17 15 12 17 13 18 14 19
REMARK H PARENT
REMARK Flexibility Score: 70.00
ROOT
ATOM      1  C   UNL     1       8.054 -19.817  19.533  1.00  0.00     0.136 C 
ATOM      2  O   UNL     1       8.841 -20.464  18.856  1.00  0.00    -0.299 OA
ENDROOT
BRANCH   1   3
ATOM      3  C   UNL     1       7.771 -18.359  19.191  1.00  0.00     0.053 C 
ATOM      4  C   UNL     1       7.908 -18.076  17.685  1.00  0.00     0.016 C 
BRANCH   3   5
ATOM      5  C   UNL     1       8.640 -17.385  20.019  1.00  0.00     0.015 C 
BRANCH   5   6
ATOM      6  C   UNL     1       7.837 -16.596  21.071  1.00  0.00     0.028 C 
BRANCH   6   7
ATOM      7  C   UNL     1       8.456 -16.655  22.445  1.00  0.00    -0.028 C 
ATOM      8  C   UNL     1       8.188 -17.583  23.400  1.00  0.00    -0.070 CG0
ATOM      9  C   UNL     1       9.006 -17.522  24.667  1.00  0.00     0.039 C 
ATOM     10  G   UNL     1       7.082 -18.630  23.298  1.00  0.00     0.000 G0
ENDBRANCH   6   7
ENDBRANCH   5   6
ENDBRANCH   3   5
ENDBRANCH   1   3
BRANCH   1  11
ATOM     11  C   UNL     1       7.346 -20.499  20.680  1.00  0.00     0.087 C 
BRANCH  11  12
ATOM     12  C   UNL     1       8.238 -20.624  21.948  1.00  0.00     0.066 C 
BRANCH  12  13
ATOM     13  C   UNL     1       7.591 -20.066  23.213  1.00  0.00     0.140 C 
ATOM     14  O   UNL     1       7.357 -20.835  24.135  1.00  0.00    -0.299 OA
BRANCH  13  15
ATOM     15  C   UNL     1       7.091 -18.645  23.313  1.00  0.00     0.106 CG0
ATOM     16  G   UNL     1       8.196 -17.595  23.406  1.00  0.00     0.000 G0
ENDBRANCH  13  15
ENDBRANCH  12  13
BRANCH  12  17
ATOM     17  C   UNL     1       8.792 -22.068  22.186  1.00  0.00    -0.006 C 
ATOM     18  C   UNL     1       8.140 -23.148  21.305  1.00  0.00     0.008 C 
ATOM     19  C   UNL     1      10.320 -22.119  22.016  1.00  0.00     0.008 C 
ENDBRANCH  12  17
ENDBRANCH  11  12
ENDBRANCH   1  11
TORSDOF 1
ENDMDL
MODEL 6
REMARK VINA RESULT:    -3.860      2.500      2.843
REMARK INTER + INTRA:          -6.029
REMARK INTER:                  -5.653
REMARK INTRA:                  -0.376
REMARK UNBOUND:                -0.138
REMARK SMILES CC1=CCC[C@@H](C)C(=O)C[C@H](C(C)C)C(=O)C1
REMARK SMILES IDX 8 1 9 2 6 3 7 4 5 5 4 6 3 7 2 8 1 9 10 11 11 12 15 13 16 14
REMARK SMILES IDX 17 15 12 17 13 18 14 19
REMARK H PARENT
REMARK Flexibility Score: 70.00
ROOT
ATOM      1  C   UNL     1       7.568 -18.415  23.016  1.00  0.00     0.136 C 
ATOM      2  O   UNL     1       6.927 -17.587  23.649  1.00  0.00    -0.299 OA
ENDROOT
BRANCH   1   3
ATOM      3  C   UNL     1       6.959 -19.775  22.702  1.00  0.00     0.053 C 
ATOM      4  C   UNL     1       6.891 -20.684  23.941  1.00  0.00     0.016 C 
BRANCH   3   5
ATOM      5  C   UNL     1       7.681 -20.485  21.534  1.00  0.00     0.015 C 
BRANCH   5   6
ATOM      6  C   UNL     1       8.600 -21.633  21.992  1.00  0.00     0.028 C 
BRANCH   6   7
ATOM      7  C   UNL     1       9.867 -21.729  21.181  1.00  0.00    -0.028 C 
ATOM      8  C   UNL     1      11.110 -21.375  21.599  1.00  0.00    -0.070 CG0
ATOM      9  C   UNL     1      12.259 -21.659  20.662  1.00  0.00     0.039 C 
ATOM     10  G   UNL     1      11.405 -20.658  22.915  1.00  0.00     0.000 G0
ENDBRANCH   6   7
ENDBRANCH   5   6
ENDBRANCH   3   5
ENDBRANCH   1   3
BRANCH   1  11
ATOM     11  C   UNL     1       8.949 -18.048  22.525  1.00  0.00     0.087 C 
BRANCH  11  12
ATOM     12  C   UNL     1      10.069 -18.432  23.535  1.00  0.00     0.066 C 
BRANCH  12  13
ATOM     13  C   UNL     1      11.250 -19.156  22.896  1.00  0.00     0.140 C 
ATOM     14  O   UNL     1      12.040 -18.505  22.227  1.00  0.00    -0.299 OA
BRANCH  13  15
ATOM     15  C   UNL     1      11.399 -20.659  22.928  1.00  0.00     0.106 CG0
ATOM     16  G   UNL     1      11.108 -21.348  21.597  1.00  0.00     0.000 G0
ENDBRANCH  13  15
ENDBRANCH  12  13
BRANCH  12  17
ATOM     17  C   UNL     1      10.550 -17.238  24.423  1.00  0.00    -0.006 C 
ATOM     18  C   UNL     1      10.238 -15.849  23.838  1.00  0.00     0.008 C 
ATOM     19  C   UNL     1       9.984 -17.334  25.850  1.00  0.00     0.008 C 
ENDBRANCH  12  17
ENDBRANCH  11  12
ENDBRANCH   1  11
TORSDOF 1
ENDMDL
MODEL 7
REMARK VINA RESULT:    -3.808      2.084      4.164
REMARK INTER + INTRA:          -5.948
REMARK INTER:                  -5.767
REMARK INTRA:                  -0.182
REMARK UNBOUND:                -0.138
REMARK SMILES CC1=CCC[C@@H](C)C(=O)C[C@H](C(C)C)C(=O)C1
REMARK SMILES IDX 8 1 9 2 6 3 7 4 5 5 4 6 3 7 2 8 1 9 10 11 11 12 15 13 16 14
REMARK SMILES IDX 17 15 12 17 13 18 14 19
REMARK H PARENT
REMARK Flexibility Score: 70.00
ROOT
ATOM      1  C   UNL     1       8.893 -21.236  20.153  1.00  0.00     0.136 C 
ATOM      2  O   UNL     1       8.495 -21.748  19.115  1.00  0.00    -0.299 OA
ENDROOT
BRANCH   1   3
ATOM      3  C   UNL     1       8.511 -21.840  21.498  1.00  0.00     0.053 C 
ATOM      4  C   UNL     1       8.592 -23.377  21.491  1.00  0.00     0.016 C 
BRANCH   3   5
ATOM      5  C   UNL     1       7.125 -21.361  21.984  1.00  0.00     0.015 C 
BRANCH   5   6
ATOM      6  C   UNL     1       7.129 -20.855  23.439  1.00  0.00     0.028 C 
BRANCH   6   7
ATOM      7  C   UNL     1       6.817 -19.384  23.549  1.00  0.00    -0.028 C 
ATOM      8  C   UNL     1       7.712 -18.369  23.429  1.00  0.00    -0.070 CG0
ATOM      9  C   UNL     1       7.165 -16.963  23.461  1.00  0.00     0.039 C 
ATOM     10  G   UNL     1       9.223 -18.560  23.327  1.00  0.00     0.000 G0
ENDBRANCH   6   7
ENDBRANCH   5   6
ENDBRANCH   3   5
ENDBRANCH   1   3
BRANCH   1  11
ATOM     11  C   UNL     1       9.793 -20.025  20.071  1.00  0.00     0.087 C 
BRANCH  11  12
ATOM     12  C   UNL     1       9.143 -18.749  20.679  1.00  0.00     0.066 C 
BRANCH  12  13
ATOM     13  C   UNL     1       9.812 -18.274  21.966  1.00  0.00     0.140 C 
ATOM     14  O   UNL     1      10.922 -17.766  21.892  1.00  0.00    -0.299 OA
BRANCH  13  15
ATOM     15  C   UNL     1       9.229 -18.541  23.333  1.00  0.00     0.106 CG0
ATOM     16  G   UNL     1       7.712 -18.388  23.412  1.00  0.00     0.000 G0
ENDBRANCH  13  15
ENDBRANCH  12  13
BRANCH  12  17
ATOM     17  C   UNL     1       8.986 -17.576  19.656  1.00  0.00    -0.006 C 
ATOM     18  C   UNL     1       9.226 -17.979  18.190  1.00  0.00     0.008 C 
ATOM     19  C   UNL     1       7.611 -16.900  19.785  1.00  0.00     0.008 C 
ENDBRANCH  12  17
ENDBRANCH  11  12
ENDBRANCH   1  11
TORSDOF 1
ENDMDL
MODEL 8
REMARK VINA RESULT:    -3.722      2.469      4.564
REMARK INTER + INTRA:          -5.818
REMARK INTER:                  -5.742
REMARK INTRA:                  -0.076
REMARK UNBOUND:                -0.138
REMARK SMILES CC1=CCC[C@@H](C)C(=O)C[C@H](C(C)C)C(=O)C1
REMARK SMILES IDX 8 1 9 2 6 3 7 4 5 5 4 6 3 7 2 8 1 9 10 11 11 12 15 13 16 14
REMARK SMILES IDX 17 15 12 17 13 18 14 19
REMARK H PARENT
REMARK Flexibility Score: 70.00
ROOT
ATOM      1  C   UNL     1       8.308 -17.976  23.761  1.00  0.00     0.136 C 
ATOM      2  O   UNL     1       8.811 -18.835  24.472  1.00  0.00    -0.299 OA
ENDROOT
BRANCH   1   3
ATOM      3  C   UNL     1       8.087 -16.569  24.303  1.00  0.00     0.053 C 
ATOM      4  C   UNL     1       7.489 -15.625  23.245  1.00  0.00     0.016 C 
BRANCH   3   5
ATOM      5  C   UNL     1       9.372 -15.970  24.917  1.00  0.00     0.015 C 
BRANCH   5   6
ATOM      6  C   UNL     1      10.414 -15.550  23.863  1.00  0.00     0.028 C 
BRANCH   6   7
ATOM      7  C   UNL     1      11.624 -16.449  23.843  1.00  0.00    -0.028 C 
ATOM      8  C   UNL     1      12.128 -17.082  22.752  1.00  0.00    -0.070 CG0
ATOM      9  C   UNL     1      13.417 -17.847  22.935  1.00  0.00     0.039 C 
ATOM     10  G   UNL     1      11.448 -17.119  21.386  1.00  0.00     0.000 G0
ENDBRANCH   6   7
ENDBRANCH   5   6
ENDBRANCH   3   5
ENDBRANCH   1   3
BRANCH   1  11
ATOM     11  C   UNL     1       7.947 -18.327  22.337  1.00  0.00     0.087 C 
BRANCH  11  12
ATOM     12  C   UNL     1       8.839 -17.597  21.292  1.00  0.00     0.066 C 
BRANCH  12  13
ATOM     13  C   UNL     1      10.287 -18.079  21.277  1.00  0.00     0.140 C 
ATOM     14  O   UNL     1      10.500 -19.283  21.304  1.00  0.00    -0.299 OA
BRANCH  13  15
ATOM     15  C   UNL     1      11.461 -17.135  21.383  1.00  0.00     0.106 CG0
ATOM     16  G   UNL     1      12.119 -17.103  22.760  1.00  0.00     0.000 G0
ENDBRANCH  13  15
ENDBRANCH  12  13
BRANCH  12  17
ATOM     17  C   UNL     1       8.233 -17.581  19.850  1.00  0.00    -0.006 C 
ATOM     18  C   UNL     1       7.472 -18.864  19.470  1.00  0.00     0.008 C 
ATOM     19  C   UNL     1       7.322 -16.361  19.637  1.00  0.00     0.008 C 
ENDBRANCH  12  17
ENDBRANCH  11  12
ENDBRANCH   1  11
TORSDOF 1
ENDMDL
MODEL 9
REMARK VINA RESULT:    -3.699      3.162      5.332
REMARK INTER + INTRA:          -5.783
REMARK INTER:                  -5.333
REMARK INTRA:                  -0.450
REMARK UNBOUND:                -0.138
REMARK SMILES CC1=CCC[C@@H](C)C(=O)C[C@H](C(C)C)C(=O)C1
REMARK SMILES IDX 8 1 9 2 6 3 7 4 5 5 4 6 3 7 2 8 1 9 10 11 11 12 15 13 16 14
REMARK SMILES IDX 17 15 12 17 13 18 14 19
REMARK H PARENT
REMARK Flexibility Score: 70.00
ROOT
ATOM      1  C   UNL     1      11.147 -20.593  22.293  1.00  0.00     0.136 C 
ATOM      2  O   UNL     1      10.819 -21.769  22.210  1.00  0.00    -0.299 OA
ENDROOT
BRANCH   1   3
ATOM      3  C   UNL     1      12.459 -20.211  22.966  1.00  0.00     0.053 C 
ATOM      4  C   UNL     1      13.454 -21.384  23.011  1.00  0.00     0.016 C 
BRANCH   3   5
ATOM      5  C   UNL     1      12.243 -19.613  24.374  1.00  0.00     0.015 C 
BRANCH   5   6
ATOM      6  C   UNL     1      12.390 -18.080  24.415  1.00  0.00     0.028 C 
BRANCH   6   7
ATOM      7  C   UNL     1      11.304 -17.409  25.218  1.00  0.00    -0.028 C 
ATOM      8  C   UNL     1      10.120 -16.955  24.733  1.00  0.00    -0.070 CG0
ATOM      9  C   UNL     1       9.127 -16.415  25.734  1.00  0.00     0.039 C 
ATOM     10  G   UNL     1       9.761 -16.900  23.250  1.00  0.00     0.000 G0
ENDBRANCH   6   7
ENDBRANCH   5   6
ENDBRANCH   3   5
ENDBRANCH   1   3
BRANCH   1  11
ATOM     11  C   UNL     1      10.247 -19.542  21.687  1.00  0.00     0.087 C 
BRANCH  11  12
ATOM     12  C   UNL     1       8.937 -19.330  22.498  1.00  0.00     0.066 C 
BRANCH  12  13
ATOM     13  C   UNL     1       8.654 -17.870  22.838  1.00  0.00     0.140 C 
ATOM     14  O   UNL     1       7.526 -17.435  22.651  1.00  0.00    -0.299 OA
BRANCH  13  15
ATOM     15  C   UNL     1       9.740 -16.904  23.250  1.00  0.00     0.106 CG0
ATOM     16  G   UNL     1      10.118 -16.977  24.727  1.00  0.00     0.000 G0
ENDBRANCH  13  15
ENDBRANCH  12  13
BRANCH  12  17
ATOM     17  C   UNL     1       7.684 -20.014  21.857  1.00  0.00    -0.006 C 
ATOM     18  C   UNL     1       7.879 -20.444  20.392  1.00  0.00     0.008 C 
ATOM     19  C   UNL     1       7.215 -21.219  22.688  1.00  0.00     0.008 C 
ENDBRANCH  12  17
ENDBRANCH  11  12
ENDBRANCH   1  11
TORSDOF 1
ENDMDL
