MODEL 1
REMARK VINA RESULT:    -3.954      0.000      0.000
REMARK INTER + INTRA:         -14.854
REMARK INTER:                 -10.427
REMARK INTRA:                  -4.427
REMARK UNBOUND:                -4.427
REMARK SMILES CCCCCCCCCCCCCCCCCCCCCCCCCCCCCC(=O)[O-]
REMARK SMILES IDX 16 1 17 2 18 3 19 4 20 5 21 6 22 7 23 8 24 9 25 10 26 11
REMARK SMILES IDX 27 12 28 13 29 14 30 15 31 16 32 17 15 18 14 19 13 20 12 21
REMARK SMILES IDX 11 22 10 23 9 24 8 25 7 26 6 27 5 28 4 29 3 30 2 31 1 32
REMARK H PARENT
REMARK Flexibility Score: inf
ROOT
ATOM      1  C   UNL     1       4.294  -2.058   5.024  1.00  0.00     0.000 C 
ENDROOT
BRANCH   1   2
ATOM      2  C   UNL     1       5.828  -1.928   5.108  1.00  0.00     0.000 C 
BRANCH   2   3
ATOM      3  C   UNL     1       6.418  -2.330   6.475  1.00  0.00     0.000 C 
BRANCH   3   4
ATOM      4  C   UNL     1       7.933  -2.101   6.637  1.00  0.00     0.000 C 
BRANCH   4   5
ATOM      5  C   UNL     1       8.749  -2.199   5.334  1.00  0.00     0.000 C 
BRANCH   5   6
ATOM      6  C   UNL     1       9.605  -0.949   5.076  1.00  0.00     0.000 C 
BRANCH   6   7
ATOM      7  C   UNL     1       8.961   0.334   5.624  1.00  0.00     0.000 C 
BRANCH   7   8
ATOM      8  C   UNL     1       8.001   0.984   4.609  1.00  0.00     0.000 C 
BRANCH   8   9
ATOM      9  C   UNL     1       6.849   1.747   5.281  1.00  0.00     0.000 C 
BRANCH   9  10
ATOM     10  C   UNL     1       6.830   1.551   6.808  1.00  0.00     0.000 C 
BRANCH  10  11
ATOM     11  C   UNL     1       5.478   1.031   7.320  1.00  0.00     0.000 C 
BRANCH  11  12
ATOM     12  C   UNL     1       4.307   1.414   6.395  1.00  0.00     0.000 C 
BRANCH  12  13
ATOM     13  C   UNL     1       3.367   2.464   7.015  1.00  0.00     0.006 C 
BRANCH  13  14
ATOM     14  C   UNL     1       3.569   3.886   6.463  1.00  0.00     0.053 C 
BRANCH  14  15
ATOM     15  C   UNL     1       3.752   3.906   4.977  1.00  0.00     0.041 C 
ATOM     16  O   UNL     1       2.913   3.335   4.230  1.00  0.00    -0.550 OA
ATOM     17  O   UNL     1       4.860   4.528   4.418  1.00  0.00    -0.550 OA
ENDBRANCH  14  15
ENDBRANCH  13  14
ENDBRANCH  12  13
ENDBRANCH  11  12
ENDBRANCH  10  11
ENDBRANCH   9  10
ENDBRANCH   8   9
ENDBRANCH   7   8
ENDBRANCH   6   7
ENDBRANCH   5   6
ENDBRANCH   4   5
ENDBRANCH   3   4
ENDBRANCH   2   3
ENDBRANCH   1   2
BRANCH   1  18
ATOM     18  C   UNL     1       3.673  -2.709   6.273  1.00  0.00     0.000 C 
BRANCH  18  19
ATOM     19  C   UNL     1       2.861  -3.983   5.953  1.00  0.00     0.000 C 
BRANCH  19  20
ATOM     20  C   UNL     1       1.391  -3.718   5.571  1.00  0.00     0.000 C 
BRANCH  20  21
ATOM     21  C   UNL     1       0.358  -3.987   6.683  1.00  0.00     0.000 C 
BRANCH  21  22
ATOM     22  C   UNL     1      -0.516  -5.235   6.430  1.00  0.00     0.000 C 
BRANCH  22  23
ATOM     23  C   UNL     1       0.191  -6.538   6.842  1.00  0.00     0.000 C 
BRANCH  23  24
ATOM     24  C   UNL     1       0.323  -7.537   5.683  1.00  0.00    -0.000 C 
BRANCH  24  25
ATOM     25  C   UNL     1       1.585  -7.294   4.837  1.00  0.00    -0.000 C 
BRANCH  25  26
ATOM     26  C   UNL     1       2.044  -8.548   4.077  1.00  0.00    -0.000 C 
BRANCH  26  27
ATOM     27  C   UNL     1       3.571  -8.725   4.096  1.00  0.00    -0.000 C 
BRANCH  27  28
ATOM     28  C   UNL     1       4.273  -7.626   4.910  1.00  0.00    -0.000 C 
BRANCH  28  29
ATOM     29  C   UNL     1       5.581  -7.154   4.256  1.00  0.00    -0.000 C 
BRANCH  29  30
ATOM     30  C   UNL     1       6.049  -5.824   4.861  1.00  0.00    -0.000 C 
BRANCH  30  31
ATOM     31  C   UNL     1       6.891  -5.030   3.857  1.00  0.00    -0.003 C 
ATOM     32  C   UNL     1       7.794  -5.952   3.042  1.00  0.00     0.004 C 
ENDBRANCH  30  31
ENDBRANCH  29  30
ENDBRANCH  28  29
ENDBRANCH  27  28
ENDBRANCH  26  27
ENDBRANCH  25  26
ENDBRANCH  24  25
ENDBRANCH  23  24
ENDBRANCH  22  23
ENDBRANCH  21  22
ENDBRANCH  20  21
ENDBRANCH  19  20
ENDBRANCH  18  19
ENDBRANCH   1  18
TORSDOF 28
ENDMDL
MODEL 2
REMARK VINA RESULT:    -3.907      3.297      8.920
REMARK INTER + INTRA:         -14.731
REMARK INTER:                 -11.665
REMARK INTRA:                  -3.066
REMARK UNBOUND:                -4.427
REMARK SMILES CCCCCCCCCCCCCCCCCCCCCCCCCCCCCC(=O)[O-]
REMARK SMILES IDX 16 1 17 2 18 3 19 4 20 5 21 6 22 7 23 8 24 9 25 10 26 11
REMARK SMILES IDX 27 12 28 13 29 14 30 15 31 16 32 17 15 18 14 19 13 20 12 21
REMARK SMILES IDX 11 22 10 23 9 24 8 25 7 26 6 27 5 28 4 29 3 30 2 31 1 32
REMARK H PARENT
REMARK Flexibility Score: inf
ROOT
ATOM      1  C   UNL     1       5.526  -8.318   4.707  1.00  0.00     0.000 C 
ENDROOT
BRANCH   1   2
ATOM      2  C   UNL     1       5.257  -8.730   3.245  1.00  0.00     0.000 C 
BRANCH   2   3
ATOM      3  C   UNL     1       4.113  -9.752   3.081  1.00  0.00     0.000 C 
BRANCH   3   4
ATOM      4  C   UNL     1       3.060  -9.755   4.205  1.00  0.00     0.000 C 
BRANCH   4   5
ATOM      5  C   UNL     1       1.770  -8.975   3.890  1.00  0.00     0.000 C 
BRANCH   5   6
ATOM      6  C   UNL     1       1.612  -7.716   4.758  1.00  0.00     0.000 C 
BRANCH   6   7
ATOM      7  C   UNL     1       2.045  -7.943   6.215  1.00  0.00     0.000 C 
BRANCH   7   8
ATOM      8  C   UNL     1       2.614  -6.664   6.860  1.00  0.00     0.000 C 
BRANCH   8   9
ATOM      9  C   UNL     1       3.079  -5.629   5.823  1.00  0.00     0.000 C 
BRANCH   9  10
ATOM     10  C   UNL     1       2.207  -4.361   5.830  1.00  0.00     0.000 C 
BRANCH  10  11
ATOM     11  C   UNL     1       1.024  -4.462   6.804  1.00  0.00     0.000 C 
BRANCH  11  12
ATOM     12  C   UNL     1      -0.022  -3.354   6.583  1.00  0.00     0.000 C 
BRANCH  12  13
ATOM     13  C   UNL     1      -1.471  -3.847   6.748  1.00  0.00     0.006 C 
BRANCH  13  14
ATOM     14  C   UNL     1      -2.533  -2.763   6.494  1.00  0.00     0.053 C 
BRANCH  14  15
ATOM     15  C   UNL     1      -3.859  -3.338   6.104  1.00  0.00     0.041 C 
ATOM     16  O   UNL     1      -4.628  -3.809   6.984  1.00  0.00    -0.550 OA
ATOM     17  O   UNL     1      -4.235  -3.382   4.767  1.00  0.00    -0.550 OA
ENDBRANCH  14  15
ENDBRANCH  13  14
ENDBRANCH  12  13
ENDBRANCH  11  12
ENDBRANCH  10  11
ENDBRANCH   9  10
ENDBRANCH   8   9
ENDBRANCH   7   8
ENDBRANCH   6   7
ENDBRANCH   5   6
ENDBRANCH   4   5
ENDBRANCH   3   4
ENDBRANCH   2   3
ENDBRANCH   1   2
BRANCH   1  18
ATOM     18  C   UNL     1       6.374  -7.040   4.828  1.00  0.00     0.000 C 
BRANCH  18  19
ATOM     19  C   UNL     1       7.088  -6.658   3.513  1.00  0.00     0.000 C 
BRANCH  19  20
ATOM     20  C   UNL     1       7.596  -5.203   3.467  1.00  0.00     0.000 C 
BRANCH  20  21
ATOM     21  C   UNL     1       7.895  -4.562   4.836  1.00  0.00     0.000 C 
BRANCH  21  22
ATOM     22  C   UNL     1       7.108  -3.258   5.096  1.00  0.00     0.000 C 
BRANCH  22  23
ATOM     23  C   UNL     1       5.639  -3.363   4.654  1.00  0.00     0.000 C 
BRANCH  23  24
ATOM     24  C   UNL     1       4.931  -2.001   4.607  1.00  0.00    -0.000 C 
BRANCH  24  25
ATOM     25  C   UNL     1       5.032  -1.238   5.940  1.00  0.00    -0.000 C 
BRANCH  25  26
ATOM     26  C   UNL     1       3.744  -0.477   6.290  1.00  0.00    -0.000 C 
BRANCH  26  27
ATOM     27  C   UNL     1       4.020   0.855   7.005  1.00  0.00    -0.000 C 
BRANCH  27  28
ATOM     28  C   UNL     1       3.022   1.951   6.596  1.00  0.00    -0.000 C 
BRANCH  28  29
ATOM     29  C   UNL     1       3.706   3.301   6.330  1.00  0.00    -0.000 C 
BRANCH  29  30
ATOM     30  C   UNL     1       3.539   3.721   4.864  1.00  0.00    -0.000 C 
BRANCH  30  31
ATOM     31  C   UNL     1       3.719   5.234   4.702  1.00  0.00    -0.003 C 
ATOM     32  C   UNL     1       3.672   5.944   6.052  1.00  0.00     0.004 C 
ENDBRANCH  30  31
ENDBRANCH  29  30
ENDBRANCH  28  29
ENDBRANCH  27  28
ENDBRANCH  26  27
ENDBRANCH  25  26
ENDBRANCH  24  25
ENDBRANCH  23  24
ENDBRANCH  22  23
ENDBRANCH  21  22
ENDBRANCH  20  21
ENDBRANCH  19  20
ENDBRANCH  18  19
ENDBRANCH   1  18
TORSDOF 28
ENDMDL
MODEL 3
REMARK VINA RESULT:    -3.878      3.493      8.484
REMARK INTER + INTRA:         -14.652
REMARK INTER:                  -9.733
REMARK INTRA:                  -4.919
REMARK UNBOUND:                -4.427
REMARK SMILES CCCCCCCCCCCCCCCCCCCCCCCCCCCCCC(=O)[O-]
REMARK SMILES IDX 16 1 17 2 18 3 19 4 20 5 21 6 22 7 23 8 24 9 25 10 26 11
REMARK SMILES IDX 27 12 28 13 29 14 30 15 31 16 32 17 15 18 14 19 13 20 12 21
REMARK SMILES IDX 11 22 10 23 9 24 8 25 7 26 6 27 5 28 4 29 3 30 2 31 1 32
REMARK H PARENT
REMARK Flexibility Score: inf
ROOT
ATOM      1  C   UNL     1       5.534  -8.545   4.572  1.00  0.00     0.000 C 
ENDROOT
BRANCH   1   2
ATOM      2  C   UNL     1       5.244  -9.048   3.143  1.00  0.00     0.000 C 
BRANCH   2   3
ATOM      3  C   UNL     1       4.112 -10.092   3.063  1.00  0.00     0.000 C 
BRANCH   3   4
ATOM      4  C   UNL     1       3.058 -10.016   4.184  1.00  0.00     0.000 C 
BRANCH   4   5
ATOM      5  C   UNL     1       1.721  -9.370   3.777  1.00  0.00     0.000 C 
BRANCH   5   6
ATOM      6  C   UNL     1       1.325  -8.200   4.692  1.00  0.00     0.000 C 
BRANCH   6   7
ATOM      7  C   UNL     1       1.993  -8.276   6.073  1.00  0.00     0.000 C 
BRANCH   7   8
ATOM      8  C   UNL     1       2.349  -6.883   6.627  1.00  0.00     0.000 C 
BRANCH   8   9
ATOM      9  C   UNL     1       2.725  -5.881   5.524  1.00  0.00     0.000 C 
BRANCH   9  10
ATOM     10  C   UNL     1       2.276  -4.447   5.857  1.00  0.00     0.000 C 
BRANCH  10  11
ATOM     11  C   UNL     1       1.690  -4.325   7.272  1.00  0.00     0.000 C 
BRANCH  11  12
ATOM     12  C   UNL     1       0.763  -3.105   7.425  1.00  0.00     0.000 C 
BRANCH  12  13
ATOM     13  C   UNL     1      -0.603  -3.293   6.740  1.00  0.00     0.006 C 
BRANCH  13  14
ATOM     14  C   UNL     1      -1.510  -4.329   7.427  1.00  0.00     0.053 C 
BRANCH  14  15
ATOM     15  C   UNL     1      -2.443  -5.002   6.469  1.00  0.00     0.041 C 
ATOM     16  O   UNL     1      -2.170  -6.147   6.020  1.00  0.00    -0.550 OA
ATOM     17  O   UNL     1      -3.598  -4.356   6.049  1.00  0.00    -0.550 OA
ENDBRANCH  14  15
ENDBRANCH  13  14
ENDBRANCH  12  13
ENDBRANCH  11  12
ENDBRANCH  10  11
ENDBRANCH   9  10
ENDBRANCH   8   9
ENDBRANCH   7   8
ENDBRANCH   6   7
ENDBRANCH   5   6
ENDBRANCH   4   5
ENDBRANCH   3   4
ENDBRANCH   2   3
ENDBRANCH   1   2
BRANCH   1  18
ATOM     18  C   UNL     1       6.242  -7.178   4.599  1.00  0.00     0.000 C 
BRANCH  18  19
ATOM     19  C   UNL     1       6.717  -6.713   3.206  1.00  0.00     0.000 C 
BRANCH  19  20
ATOM     20  C   UNL     1       7.998  -5.856   3.227  1.00  0.00     0.000 C 
BRANCH  20  21
ATOM     21  C   UNL     1       9.032  -6.235   4.306  1.00  0.00     0.000 C 
BRANCH  21  22
ATOM     22  C   UNL     1      10.006  -5.090   4.661  1.00  0.00     0.000 C 
BRANCH  22  23
ATOM     23  C   UNL     1       9.638  -3.770   3.963  1.00  0.00     0.000 C 
BRANCH  23  24
ATOM     24  C   UNL     1       9.470  -2.601   4.946  1.00  0.00    -0.000 C 
BRANCH  24  25
ATOM     25  C   UNL     1       9.389  -3.071   6.410  1.00  0.00    -0.000 C 
BRANCH  25  26
ATOM     26  C   UNL     1       7.977  -2.939   7.000  1.00  0.00    -0.000 C 
BRANCH  26  27
ATOM     27  C   UNL     1       7.110  -4.182   6.745  1.00  0.00    -0.000 C 
BRANCH  27  28
ATOM     28  C   UNL     1       5.713  -3.817   6.215  1.00  0.00    -0.000 C 
BRANCH  28  29
ATOM     29  C   UNL     1       5.723  -3.466   4.719  1.00  0.00    -0.000 C 
BRANCH  29  30
ATOM     30  C   UNL     1       5.314  -2.006   4.494  1.00  0.00    -0.000 C 
BRANCH  30  31
ATOM     31  C   UNL     1       4.269  -1.563   5.525  1.00  0.00    -0.003 C 
ATOM     32  C   UNL     1       4.695  -0.276   6.225  1.00  0.00     0.004 C 
ENDBRANCH  30  31
ENDBRANCH  29  30
ENDBRANCH  28  29
ENDBRANCH  27  28
ENDBRANCH  26  27
ENDBRANCH  25  26
ENDBRANCH  24  25
ENDBRANCH  23  24
ENDBRANCH  22  23
ENDBRANCH  21  22
ENDBRANCH  20  21
ENDBRANCH  19  20
ENDBRANCH  18  19
ENDBRANCH   1  18
TORSDOF 28
ENDMDL
MODEL 4
REMARK VINA RESULT:    -3.838      3.479      8.936
REMARK INTER + INTRA:         -14.546
REMARK INTER:                 -11.190
REMARK INTRA:                  -3.356
REMARK UNBOUND:                -4.427
REMARK SMILES CCCCCCCCCCCCCCCCCCCCCCCCCCCCCC(=O)[O-]
REMARK SMILES IDX 16 1 17 2 18 3 19 4 20 5 21 6 22 7 23 8 24 9 25 10 26 11
REMARK SMILES IDX 27 12 28 13 29 14 30 15 31 16 32 17 15 18 14 19 13 20 12 21
REMARK SMILES IDX 11 22 10 23 9 24 8 25 7 26 6 27 5 28 4 29 3 30 2 31 1 32
REMARK H PARENT
REMARK Flexibility Score: inf
ROOT
ATOM      1  C   UNL     1       4.814  -1.979   4.848  1.00  0.00     0.000 C 
ENDROOT
BRANCH   1   2
ATOM      2  C   UNL     1       6.197  -2.581   5.170  1.00  0.00     0.000 C 
BRANCH   2   3
ATOM      3  C   UNL     1       6.534  -3.848   4.358  1.00  0.00     0.000 C 
BRANCH   3   4
ATOM      4  C   UNL     1       8.032  -4.198   4.265  1.00  0.00     0.000 C 
BRANCH   4   5
ATOM      5  C   UNL     1       8.360  -5.428   3.398  1.00  0.00     0.000 C 
BRANCH   5   6
ATOM      6  C   UNL     1       7.108  -6.227   3.004  1.00  0.00     0.000 C 
BRANCH   6   7
ATOM      7  C   UNL     1       6.685  -7.236   4.084  1.00  0.00     0.000 C 
BRANCH   7   8
ATOM      8  C   UNL     1       5.650  -8.250   3.561  1.00  0.00     0.000 C 
BRANCH   8   9
ATOM      9  C   UNL     1       4.386  -8.316   4.433  1.00  0.00     0.000 C 
BRANCH   9  10
ATOM     10  C   UNL     1       4.000  -6.942   5.009  1.00  0.00     0.000 C 
BRANCH  10  11
ATOM     11  C   UNL     1       2.483  -6.784   5.195  1.00  0.00     0.000 C 
BRANCH  11  12
ATOM     12  C   UNL     1       1.687  -7.953   4.585  1.00  0.00     0.000 C 
BRANCH  12  13
ATOM     13  C   UNL     1       0.830  -8.707   5.619  1.00  0.00     0.006 C 
BRANCH  13  14
ATOM     14  C   UNL     1      -0.565  -9.101   5.106  1.00  0.00     0.053 C 
BRANCH  14  15
ATOM     15  C   UNL     1      -1.379  -7.916   4.686  1.00  0.00     0.041 C 
ATOM     16  O   UNL     1      -1.634  -6.999   5.511  1.00  0.00    -0.550 OA
ATOM     17  O   UNL     1      -1.881  -7.837   3.393  1.00  0.00    -0.550 OA
ENDBRANCH  14  15
ENDBRANCH  13  14
ENDBRANCH  12  13
ENDBRANCH  11  12
ENDBRANCH  10  11
ENDBRANCH   9  10
ENDBRANCH   8   9
ENDBRANCH   7   8
ENDBRANCH   6   7
ENDBRANCH   5   6
ENDBRANCH   4   5
ENDBRANCH   3   4
ENDBRANCH   2   3
ENDBRANCH   1   2
BRANCH   1  18
ATOM     18  C   UNL     1       3.659  -2.704   5.561  1.00  0.00     0.000 C 
BRANCH  18  19
ATOM     19  C   UNL     1       3.959  -3.012   7.044  1.00  0.00     0.000 C 
BRANCH  19  20
ATOM     20  C   UNL     1       3.993  -1.769   7.956  1.00  0.00     0.000 C 
BRANCH  20  21
ATOM     21  C   UNL     1       2.834  -0.771   7.759  1.00  0.00     0.000 C 
BRANCH  21  22
ATOM     22  C   UNL     1       3.283   0.707   7.746  1.00  0.00     0.000 C 
BRANCH  22  23
ATOM     23  C   UNL     1       3.559   1.223   6.324  1.00  0.00     0.000 C 
BRANCH  23  24
ATOM     24  C   UNL     1       2.653   2.399   5.929  1.00  0.00    -0.000 C 
BRANCH  24  25
ATOM     25  C   UNL     1       3.249   3.245   4.789  1.00  0.00    -0.000 C 
BRANCH  25  26
ATOM     26  C   UNL     1       3.865   4.562   5.284  1.00  0.00    -0.000 C 
BRANCH  26  27
ATOM     27  C   UNL     1       5.401   4.545   5.255  1.00  0.00    -0.000 C 
BRANCH  27  28
ATOM     28  C   UNL     1       6.006   4.271   6.642  1.00  0.00    -0.000 C 
BRANCH  28  29
ATOM     29  C   UNL     1       6.834   2.977   6.678  1.00  0.00    -0.000 C 
BRANCH  29  30
ATOM     30  C   UNL     1       7.243   2.548   5.264  1.00  0.00    -0.000 C 
BRANCH  30  31
ATOM     31  C   UNL     1       7.083   1.034   5.081  1.00  0.00    -0.003 C 
ATOM     32  C   UNL     1       8.404   0.307   5.312  1.00  0.00     0.004 C 
ENDBRANCH  30  31
ENDBRANCH  29  30
ENDBRANCH  28  29
ENDBRANCH  27  28
ENDBRANCH  26  27
ENDBRANCH  25  26
ENDBRANCH  24  25
ENDBRANCH  23  24
ENDBRANCH  22  23
ENDBRANCH  21  22
ENDBRANCH  20  21
ENDBRANCH  19  20
ENDBRANCH  18  19
ENDBRANCH   1  18
TORSDOF 28
ENDMDL
MODEL 5
REMARK VINA RESULT:    -3.833      1.494      2.753
REMARK INTER + INTRA:         -14.534
REMARK INTER:                 -11.568
REMARK INTRA:                  -2.966
REMARK UNBOUND:                -4.427
REMARK SMILES CCCCCCCCCCCCCCCCCCCCCCCCCCCCCC(=O)[O-]
REMARK SMILES IDX 16 1 17 2 18 3 19 4 20 5 21 6 22 7 23 8 24 9 25 10 26 11
REMARK SMILES IDX 27 12 28 13 29 14 30 15 31 16 32 17 15 18 14 19 13 20 12 21
REMARK SMILES IDX 11 22 10 23 9 24 8 25 7 26 6 27 5 28 4 29 3 30 2 31 1 32
REMARK H PARENT
REMARK Flexibility Score: inf
ROOT
ATOM      1  C   UNL     1       2.735  -4.694   6.248  1.00  0.00     0.000 C 
ENDROOT
BRANCH   1   2
ATOM      2  C   UNL     1       4.021  -3.847   6.163  1.00  0.00     0.000 C 
BRANCH   2   3
ATOM      3  C   UNL     1       3.807  -2.439   5.570  1.00  0.00     0.000 C 
BRANCH   3   4
ATOM      4  C   UNL     1       4.863  -1.984   4.545  1.00  0.00     0.000 C 
BRANCH   4   5
ATOM      5  C   UNL     1       6.055  -1.209   5.138  1.00  0.00     0.000 C 
BRANCH   5   6
ATOM      6  C   UNL     1       5.615  -0.003   5.983  1.00  0.00     0.000 C 
BRANCH   6   7
ATOM      7  C   UNL     1       6.685   1.099   6.045  1.00  0.00     0.000 C 
BRANCH   7   8
ATOM      8  C   UNL     1       7.510   1.184   4.746  1.00  0.00     0.000 C 
BRANCH   8   9
ATOM      9  C   UNL     1       8.861   1.890   4.943  1.00  0.00     0.000 C 
BRANCH   9  10
ATOM     10  C   UNL     1       8.931   2.662   6.273  1.00  0.00     0.000 C 
BRANCH  10  11
ATOM     11  C   UNL     1       9.045   4.180   6.069  1.00  0.00     0.000 C 
BRANCH  11  12
ATOM     12  C   UNL     1       7.769   4.932   6.492  1.00  0.00     0.000 C 
BRANCH  12  13
ATOM     13  C   UNL     1       6.647   4.857   5.439  1.00  0.00     0.006 C 
BRANCH  13  14
ATOM     14  C   UNL     1       5.266   4.512   6.021  1.00  0.00     0.053 C 
BRANCH  14  15
ATOM     15  C   UNL     1       4.223   4.335   4.962  1.00  0.00     0.041 C 
ATOM     16  O   UNL     1       3.783   5.335   4.334  1.00  0.00    -0.550 OA
ATOM     17  O   UNL     1       3.713   3.073   4.687  1.00  0.00    -0.550 OA
ENDBRANCH  14  15
ENDBRANCH  13  14
ENDBRANCH  12  13
ENDBRANCH  11  12
ENDBRANCH  10  11
ENDBRANCH   9  10
ENDBRANCH   8   9
ENDBRANCH   7   8
ENDBRANCH   6   7
ENDBRANCH   5   6
ENDBRANCH   4   5
ENDBRANCH   3   4
ENDBRANCH   2   3
ENDBRANCH   1   2
BRANCH   1  18
ATOM     18  C   UNL     1       1.502  -3.981   5.666  1.00  0.00     0.000 C 
BRANCH  18  19
ATOM     19  C   UNL     1       0.179  -4.415   6.333  1.00  0.00     0.000 C 
BRANCH  19  20
ATOM     20  C   UNL     1       0.152  -5.889   6.786  1.00  0.00     0.000 C 
BRANCH  20  21
ATOM     21  C   UNL     1      -0.456  -6.882   5.776  1.00  0.00     0.000 C 
BRANCH  21  22
ATOM     22  C   UNL     1       0.561  -7.421   4.746  1.00  0.00     0.000 C 
BRANCH  22  23
ATOM     23  C   UNL     1       0.439  -8.941   4.543  1.00  0.00     0.000 C 
BRANCH  23  24
ATOM     24  C   UNL     1       1.563  -9.519   3.669  1.00  0.00    -0.000 C 
BRANCH  24  25
ATOM     25  C   UNL     1       2.938  -8.912   4.002  1.00  0.00    -0.000 C 
BRANCH  25  26
ATOM     26  C   UNL     1       4.090  -9.609   3.263  1.00  0.00    -0.000 C 
BRANCH  26  27
ATOM     27  C   UNL     1       5.415  -9.547   4.041  1.00  0.00    -0.000 C 
BRANCH  27  28
ATOM     28  C   UNL     1       5.596  -8.207   4.774  1.00  0.00    -0.000 C 
BRANCH  28  29
ATOM     29  C   UNL     1       6.243  -7.133   3.886  1.00  0.00    -0.000 C 
BRANCH  29  30
ATOM     30  C   UNL     1       6.628  -5.899   4.710  1.00  0.00    -0.000 C 
BRANCH  30  31
ATOM     31  C   UNL     1       7.265  -4.823   3.824  1.00  0.00    -0.003 C 
ATOM     32  C   UNL     1       8.083  -5.448   2.697  1.00  0.00     0.004 C 
ENDBRANCH  30  31
ENDBRANCH  29  30
ENDBRANCH  28  29
ENDBRANCH  27  28
ENDBRANCH  26  27
ENDBRANCH  25  26
ENDBRANCH  24  25
ENDBRANCH  23  24
ENDBRANCH  22  23
ENDBRANCH  21  22
ENDBRANCH  20  21
ENDBRANCH  19  20
ENDBRANCH  18  19
ENDBRANCH   1  18
TORSDOF 28
ENDMDL
MODEL 6
REMARK VINA RESULT:    -3.816      3.313     10.098
REMARK INTER + INTRA:         -14.490
REMARK INTER:                 -10.155
REMARK INTRA:                  -4.335
REMARK UNBOUND:                -4.427
REMARK SMILES CCCCCCCCCCCCCCCCCCCCCCCCCCCCCC(=O)[O-]
REMARK SMILES IDX 16 1 17 2 18 3 19 4 20 5 21 6 22 7 23 8 24 9 25 10 26 11
REMARK SMILES IDX 27 12 28 13 29 14 30 15 31 16 32 17 15 18 14 19 13 20 12 21
REMARK SMILES IDX 11 22 10 23 9 24 8 25 7 26 6 27 5 28 4 29 3 30 2 31 1 32
REMARK H PARENT
REMARK Flexibility Score: inf
ROOT
ATOM      1  C   UNL     1       3.805   0.400   6.348  1.00  0.00     0.000 C 
ENDROOT
BRANCH   1   2
ATOM      2  C   UNL     1       5.009  -0.017   7.217  1.00  0.00     0.000 C 
BRANCH   2   3
ATOM      3  C   UNL     1       5.854  -1.158   6.613  1.00  0.00     0.000 C 
BRANCH   3   4
ATOM      4  C   UNL     1       5.602  -1.453   5.123  1.00  0.00     0.000 C 
BRANCH   4   5
ATOM      5  C   UNL     1       5.254  -2.919   4.800  1.00  0.00     0.000 C 
BRANCH   5   6
ATOM      6  C   UNL     1       4.480  -3.608   5.934  1.00  0.00     0.000 C 
BRANCH   6   7
ATOM      7  C   UNL     1       2.970  -3.326   5.877  1.00  0.00     0.000 C 
BRANCH   7   8
ATOM      8  C   UNL     1       2.143  -4.613   5.698  1.00  0.00     0.000 C 
BRANCH   8   9
ATOM      9  C   UNL     1       2.946  -5.887   6.006  1.00  0.00     0.000 C 
BRANCH   9  10
ATOM     10  C   UNL     1       2.584  -7.050   5.064  1.00  0.00     0.000 C 
BRANCH  10  11
ATOM     11  C   UNL     1       3.820  -7.815   4.568  1.00  0.00     0.000 C 
BRANCH  11  12
ATOM     12  C   UNL     1       5.140  -7.153   5.004  1.00  0.00     0.000 C 
BRANCH  12  13
ATOM     13  C   UNL     1       6.068  -6.818   3.822  1.00  0.00     0.006 C 
BRANCH  13  14
ATOM     14  C   UNL     1       7.448  -6.284   4.243  1.00  0.00     0.053 C 
BRANCH  14  15
ATOM     15  C   UNL     1       8.024  -5.328   3.244  1.00  0.00     0.041 C 
ATOM     16  O   UNL     1       8.311  -4.151   3.588  1.00  0.00    -0.550 OA
ATOM     17  O   UNL     1       8.216  -5.726   1.927  1.00  0.00    -0.550 OA
ENDBRANCH  14  15
ENDBRANCH  13  14
ENDBRANCH  12  13
ENDBRANCH  11  12
ENDBRANCH  10  11
ENDBRANCH   9  10
ENDBRANCH   8   9
ENDBRANCH   7   8
ENDBRANCH   6   7
ENDBRANCH   5   6
ENDBRANCH   4   5
ENDBRANCH   3   4
ENDBRANCH   2   3
ENDBRANCH   1   2
BRANCH   1  18
ATOM     18  C   UNL     1       2.984   1.547   6.964  1.00  0.00     0.000 C 
BRANCH  18  19
ATOM     19  C   UNL     1       3.846   2.550   7.760  1.00  0.00     0.000 C 
BRANCH  19  20
ATOM     20  C   UNL     1       3.868   3.975   7.169  1.00  0.00     0.000 C 
BRANCH  20  21
ATOM     21  C   UNL     1       3.883   4.054   5.630  1.00  0.00     0.000 C 
BRANCH  21  22
ATOM     22  C   UNL     1       3.748   5.491   5.081  1.00  0.00     0.000 C 
BRANCH  22  23
ATOM     23  C   UNL     1       3.066   6.439   6.083  1.00  0.00     0.000 C 
BRANCH  23  24
ATOM     24  C   UNL     1       3.777   7.796   6.199  1.00  0.00    -0.000 C 
BRANCH  24  25
ATOM     25  C   UNL     1       4.212   8.110   7.642  1.00  0.00    -0.000 C 
BRANCH  25  26
ATOM     26  C   UNL     1       5.739   8.131   7.812  1.00  0.00    -0.000 C 
BRANCH  26  27
ATOM     27  C   UNL     1       6.473   7.452   6.645  1.00  0.00    -0.000 C 
BRANCH  27  28
ATOM     28  C   UNL     1       7.038   6.076   7.037  1.00  0.00    -0.000 C 
BRANCH  28  29
ATOM     29  C   UNL     1       7.373   5.208   5.814  1.00  0.00    -0.000 C 
BRANCH  29  30
ATOM     30  C   UNL     1       8.174   3.966   6.226  1.00  0.00    -0.000 C 
BRANCH  30  31
ATOM     31  C   UNL     1       7.278   2.724   6.275  1.00  0.00    -0.003 C 
ATOM     32  C   UNL     1       7.506   1.831   5.059  1.00  0.00     0.004 C 
ENDBRANCH  30  31
ENDBRANCH  29  30
ENDBRANCH  28  29
ENDBRANCH  27  28
ENDBRANCH  26  27
ENDBRANCH  25  26
ENDBRANCH  24  25
ENDBRANCH  23  24
ENDBRANCH  22  23
ENDBRANCH  21  22
ENDBRANCH  20  21
ENDBRANCH  19  20
ENDBRANCH  18  19
ENDBRANCH   1  18
TORSDOF 28
ENDMDL
MODEL 7
REMARK VINA RESULT:    -3.788      2.338      5.617
REMARK INTER + INTRA:         -14.417
REMARK INTER:                 -11.324
REMARK INTRA:                  -3.092
REMARK UNBOUND:                -4.427
REMARK SMILES CCCCCCCCCCCCCCCCCCCCCCCCCCCCCC(=O)[O-]
REMARK SMILES IDX 16 1 17 2 18 3 19 4 20 5 21 6 22 7 23 8 24 9 25 10 26 11
REMARK SMILES IDX 27 12 28 13 29 14 30 15 31 16 32 17 15 18 14 19 13 20 12 21
REMARK SMILES IDX 11 22 10 23 9 24 8 25 7 26 6 27 5 28 4 29 3 30 2 31 1 32
REMARK H PARENT
REMARK Flexibility Score: inf
ROOT
ATOM      1  C   UNL     1       3.490   0.666   7.079  1.00  0.00     0.000 C 
ENDROOT
BRANCH   1   2
ATOM      2  C   UNL     1       3.013   1.881   6.257  1.00  0.00     0.000 C 
BRANCH   2   3
ATOM      3  C   UNL     1       3.945   3.106   6.349  1.00  0.00     0.000 C 
BRANCH   3   4
ATOM      4  C   UNL     1       4.345   3.739   5.002  1.00  0.00     0.000 C 
BRANCH   4   5
ATOM      5  C   UNL     1       3.791   5.155   4.759  1.00  0.00     0.000 C 
BRANCH   5   6
ATOM      6  C   UNL     1       3.459   5.895   6.064  1.00  0.00     0.000 C 
BRANCH   6   7
ATOM      7  C   UNL     1       4.219   7.223   6.202  1.00  0.00     0.000 C 
BRANCH   7   8
ATOM      8  C   UNL     1       5.742   7.015   6.310  1.00  0.00     0.000 C 
BRANCH   8   9
ATOM      9  C   UNL     1       6.136   6.082   7.467  1.00  0.00     0.000 C 
BRANCH   9  10
ATOM     10  C   UNL     1       7.611   5.648   7.392  1.00  0.00     0.000 C 
BRANCH  10  11
ATOM     11  C   UNL     1       7.881   4.665   6.242  1.00  0.00     0.000 C 
BRANCH  11  12
ATOM     12  C   UNL     1       9.377   4.343   6.077  1.00  0.00     0.000 C 
BRANCH  12  13
ATOM     13  C   UNL     1       9.633   2.952   5.467  1.00  0.00     0.006 C 
BRANCH  13  14
ATOM     14  C   UNL     1       8.452   1.978   5.617  1.00  0.00     0.053 C 
BRANCH  14  15
ATOM     15  C   UNL     1       8.227   1.154   4.387  1.00  0.00     0.041 C 
ATOM     16  O   UNL     1       9.038   1.220   3.425  1.00  0.00    -0.550 OA
ATOM     17  O   UNL     1       7.109   0.335   4.289  1.00  0.00    -0.550 OA
ENDBRANCH  14  15
ENDBRANCH  13  14
ENDBRANCH  12  13
ENDBRANCH  11  12
ENDBRANCH  10  11
ENDBRANCH   9  10
ENDBRANCH   8   9
ENDBRANCH   7   8
ENDBRANCH   6   7
ENDBRANCH   5   6
ENDBRANCH   4   5
ENDBRANCH   3   4
ENDBRANCH   2   3
ENDBRANCH   1   2
BRANCH   1  18
ATOM     18  C   UNL     1       4.531  -0.193   6.339  1.00  0.00     0.000 C 
BRANCH  18  19
ATOM     19  C   UNL     1       3.928  -1.464   5.703  1.00  0.00     0.000 C 
BRANCH  19  20
ATOM     20  C   UNL     1       4.827  -2.129   4.641  1.00  0.00     0.000 C 
BRANCH  20  21
ATOM     21  C   UNL     1       6.008  -2.950   5.193  1.00  0.00     0.000 C 
BRANCH  21  22
ATOM     22  C   UNL     1       5.956  -4.446   4.813  1.00  0.00     0.000 C 
BRANCH  22  23
ATOM     23  C   UNL     1       7.165  -4.879   3.966  1.00  0.00     0.000 C 
BRANCH  23  24
ATOM     24  C   UNL     1       7.105  -6.356   3.551  1.00  0.00    -0.000 C 
BRANCH  24  25
ATOM     25  C   UNL     1       6.052  -7.149   4.346  1.00  0.00    -0.000 C 
BRANCH  25  26
ATOM     26  C   UNL     1       5.587  -8.419   3.617  1.00  0.00    -0.000 C 
BRANCH  26  27
ATOM     27  C   UNL     1       4.086  -8.692   3.802  1.00  0.00    -0.000 C 
BRANCH  27  28
ATOM     28  C   UNL     1       3.587  -8.272   5.194  1.00  0.00    -0.000 C 
BRANCH  28  29
ATOM     29  C   UNL     1       2.369  -7.337   5.126  1.00  0.00    -0.000 C 
BRANCH  29  30
ATOM     30  C   UNL     1       2.765  -5.895   5.467  1.00  0.00    -0.000 C 
BRANCH  30  31
ATOM     31  C   UNL     1       2.377  -5.544   6.908  1.00  0.00    -0.003 C 
ATOM     32  C   UNL     1       3.442  -4.676   7.571  1.00  0.00     0.004 C 
ENDBRANCH  30  31
ENDBRANCH  29  30
ENDBRANCH  28  29
ENDBRANCH  27  28
ENDBRANCH  26  27
ENDBRANCH  25  26
ENDBRANCH  24  25
ENDBRANCH  23  24
ENDBRANCH  22  23
ENDBRANCH  21  22
ENDBRANCH  20  21
ENDBRANCH  19  20
ENDBRANCH  18  19
ENDBRANCH   1  18
TORSDOF 28
ENDMDL
MODEL 8
REMARK VINA RESULT:    -3.767      2.530      8.606
REMARK INTER + INTRA:         -14.361
REMARK INTER:                 -10.007
REMARK INTRA:                  -4.354
REMARK UNBOUND:                -4.427
REMARK SMILES CCCCCCCCCCCCCCCCCCCCCCCCCCCCCC(=O)[O-]
REMARK SMILES IDX 16 1 17 2 18 3 19 4 20 5 21 6 22 7 23 8 24 9 25 10 26 11
REMARK SMILES IDX 27 12 28 13 29 14 30 15 31 16 32 17 15 18 14 19 13 20 12 21
REMARK SMILES IDX 11 22 10 23 9 24 8 25 7 26 6 27 5 28 4 29 3 30 2 31 1 32
REMARK H PARENT
REMARK Flexibility Score: inf
ROOT
ATOM      1  C   UNL     1       0.183  -3.384   7.940  1.00  0.00     0.000 C 
ENDROOT
BRANCH   1   2
ATOM      2  C   UNL     1      -0.550  -3.705   6.622  1.00  0.00     0.000 C 
BRANCH   2   3
ATOM      3  C   UNL     1      -1.143  -5.127   6.563  1.00  0.00     0.000 C 
BRANCH   3   4
ATOM      4  C   UNL     1      -0.115  -6.272   6.494  1.00  0.00     0.000 C 
BRANCH   4   5
ATOM      5  C   UNL     1       0.779  -6.270   5.238  1.00  0.00     0.000 C 
BRANCH   5   6
ATOM      6  C   UNL     1       1.084  -7.686   4.725  1.00  0.00     0.000 C 
BRANCH   6   7
ATOM      7  C   UNL     1       2.588  -7.938   4.541  1.00  0.00     0.000 C 
BRANCH   7   8
ATOM      8  C   UNL     1       3.445  -6.778   5.084  1.00  0.00     0.000 C 
BRANCH   8   9
ATOM      9  C   UNL     1       4.804  -7.244   5.629  1.00  0.00     0.000 C 
BRANCH   9  10
ATOM     10  C   UNL     1       5.569  -8.123   4.623  1.00  0.00     0.000 C 
BRANCH  10  11
ATOM     11  C   UNL     1       6.324  -7.297   3.571  1.00  0.00     0.000 C 
BRANCH  11  12
ATOM     12  C   UNL     1       7.370  -6.355   4.197  1.00  0.00     0.000 C 
BRANCH  12  13
ATOM     13  C   UNL     1       7.498  -5.014   3.452  1.00  0.00     0.006 C 
BRANCH  13  14
ATOM     14  C   UNL     1       8.893  -4.374   3.555  1.00  0.00     0.053 C 
BRANCH  14  15
ATOM     15  C   UNL     1       9.037  -3.497   4.760  1.00  0.00     0.041 C 
ATOM     16  O   UNL     1       8.790  -2.264   4.678  1.00  0.00    -0.550 OA
ATOM     17  O   UNL     1       9.471  -4.032   5.966  1.00  0.00    -0.550 OA
ENDBRANCH  14  15
ENDBRANCH  13  14
ENDBRANCH  12  13
ENDBRANCH  11  12
ENDBRANCH  10  11
ENDBRANCH   9  10
ENDBRANCH   8   9
ENDBRANCH   7   8
ENDBRANCH   6   7
ENDBRANCH   5   6
ENDBRANCH   4   5
ENDBRANCH   3   4
ENDBRANCH   2   3
ENDBRANCH   1   2
BRANCH   1  18
ATOM     18  C   UNL     1       1.513  -2.640   7.727  1.00  0.00     0.000 C 
BRANCH  18  19
ATOM     19  C   UNL     1       2.653  -3.561   7.241  1.00  0.00     0.000 C 
BRANCH  19  20
ATOM     20  C   UNL     1       3.120  -3.284   5.798  1.00  0.00     0.000 C 
BRANCH  20  21
ATOM     21  C   UNL     1       4.645  -3.311   5.578  1.00  0.00     0.000 C 
BRANCH  21  22
ATOM     22  C   UNL     1       5.142  -2.268   4.552  1.00  0.00     0.000 C 
BRANCH  22  23
ATOM     23  C   UNL     1       5.593  -0.958   5.221  1.00  0.00     0.000 C 
BRANCH  23  24
ATOM     24  C   UNL     1       5.683  -1.069   6.751  1.00  0.00    -0.000 C 
BRANCH  24  25
ATOM     25  C   UNL     1       4.708  -0.119   7.469  1.00  0.00    -0.000 C 
BRANCH  25  26
ATOM     26  C   UNL     1       3.537   0.319   6.576  1.00  0.00    -0.000 C 
BRANCH  26  27
ATOM     27  C   UNL     1       3.116   1.776   6.825  1.00  0.00    -0.000 C 
BRANCH  27  28
ATOM     28  C   UNL     1       3.046   2.590   5.522  1.00  0.00    -0.000 C 
BRANCH  28  29
ATOM     29  C   UNL     1       3.474   4.053   5.718  1.00  0.00    -0.000 C 
BRANCH  29  30
ATOM     30  C   UNL     1       4.944   4.141   6.147  1.00  0.00    -0.000 C 
BRANCH  30  31
ATOM     31  C   UNL     1       5.857   3.453   5.127  1.00  0.00    -0.003 C 
ATOM     32  C   UNL     1       6.835   2.503   5.813  1.00  0.00     0.004 C 
ENDBRANCH  30  31
ENDBRANCH  29  30
ENDBRANCH  28  29
ENDBRANCH  27  28
ENDBRANCH  26  27
ENDBRANCH  25  26
ENDBRANCH  24  25
ENDBRANCH  23  24
ENDBRANCH  22  23
ENDBRANCH  21  22
ENDBRANCH  20  21
ENDBRANCH  19  20
ENDBRANCH  18  19
ENDBRANCH   1  18
TORSDOF 28
ENDMDL
MODEL 9
REMARK VINA RESULT:    -3.752      1.893      4.739
REMARK INTER + INTRA:         -14.321
REMARK INTER:                 -10.146
REMARK INTRA:                  -4.175
REMARK UNBOUND:                -4.427
REMARK SMILES CCCCCCCCCCCCCCCCCCCCCCCCCCCCCC(=O)[O-]
REMARK SMILES IDX 16 1 17 2 18 3 19 4 20 5 21 6 22 7 23 8 24 9 25 10 26 11
REMARK SMILES IDX 27 12 28 13 29 14 30 15 31 16 32 17 15 18 14 19 13 20 12 21
REMARK SMILES IDX 11 22 10 23 9 24 8 25 7 26 6 27 5 28 4 29 3 30 2 31 1 32
REMARK H PARENT
REMARK Flexibility Score: inf
ROOT
ATOM      1  C   UNL     1       5.278  -3.072   4.751  1.00  0.00     0.000 C 
ENDROOT
BRANCH   1   2
ATOM      2  C   UNL     1       4.727  -1.633   4.796  1.00  0.00     0.000 C 
BRANCH   2   3
ATOM      3  C   UNL     1       4.817  -0.969   6.186  1.00  0.00     0.000 C 
BRANCH   3   4
ATOM      4  C   UNL     1       6.024  -0.036   6.399  1.00  0.00     0.000 C 
BRANCH   4   5
ATOM      5  C   UNL     1       6.739   0.407   5.108  1.00  0.00     0.000 C 
BRANCH   5   6
ATOM      6  C   UNL     1       8.259   0.548   5.291  1.00  0.00     0.000 C 
BRANCH   6   7
ATOM      7  C   UNL     1       8.920   1.350   4.159  1.00  0.00     0.000 C 
BRANCH   7   8
ATOM      8  C   UNL     1       9.953   2.363   4.688  1.00  0.00     0.000 C 
BRANCH   8   9
ATOM      9  C   UNL     1       9.739   2.716   6.169  1.00  0.00     0.000 C 
BRANCH   9  10
ATOM     10  C   UNL     1       9.037   4.074   6.352  1.00  0.00     0.000 C 
BRANCH  10  11
ATOM     11  C   UNL     1       8.177   4.128   7.624  1.00  0.00     0.000 C 
BRANCH  11  12
ATOM     12  C   UNL     1       6.881   3.304   7.497  1.00  0.00     0.000 C 
BRANCH  12  13
ATOM     13  C   UNL     1       5.650   4.164   7.157  1.00  0.00     0.006 C 
BRANCH  13  14
ATOM     14  C   UNL     1       4.496   3.374   6.514  1.00  0.00     0.053 C 
BRANCH  14  15
ATOM     15  C   UNL     1       4.277   3.742   5.079  1.00  0.00     0.041 C 
ATOM     16  O   UNL     1       3.297   3.265   4.447  1.00  0.00    -0.550 OA
ATOM     17  O   UNL     1       5.168   4.587   4.431  1.00  0.00    -0.550 OA
ENDBRANCH  14  15
ENDBRANCH  13  14
ENDBRANCH  12  13
ENDBRANCH  11  12
ENDBRANCH  10  11
ENDBRANCH   9  10
ENDBRANCH   8   9
ENDBRANCH   7   8
ENDBRANCH   6   7
ENDBRANCH   5   6
ENDBRANCH   4   5
ENDBRANCH   3   4
ENDBRANCH   2   3
ENDBRANCH   1   2
BRANCH   1  18
ATOM     18  C   UNL     1       5.661  -3.617   6.139  1.00  0.00     0.000 C 
BRANCH  18  19
ATOM     19  C   UNL     1       7.185  -3.765   6.333  1.00  0.00     0.000 C 
BRANCH  19  20
ATOM     20  C   UNL     1       8.033  -3.071   5.249  1.00  0.00     0.000 C 
BRANCH  20  21
ATOM     21  C   UNL     1       9.425  -3.684   5.003  1.00  0.00     0.000 C 
BRANCH  21  22
ATOM     22  C   UNL     1       9.386  -5.035   4.255  1.00  0.00     0.000 C 
BRANCH  22  23
ATOM     23  C   UNL     1       8.651  -4.937   2.907  1.00  0.00     0.000 C 
BRANCH  23  24
ATOM     24  C   UNL     1       7.539  -5.986   2.757  1.00  0.00    -0.000 C 
BRANCH  24  25
ATOM     25  C   UNL     1       7.206  -6.687   4.086  1.00  0.00    -0.000 C 
BRANCH  25  26
ATOM     26  C   UNL     1       5.849  -7.406   4.057  1.00  0.00    -0.000 C 
BRANCH  26  27
ATOM     27  C   UNL     1       5.059  -7.233   5.364  1.00  0.00    -0.000 C 
BRANCH  27  28
ATOM     28  C   UNL     1       3.607  -6.795   5.110  1.00  0.00    -0.000 C 
BRANCH  28  29
ATOM     29  C   UNL     1       2.771  -7.893   4.434  1.00  0.00    -0.000 C 
BRANCH  29  30
ATOM     30  C   UNL     1       2.347  -8.963   5.447  1.00  0.00    -0.000 C 
BRANCH  30  31
ATOM     31  C   UNL     1       0.853  -9.280   5.319  1.00  0.00    -0.003 C 
ATOM     32  C   UNL     1       0.171  -8.338   4.331  1.00  0.00     0.004 C 
ENDBRANCH  30  31
ENDBRANCH  29  30
ENDBRANCH  28  29
ENDBRANCH  27  28
ENDBRANCH  26  27
ENDBRANCH  25  26
ENDBRANCH  24  25
ENDBRANCH  23  24
ENDBRANCH  22  23
ENDBRANCH  21  22
ENDBRANCH  20  21
ENDBRANCH  19  20
ENDBRANCH  18  19
ENDBRANCH   1  18
TORSDOF 28
ENDMDL
