MODEL 1
REMARK VINA RESULT:    -5.167      0.000      0.000
REMARK INTER + INTRA:          -7.770
REMARK INTER:                  -7.886
REMARK INTRA:                   0.116
REMARK UNBOUND:                 0.116
REMARK SMILES CC1=CCC[C@H](C)C(=O)C[C@H](C(C)C)C(=O)C1
REMARK SMILES IDX 8 1 9 2 6 3 7 4 5 5 4 6 3 7 2 8 1 9 10 11 11 12 15 13 16 14
REMARK SMILES IDX 17 15 12 17 13 18 14 19
REMARK H PARENT
REMARK Flexibility Score: 70.00
ROOT
ATOM      1  C   UNL     1      -7.677  34.574  23.447  1.00  0.00     0.136 C 
ATOM      2  O   UNL     1      -6.931  35.050  22.603  1.00  0.00    -0.299 OA
ENDROOT
BRANCH   1   3
ATOM      3  C   UNL     1      -7.639  35.099  24.872  1.00  0.00     0.053 C 
ATOM      4  C   UNL     1      -8.902  35.900  25.229  1.00  0.00     0.016 C 
BRANCH   3   5
ATOM      5  C   UNL     1      -7.331  34.004  25.925  1.00  0.00     0.015 C 
BRANCH   5   6
ATOM      6  C   UNL     1      -8.517  33.241  26.554  1.00  0.00     0.028 C 
BRANCH   6   7
ATOM      7  C   UNL     1      -8.351  31.755  26.781  1.00  0.00    -0.028 C 
ATOM      8  C   UNL     1      -8.498  30.773  25.860  1.00  0.00    -0.070 CG0
ATOM      9  C   UNL     1      -8.105  29.372  26.261  1.00  0.00     0.039 C 
ATOM     10  G   UNL     1      -9.099  30.983  24.483  1.00  0.00     0.000 G0
ENDBRANCH   6   7
ENDBRANCH   5   6
ENDBRANCH   3   5
ENDBRANCH   1   3
BRANCH   1  11
ATOM     11  C   UNL     1      -8.605  33.449  23.038  1.00  0.00     0.087 C 
BRANCH  11  12
ATOM     12  C   UNL     1      -7.859  32.203  22.491  1.00  0.00     0.066 C 
BRANCH  12  13
ATOM     13  C   UNL     1      -8.014  31.012  23.422  1.00  0.00     0.140 C 
ATOM     14  O   UNL     1      -7.274  30.048  23.300  1.00  0.00    -0.299 OA
BRANCH  13  15
ATOM     15  C   UNL     1      -9.103  30.969  24.474  1.00  0.00     0.106 CG0
ATOM     16  G   UNL     1      -8.489  30.783  25.848  1.00  0.00     0.000 G0
ENDBRANCH  13  15
ENDBRANCH  12  13
BRANCH  12  17
ATOM     17  C   UNL     1      -8.224  31.842  21.014  1.00  0.00    -0.006 C 
ATOM     18  C   UNL     1      -7.645  32.867  20.026  1.00  0.00     0.008 C 
ATOM     19  C   UNL     1      -9.731  31.668  20.751  1.00  0.00     0.008 C 
ENDBRANCH  12  17
ENDBRANCH  11  12
ENDBRANCH   1  11
TORSDOF 1
ENDMDL
MODEL 2
REMARK VINA RESULT:    -5.090      1.818      4.989
REMARK INTER + INTRA:          -7.652
REMARK INTER:                  -7.552
REMARK INTRA:                  -0.100
REMARK UNBOUND:                 0.116
REMARK SMILES CC1=CCC[C@H](C)C(=O)C[C@H](C(C)C)C(=O)C1
REMARK SMILES IDX 8 1 9 2 6 3 7 4 5 5 4 6 3 7 2 8 1 9 10 11 11 12 15 13 16 14
REMARK SMILES IDX 17 15 12 17 13 18 14 19
REMARK H PARENT
REMARK Flexibility Score: 70.00
ROOT
ATOM      1  C   UNL     1      -9.107  31.187  25.032  1.00  0.00     0.136 C 
ATOM      2  O   UNL     1     -10.043  30.476  25.366  1.00  0.00    -0.299 OA
ENDROOT
BRANCH   1   3
ATOM      3  C   UNL     1      -7.712  30.597  24.916  1.00  0.00     0.053 C 
ATOM      4  C   UNL     1      -7.303  29.820  26.178  1.00  0.00     0.016 C 
BRANCH   3   5
ATOM      5  C   UNL     1      -7.501  29.761  23.628  1.00  0.00     0.015 C 
BRANCH   5   6
ATOM      6  C   UNL     1      -8.459  29.995  22.440  1.00  0.00     0.028 C 
BRANCH   6   7
ATOM      7  C   UNL     1      -7.938  30.794  21.267  1.00  0.00    -0.028 C 
ATOM      8  C   UNL     1      -8.084  32.125  21.064  1.00  0.00    -0.070 CG0
ATOM      9  C   UNL     1      -7.324  32.747  19.917  1.00  0.00     0.039 C 
ATOM     10  G   UNL     1      -9.017  33.009  21.868  1.00  0.00     0.000 G0
ENDBRANCH   6   7
ENDBRANCH   5   6
ENDBRANCH   3   5
ENDBRANCH   1   3
BRANCH   1  11
ATOM     11  C   UNL     1      -9.374  32.655  24.766  1.00  0.00     0.087 C 
BRANCH  11  12
ATOM     12  C   UNL     1      -8.115  33.436  24.305  1.00  0.00     0.066 C 
BRANCH  12  13
ATOM     13  C   UNL     1      -8.225  33.854  22.848  1.00  0.00     0.140 C 
ATOM     14  O   UNL     1      -7.702  34.892  22.475  1.00  0.00    -0.299 OA
BRANCH  13  15
ATOM     15  C   UNL     1      -9.013  33.031  21.850  1.00  0.00     0.106 CG0
ATOM     16  G   UNL     1      -8.081  32.116  21.080  1.00  0.00     0.000 G0
ENDBRANCH  13  15
ENDBRANCH  12  13
BRANCH  12  17
ATOM     17  C   UNL     1      -7.740  34.640  25.231  1.00  0.00    -0.006 C 
ATOM     18  C   UNL     1      -7.552  34.189  26.689  1.00  0.00     0.008 C 
ATOM     19  C   UNL     1      -8.730  35.818  25.182  1.00  0.00     0.008 C 
ENDBRANCH  12  17
ENDBRANCH  11  12
ENDBRANCH   1  11
TORSDOF 1
ENDMDL
MODEL 3
REMARK VINA RESULT:    -5.079      1.516      3.888
REMARK INTER + INTRA:          -7.636
REMARK INTER:                  -7.621
REMARK INTRA:                  -0.015
REMARK UNBOUND:                 0.116
REMARK SMILES CC1=CCC[C@H](C)C(=O)C[C@H](C(C)C)C(=O)C1
REMARK SMILES IDX 8 1 9 2 6 3 7 4 5 5 4 6 3 7 2 8 1 9 10 11 11 12 15 13 16 14
REMARK SMILES IDX 17 15 12 17 13 18 14 19
REMARK H PARENT
REMARK Flexibility Score: 70.00
ROOT
ATOM      1  C   UNL     1      -7.804  33.633  22.207  1.00  0.00     0.136 C 
ATOM      2  O   UNL     1      -7.849  34.806  21.862  1.00  0.00    -0.299 OA
ENDROOT
BRANCH   1   3
ATOM      3  C   UNL     1      -8.124  32.537  21.205  1.00  0.00     0.053 C 
ATOM      4  C   UNL     1      -7.685  32.907  19.779  1.00  0.00     0.016 C 
BRANCH   3   5
ATOM      5  C   UNL     1      -7.598  31.142  21.629  1.00  0.00     0.015 C 
BRANCH   5   6
ATOM      6  C   UNL     1      -8.601  30.135  22.233  1.00  0.00     0.028 C 
BRANCH   6   7
ATOM      7  C   UNL     1      -8.328  29.627  23.630  1.00  0.00    -0.028 C 
ATOM      8  C   UNL     1      -8.908  30.057  24.777  1.00  0.00    -0.070 CG0
ATOM      9  C   UNL     1      -8.620  29.282  26.040  1.00  0.00     0.039 C 
ATOM     10  G   UNL     1      -9.765  31.303  24.880  1.00  0.00     0.000 G0
ENDBRANCH   6   7
ENDBRANCH   5   6
ENDBRANCH   3   5
ENDBRANCH   1   3
BRANCH   1  11
ATOM     11  C   UNL     1      -7.448  33.317  23.646  1.00  0.00     0.087 C 
BRANCH  11  12
ATOM     12  C   UNL     1      -8.582  33.659  24.649  1.00  0.00     0.066 C 
BRANCH  12  13
ATOM     13  C   UNL     1      -8.965  32.450  25.485  1.00  0.00     0.140 C 
ATOM     14  O   UNL     1      -8.586  32.371  26.644  1.00  0.00    -0.299 OA
BRANCH  13  15
ATOM     15  C   UNL     1      -9.769  31.308  24.899  1.00  0.00     0.106 CG0
ATOM     16  G   UNL     1      -8.899  30.073  24.771  1.00  0.00     0.000 G0
ENDBRANCH  13  15
ENDBRANCH  12  13
BRANCH  12  17
ATOM     17  C   UNL     1      -8.288  34.914  25.536  1.00  0.00    -0.006 C 
ATOM     18  C   UNL     1      -9.024  36.157  25.011  1.00  0.00     0.008 C 
ATOM     19  C   UNL     1      -6.793  35.238  25.711  1.00  0.00     0.008 C 
ENDBRANCH  12  17
ENDBRANCH  11  12
ENDBRANCH   1  11
TORSDOF 1
ENDMDL
MODEL 4
REMARK VINA RESULT:    -5.062      1.766      3.918
REMARK INTER + INTRA:          -7.610
REMARK INTER:                  -7.309
REMARK INTRA:                  -0.301
REMARK UNBOUND:                 0.116
REMARK SMILES CC1=CCC[C@H](C)C(=O)C[C@H](C(C)C)C(=O)C1
REMARK SMILES IDX 8 1 9 2 6 3 7 4 5 5 4 6 3 7 2 8 1 9 10 11 11 12 15 13 16 14
REMARK SMILES IDX 17 15 12 17 13 18 14 19
REMARK H PARENT
REMARK Flexibility Score: 70.00
ROOT
ATOM      1  C   UNL     1      -7.367  29.915  23.278  1.00  0.00     0.136 C 
ATOM      2  O   UNL     1      -6.436  29.415  22.663  1.00  0.00    -0.299 OA
ENDROOT
BRANCH   1   3
ATOM      3  C   UNL     1      -8.531  29.048  23.727  1.00  0.00     0.053 C 
ATOM      4  C   UNL     1      -8.926  28.010  22.664  1.00  0.00     0.016 C 
BRANCH   3   5
ATOM      5  C   UNL     1      -8.315  28.399  25.118  1.00  0.00     0.015 C 
BRANCH   5   6
ATOM      6  C   UNL     1      -8.831  29.151  26.364  1.00  0.00     0.028 C 
BRANCH   6   7
ATOM      7  C   UNL     1      -7.983  30.282  26.899  1.00  0.00    -0.028 C 
ATOM      8  C   UNL     1      -8.293  31.601  26.892  1.00  0.00    -0.070 CG0
ATOM      9  C   UNL     1      -7.382  32.539  27.646  1.00  0.00     0.039 C 
ATOM     10  G   UNL     1      -9.451  32.197  26.116  1.00  0.00     0.000 G0
ENDBRANCH   6   7
ENDBRANCH   5   6
ENDBRANCH   3   5
ENDBRANCH   1   3
BRANCH   1  11
ATOM     11  C   UNL     1      -7.335  31.406  23.550  1.00  0.00     0.087 C 
BRANCH  11  12
ATOM     12  C   UNL     1      -8.743  32.057  23.580  1.00  0.00     0.066 C 
BRANCH  12  13
ATOM     13  C   UNL     1      -8.953  32.863  24.851  1.00  0.00     0.140 C 
ATOM     14  O   UNL     1      -8.681  34.053  24.865  1.00  0.00    -0.299 OA
BRANCH  13  15
ATOM     15  C   UNL     1      -9.448  32.211  26.126  1.00  0.00     0.106 CG0
ATOM     16  G   UNL     1      -8.283  31.611  26.888  1.00  0.00     0.000 G0
ENDBRANCH  13  15
ENDBRANCH  12  13
BRANCH  12  17
ATOM     17  C   UNL     1      -9.088  32.886  22.300  1.00  0.00    -0.006 C 
ATOM     18  C   UNL     1      -9.968  32.080  21.330  1.00  0.00     0.008 C 
ATOM     19  C   UNL     1      -7.864  33.437  21.544  1.00  0.00     0.008 C 
ENDBRANCH  12  17
ENDBRANCH  11  12
ENDBRANCH   1  11
TORSDOF 1
ENDMDL
MODEL 5
REMARK VINA RESULT:    -5.003      2.015      4.088
REMARK INTER + INTRA:          -7.519
REMARK INTER:                  -7.437
REMARK INTRA:                  -0.082
REMARK UNBOUND:                 0.116
REMARK SMILES CC1=CCC[C@H](C)C(=O)C[C@H](C(C)C)C(=O)C1
REMARK SMILES IDX 8 1 9 2 6 3 7 4 5 5 4 6 3 7 2 8 1 9 10 11 11 12 15 13 16 14
REMARK SMILES IDX 17 15 12 17 13 18 14 19
REMARK H PARENT
REMARK Flexibility Score: 70.00
ROOT
ATOM      1  C   UNL     1      -7.899  33.204  25.010  1.00  0.00     0.136 C 
ATOM      2  O   UNL     1      -8.260  33.194  26.178  1.00  0.00    -0.299 OA
ENDROOT
BRANCH   1   3
ATOM      3  C   UNL     1      -8.169  34.424  24.145  1.00  0.00     0.053 C 
ATOM      4  C   UNL     1      -8.412  35.689  24.984  1.00  0.00     0.016 C 
BRANCH   3   5
ATOM      5  C   UNL     1      -7.096  34.653  23.050  1.00  0.00     0.015 C 
BRANCH   5   6
ATOM      6  C   UNL     1      -7.543  34.631  21.572  1.00  0.00     0.028 C 
BRANCH   6   7
ATOM      7  C   UNL     1      -8.728  33.764  21.212  1.00  0.00    -0.028 C 
ATOM      8  C   UNL     1      -8.778  32.410  21.233  1.00  0.00    -0.070 CG0
ATOM      9  C   UNL     1     -10.120  31.755  21.013  1.00  0.00     0.039 C 
ATOM     10  G   UNL     1      -7.562  31.518  21.391  1.00  0.00     0.000 G0
ENDBRANCH   6   7
ENDBRANCH   5   6
ENDBRANCH   3   5
ENDBRANCH   1   3
BRANCH   1  11
ATOM     11  C   UNL     1      -7.209  31.974  24.457  1.00  0.00     0.087 C 
BRANCH  11  12
ATOM     12  C   UNL     1      -8.194  30.921  23.882  1.00  0.00     0.066 C 
BRANCH  12  13
ATOM     13  C   UNL     1      -7.787  30.488  22.484  1.00  0.00     0.140 C 
ATOM     14  O   UNL     1      -7.597  29.304  22.249  1.00  0.00    -0.299 OA
BRANCH  13  15
ATOM     15  C   UNL     1      -7.562  31.499  21.379  1.00  0.00     0.106 CG0
ATOM     16  G   UNL     1      -8.773  32.403  21.249  1.00  0.00     0.000 G0
ENDBRANCH  13  15
ENDBRANCH  12  13
BRANCH  12  17
ATOM     17  C   UNL     1      -8.438  29.698  24.826  1.00  0.00    -0.006 C 
ATOM     18  C   UNL     1      -9.914  29.597  25.243  1.00  0.00     0.008 C 
ATOM     19  C   UNL     1      -7.547  29.669  26.081  1.00  0.00     0.008 C 
ENDBRANCH  12  17
ENDBRANCH  11  12
ENDBRANCH   1  11
TORSDOF 1
ENDMDL
MODEL 6
REMARK VINA RESULT:    -4.881      1.467      3.813
REMARK INTER + INTRA:          -7.333
REMARK INTER:                  -6.948
REMARK INTRA:                  -0.385
REMARK UNBOUND:                 0.116
REMARK SMILES CC1=CCC[C@H](C)C(=O)C[C@H](C(C)C)C(=O)C1
REMARK SMILES IDX 8 1 9 2 6 3 7 4 5 5 4 6 3 7 2 8 1 9 10 11 11 12 15 13 16 14
REMARK SMILES IDX 17 15 12 17 13 18 14 19
REMARK H PARENT
REMARK Flexibility Score: 70.00
ROOT
ATOM      1  C   UNL     1      -7.285  30.162  23.280  1.00  0.00     0.136 C 
ATOM      2  O   UNL     1      -6.288  29.559  23.655  1.00  0.00    -0.299 OA
ENDROOT
BRANCH   1   3
ATOM      3  C   UNL     1      -8.662  29.566  23.514  1.00  0.00     0.053 C 
ATOM      4  C   UNL     1      -8.815  28.183  22.860  1.00  0.00     0.016 C 
BRANCH   3   5
ATOM      5  C   UNL     1      -9.083  29.551  25.005  1.00  0.00     0.015 C 
BRANCH   5   6
ATOM      6  C   UNL     1      -9.712  30.830  25.600  1.00  0.00     0.028 C 
BRANCH   6   7
ATOM      7  C   UNL     1      -8.784  31.823  26.263  1.00  0.00    -0.028 C 
ATOM      8  C   UNL     1      -8.626  33.128  25.935  1.00  0.00    -0.070 CG0
ATOM      9  C   UNL     1      -7.782  33.983  26.848  1.00  0.00     0.039 C 
ATOM     10  G   UNL     1      -9.183  33.760  24.674  1.00  0.00     0.000 G0
ENDBRANCH   6   7
ENDBRANCH   5   6
ENDBRANCH   3   5
ENDBRANCH   1   3
BRANCH   1  11
ATOM     11  C   UNL     1      -7.101  31.486  22.566  1.00  0.00     0.087 C 
BRANCH  11  12
ATOM     12  C   UNL     1      -8.376  32.370  22.573  1.00  0.00     0.066 C 
BRANCH  12  13
ATOM     13  C   UNL     1      -8.223  33.555  23.512  1.00  0.00     0.140 C 
ATOM     14  O   UNL     1      -7.288  34.327  23.365  1.00  0.00    -0.299 OA
BRANCH  13  15
ATOM     15  C   UNL     1      -9.180  33.776  24.665  1.00  0.00     0.106 CG0
ATOM     16  G   UNL     1      -8.630  33.137  25.926  1.00  0.00     0.000 G0
ENDBRANCH  13  15
ENDBRANCH  12  13
BRANCH  12  17
ATOM     17  C   UNL     1      -8.850  32.812  21.149  1.00  0.00    -0.006 C 
ATOM     18  C   UNL     1      -9.699  31.720  20.477  1.00  0.00     0.008 C 
ATOM     19  C   UNL     1      -7.715  33.237  20.199  1.00  0.00     0.008 C 
ENDBRANCH  12  17
ENDBRANCH  11  12
ENDBRANCH   1  11
TORSDOF 1
ENDMDL
MODEL 7
REMARK VINA RESULT:    -4.718      1.893      3.959
REMARK INTER + INTRA:          -7.085
REMARK INTER:                  -6.903
REMARK INTRA:                  -0.182
REMARK UNBOUND:                 0.116
REMARK SMILES CC1=CCC[C@H](C)C(=O)C[C@H](C(C)C)C(=O)C1
REMARK SMILES IDX 8 1 9 2 6 3 7 4 5 5 4 6 3 7 2 8 1 9 10 11 11 12 15 13 16 14
REMARK SMILES IDX 17 15 12 17 13 18 14 19
REMARK H PARENT
REMARK Flexibility Score: 70.00
ROOT
ATOM      1  C   UNL     1      -8.108  32.349  27.020  1.00  0.00     0.136 C 
ATOM      2  O   UNL     1      -7.132  32.958  27.434  1.00  0.00    -0.299 OA
ENDROOT
BRANCH   1   3
ATOM      3  C   UNL     1      -8.389  30.941  27.515  1.00  0.00     0.053 C 
ATOM      4  C   UNL     1      -9.895  30.637  27.577  1.00  0.00     0.016 C 
BRANCH   3   5
ATOM      5  C   UNL     1      -7.609  29.848  26.741  1.00  0.00     0.015 C 
BRANCH   5   6
ATOM      6  C   UNL     1      -8.382  28.979  25.725  1.00  0.00     0.028 C 
BRANCH   6   7
ATOM      7  C   UNL     1      -8.011  29.112  24.265  1.00  0.00    -0.028 C 
ATOM      8  C   UNL     1      -8.416  30.081  23.410  1.00  0.00    -0.070 CG0
ATOM      9  C   UNL     1      -7.776  30.123  22.044  1.00  0.00     0.039 C 
ATOM     10  G   UNL     1      -9.520  31.075  23.716  1.00  0.00     0.000 G0
ENDBRANCH   6   7
ENDBRANCH   5   6
ENDBRANCH   3   5
ENDBRANCH   1   3
BRANCH   1  11
ATOM     11  C   UNL     1      -8.999  33.025  25.996  1.00  0.00     0.087 C 
BRANCH  11  12
ATOM     12  C   UNL     1      -8.302  33.253  24.629  1.00  0.00     0.066 C 
BRANCH  12  13
ATOM     13  C   UNL     1      -9.017  32.509  23.513  1.00  0.00     0.140 C 
ATOM     14  O   UNL     1      -9.226  33.071  22.449  1.00  0.00    -0.299 OA
BRANCH  13  15
ATOM     15  C   UNL     1      -9.522  31.094  23.705  1.00  0.00     0.106 CG0
ATOM     16  G   UNL     1      -8.422  30.102  23.385  1.00  0.00     0.000 G0
ENDBRANCH  13  15
ENDBRANCH  12  13
BRANCH  12  17
ATOM     17  C   UNL     1      -8.074  34.759  24.275  1.00  0.00    -0.006 C 
ATOM     18  C   UNL     1      -6.756  34.963  23.510  1.00  0.00     0.008 C 
ATOM     19  C   UNL     1      -8.120  35.715  25.482  1.00  0.00     0.008 C 
ENDBRANCH  12  17
ENDBRANCH  11  12
ENDBRANCH   1  11
TORSDOF 1
ENDMDL
MODEL 8
REMARK VINA RESULT:    -4.619      1.178      1.466
REMARK INTER + INTRA:          -6.934
REMARK INTER:                  -6.960
REMARK INTRA:                   0.027
REMARK UNBOUND:                 0.116
REMARK SMILES CC1=CCC[C@H](C)C(=O)C[C@H](C(C)C)C(=O)C1
REMARK SMILES IDX 8 1 9 2 6 3 7 4 5 5 4 6 3 7 2 8 1 9 10 11 11 12 15 13 16 14
REMARK SMILES IDX 17 15 12 17 13 18 14 19
REMARK H PARENT
REMARK Flexibility Score: 70.00
ROOT
ATOM      1  C   UNL     1      -8.184  34.438  23.015  1.00  0.00     0.136 C 
ATOM      2  O   UNL     1      -7.683  34.662  21.923  1.00  0.00    -0.299 OA
ENDROOT
BRANCH   1   3
ATOM      3  C   UNL     1      -7.805  35.293  24.212  1.00  0.00     0.053 C 
ATOM      4  C   UNL     1      -8.995  36.104  24.747  1.00  0.00     0.016 C 
BRANCH   3   5
ATOM      5  C   UNL     1      -7.094  34.498  25.337  1.00  0.00     0.015 C 
BRANCH   5   6
ATOM      6  C   UNL     1      -7.856  34.262  26.659  1.00  0.00     0.028 C 
BRANCH   6   7
ATOM      7  C   UNL     1      -7.815  32.873  27.253  1.00  0.00    -0.028 C 
ATOM      8  C   UNL     1      -8.492  31.784  26.816  1.00  0.00    -0.070 CG0
ATOM      9  C   UNL     1      -8.160  30.453  27.445  1.00  0.00     0.039 C 
ATOM     10  G   UNL     1      -9.607  31.833  25.789  1.00  0.00     0.000 G0
ENDBRANCH   6   7
ENDBRANCH   5   6
ENDBRANCH   3   5
ENDBRANCH   1   3
BRANCH   1  11
ATOM     11  C   UNL     1      -9.159  33.284  23.138  1.00  0.00     0.087 C 
BRANCH  11  12
ATOM     12  C   UNL     1      -8.468  31.916  23.380  1.00  0.00     0.066 C 
BRANCH  12  13
ATOM     13  C   UNL     1      -9.145  31.143  24.499  1.00  0.00     0.140 C 
ATOM     14  O   UNL     1      -9.367  29.950  24.362  1.00  0.00    -0.299 OA
BRANCH  13  15
ATOM     15  C   UNL     1      -9.599  31.831  25.770  1.00  0.00     0.106 CG0
ATOM     16  G   UNL     1      -8.501  31.771  26.813  1.00  0.00     0.000 G0
ENDBRANCH  13  15
ENDBRANCH  12  13
BRANCH  12  17
ATOM     17  C   UNL     1      -8.305  31.051  22.088  1.00  0.00    -0.006 C 
ATOM     18  C   UNL     1      -6.889  30.460  21.983  1.00  0.00     0.008 C 
ATOM     19  C   UNL     1      -8.654  31.782  20.778  1.00  0.00     0.008 C 
ENDBRANCH  12  17
ENDBRANCH  11  12
ENDBRANCH   1  11
TORSDOF 1
ENDMDL
MODEL 9
REMARK VINA RESULT:    -4.596      1.769      2.487
REMARK INTER + INTRA:          -6.899
REMARK INTER:                  -6.547
REMARK INTRA:                  -0.352
REMARK UNBOUND:                 0.116
REMARK SMILES CC1=CCC[C@H](C)C(=O)C[C@H](C(C)C)C(=O)C1
REMARK SMILES IDX 8 1 9 2 6 3 7 4 5 5 4 6 3 7 2 8 1 9 10 11 11 12 15 13 16 14
REMARK SMILES IDX 17 15 12 17 13 18 14 19
REMARK H PARENT
REMARK Flexibility Score: 70.00
ROOT
ATOM      1  C   UNL     1      -9.157  33.112  24.195  1.00  0.00     0.136 C 
ATOM      2  O   UNL     1      -9.771  34.012  23.641  1.00  0.00    -0.299 OA
ENDROOT
BRANCH   1   3
ATOM      3  C   UNL     1      -7.870  33.420  24.941  1.00  0.00     0.053 C 
ATOM      4  C   UNL     1      -7.138  34.639  24.358  1.00  0.00     0.016 C 
BRANCH   3   5
ATOM      5  C   UNL     1      -8.060  33.538  26.475  1.00  0.00     0.015 C 
BRANCH   5   6
ATOM      6  C   UNL     1      -7.510  32.405  27.368  1.00  0.00     0.028 C 
BRANCH   6   7
ATOM      7  C   UNL     1      -8.504  31.424  27.946  1.00  0.00    -0.028 C 
ATOM      8  C   UNL     1      -8.650  30.121  27.603  1.00  0.00    -0.070 CG0
ATOM      9  C   UNL     1      -9.581  29.277  28.439  1.00  0.00     0.039 C 
ATOM     10  G   UNL     1      -7.994  29.483  26.394  1.00  0.00     0.000 G0
ENDBRANCH   6   7
ENDBRANCH   5   6
ENDBRANCH   3   5
ENDBRANCH   1   3
BRANCH   1  11
ATOM     11  C   UNL     1      -9.699  31.700  24.093  1.00  0.00     0.087 C 
BRANCH  11  12
ATOM     12  C   UNL     1      -8.591  30.613  24.096  1.00  0.00     0.066 C 
BRANCH  12  13
ATOM     13  C   UNL     1      -8.852  29.560  25.159  1.00  0.00     0.140 C 
ATOM     14  O   UNL     1      -9.810  28.810  25.046  1.00  0.00    -0.299 OA
BRANCH  13  15
ATOM     15  C   UNL     1      -7.976  29.447  26.389  1.00  0.00     0.106 CG0
ATOM     16  G   UNL     1      -8.661  30.097  27.576  1.00  0.00     0.000 G0
ENDBRANCH  13  15
ENDBRANCH  12  13
BRANCH  12  17
ATOM     17  C   UNL     1      -8.323  29.975  22.694  1.00  0.00    -0.006 C 
ATOM     18  C   UNL     1      -7.158  28.973  22.746  1.00  0.00     0.008 C 
ATOM     19  C   UNL     1      -8.075  30.991  21.563  1.00  0.00     0.008 C 
ENDBRANCH  12  17
ENDBRANCH  11  12
ENDBRANCH   1  11
TORSDOF 1
ENDMDL
