MODEL 1
REMARK VINA RESULT:    -3.532      0.000      0.000
REMARK INTER + INTRA:          -7.934
REMARK INTER:                  -6.010
REMARK INTRA:                  -1.924
REMARK UNBOUND:                -1.924
REMARK SMILES CCCCCCCCCCCCCC(=O)[O-]
REMARK SMILES IDX 8 1 9 2 10 3 11 4 12 5 13 6 14 7 15 8 16 9 7 10 6 11 5 12
REMARK SMILES IDX 4 13 3 14 2 15 1 16
REMARK H PARENT
REMARK Flexibility Score: inf
ROOT
ATOM      1  C   UNL     1     -23.980   6.659  22.525  1.00  0.00     0.000 C 
ENDROOT
BRANCH   1   2
ATOM      2  C   UNL     1     -24.008   5.422  23.438  1.00  0.00     0.000 C 
BRANCH   2   3
ATOM      3  C   UNL     1     -22.617   5.062  23.987  1.00  0.00     0.000 C 
BRANCH   3   4
ATOM      4  C   UNL     1     -22.255   3.587  23.750  1.00  0.00     0.000 C 
BRANCH   4   5
ATOM      5  C   UNL     1     -22.866   3.026  22.455  1.00  0.00     0.006 C 
BRANCH   5   6
ATOM      6  C   UNL     1     -23.189   1.530  22.568  1.00  0.00     0.053 C 
BRANCH   6   7
ATOM      7  C   UNL     1     -22.213   0.691  21.800  1.00  0.00     0.041 C 
ATOM      8  O   UNL     1     -22.499  -0.497  21.498  1.00  0.00    -0.550 OA
ATOM      9  O   UNL     1     -20.972   1.210  21.453  1.00  0.00    -0.550 OA
ENDBRANCH   6   7
ENDBRANCH   5   6
ENDBRANCH   4   5
ENDBRANCH   3   4
ENDBRANCH   2   3
ENDBRANCH   1   2
BRANCH   1  10
ATOM     10  C   UNL     1     -22.563   7.233  22.348  1.00  0.00     0.000 C 
BRANCH  10  11
ATOM     11  C   UNL     1     -22.300   7.720  20.913  1.00  0.00    -0.000 C 
BRANCH  11  12
ATOM     12  C   UNL     1     -21.146   6.961  20.236  1.00  0.00    -0.000 C 
BRANCH  12  13
ATOM     13  C   UNL     1     -21.462   5.473  20.016  1.00  0.00    -0.000 C 
BRANCH  13  14
ATOM     14  C   UNL     1     -20.310   4.554  20.456  1.00  0.00    -0.000 C 
BRANCH  14  15
ATOM     15  C   UNL     1     -19.534   5.117  21.657  1.00  0.00    -0.003 C 
ATOM     16  C   UNL     1     -18.793   4.036  22.445  1.00  0.00     0.004 C 
ENDBRANCH  14  15
ENDBRANCH  13  14
ENDBRANCH  12  13
ENDBRANCH  11  12
ENDBRANCH  10  11
ENDBRANCH   1  10
TORSDOF 12
ENDMDL
MODEL 2
REMARK VINA RESULT:    -3.478      1.416      2.123
REMARK INTER + INTRA:          -7.842
REMARK INTER:                  -6.558
REMARK INTRA:                  -1.283
REMARK UNBOUND:                -1.924
REMARK SMILES CCCCCCCCCCCCCC(=O)[O-]
REMARK SMILES IDX 8 1 9 2 10 3 11 4 12 5 13 6 14 7 15 8 16 9 7 10 6 11 5 12
REMARK SMILES IDX 4 13 3 14 2 15 1 16
REMARK H PARENT
REMARK Flexibility Score: inf
ROOT
ATOM      1  C   UNL     1     -23.113   5.316  23.627  1.00  0.00     0.000 C 
ENDROOT
BRANCH   1   2
ATOM      2  C   UNL     1     -23.805   4.005  24.033  1.00  0.00     0.000 C 
BRANCH   2   3
ATOM      3  C   UNL     1     -22.917   2.771  23.798  1.00  0.00     0.000 C 
BRANCH   3   4
ATOM      4  C   UNL     1     -23.296   2.008  22.519  1.00  0.00     0.000 C 
BRANCH   4   5
ATOM      5  C   UNL     1     -22.857   0.534  22.554  1.00  0.00     0.006 C 
BRANCH   5   6
ATOM      6  C   UNL     1     -21.998   0.156  21.341  1.00  0.00     0.053 C 
BRANCH   6   7
ATOM      7  C   UNL     1     -22.094  -1.306  21.024  1.00  0.00     0.041 C 
ATOM      8  O   UNL     1     -22.368  -1.684  19.855  1.00  0.00    -0.550 OA
ATOM      9  O   UNL     1     -21.918  -2.248  22.029  1.00  0.00    -0.550 OA
ENDBRANCH   6   7
ENDBRANCH   5   6
ENDBRANCH   4   5
ENDBRANCH   3   4
ENDBRANCH   2   3
ENDBRANCH   1   2
BRANCH   1  10
ATOM     10  C   UNL     1     -24.028   6.242  22.806  1.00  0.00     0.000 C 
BRANCH  10  11
ATOM     11  C   UNL     1     -23.252   7.369  22.107  1.00  0.00    -0.000 C 
BRANCH  11  12
ATOM     12  C   UNL     1     -21.785   6.993  21.835  1.00  0.00    -0.000 C 
BRANCH  12  13
ATOM     13  C   UNL     1     -21.413   7.090  20.347  1.00  0.00    -0.000 C 
BRANCH  13  14
ATOM     14  C   UNL     1     -20.915   5.752  19.775  1.00  0.00    -0.000 C 
BRANCH  14  15
ATOM     15  C   UNL     1     -21.335   4.551  20.637  1.00  0.00    -0.003 C 
ATOM     16  C   UNL     1     -20.162   3.635  20.989  1.00  0.00     0.004 C 
ENDBRANCH  14  15
ENDBRANCH  13  14
ENDBRANCH  12  13
ENDBRANCH  11  12
ENDBRANCH  10  11
ENDBRANCH   1  10
TORSDOF 12
ENDMDL
MODEL 3
REMARK VINA RESULT:    -3.468      2.629      5.046
REMARK INTER + INTRA:          -7.825
REMARK INTER:                  -6.120
REMARK INTRA:                  -1.705
REMARK UNBOUND:                -1.924
REMARK SMILES CCCCCCCCCCCCCC(=O)[O-]
REMARK SMILES IDX 8 1 9 2 10 3 11 4 12 5 13 6 14 7 15 8 16 9 7 10 6 11 5 12
REMARK SMILES IDX 4 13 3 14 2 15 1 16
REMARK H PARENT
REMARK Flexibility Score: inf
ROOT
ATOM      1  C   UNL     1     -22.626   4.331  25.098  1.00  0.00     0.000 C 
ENDROOT
BRANCH   1   2
ATOM      2  C   UNL     1     -22.432   5.286  23.910  1.00  0.00     0.000 C 
BRANCH   2   3
ATOM      3  C   UNL     1     -23.734   5.526  23.126  1.00  0.00     0.000 C 
BRANCH   3   4
ATOM      4  C   UNL     1     -23.721   6.853  22.353  1.00  0.00     0.000 C 
BRANCH   4   5
ATOM      5  C   UNL     1     -22.298   7.393  22.124  1.00  0.00     0.006 C 
BRANCH   5   6
ATOM      6  C   UNL     1     -22.057   7.788  20.661  1.00  0.00     0.053 C 
BRANCH   6   7
ATOM      7  C   UNL     1     -21.081   6.869  19.990  1.00  0.00     0.041 C 
ATOM      8  O   UNL     1     -21.325   6.415  18.841  1.00  0.00    -0.550 OA
ATOM      9  O   UNL     1     -19.920   6.486  20.650  1.00  0.00    -0.550 OA
ENDBRANCH   6   7
ENDBRANCH   5   6
ENDBRANCH   4   5
ENDBRANCH   3   4
ENDBRANCH   2   3
ENDBRANCH   1   2
BRANCH   1  10
ATOM     10  C   UNL     1     -23.948   3.547  25.021  1.00  0.00     0.000 C 
BRANCH  10  11
ATOM     11  C   UNL     1     -23.728   2.034  24.869  1.00  0.00    -0.000 C 
BRANCH  11  12
ATOM     12  C   UNL     1     -24.258   1.493  23.530  1.00  0.00    -0.000 C 
BRANCH  12  13
ATOM     13  C   UNL     1     -23.318   1.798  22.352  1.00  0.00    -0.000 C 
BRANCH  13  14
ATOM     14  C   UNL     1     -21.903   1.234  22.566  1.00  0.00    -0.000 C 
BRANCH  14  15
ATOM     15  C   UNL     1     -20.806   2.261  22.245  1.00  0.00    -0.003 C 
ATOM     16  C   UNL     1     -21.268   3.336  21.261  1.00  0.00     0.004 C 
ENDBRANCH  14  15
ENDBRANCH  13  14
ENDBRANCH  12  13
ENDBRANCH  11  12
ENDBRANCH  10  11
ENDBRANCH   1  10
TORSDOF 12
ENDMDL
MODEL 4
REMARK VINA RESULT:    -3.431      1.267      3.113
REMARK INTER + INTRA:          -7.763
REMARK INTER:                  -6.313
REMARK INTRA:                  -1.450
REMARK UNBOUND:                -1.924
REMARK SMILES CCCCCCCCCCCCCC(=O)[O-]
REMARK SMILES IDX 8 1 9 2 10 3 11 4 12 5 13 6 14 7 15 8 16 9 7 10 6 11 5 12
REMARK SMILES IDX 4 13 3 14 2 15 1 16
REMARK H PARENT
REMARK Flexibility Score: inf
ROOT
ATOM      1  C   UNL     1     -20.403   5.835  20.462  1.00  0.00     0.000 C 
ENDROOT
BRANCH   1   2
ATOM      2  C   UNL     1     -20.907   4.387  20.565  1.00  0.00     0.000 C 
BRANCH   2   3
ATOM      3  C   UNL     1     -19.787   3.395  20.925  1.00  0.00     0.000 C 
BRANCH   3   4
ATOM      4  C   UNL     1     -20.328   2.009  21.306  1.00  0.00     0.000 C 
BRANCH   4   5
ATOM      5  C   UNL     1     -21.529   2.082  22.265  1.00  0.00     0.006 C 
BRANCH   5   6
ATOM      6  C   UNL     1     -22.663   1.138  21.846  1.00  0.00     0.053 C 
BRANCH   6   7
ATOM      7  C   UNL     1     -22.209  -0.290  21.796  1.00  0.00     0.041 C 
ATOM      8  O   UNL     1     -22.210  -0.917  20.704  1.00  0.00    -0.550 OA
ATOM      9  O   UNL     1     -21.819  -0.937  22.962  1.00  0.00    -0.550 OA
ENDBRANCH   6   7
ENDBRANCH   5   6
ENDBRANCH   4   5
ENDBRANCH   3   4
ENDBRANCH   2   3
ENDBRANCH   1   2
BRANCH   1  10
ATOM     10  C   UNL     1     -21.339   6.732  19.632  1.00  0.00     0.000 C 
BRANCH  10  11
ATOM     11  C   UNL     1     -21.874   7.928  20.435  1.00  0.00    -0.000 C 
BRANCH  11  12
ATOM     12  C   UNL     1     -22.101   7.587  21.918  1.00  0.00    -0.000 C 
BRANCH  12  13
ATOM     13  C   UNL     1     -23.495   6.999  22.186  1.00  0.00    -0.000 C 
BRANCH  13  14
ATOM     14  C   UNL     1     -23.437   5.678  22.972  1.00  0.00    -0.000 C 
BRANCH  14  15
ATOM     15  C   UNL     1     -22.125   5.516  23.755  1.00  0.00    -0.003 C 
ATOM     16  C   UNL     1     -22.292   4.684  25.027  1.00  0.00     0.004 C 
ENDBRANCH  14  15
ENDBRANCH  13  14
ENDBRANCH  12  13
ENDBRANCH  11  12
ENDBRANCH  10  11
ENDBRANCH   1  10
TORSDOF 12
ENDMDL
MODEL 5
REMARK VINA RESULT:    -3.424      2.644      5.540
REMARK INTER + INTRA:          -7.750
REMARK INTER:                  -6.774
REMARK INTRA:                  -0.977
REMARK UNBOUND:                -1.924
REMARK SMILES CCCCCCCCCCCCCC(=O)[O-]
REMARK SMILES IDX 8 1 9 2 10 3 11 4 12 5 13 6 14 7 15 8 16 9 7 10 6 11 5 12
REMARK SMILES IDX 4 13 3 14 2 15 1 16
REMARK H PARENT
REMARK Flexibility Score: inf
ROOT
ATOM      1  C   UNL     1     -23.745   3.859  24.963  1.00  0.00     0.000 C 
ENDROOT
BRANCH   1   2
ATOM      2  C   UNL     1     -25.093   4.579  24.800  1.00  0.00     0.000 C 
BRANCH   2   3
ATOM      3  C   UNL     1     -25.051   5.675  23.720  1.00  0.00     0.000 C 
BRANCH   3   4
ATOM      4  C   UNL     1     -23.679   5.773  23.035  1.00  0.00     0.000 C 
BRANCH   4   5
ATOM      5  C   UNL     1     -23.509   7.073  22.229  1.00  0.00     0.006 C 
BRANCH   5   6
ATOM      6  C   UNL     1     -22.042   7.347  21.875  1.00  0.00     0.053 C 
BRANCH   6   7
ATOM      7  C   UNL     1     -21.718   6.918  20.475  1.00  0.00     0.041 C 
ATOM      8  O   UNL     1     -21.790   7.743  19.527  1.00  0.00    -0.550 OA
ATOM      9  O   UNL     1     -21.374   5.598  20.215  1.00  0.00    -0.550 OA
ENDBRANCH   6   7
ENDBRANCH   5   6
ENDBRANCH   4   5
ENDBRANCH   3   4
ENDBRANCH   2   3
ENDBRANCH   1   2
BRANCH   1  10
ATOM     10  C   UNL     1     -23.883   2.326  24.930  1.00  0.00     0.000 C 
BRANCH  10  11
ATOM     11  C   UNL     1     -24.303   1.802  23.547  1.00  0.00    -0.000 C 
BRANCH  11  12
ATOM     12  C   UNL     1     -23.249   2.090  22.464  1.00  0.00    -0.000 C 
BRANCH  12  13
ATOM     13  C   UNL     1     -22.336   0.884  22.189  1.00  0.00    -0.000 C 
BRANCH  13  14
ATOM     14  C   UNL     1     -22.877  -0.418  22.802  1.00  0.00    -0.000 C 
BRANCH  14  15
ATOM     15  C   UNL     1     -22.440  -1.665  22.018  1.00  0.00    -0.003 C 
ATOM     16  C   UNL     1     -22.116  -1.362  20.554  1.00  0.00     0.004 C 
ENDBRANCH  14  15
ENDBRANCH  13  14
ENDBRANCH  12  13
ENDBRANCH  11  12
ENDBRANCH  10  11
ENDBRANCH   1  10
TORSDOF 12
ENDMDL
MODEL 6
REMARK VINA RESULT:    -3.375     21.074     23.140
REMARK INTER + INTRA:          -7.666
REMARK INTER:                  -6.012
REMARK INTRA:                  -1.654
REMARK UNBOUND:                -1.924
REMARK SMILES CCCCCCCCCCCCCC(=O)[O-]
REMARK SMILES IDX 8 1 9 2 10 3 11 4 12 5 13 6 14 7 15 8 16 9 7 10 6 11 5 12
REMARK SMILES IDX 4 13 3 14 2 15 1 16
REMARK H PARENT
REMARK Flexibility Score: inf
ROOT
ATOM      1  C   UNL     1      -7.034  -9.375  33.266  1.00  0.00     0.000 C 
ENDROOT
BRANCH   1   2
ATOM      2  C   UNL     1      -6.019  -8.713  32.322  1.00  0.00     0.000 C 
BRANCH   2   3
ATOM      3  C   UNL     1      -5.501  -9.678  31.240  1.00  0.00     0.000 C 
BRANCH   3   4
ATOM      4  C   UNL     1      -5.763 -11.151  31.591  1.00  0.00     0.000 C 
BRANCH   4   5
ATOM      5  C   UNL     1      -6.577 -11.884  30.511  1.00  0.00     0.006 C 
BRANCH   5   6
ATOM      6  C   UNL     1      -7.463 -10.925  29.704  1.00  0.00     0.053 C 
BRANCH   6   7
ATOM      7  C   UNL     1      -8.920 -11.156  29.971  1.00  0.00     0.041 C 
ATOM      8  O   UNL     1      -9.687 -11.511  29.038  1.00  0.00    -0.550 OA
ATOM      9  O   UNL     1      -9.436 -10.943  31.243  1.00  0.00    -0.550 OA
ENDBRANCH   6   7
ENDBRANCH   5   6
ENDBRANCH   4   5
ENDBRANCH   3   4
ENDBRANCH   2   3
ENDBRANCH   1   2
BRANCH   1  10
ATOM     10  C   UNL     1      -6.639  -9.246  34.748  1.00  0.00     0.000 C 
BRANCH  10  11
ATOM     11  C   UNL     1      -5.238  -8.640  34.933  1.00  0.00    -0.000 C 
BRANCH  11  12
ATOM     12  C   UNL     1      -5.183  -7.628  36.090  1.00  0.00    -0.000 C 
BRANCH  12  13
ATOM     13  C   UNL     1      -5.897  -6.307  35.759  1.00  0.00    -0.000 C 
BRANCH  13  14
ATOM     14  C   UNL     1      -5.235  -5.555  34.592  1.00  0.00    -0.000 C 
BRANCH  14  15
ATOM     15  C   UNL     1      -6.198  -5.322  33.419  1.00  0.00    -0.003 C 
ATOM     16  C   UNL     1      -7.645  -5.683  33.757  1.00  0.00     0.004 C 
ENDBRANCH  14  15
ENDBRANCH  13  14
ENDBRANCH  12  13
ENDBRANCH  11  12
ENDBRANCH  10  11
ENDBRANCH   1  10
TORSDOF 12
ENDMDL
MODEL 7
REMARK VINA RESULT:    -3.314      2.342      3.251
REMARK INTER + INTRA:          -7.564
REMARK INTER:                  -5.886
REMARK INTRA:                  -1.678
REMARK UNBOUND:                -1.924
REMARK SMILES CCCCCCCCCCCCCC(=O)[O-]
REMARK SMILES IDX 8 1 9 2 10 3 11 4 12 5 13 6 14 7 15 8 16 9 7 10 6 11 5 12
REMARK SMILES IDX 4 13 3 14 2 15 1 16
REMARK H PARENT
REMARK Flexibility Score: inf
ROOT
ATOM      1  C   UNL     1     -22.630   7.355  22.285  1.00  0.00     0.000 C 
ENDROOT
BRANCH   1   2
ATOM      2  C   UNL     1     -24.009   6.729  22.544  1.00  0.00     0.000 C 
BRANCH   2   3
ATOM      3  C   UNL     1     -23.921   5.415  23.342  1.00  0.00     0.000 C 
BRANCH   3   4
ATOM      4  C   UNL     1     -25.122   5.213  24.278  1.00  0.00     0.000 C 
BRANCH   4   5
ATOM      5  C   UNL     1     -24.712   5.103  25.757  1.00  0.00     0.006 C 
BRANCH   5   6
ATOM      6  C   UNL     1     -23.270   4.603  25.922  1.00  0.00     0.053 C 
BRANCH   6   7
ATOM      7  C   UNL     1     -23.214   3.116  26.099  1.00  0.00     0.041 C 
ATOM      8  O   UNL     1     -22.823   2.622  27.188  1.00  0.00    -0.550 OA
ATOM      9  O   UNL     1     -23.558   2.277  25.046  1.00  0.00    -0.550 OA
ENDBRANCH   6   7
ENDBRANCH   5   6
ENDBRANCH   4   5
ENDBRANCH   3   4
ENDBRANCH   2   3
ENDBRANCH   1   2
BRANCH   1  10
ATOM     10  C   UNL     1     -22.379   7.641  20.793  1.00  0.00     0.000 C 
BRANCH  10  11
ATOM     11  C   UNL     1     -21.145   6.903  20.252  1.00  0.00    -0.000 C 
BRANCH  11  12
ATOM     12  C   UNL     1     -21.449   5.441  19.881  1.00  0.00    -0.000 C 
BRANCH  12  13
ATOM     13  C   UNL     1     -20.554   4.440  20.629  1.00  0.00    -0.000 C 
BRANCH  13  14
ATOM     14  C   UNL     1     -21.362   3.471  21.510  1.00  0.00    -0.000 C 
BRANCH  14  15
ATOM     15  C   UNL     1     -20.892   3.474  22.972  1.00  0.00    -0.003 C 
ATOM     16  C   UNL     1     -20.266   4.805  23.392  1.00  0.00     0.004 C 
ENDBRANCH  14  15
ENDBRANCH  13  14
ENDBRANCH  12  13
ENDBRANCH  11  12
ENDBRANCH  10  11
ENDBRANCH   1  10
TORSDOF 12
ENDMDL
MODEL 8
REMARK VINA RESULT:    -3.288     21.679     23.615
REMARK INTER + INTRA:          -7.519
REMARK INTER:                  -6.217
REMARK INTRA:                  -1.303
REMARK UNBOUND:                -1.924
REMARK SMILES CCCCCCCCCCCCCC(=O)[O-]
REMARK SMILES IDX 8 1 9 2 10 3 11 4 12 5 13 6 14 7 15 8 16 9 7 10 6 11 5 12
REMARK SMILES IDX 4 13 3 14 2 15 1 16
REMARK H PARENT
REMARK Flexibility Score: inf
ROOT
ATOM      1  C   UNL     1      -6.783  -9.374  33.322  1.00  0.00     0.000 C 
ENDROOT
BRANCH   1   2
ATOM      2  C   UNL     1      -6.549  -9.147  34.823  1.00  0.00     0.000 C 
BRANCH   2   3
ATOM      3  C   UNL     1      -5.154  -8.571  35.123  1.00  0.00     0.000 C 
BRANCH   3   4
ATOM      4  C   UNL     1      -5.164  -7.590  36.305  1.00  0.00     0.000 C 
BRANCH   4   5
ATOM      5  C   UNL     1      -5.778  -6.227  35.942  1.00  0.00     0.006 C 
BRANCH   5   6
ATOM      6  C   UNL     1      -5.316  -5.732  34.565  1.00  0.00     0.053 C 
BRANCH   6   7
ATOM      7  C   UNL     1      -6.441  -5.115  33.790  1.00  0.00     0.041 C 
ATOM      8  O   UNL     1      -6.428  -3.884  33.526  1.00  0.00    -0.550 OA
ATOM      9  O   UNL     1      -7.520  -5.894  33.391  1.00  0.00    -0.550 OA
ENDBRANCH   6   7
ENDBRANCH   5   6
ENDBRANCH   4   5
ENDBRANCH   3   4
ENDBRANCH   2   3
ENDBRANCH   1   2
BRANCH   1  10
ATOM     10  C   UNL     1      -5.673  -8.764  32.448  1.00  0.00     0.000 C 
BRANCH  10  11
ATOM     11  C   UNL     1      -5.064  -9.783  31.472  1.00  0.00    -0.000 C 
BRANCH  11  12
ATOM     12  C   UNL     1      -5.360 -11.237  31.878  1.00  0.00    -0.000 C 
BRANCH  12  13
ATOM     13  C   UNL     1      -6.066 -12.032  30.768  1.00  0.00    -0.000 C 
BRANCH  13  14
ATOM     14  C   UNL     1      -7.416 -11.414  30.367  1.00  0.00    -0.000 C 
BRANCH  14  15
ATOM     15  C   UNL     1      -7.436 -10.939  28.906  1.00  0.00    -0.003 C 
ATOM     16  C   UNL     1      -7.500 -12.094  27.907  1.00  0.00     0.004 C 
ENDBRANCH  14  15
ENDBRANCH  13  14
ENDBRANCH  12  13
ENDBRANCH  11  12
ENDBRANCH  10  11
ENDBRANCH   1  10
TORSDOF 12
ENDMDL
MODEL 9
REMARK VINA RESULT:    -3.283      2.763      5.289
REMARK INTER + INTRA:          -7.510
REMARK INTER:                  -6.159
REMARK INTRA:                  -1.350
REMARK UNBOUND:                -1.924
REMARK SMILES CCCCCCCCCCCCCC(=O)[O-]
REMARK SMILES IDX 8 1 9 2 10 3 11 4 12 5 13 6 14 7 15 8 16 9 7 10 6 11 5 12
REMARK SMILES IDX 4 13 3 14 2 15 1 16
REMARK H PARENT
REMARK Flexibility Score: inf
ROOT
ATOM      1  C   UNL     1     -24.194   4.872  23.984  1.00  0.00     0.000 C 
ENDROOT
BRANCH   1   2
ATOM      2  C   UNL     1     -22.711   4.789  24.379  1.00  0.00     0.000 C 
BRANCH   2   3
ATOM      3  C   UNL     1     -21.773   5.282  23.263  1.00  0.00     0.000 C 
BRANCH   3   4
ATOM      4  C   UNL     1     -22.167   4.738  21.881  1.00  0.00     0.000 C 
BRANCH   4   5
ATOM      5  C   UNL     1     -20.954   4.526  20.958  1.00  0.00     0.006 C 
BRANCH   5   6
ATOM      6  C   UNL     1     -20.319   5.853  20.522  1.00  0.00     0.053 C 
BRANCH   6   7
ATOM      7  C   UNL     1     -21.190   6.595  19.553  1.00  0.00     0.041 C 
ATOM      8  O   UNL     1     -21.378   6.141  18.394  1.00  0.00    -0.550 OA
ATOM      9  O   UNL     1     -21.763   7.806  19.920  1.00  0.00    -0.550 OA
ENDBRANCH   6   7
ENDBRANCH   5   6
ENDBRANCH   4   5
ENDBRANCH   3   4
ENDBRANCH   2   3
ENDBRANCH   1   2
BRANCH   1  10
ATOM     10  C   UNL     1     -25.125   4.245  25.037  1.00  0.00     0.000 C 
BRANCH  10  11
ATOM     11  C   UNL     1     -24.690   2.826  25.438  1.00  0.00    -0.000 C 
BRANCH  11  12
ATOM     12  C   UNL     1     -25.077   1.773  24.385  1.00  0.00    -0.000 C 
BRANCH  12  13
ATOM     13  C   UNL     1     -23.858   1.038  23.805  1.00  0.00    -0.000 C 
BRANCH  13  14
ATOM     14  C   UNL     1     -23.517   1.497  22.377  1.00  0.00    -0.000 C 
BRANCH  14  15
ATOM     15  C   UNL     1     -22.132   1.015  21.918  1.00  0.00    -0.003 C 
ATOM     16  C   UNL     1     -22.146  -0.424  21.401  1.00  0.00     0.004 C 
ENDBRANCH  14  15
ENDBRANCH  13  14
ENDBRANCH  12  13
ENDBRANCH  11  12
ENDBRANCH  10  11
ENDBRANCH   1  10
TORSDOF 12
ENDMDL
