MODEL 1
REMARK VINA RESULT:     7.170      0.000      0.000
REMARK INTER + INTRA:           7.728
REMARK INTER:                   7.799
REMARK INTRA:                  -0.071
REMARK UNBOUND:                -0.071
REMARK SMILES CC1(C)CC[C@@]2(C(=O)[O-])CC[C@]3(C)C(=CC[C@H]4[C@@]5(C)CC[C@H](O)C(C)(C)[C@H]5CC[C@]43C)[C@H]2C1
REMARK SMILES IDX 6 1 5 2 10 3 32 4 4 5 11 6 14 7 33 8 2 9 12 10 15 11 1 12
REMARK SMILES IDX 3 13 13 14 30 15 16 16 17 17 29 18 31 19 18 20 28 21 27 22
REMARK SMILES IDX 20 23 19 24 24 25 21 26 22 27 25 28 26 29 7 30 8 31 9 32
REMARK SMILES IDX 23 33
REMARK H PARENT 23 34
REMARK Flexibility Score: inf
ROOT
ATOM      1  C   UNL     1      -7.947  -9.414   6.261  1.00  0.00     0.017 C 
ATOM      2  C   UNL     1      -7.421 -10.882   6.189  1.00  0.00     0.014 C 
ATOM      3  C   UNL     1      -8.625  -9.139   7.656  1.00  0.00     0.014 C 
ATOM      4  C   UNL     1      -6.781  -8.405   5.953  1.00  0.00     0.028 C 
ATOM      5  C   UNL     1      -6.111 -11.124   6.956  1.00  0.00     0.007 C 
ATOM      6  C   UNL     1      -8.212  -7.829   8.361  1.00  0.00     0.013 C 
ATOM      7  C   UNL     1      -7.193  -6.958   6.233  1.00  0.00    -0.064 C 
ATOM      8  C   UNL     1      -5.442  -8.714   6.671  1.00  0.00     0.015 C 
ATOM      9  C   UNL     1      -4.970 -10.178   6.516  1.00  0.00    -0.035 C 
ATOM     10  C   UNL     1      -8.079  -6.576   7.419  1.00  0.00    -0.006 C 
ATOM     11  C   UNL     1      -6.724  -5.993   5.429  1.00  0.00    -0.027 C 
ATOM     12  C   UNL     1      -4.518 -10.464   5.063  1.00  0.00     0.011 C 
ATOM     13  C   UNL     1      -3.754 -10.409   7.443  1.00  0.00     0.011 C 
ATOM     14  C   UNL     1      -9.514  -6.291   6.865  1.00  0.00     0.017 C 
ATOM     15  C   UNL     1      -7.446  -5.278   8.183  1.00  0.00    -0.020 C 
ATOM     16  C   UNL     1      -7.020  -4.547   5.685  1.00  0.00     0.032 C 
ATOM     17  C   UNL     1      -6.792  -4.185   7.181  1.00  0.00     0.006 C 
ATOM     18  C   UNL     1      -8.512  -4.634   9.120  1.00  0.00     0.008 C 
ATOM     19  C   UNL     1      -6.288  -5.749   9.125  1.00  0.00     0.012 C 
ATOM     20  C   UNL     1      -6.911  -2.599   7.577  1.00  0.00    -0.025 C 
ATOM     21  C   UNL     1      -9.172  -3.389   8.533  1.00  0.00     0.005 C 
ATOM     22  C   UNL     1      -8.151  -2.236   8.517  1.00  0.00     0.003 C 
ATOM     23  C   UNL     1      -6.912  -1.662   6.313  1.00  0.00     0.010 C 
ATOM     24  C   UNL     1      -5.610  -2.226   8.360  1.00  0.00     0.012 C 
ATOM     25  C   UNL     1      -8.819  -0.806   8.276  1.00  0.00    -0.006 C 
ATOM     26  C   UNL     1      -8.315  -1.388   5.777  1.00  0.00     0.033 C 
ATOM     27  C   UNL     1      -9.180  -0.582   6.762  1.00  0.00     0.120 C 
ATOM     28  C   UNL     1      -7.866   0.316   8.805  1.00  0.00     0.014 C 
ATOM     29  C   UNL     1     -10.122  -0.640   9.114  1.00  0.00     0.014 C 
ENDROOT
BRANCH   1  30
ATOM     30  C   UNL     1      -9.026  -9.321   5.179  1.00  0.00     0.048 C 
ATOM     31  O   UNL     1     -10.122  -9.932   5.285  1.00  0.00    -0.550 OA
ATOM     32  O   UNL     1      -8.824  -8.506   4.069  1.00  0.00    -0.550 OA
ENDBRANCH   1  30
BRANCH  27  33
ATOM     33  O   UNL     1      -9.121   0.781   6.418  1.00  0.00    -0.393 OA
ATOM     34  H   UNL     1      -9.996   1.020   6.016  1.00  0.00     0.210 HD
ENDBRANCH  27  33
TORSDOF 2
ENDMDL
