MODEL 1
REMARK VINA RESULT:    -4.809      0.000      0.000
REMARK INTER + INTRA:         -15.319
REMARK INTER:                 -12.117
REMARK INTRA:                  -3.201
REMARK UNBOUND:                -3.201
REMARK SMILES CCCCCCCCCCCCCCCCCCCCCCCCCCCC(=O)[O-]
REMARK SMILES IDX 15 1 16 2 17 3 18 4 19 5 20 6 21 7 22 8 23 9 24 10 25 11
REMARK SMILES IDX 26 12 27 13 28 14 29 15 30 16 14 17 13 18 12 19 11 20 10 21
REMARK SMILES IDX 9 22 8 23 7 24 6 25 5 26 4 27 3 28 2 29 1 30
REMARK H PARENT
REMARK Flexibility Score: inf
ROOT
ATOM      1  C   UNL     1      -6.357 -41.229 -15.153  1.00  0.00     0.000 C 
ENDROOT
BRANCH   1   2
ATOM      2  C   UNL     1      -7.278 -40.071 -15.565  1.00  0.00     0.000 C 
BRANCH   2   3
ATOM      3  C   UNL     1      -8.531 -40.598 -16.278  1.00  0.00     0.000 C 
BRANCH   3   4
ATOM      4  C   UNL     1      -9.736 -39.649 -16.151  1.00  0.00     0.000 C 
BRANCH   4   5
ATOM      5  C   UNL     1      -9.390 -38.204 -15.732  1.00  0.00     0.000 C 
BRANCH   5   6
ATOM      6  C   UNL     1      -9.415 -37.172 -16.873  1.00  0.00     0.000 C 
BRANCH   6   7
ATOM      7  C   UNL     1      -9.947 -37.758 -18.193  1.00  0.00     0.000 C 
BRANCH   7   8
ATOM      8  C   UNL     1      -9.060 -37.404 -19.398  1.00  0.00     0.000 C 
BRANCH   8   9
ATOM      9  C   UNL     1      -8.122 -38.557 -19.794  1.00  0.00     0.000 C 
BRANCH   9  10
ATOM     10  C   UNL     1      -6.869 -38.632 -18.906  1.00  0.00     0.000 C 
BRANCH  10  11
ATOM     11  C   UNL     1      -6.010 -39.874 -19.199  1.00  0.00     0.000 C 
BRANCH  11  12
ATOM     12  C   UNL     1      -5.874 -40.164 -20.706  1.00  0.00     0.006 C 
BRANCH  12  13
ATOM     13  C   UNL     1      -4.446 -40.508 -21.160  1.00  0.00     0.053 C 
BRANCH  13  14
ATOM     14  C   UNL     1      -4.098 -41.940 -20.891  1.00  0.00     0.041 C 
ATOM     15  O   UNL     1      -4.429 -42.838 -21.708  1.00  0.00    -0.550 OA
ATOM     16  O   UNL     1      -3.371 -42.276 -19.756  1.00  0.00    -0.550 OA
ENDBRANCH  13  14
ENDBRANCH  12  13
ENDBRANCH  11  12
ENDBRANCH  10  11
ENDBRANCH   9  10
ENDBRANCH   8   9
ENDBRANCH   7   8
ENDBRANCH   6   7
ENDBRANCH   5   6
ENDBRANCH   4   5
ENDBRANCH   3   4
ENDBRANCH   2   3
ENDBRANCH   1   2
BRANCH   1  17
ATOM     17  C   UNL     1      -6.223 -41.363 -13.628  1.00  0.00     0.000 C 
BRANCH  17  18
ATOM     18  C   UNL     1      -6.775 -40.139 -12.876  1.00  0.00     0.000 C 
BRANCH  18  19
ATOM     19  C   UNL     1      -6.748 -40.335 -11.347  1.00  0.00     0.000 C 
BRANCH  19  20
ATOM     20  C   UNL     1      -5.807 -39.364 -10.609  1.00  0.00     0.000 C 
BRANCH  20  21
ATOM     21  C   UNL     1      -6.316 -38.914  -9.223  1.00  0.00     0.000 C 
BRANCH  21  22
ATOM     22  C   UNL     1      -7.844 -38.736  -9.107  1.00  0.00    -0.000 C 
BRANCH  22  23
ATOM     23  C   UNL     1      -8.348 -37.279  -9.147  1.00  0.00    -0.000 C 
BRANCH  23  24
ATOM     24  C   UNL     1      -8.076 -36.583 -10.491  1.00  0.00    -0.000 C 
BRANCH  24  25
ATOM     25  C   UNL     1      -8.081 -35.051 -10.372  1.00  0.00    -0.000 C 
BRANCH  25  26
ATOM     26  C   UNL     1      -6.673 -34.468 -10.176  1.00  0.00    -0.000 C 
BRANCH  26  27
ATOM     27  C   UNL     1      -6.448 -34.059  -8.715  1.00  0.00    -0.000 C 
BRANCH  27  28
ATOM     28  C   UNL     1      -5.610 -35.109  -7.971  1.00  0.00    -0.000 C 
BRANCH  28  29
ATOM     29  C   UNL     1      -4.581 -35.797  -8.881  1.00  0.00    -0.003 C 
ATOM     30  C   UNL     1      -3.180 -35.828  -8.272  1.00  0.00     0.004 C 
ENDBRANCH  28  29
ENDBRANCH  27  28
ENDBRANCH  26  27
ENDBRANCH  25  26
ENDBRANCH  24  25
ENDBRANCH  23  24
ENDBRANCH  22  23
ENDBRANCH  21  22
ENDBRANCH  20  21
ENDBRANCH  19  20
ENDBRANCH  18  19
ENDBRANCH  17  18
ENDBRANCH   1  17
TORSDOF 26
ENDMDL
MODEL 2
REMARK VINA RESULT:    -4.680      2.391      4.937
REMARK INTER + INTRA:         -14.996
REMARK INTER:                 -10.346
REMARK INTRA:                  -4.650
REMARK UNBOUND:                -3.201
REMARK SMILES CCCCCCCCCCCCCCCCCCCCCCCCCCCC(=O)[O-]
REMARK SMILES IDX 15 1 16 2 17 3 18 4 19 5 20 6 21 7 22 8 23 9 24 10 25 11
REMARK SMILES IDX 26 12 27 13 28 14 29 15 30 16 14 17 13 18 12 19 11 20 10 21
REMARK SMILES IDX 9 22 8 23 7 24 6 25 5 26 4 27 3 28 2 29 1 30
REMARK H PARENT
REMARK Flexibility Score: inf
ROOT
ATOM      1  C   UNL     1      -5.293 -41.956 -15.580  1.00  0.00     0.000 C 
ENDROOT
BRANCH   1   2
ATOM      2  C   UNL     1      -6.569 -42.513 -16.228  1.00  0.00     0.000 C 
BRANCH   2   3
ATOM      3  C   UNL     1      -7.617 -41.405 -16.410  1.00  0.00     0.000 C 
BRANCH   3   4
ATOM      4  C   UNL     1      -7.047 -39.997 -16.170  1.00  0.00     0.000 C 
BRANCH   4   5
ATOM      5  C   UNL     1      -8.075 -38.944 -15.705  1.00  0.00     0.000 C 
BRANCH   5   6
ATOM      6  C   UNL     1      -8.395 -37.848 -16.738  1.00  0.00     0.000 C 
BRANCH   6   7
ATOM      7  C   UNL     1      -7.489 -37.918 -17.979  1.00  0.00     0.000 C 
BRANCH   7   8
ATOM      8  C   UNL     1      -8.238 -38.400 -19.232  1.00  0.00     0.000 C 
BRANCH   8   9
ATOM      9  C   UNL     1      -7.382 -39.338 -20.102  1.00  0.00     0.000 C 
BRANCH   9  10
ATOM     10  C   UNL     1      -5.917 -39.399 -19.641  1.00  0.00     0.000 C 
BRANCH  10  11
ATOM     11  C   UNL     1      -5.406 -40.841 -19.485  1.00  0.00     0.000 C 
BRANCH  11  12
ATOM     12  C   UNL     1      -4.216 -41.157 -20.412  1.00  0.00     0.006 C 
BRANCH  12  13
ATOM     13  C   UNL     1      -3.371 -42.364 -19.972  1.00  0.00     0.053 C 
BRANCH  13  14
ATOM     14  C   UNL     1      -3.278 -43.408 -21.042  1.00  0.00     0.041 C 
ATOM     15  O   UNL     1      -3.845 -44.522 -20.892  1.00  0.00    -0.550 OA
ATOM     16  O   UNL     1      -2.601 -43.133 -22.223  1.00  0.00    -0.550 OA
ENDBRANCH  13  14
ENDBRANCH  12  13
ENDBRANCH  11  12
ENDBRANCH  10  11
ENDBRANCH   9  10
ENDBRANCH   8   9
ENDBRANCH   7   8
ENDBRANCH   6   7
ENDBRANCH   5   6
ENDBRANCH   4   5
ENDBRANCH   3   4
ENDBRANCH   2   3
ENDBRANCH   1   2
BRANCH   1  17
ATOM     17  C   UNL     1      -4.068 -42.850 -15.827  1.00  0.00     0.000 C 
BRANCH  17  18
ATOM     18  C   UNL     1      -4.369 -44.015 -16.786  1.00  0.00     0.000 C 
BRANCH  18  19
ATOM     19  C   UNL     1      -3.931 -45.374 -16.205  1.00  0.00     0.000 C 
BRANCH  19  20
ATOM     20  C   UNL     1      -4.988 -46.036 -15.301  1.00  0.00     0.000 C 
BRANCH  20  21
ATOM     21  C   UNL     1      -4.534 -46.247 -13.840  1.00  0.00     0.000 C 
BRANCH  21  22
ATOM     22  C   UNL     1      -5.068 -45.212 -12.828  1.00  0.00    -0.000 C 
BRANCH  22  23
ATOM     23  C   UNL     1      -6.448 -44.611 -13.158  1.00  0.00    -0.000 C 
BRANCH  23  24
ATOM     24  C   UNL     1      -6.732 -43.301 -12.403  1.00  0.00    -0.000 C 
BRANCH  24  25
ATOM     25  C   UNL     1      -8.096 -42.694 -12.770  1.00  0.00    -0.000 C 
BRANCH  25  26
ATOM     26  C   UNL     1      -8.095 -41.159 -12.710  1.00  0.00    -0.000 C 
BRANCH  26  27
ATOM     27  C   UNL     1      -6.681 -40.622 -12.451  1.00  0.00    -0.000 C 
BRANCH  27  28
ATOM     28  C   UNL     1      -6.719 -39.385 -11.540  1.00  0.00    -0.000 C 
BRANCH  28  29
ATOM     29  C   UNL     1      -5.566 -39.362 -10.526  1.00  0.00    -0.003 C 
ATOM     30  C   UNL     1      -5.529 -38.076  -9.701  1.00  0.00     0.004 C 
ENDBRANCH  28  29
ENDBRANCH  27  28
ENDBRANCH  26  27
ENDBRANCH  25  26
ENDBRANCH  24  25
ENDBRANCH  23  24
ENDBRANCH  22  23
ENDBRANCH  21  22
ENDBRANCH  20  21
ENDBRANCH  19  20
ENDBRANCH  18  19
ENDBRANCH  17  18
ENDBRANCH   1  17
TORSDOF 26
ENDMDL
MODEL 3
REMARK VINA RESULT:    -4.669      3.762      7.970
REMARK INTER + INTRA:         -14.967
REMARK INTER:                 -10.844
REMARK INTRA:                  -4.123
REMARK UNBOUND:                -3.201
REMARK SMILES CCCCCCCCCCCCCCCCCCCCCCCCCCCC(=O)[O-]
REMARK SMILES IDX 15 1 16 2 17 3 18 4 19 5 20 6 21 7 22 8 23 9 24 10 25 11
REMARK SMILES IDX 26 12 27 13 28 14 29 15 30 16 14 17 13 18 12 19 11 20 10 21
REMARK SMILES IDX 9 22 8 23 7 24 6 25 5 26 4 27 3 28 2 29 1 30
REMARK H PARENT
REMARK Flexibility Score: inf
ROOT
ATOM      1  C   UNL     1      -4.718 -36.582  -9.312  1.00  0.00     0.000 C 
ENDROOT
BRANCH   1   2
ATOM      2  C   UNL     1      -5.730 -37.735  -9.388  1.00  0.00     0.000 C 
BRANCH   2   3
ATOM      3  C   UNL     1      -5.229 -38.841 -10.327  1.00  0.00     0.000 C 
BRANCH   3   4
ATOM      4  C   UNL     1      -6.090 -40.115 -10.264  1.00  0.00     0.000 C 
BRANCH   4   5
ATOM      5  C   UNL     1      -6.866 -40.316  -8.946  1.00  0.00     0.000 C 
BRANCH   5   6
ATOM      6  C   UNL     1      -7.357 -41.753  -8.693  1.00  0.00     0.000 C 
BRANCH   6   7
ATOM      7  C   UNL     1      -8.586 -42.120  -9.543  1.00  0.00     0.000 C 
BRANCH   7   8
ATOM      8  C   UNL     1      -8.457 -43.501 -10.206  1.00  0.00     0.000 C 
BRANCH   8   9
ATOM      9  C   UNL     1      -7.038 -43.763 -10.743  1.00  0.00     0.000 C 
BRANCH   9  10
ATOM     10  C   UNL     1      -6.368 -44.975 -10.075  1.00  0.00     0.000 C 
BRANCH  10  11
ATOM     11  C   UNL     1      -5.470 -45.762 -11.045  1.00  0.00     0.000 C 
BRANCH  11  12
ATOM     12  C   UNL     1      -5.768 -45.447 -12.524  1.00  0.00     0.006 C 
BRANCH  12  13
ATOM     13  C   UNL     1      -4.586 -45.694 -13.476  1.00  0.00     0.053 C 
BRANCH  13  14
ATOM     14  C   UNL     1      -4.886 -46.762 -14.482  1.00  0.00     0.041 C 
ATOM     15  O   UNL     1      -6.051 -47.229 -14.582  1.00  0.00    -0.550 OA
ATOM     16  O   UNL     1      -3.888 -47.211 -15.337  1.00  0.00    -0.550 OA
ENDBRANCH  13  14
ENDBRANCH  12  13
ENDBRANCH  11  12
ENDBRANCH  10  11
ENDBRANCH   9  10
ENDBRANCH   8   9
ENDBRANCH   7   8
ENDBRANCH   6   7
ENDBRANCH   5   6
ENDBRANCH   4   5
ENDBRANCH   3   4
ENDBRANCH   2   3
ENDBRANCH   1   2
BRANCH   1  17
ATOM     17  C   UNL     1      -5.394 -35.202  -9.324  1.00  0.00     0.000 C 
BRANCH  17  18
ATOM     18  C   UNL     1      -6.349 -35.022 -10.517  1.00  0.00     0.000 C 
BRANCH  18  19
ATOM     19  C   UNL     1      -7.736 -34.509 -10.079  1.00  0.00     0.000 C 
BRANCH  19  20
ATOM     20  C   UNL     1      -8.909 -35.367 -10.590  1.00  0.00     0.000 C 
BRANCH  20  21
ATOM     21  C   UNL     1      -9.419 -36.416  -9.578  1.00  0.00     0.000 C 
BRANCH  21  22
ATOM     22  C   UNL     1      -9.395 -37.877 -10.074  1.00  0.00    -0.000 C 
BRANCH  22  23
ATOM     23  C   UNL     1      -9.405 -38.059 -11.604  1.00  0.00    -0.000 C 
BRANCH  23  24
ATOM     24  C   UNL     1      -9.258 -39.527 -12.038  1.00  0.00    -0.000 C 
BRANCH  24  25
ATOM     25  C   UNL     1      -8.213 -39.710 -13.151  1.00  0.00    -0.000 C 
BRANCH  25  26
ATOM     26  C   UNL     1      -7.835 -41.183 -13.369  1.00  0.00    -0.000 C 
BRANCH  26  27
ATOM     27  C   UNL     1      -6.332 -41.328 -13.641  1.00  0.00    -0.000 C 
BRANCH  27  28
ATOM     28  C   UNL     1      -6.038 -41.293 -15.148  1.00  0.00    -0.000 C 
BRANCH  28  29
ATOM     29  C   UNL     1      -5.577 -42.653 -15.693  1.00  0.00    -0.003 C 
ATOM     30  C   UNL     1      -4.055 -42.777 -15.762  1.00  0.00     0.004 C 
ENDBRANCH  28  29
ENDBRANCH  27  28
ENDBRANCH  26  27
ENDBRANCH  25  26
ENDBRANCH  24  25
ENDBRANCH  23  24
ENDBRANCH  22  23
ENDBRANCH  21  22
ENDBRANCH  20  21
ENDBRANCH  19  20
ENDBRANCH  18  19
ENDBRANCH  17  18
ENDBRANCH   1  17
TORSDOF 26
ENDMDL
MODEL 4
REMARK VINA RESULT:    -4.614      1.369      2.505
REMARK INTER + INTRA:         -14.829
REMARK INTER:                 -11.980
REMARK INTRA:                  -2.849
REMARK UNBOUND:                -3.201
REMARK SMILES CCCCCCCCCCCCCCCCCCCCCCCCCCCC(=O)[O-]
REMARK SMILES IDX 15 1 16 2 17 3 18 4 19 5 20 6 21 7 22 8 23 9 24 10 25 11
REMARK SMILES IDX 26 12 27 13 28 14 29 15 30 16 14 17 13 18 12 19 11 20 10 21
REMARK SMILES IDX 9 22 8 23 7 24 6 25 5 26 4 27 3 28 2 29 1 30
REMARK H PARENT
REMARK Flexibility Score: inf
ROOT
ATOM      1  C   UNL     1      -6.719 -40.725 -14.155  1.00  0.00     0.000 C 
ENDROOT
BRANCH   1   2
ATOM      2  C   UNL     1      -7.104 -40.138 -15.521  1.00  0.00     0.000 C 
BRANCH   2   3
ATOM      3  C   UNL     1      -8.004 -38.906 -15.352  1.00  0.00     0.000 C 
BRANCH   3   4
ATOM      4  C   UNL     1      -8.100 -38.055 -16.630  1.00  0.00     0.000 C 
BRANCH   4   5
ATOM      5  C   UNL     1      -8.011 -38.847 -17.952  1.00  0.00     0.000 C 
BRANCH   5   6
ATOM      6  C   UNL     1      -6.990 -38.304 -18.968  1.00  0.00     0.000 C 
BRANCH   6   7
ATOM      7  C   UNL     1      -5.971 -39.366 -19.414  1.00  0.00     0.000 C 
BRANCH   7   8
ATOM      8  C   UNL     1      -6.466 -40.801 -19.172  1.00  0.00     0.000 C 
BRANCH   8   9
ATOM      9  C   UNL     1      -5.456 -41.642 -18.372  1.00  0.00     0.000 C 
BRANCH   9  10
ATOM     10  C   UNL     1      -5.502 -43.133 -18.745  1.00  0.00     0.000 C 
BRANCH  10  11
ATOM     11  C   UNL     1      -4.405 -43.526 -19.749  1.00  0.00     0.000 C 
BRANCH  11  12
ATOM     12  C   UNL     1      -3.428 -42.372 -20.048  1.00  0.00     0.006 C 
BRANCH  12  13
ATOM     13  C   UNL     1      -3.469 -41.865 -21.498  1.00  0.00     0.053 C 
BRANCH  13  14
ATOM     14  C   UNL     1      -2.959 -42.886 -22.468  1.00  0.00     0.041 C 
ATOM     15  O   UNL     1      -1.963 -43.597 -22.174  1.00  0.00    -0.550 OA
ATOM     16  O   UNL     1      -3.611 -43.081 -23.679  1.00  0.00    -0.550 OA
ENDBRANCH  13  14
ENDBRANCH  12  13
ENDBRANCH  11  12
ENDBRANCH  10  11
ENDBRANCH   9  10
ENDBRANCH   8   9
ENDBRANCH   7   8
ENDBRANCH   6   7
ENDBRANCH   5   6
ENDBRANCH   4   5
ENDBRANCH   3   4
ENDBRANCH   2   3
ENDBRANCH   1   2
BRANCH   1  17
ATOM     17  C   UNL     1      -7.295 -39.918 -12.982  1.00  0.00     0.000 C 
BRANCH  17  18
ATOM     18  C   UNL     1      -6.347 -39.877 -11.770  1.00  0.00     0.000 C 
BRANCH  18  19
ATOM     19  C   UNL     1      -6.808 -40.818 -10.639  1.00  0.00     0.000 C 
BRANCH  19  20
ATOM     20  C   UNL     1      -6.652 -40.222  -9.227  1.00  0.00     0.000 C 
BRANCH  20  21
ATOM     21  C   UNL     1      -6.789 -38.685  -9.167  1.00  0.00     0.000 C 
BRANCH  21  22
ATOM     22  C   UNL     1      -8.011 -38.162  -8.382  1.00  0.00    -0.000 C 
BRANCH  22  23
ATOM     23  C   UNL     1      -9.224 -37.750  -9.240  1.00  0.00    -0.000 C 
BRANCH  23  24
ATOM     24  C   UNL     1      -8.827 -37.185 -10.614  1.00  0.00    -0.000 C 
BRANCH  24  25
ATOM     25  C   UNL     1      -8.997 -35.660 -10.695  1.00  0.00    -0.000 C 
BRANCH  25  26
ATOM     26  C   UNL     1      -8.079 -34.910  -9.718  1.00  0.00    -0.000 C 
BRANCH  26  27
ATOM     27  C   UNL     1      -6.624 -34.940 -10.200  1.00  0.00    -0.000 C 
BRANCH  27  28
ATOM     28  C   UNL     1      -5.670 -34.438  -9.105  1.00  0.00    -0.000 C 
BRANCH  28  29
ATOM     29  C   UNL     1      -4.996 -35.585  -8.336  1.00  0.00    -0.003 C 
ATOM     30  C   UNL     1      -3.480 -35.615  -8.528  1.00  0.00     0.004 C 
ENDBRANCH  28  29
ENDBRANCH  27  28
ENDBRANCH  26  27
ENDBRANCH  25  26
ENDBRANCH  24  25
ENDBRANCH  23  24
ENDBRANCH  22  23
ENDBRANCH  21  22
ENDBRANCH  20  21
ENDBRANCH  19  20
ENDBRANCH  18  19
ENDBRANCH  17  18
ENDBRANCH   1  17
TORSDOF 26
ENDMDL
MODEL 5
REMARK VINA RESULT:    -4.608      3.686      9.065
REMARK INTER + INTRA:         -14.814
REMARK INTER:                 -11.040
REMARK INTRA:                  -3.774
REMARK UNBOUND:                -3.201
REMARK SMILES CCCCCCCCCCCCCCCCCCCCCCCCCCCC(=O)[O-]
REMARK SMILES IDX 15 1 16 2 17 3 18 4 19 5 20 6 21 7 22 8 23 9 24 10 25 11
REMARK SMILES IDX 26 12 27 13 28 14 29 15 30 16 14 17 13 18 12 19 11 20 10 21
REMARK SMILES IDX 9 22 8 23 7 24 6 25 5 26 4 27 3 28 2 29 1 30
REMARK H PARENT
REMARK Flexibility Score: inf
ROOT
ATOM      1  C   UNL     1      -4.949 -43.475 -14.574  1.00  0.00     0.000 C 
ENDROOT
BRANCH   1   2
ATOM      2  C   UNL     1      -6.017 -44.428 -15.132  1.00  0.00     0.000 C 
BRANCH   2   3
ATOM      3  C   UNL     1      -6.730 -45.173 -13.995  1.00  0.00     0.000 C 
BRANCH   3   4
ATOM      4  C   UNL     1      -6.106 -44.899 -12.615  1.00  0.00     0.000 C 
BRANCH   4   5
ATOM      5  C   UNL     1      -7.019 -44.154 -11.620  1.00  0.00     0.000 C 
BRANCH   5   6
ATOM      6  C   UNL     1      -8.221 -43.431 -12.255  1.00  0.00     0.000 C 
BRANCH   6   7
ATOM      7  C   UNL     1      -8.091 -41.900 -12.202  1.00  0.00     0.000 C 
BRANCH   7   8
ATOM      8  C   UNL     1      -6.826 -41.438 -11.460  1.00  0.00     0.000 C 
BRANCH   8   9
ATOM      9  C   UNL     1      -6.416 -40.004 -11.838  1.00  0.00     0.000 C 
BRANCH   9  10
ATOM     10  C   UNL     1      -6.614 -39.008 -10.683  1.00  0.00     0.000 C 
BRANCH  10  11
ATOM     11  C   UNL     1      -5.282 -38.521 -10.087  1.00  0.00     0.000 C 
BRANCH  11  12
ATOM     12  C   UNL     1      -5.349 -37.067  -9.583  1.00  0.00     0.006 C 
BRANCH  12  13
ATOM     13  C   UNL     1      -6.774 -36.552  -9.319  1.00  0.00     0.053 C 
BRANCH  13  14
ATOM     14  C   UNL     1      -7.127 -35.394 -10.200  1.00  0.00     0.041 C 
ATOM     15  O   UNL     1      -6.235 -34.592 -10.582  1.00  0.00    -0.550 OA
ATOM     16  O   UNL     1      -8.435 -35.226 -10.635  1.00  0.00    -0.550 OA
ENDBRANCH  13  14
ENDBRANCH  12  13
ENDBRANCH  11  12
ENDBRANCH  10  11
ENDBRANCH   9  10
ENDBRANCH   8   9
ENDBRANCH   7   8
ENDBRANCH   6   7
ENDBRANCH   5   6
ENDBRANCH   4   5
ENDBRANCH   3   4
ENDBRANCH   2   3
ENDBRANCH   1   2
BRANCH   1  17
ATOM     17  C   UNL     1      -5.332 -41.996 -14.742  1.00  0.00     0.000 C 
BRANCH  17  18
ATOM     18  C   UNL     1      -5.804 -41.666 -16.169  1.00  0.00     0.000 C 
BRANCH  18  19
ATOM     19  C   UNL     1      -7.228 -41.075 -16.188  1.00  0.00     0.000 C 
BRANCH  19  20
ATOM     20  C   UNL     1      -7.370 -39.761 -15.397  1.00  0.00     0.000 C 
BRANCH  20  21
ATOM     21  C   UNL     1      -8.814 -39.434 -14.959  1.00  0.00     0.000 C 
BRANCH  21  22
ATOM     22  C   UNL     1      -9.366 -38.083 -15.462  1.00  0.00    -0.000 C 
BRANCH  22  23
ATOM     23  C   UNL     1      -9.767 -38.041 -16.950  1.00  0.00    -0.000 C 
BRANCH  23  24
ATOM     24  C   UNL     1      -9.313 -36.755 -17.661  1.00  0.00    -0.000 C 
BRANCH  24  25
ATOM     25  C   UNL     1      -7.979 -36.932 -18.403  1.00  0.00    -0.000 C 
BRANCH  25  26
ATOM     26  C   UNL     1      -7.741 -38.381 -18.854  1.00  0.00    -0.000 C 
BRANCH  26  27
ATOM     27  C   UNL     1      -6.242 -38.708 -18.878  1.00  0.00    -0.000 C 
BRANCH  27  28
ATOM     28  C   UNL     1      -5.984 -40.059 -19.563  1.00  0.00    -0.000 C 
BRANCH  28  29
ATOM     29  C   UNL     1      -5.179 -39.918 -20.864  1.00  0.00    -0.003 C 
ATOM     30  C   UNL     1      -4.031 -40.921 -20.961  1.00  0.00     0.004 C 
ENDBRANCH  28  29
ENDBRANCH  27  28
ENDBRANCH  26  27
ENDBRANCH  25  26
ENDBRANCH  24  25
ENDBRANCH  23  24
ENDBRANCH  22  23
ENDBRANCH  21  22
ENDBRANCH  20  21
ENDBRANCH  19  20
ENDBRANCH  18  19
ENDBRANCH  17  18
ENDBRANCH   1  17
TORSDOF 26
ENDMDL
MODEL 6
REMARK VINA RESULT:    -4.581      2.322      3.393
REMARK INTER + INTRA:         -14.745
REMARK INTER:                 -10.833
REMARK INTRA:                  -3.913
REMARK UNBOUND:                -3.201
REMARK SMILES CCCCCCCCCCCCCCCCCCCCCCCCCCCC(=O)[O-]
REMARK SMILES IDX 15 1 16 2 17 3 18 4 19 5 20 6 21 7 22 8 23 9 24 10 25 11
REMARK SMILES IDX 26 12 27 13 28 14 29 15 30 16 14 17 13 18 12 19 11 20 10 21
REMARK SMILES IDX 9 22 8 23 7 24 6 25 5 26 4 27 3 28 2 29 1 30
REMARK H PARENT
REMARK Flexibility Score: inf
ROOT
ATOM      1  C   UNL     1      -7.841 -39.474 -13.543  1.00  0.00     0.000 C 
ENDROOT
BRANCH   1   2
ATOM      2  C   UNL     1      -9.274 -38.981 -13.792  1.00  0.00     0.000 C 
BRANCH   2   3
ATOM      3  C   UNL     1      -9.407 -38.378 -15.198  1.00  0.00     0.000 C 
BRANCH   3   4
ATOM      4  C   UNL     1      -8.245 -38.768 -16.129  1.00  0.00     0.000 C 
BRANCH   4   5
ATOM      5  C   UNL     1      -7.889 -37.721 -17.205  1.00  0.00     0.000 C 
BRANCH   5   6
ATOM      6  C   UNL     1      -8.449 -38.014 -18.609  1.00  0.00     0.000 C 
BRANCH   6   7
ATOM      7  C   UNL     1      -7.562 -38.979 -19.413  1.00  0.00     0.000 C 
BRANCH   7   8
ATOM      8  C   UNL     1      -8.179 -40.381 -19.545  1.00  0.00     0.000 C 
BRANCH   8   9
ATOM      9  C   UNL     1      -7.326 -41.464 -18.860  1.00  0.00     0.000 C 
BRANCH   9  10
ATOM     10  C   UNL     1      -6.022 -40.904 -18.270  1.00  0.00     0.000 C 
BRANCH  10  11
ATOM     11  C   UNL     1      -5.436 -41.806 -17.170  1.00  0.00     0.000 C 
BRANCH  11  12
ATOM     12  C   UNL     1      -6.119 -41.602 -15.804  1.00  0.00     0.006 C 
BRANCH  12  13
ATOM     13  C   UNL     1      -5.285 -42.070 -14.601  1.00  0.00     0.053 C 
BRANCH  13  14
ATOM     14  C   UNL     1      -5.785 -43.364 -14.037  1.00  0.00     0.041 C 
ATOM     15  O   UNL     1      -6.905 -43.415 -13.463  1.00  0.00    -0.550 OA
ATOM     16  O   UNL     1      -5.033 -44.522 -14.182  1.00  0.00    -0.550 OA
ENDBRANCH  13  14
ENDBRANCH  12  13
ENDBRANCH  11  12
ENDBRANCH  10  11
ENDBRANCH   9  10
ENDBRANCH   8   9
ENDBRANCH   7   8
ENDBRANCH   6   7
ENDBRANCH   5   6
ENDBRANCH   4   5
ENDBRANCH   3   4
ENDBRANCH   2   3
ENDBRANCH   1   2
BRANCH   1  17
ATOM     17  C   UNL     1      -7.698 -40.220 -12.207  1.00  0.00     0.000 C 
BRANCH  17  18
ATOM     18  C   UNL     1      -6.368 -39.910 -11.497  1.00  0.00     0.000 C 
BRANCH  18  19
ATOM     19  C   UNL     1      -6.376 -40.364 -10.024  1.00  0.00     0.000 C 
BRANCH  19  20
ATOM     20  C   UNL     1      -7.731 -40.170  -9.318  1.00  0.00     0.000 C 
BRANCH  20  21
ATOM     21  C   UNL     1      -7.742 -39.047  -8.258  1.00  0.00     0.000 C 
BRANCH  21  22
ATOM     22  C   UNL     1      -8.716 -37.884  -8.540  1.00  0.00    -0.000 C 
BRANCH  22  23
ATOM     23  C   UNL     1      -9.217 -37.774  -9.993  1.00  0.00    -0.000 C 
BRANCH  23  24
ATOM     24  C   UNL     1      -8.833 -36.445 -10.665  1.00  0.00    -0.000 C 
BRANCH  24  25
ATOM     25  C   UNL     1      -8.408 -35.373  -9.649  1.00  0.00    -0.000 C 
BRANCH  25  26
ATOM     26  C   UNL     1      -7.281 -34.472 -10.176  1.00  0.00    -0.000 C 
BRANCH  26  27
ATOM     27  C   UNL     1      -6.492 -33.847  -9.019  1.00  0.00    -0.000 C 
BRANCH  27  28
ATOM     28  C   UNL     1      -5.783 -34.927  -8.188  1.00  0.00    -0.000 C 
BRANCH  28  29
ATOM     29  C   UNL     1      -4.618 -35.584  -8.943  1.00  0.00    -0.003 C 
ATOM     30  C   UNL     1      -4.925 -37.018  -9.373  1.00  0.00     0.004 C 
ENDBRANCH  28  29
ENDBRANCH  27  28
ENDBRANCH  26  27
ENDBRANCH  25  26
ENDBRANCH  24  25
ENDBRANCH  23  24
ENDBRANCH  22  23
ENDBRANCH  21  22
ENDBRANCH  20  21
ENDBRANCH  19  20
ENDBRANCH  18  19
ENDBRANCH  17  18
ENDBRANCH   1  17
TORSDOF 26
ENDMDL
MODEL 7
REMARK VINA RESULT:    -4.561      1.644      2.511
REMARK INTER + INTRA:         -14.694
REMARK INTER:                 -10.787
REMARK INTRA:                  -3.908
REMARK UNBOUND:                -3.201
REMARK SMILES CCCCCCCCCCCCCCCCCCCCCCCCCCCC(=O)[O-]
REMARK SMILES IDX 15 1 16 2 17 3 18 4 19 5 20 6 21 7 22 8 23 9 24 10 25 11
REMARK SMILES IDX 26 12 27 13 28 14 29 15 30 16 14 17 13 18 12 19 11 20 10 21
REMARK SMILES IDX 9 22 8 23 7 24 6 25 5 26 4 27 3 28 2 29 1 30
REMARK H PARENT
REMARK Flexibility Score: inf
ROOT
ATOM      1  C   UNL     1      -7.460 -39.781 -14.175  1.00  0.00     0.000 C 
ENDROOT
BRANCH   1   2
ATOM      2  C   UNL     1      -7.268 -41.293 -14.360  1.00  0.00     0.000 C 
BRANCH   2   3
ATOM      3  C   UNL     1      -5.928 -41.594 -15.046  1.00  0.00     0.000 C 
BRANCH   3   4
ATOM      4  C   UNL     1      -5.938 -41.263 -16.549  1.00  0.00     0.000 C 
BRANCH   4   5
ATOM      5  C   UNL     1      -7.186 -41.745 -17.318  1.00  0.00     0.000 C 
BRANCH   5   6
ATOM      6  C   UNL     1      -8.009 -40.629 -17.986  1.00  0.00     0.000 C 
BRANCH   6   7
ATOM      7  C   UNL     1      -7.395 -39.234 -17.783  1.00  0.00     0.000 C 
BRANCH   7   8
ATOM      8  C   UNL     1      -6.918 -38.598 -19.099  1.00  0.00     0.000 C 
BRANCH   8   9
ATOM      9  C   UNL     1      -5.666 -39.291 -19.665  1.00  0.00     0.000 C 
BRANCH   9  10
ATOM     10  C   UNL     1      -5.931 -39.983 -21.012  1.00  0.00     0.000 C 
BRANCH  10  11
ATOM     11  C   UNL     1      -5.509 -41.463 -21.009  1.00  0.00     0.000 C 
BRANCH  11  12
ATOM     12  C   UNL     1      -4.464 -41.784 -19.923  1.00  0.00     0.006 C 
BRANCH  12  13
ATOM     13  C   UNL     1      -4.007 -43.251 -19.896  1.00  0.00     0.053 C 
BRANCH  13  14
ATOM     14  C   UNL     1      -4.812 -44.075 -18.939  1.00  0.00     0.041 C 
ATOM     15  O   UNL     1      -4.392 -44.280 -17.770  1.00  0.00    -0.550 OA
ATOM     16  O   UNL     1      -6.047 -44.581 -19.325  1.00  0.00    -0.550 OA
ENDBRANCH  13  14
ENDBRANCH  12  13
ENDBRANCH  11  12
ENDBRANCH  10  11
ENDBRANCH   9  10
ENDBRANCH   8   9
ENDBRANCH   7   8
ENDBRANCH   6   7
ENDBRANCH   5   6
ENDBRANCH   4   5
ENDBRANCH   3   4
ENDBRANCH   2   3
ENDBRANCH   1   2
BRANCH   1  17
ATOM     17  C   UNL     1      -7.644 -39.384 -12.702  1.00  0.00     0.000 C 
BRANCH  17  18
ATOM     18  C   UNL     1      -6.788 -40.237 -11.749  1.00  0.00     0.000 C 
BRANCH  18  19
ATOM     19  C   UNL     1      -5.838 -39.377 -10.893  1.00  0.00     0.000 C 
BRANCH  19  20
ATOM     20  C   UNL     1      -6.142 -39.424  -9.383  1.00  0.00     0.000 C 
BRANCH  20  21
ATOM     21  C   UNL     1      -7.488 -40.092  -9.025  1.00  0.00     0.000 C 
BRANCH  21  22
ATOM     22  C   UNL     1      -8.447 -39.229  -8.178  1.00  0.00    -0.000 C 
BRANCH  22  23
ATOM     23  C   UNL     1      -8.292 -37.705  -8.344  1.00  0.00    -0.000 C 
BRANCH  23  24
ATOM     24  C   UNL     1      -9.056 -37.149  -9.557  1.00  0.00    -0.000 C 
BRANCH  24  25
ATOM     25  C   UNL     1      -8.132 -36.439 -10.560  1.00  0.00    -0.000 C 
BRANCH  25  26
ATOM     26  C   UNL     1      -7.998 -34.935 -10.278  1.00  0.00    -0.000 C 
BRANCH  26  27
ATOM     27  C   UNL     1      -6.526 -34.505 -10.291  1.00  0.00    -0.000 C 
BRANCH  27  28
ATOM     28  C   UNL     1      -6.072 -34.053  -8.894  1.00  0.00    -0.000 C 
BRANCH  28  29
ATOM     29  C   UNL     1      -5.266 -35.133  -8.156  1.00  0.00    -0.003 C 
ATOM     30  C   UNL     1      -4.629 -36.148  -9.105  1.00  0.00     0.004 C 
ENDBRANCH  28  29
ENDBRANCH  27  28
ENDBRANCH  26  27
ENDBRANCH  25  26
ENDBRANCH  24  25
ENDBRANCH  23  24
ENDBRANCH  22  23
ENDBRANCH  21  22
ENDBRANCH  20  21
ENDBRANCH  19  20
ENDBRANCH  18  19
ENDBRANCH  17  18
ENDBRANCH   1  17
TORSDOF 26
ENDMDL
MODEL 8
REMARK VINA RESULT:    -4.546      3.773      9.662
REMARK INTER + INTRA:         -14.657
REMARK INTER:                 -10.368
REMARK INTRA:                  -4.289
REMARK UNBOUND:                -3.201
REMARK SMILES CCCCCCCCCCCCCCCCCCCCCCCCCCCC(=O)[O-]
REMARK SMILES IDX 15 1 16 2 17 3 18 4 19 5 20 6 21 7 22 8 23 9 24 10 25 11
REMARK SMILES IDX 26 12 27 13 28 14 29 15 30 16 14 17 13 18 12 19 11 20 10 21
REMARK SMILES IDX 9 22 8 23 7 24 6 25 5 26 4 27 3 28 2 29 1 30
REMARK H PARENT
REMARK Flexibility Score: inf
ROOT
ATOM      1  C   UNL     1      -6.050 -39.055 -19.499  1.00  0.00     0.000 C 
ENDROOT
BRANCH   1   2
ATOM      2  C   UNL     1      -7.355 -39.116 -18.693  1.00  0.00     0.000 C 
BRANCH   2   3
ATOM      3  C   UNL     1      -7.655 -37.761 -18.035  1.00  0.00     0.000 C 
BRANCH   3   4
ATOM      4  C   UNL     1      -8.327 -37.901 -16.658  1.00  0.00     0.000 C 
BRANCH   4   5
ATOM      5  C   UNL     1      -7.721 -38.983 -15.740  1.00  0.00     0.000 C 
BRANCH   5   6
ATOM      6  C   UNL     1      -8.684 -40.120 -15.352  1.00  0.00     0.000 C 
BRANCH   6   7
ATOM      7  C   UNL     1      -8.094 -41.063 -14.289  1.00  0.00     0.000 C 
BRANCH   7   8
ATOM      8  C   UNL     1      -6.726 -40.590 -13.772  1.00  0.00     0.000 C 
BRANCH   8   9
ATOM      9  C   UNL     1      -6.604 -40.712 -12.243  1.00  0.00     0.000 C 
BRANCH   9  10
ATOM     10  C   UNL     1      -6.628 -39.347 -11.536  1.00  0.00     0.000 C 
BRANCH  10  11
ATOM     11  C   UNL     1      -5.719 -39.306 -10.297  1.00  0.00     0.000 C 
BRANCH  11  12
ATOM     12  C   UNL     1      -6.016 -38.107  -9.377  1.00  0.00     0.006 C 
BRANCH  12  13
ATOM     13  C   UNL     1      -5.003 -36.956  -9.487  1.00  0.00     0.053 C 
BRANCH  13  14
ATOM     14  C   UNL     1      -5.675 -35.625  -9.635  1.00  0.00     0.041 C 
ATOM     15  O   UNL     1      -5.255 -34.628  -8.992  1.00  0.00    -0.550 OA
ATOM     16  O   UNL     1      -6.740 -35.479 -10.514  1.00  0.00    -0.550 OA
ENDBRANCH  13  14
ENDBRANCH  12  13
ENDBRANCH  11  12
ENDBRANCH  10  11
ENDBRANCH   9  10
ENDBRANCH   8   9
ENDBRANCH   7   8
ENDBRANCH   6   7
ENDBRANCH   5   6
ENDBRANCH   4   5
ENDBRANCH   3   4
ENDBRANCH   2   3
ENDBRANCH   1   2
BRANCH   1  17
ATOM     17  C   UNL     1      -6.163 -39.759 -20.860  1.00  0.00     0.000 C 
BRANCH  17  18
ATOM     18  C   UNL     1      -4.797 -40.206 -21.410  1.00  0.00     0.000 C 
BRANCH  18  19
ATOM     19  C   UNL     1      -3.980 -40.996 -20.367  1.00  0.00     0.000 C 
BRANCH  19  20
ATOM     20  C   UNL     1      -3.518 -42.382 -20.856  1.00  0.00     0.000 C 
BRANCH  20  21
ATOM     21  C   UNL     1      -4.058 -43.564 -20.023  1.00  0.00     0.000 C 
BRANCH  21  22
ATOM     22  C   UNL     1      -5.404 -44.148 -20.501  1.00  0.00    -0.000 C 
BRANCH  22  23
ATOM     23  C   UNL     1      -6.533 -44.160 -19.452  1.00  0.00    -0.000 C 
BRANCH  23  24
ATOM     24  C   UNL     1      -6.866 -42.761 -18.907  1.00  0.00    -0.000 C 
BRANCH  24  25
ATOM     25  C   UNL     1      -6.682 -42.663 -17.384  1.00  0.00    -0.000 C 
BRANCH  25  26
ATOM     26  C   UNL     1      -5.469 -41.809 -16.988  1.00  0.00    -0.000 C 
BRANCH  26  27
ATOM     27  C   UNL     1      -4.352 -42.681 -16.402  1.00  0.00    -0.000 C 
BRANCH  27  28
ATOM     28  C   UNL     1      -4.799 -44.147 -16.289  1.00  0.00    -0.000 C 
BRANCH  28  29
ATOM     29  C   UNL     1      -4.691 -44.689 -14.856  1.00  0.00    -0.003 C 
ATOM     30  C   UNL     1      -5.625 -43.972 -13.881  1.00  0.00     0.004 C 
ENDBRANCH  28  29
ENDBRANCH  27  28
ENDBRANCH  26  27
ENDBRANCH  25  26
ENDBRANCH  24  25
ENDBRANCH  23  24
ENDBRANCH  22  23
ENDBRANCH  21  22
ENDBRANCH  20  21
ENDBRANCH  19  20
ENDBRANCH  18  19
ENDBRANCH  17  18
ENDBRANCH   1  17
TORSDOF 26
ENDMDL
MODEL 9
REMARK VINA RESULT:    -4.453      4.007      9.740
REMARK INTER + INTRA:         -14.424
REMARK INTER:                 -11.235
REMARK INTRA:                  -3.189
REMARK UNBOUND:                -3.201
REMARK SMILES CCCCCCCCCCCCCCCCCCCCCCCCCCCC(=O)[O-]
REMARK SMILES IDX 15 1 16 2 17 3 18 4 19 5 20 6 21 7 22 8 23 9 24 10 25 11
REMARK SMILES IDX 26 12 27 13 28 14 29 15 30 16 14 17 13 18 12 19 11 20 10 21
REMARK SMILES IDX 9 22 8 23 7 24 6 25 5 26 4 27 3 28 2 29 1 30
REMARK H PARENT
REMARK Flexibility Score: inf
ROOT
ATOM      1  C   UNL     1      -7.448 -39.737 -13.654  1.00  0.00     0.000 C 
ENDROOT
BRANCH   1   2
ATOM      2  C   UNL     1      -6.408 -40.824 -13.345  1.00  0.00     0.000 C 
BRANCH   2   3
ATOM      3  C   UNL     1      -7.055 -42.217 -13.352  1.00  0.00     0.000 C 
BRANCH   3   4
ATOM      4  C   UNL     1      -7.136 -42.846 -11.950  1.00  0.00     0.000 C 
BRANCH   4   5
ATOM      5  C   UNL     1      -8.326 -42.375 -11.088  1.00  0.00     0.000 C 
BRANCH   5   6
ATOM      6  C   UNL     1      -8.075 -42.389  -9.569  1.00  0.00     0.000 C 
BRANCH   6   7
ATOM      7  C   UNL     1      -6.733 -41.745  -9.182  1.00  0.00     0.000 C 
BRANCH   7   8
ATOM      8  C   UNL     1      -6.818 -40.213  -9.083  1.00  0.00     0.000 C 
BRANCH   8   9
ATOM      9  C   UNL     1      -5.944 -39.508 -10.135  1.00  0.00     0.000 C 
BRANCH   9  10
ATOM     10  C   UNL     1      -6.126 -37.982 -10.129  1.00  0.00     0.000 C 
BRANCH  10  11
ATOM     11  C   UNL     1      -4.991 -37.253  -9.390  1.00  0.00     0.000 C 
BRANCH  11  12
ATOM     12  C   UNL     1      -5.159 -35.722  -9.398  1.00  0.00     0.006 C 
BRANCH  12  13
ATOM     13  C   UNL     1      -6.065 -35.188 -10.520  1.00  0.00     0.053 C 
BRANCH  13  14
ATOM     14  C   UNL     1      -7.280 -34.497  -9.984  1.00  0.00     0.041 C 
ATOM     15  O   UNL     1      -8.428 -34.841 -10.370  1.00  0.00    -0.550 OA
ATOM     16  O   UNL     1      -7.146 -33.500  -9.025  1.00  0.00    -0.550 OA
ENDBRANCH  13  14
ENDBRANCH  12  13
ENDBRANCH  11  12
ENDBRANCH  10  11
ENDBRANCH   9  10
ENDBRANCH   8   9
ENDBRANCH   7   8
ENDBRANCH   6   7
ENDBRANCH   5   6
ENDBRANCH   4   5
ENDBRANCH   3   4
ENDBRANCH   2   3
ENDBRANCH   1   2
BRANCH   1  17
ATOM     17  C   UNL     1      -7.758 -39.626 -15.155  1.00  0.00     0.000 C 
BRANCH  17  18
ATOM     18  C   UNL     1      -8.928 -38.671 -15.448  1.00  0.00     0.000 C 
BRANCH  18  19
ATOM     19  C   UNL     1      -9.163 -38.486 -16.961  1.00  0.00     0.000 C 
BRANCH  19  20
ATOM     20  C   UNL     1      -8.366 -37.322 -17.579  1.00  0.00     0.000 C 
BRANCH  20  21
ATOM     21  C   UNL     1      -7.100 -37.754 -18.350  1.00  0.00     0.000 C 
BRANCH  21  22
ATOM     22  C   UNL     1      -7.193 -39.125 -19.054  1.00  0.00    -0.000 C 
BRANCH  22  23
ATOM     23  C   UNL     1      -5.857 -39.704 -19.559  1.00  0.00    -0.000 C 
BRANCH  23  24
ATOM     24  C   UNL     1      -5.743 -41.224 -19.354  1.00  0.00    -0.000 C 
BRANCH  24  25
ATOM     25  C   UNL     1      -6.514 -41.712 -18.117  1.00  0.00    -0.000 C 
BRANCH  25  26
ATOM     26  C   UNL     1      -5.682 -41.623 -16.829  1.00  0.00    -0.000 C 
BRANCH  26  27
ATOM     27  C   UNL     1      -4.357 -42.380 -16.979  1.00  0.00    -0.000 C 
BRANCH  27  28
ATOM     28  C   UNL     1      -4.055 -43.216 -15.726  1.00  0.00    -0.000 C 
BRANCH  28  29
ATOM     29  C   UNL     1      -4.542 -44.668 -15.852  1.00  0.00    -0.003 C 
ATOM     30  C   UNL     1      -5.239 -45.170 -14.588  1.00  0.00     0.004 C 
ENDBRANCH  28  29
ENDBRANCH  27  28
ENDBRANCH  26  27
ENDBRANCH  25  26
ENDBRANCH  24  25
ENDBRANCH  23  24
ENDBRANCH  22  23
ENDBRANCH  21  22
ENDBRANCH  20  21
ENDBRANCH  19  20
ENDBRANCH  18  19
ENDBRANCH  17  18
ENDBRANCH   1  17
TORSDOF 26
ENDMDL
